data_PCOD9187685
_publ_section_title
;
Structure prediction by ZEFSAII (Michael W. Deem and Ramdas Pophale) SiO2 
 PCOD9187685
Probable space group: C 2/M
;
_chemical_formula_sum "Si O2"
_cell_formula_units_Z 40
_cell_length_a 9.144784
_cell_length_b 19.359727
_cell_length_c 9.831337
_cell_angle_alpha 90.000000
_cell_angle_beta 103.696739
_cell_angle_gamma 90.000000
_cell_volume 1691.048453
_symmetry_space_group_name_H-M "C 2/M"
_symmetry_group_IT_number 12
_symmetry_cell_setting 'monoclinic'
loop_
_space_group_symop_operation_xyz
x,y,z
-x,y,-z
-x,-y,-z
x,-y,z
1/2+x,1/2+y,z
1/2-x,1/2+y,-z
1/2-x,1/2-y,-z
1/2+x,1/2-y,z
loop_
_atom_site_type_symbol
_atom_site_label
_atom_site_fract_x
_atom_site_fract_y
_atom_site_fract_z
Si Si1 0.422233 0.818004 0.248678
Si Si2 0.597929 0.718225 0.145309
Si Si3 0.281995 0.921940 0.434975
Si Si4 0.484534 0.579455 0.221190
Si Si5 0.148824 0.421191 0.229576
O O1 0.548688 0.757929 0.272967
O O2 0.274625 0.779010 0.164422
O O3 0.362471 0.861669 0.365711
O O4 0.503243 0.875044 0.172560
O O5 0.559385 0.637472 0.146546
O O6 0.500000 0.746743 0.000000
O O7 0.324614 0.917016 0.601359
O O8 0.101198 0.918747 0.374451
O O9 0.326580 0.000000 0.396253
O O10 0.487341 0.500000 0.173338
O O11 0.311172 0.599385 0.206148
O O12 0.121280 0.500000 0.185076
#
# Coordination Sequence:
#
# PCOD9187685 Si02
#       5
#     8   8   8   8   8
#     4  11  22  37  58  83 110 147 192 229 274 337
#     4  11  24  42  60  77 107 149 191 241 291 326
#     4   9  18  35  60  88 119 152 180 218 275 334
#     4   9  19  37  61  88 114 144 187 230 274 335
#     4  10  19  35  60  89 121 150 178 220 275 335
#
# _framework density 23.653964999999999
#
# number of rings (size 3 to 8) (size 9 to 14) (size 15 to 20)
#    0.000    2.000    0.000    3.600    0.000    5.200 
#    0.000   18.000    0.000    4.800    0.000    0.000 
#    0.000    0.000    0.000    0.000    0.000    0.000 
#
# Total GULP energy -111548.206131 kJ/mol
# GULP energy per Si atom -5577.410307 kJ/mol
# Density = 2.360013 g / cm^3
# Si number density = 23.653965 Si / 1000 Ang^3
#
#
#
# Elastic Constant Matrix: (Units=GPa)
#
#
# Indices 1 2 3 4 5 6 
#
# 1 153.1968 26.3294 -7.8360 0.0000 6.8690 0.0000
# 2 26.3294 81.0422 3.8282 0.0000 -1.5957 0.0000
# 3 -7.8360 3.8282 29.1360 0.0000 -0.0853 0.0000
# 4 0.0000 0.0000 0.0000 14.6439 0.0000 -1.1930
# 5 6.8690 -1.5957 -0.0853 0.0000 13.2452 0.0000
# 6 0.0000 0.0000 0.0000 -1.1930 0.0000 36.6699
#
#
#
# Elastic Compliance Matrix: (Units=1/GPa)
#
#
# Indices 1 2 3 4 5 6 
#
# 1 0.007264 -0.002547 0.002276 0.000000 -0.004059 0.000000
# 2 -0.002547 0.013339 -0.002429 0.000000 0.002912 0.000000
# 3 0.002276 -0.002429 0.035250 0.000000 -0.001246 0.000000
# 4 0.000000 0.000000 0.000000 0.068469 0.000000 0.002228
# 5 -0.004059 0.002912 -0.001246 0.000000 0.077947 0.000000
# 6 0.000000 0.000000 0.000000 0.002228 0.000000 0.027343
#
#
# Mechanical properties :
#
#
# Convention : Reuss Voigt Hill
#
# Bulk Modulus (GPa) = 19.82080 34.22423 27.02252
# Shear Modulus (GPa) = 19.85475 28.98204 24.41839
#
# Velocity S-wave (km/s) = 2.90035 3.50416 3.21645
# Velocity P-wave (km/s) = 4.42874 5.55628 5.02424
#
# Compressibility (1/GPa) = 0.05045205
#
# Stress axis : x y z
#
# Youngs Moduli (GPa) = 137.66903 74.96854 28.36912
#
# Poissons Ratio (x) = 0.19097 -0.06458
# Poissons Ratio (y) = 0.35069 0.06891
# Poissons Ratio (z) = -0.31339 0.18211
#
# Static dielectric constant tensor:
#      x y z
#    x 1.881840 0.000000 0.058570 
#    y 0.000000 1.934530 0.000000 
#    z 0.058570 0.000000 1.961230 
# 
# From -- ./inp_files/119028.got.cif
#   From: 2010.05.17/outbox.cif.g08.bks.cpg/sg12_60_cif.got.tgz:119028.got - 2010.06.03 13:09:07.
