data_PCOD9187450
_publ_section_title
;
Structure prediction by ZEFSAII (Michael W. Deem and Ramdas Pophale) SiO2 
 PCOD9187450
Probable space group: C 2/M
;
_chemical_formula_sum "Si O2"
_cell_formula_units_Z 48
_cell_length_a 20.729544
_cell_length_b 8.624793
_cell_length_c 19.757440
_cell_angle_alpha 90.000000
_cell_angle_beta 49.418561
_cell_angle_gamma 90.000000
_cell_volume 2682.789733
_symmetry_space_group_name_H-M "C 2/M"
_symmetry_group_IT_number 12
_symmetry_cell_setting 'monoclinic'
loop_
_space_group_symop_operation_xyz
x,y,z
-x,y,-z
-x,-y,-z
x,-y,z
1/2+x,1/2+y,z
1/2-x,1/2+y,-z
1/2-x,1/2-y,-z
1/2+x,1/2-y,z
loop_
_atom_site_type_symbol
_atom_site_label
_atom_site_fract_x
_atom_site_fract_y
_atom_site_fract_z
Si Si1 0.096291 0.188242 0.428957
Si Si2 0.253749 0.313261 0.573138
Si Si3 0.532309 0.814948 0.054016
Si Si4 0.780652 0.184146 0.050371
Si Si5 0.632510 0.685250 0.769232
Si Si6 0.226294 0.813734 0.226182
O O1 0.159460 0.234478 0.446805
O O2 0.143927 0.230635 0.326727
O O3 0.000000 0.246052 0.500000
O O4 0.093273 0.000000 0.432471
O O5 0.250145 0.500000 0.575740
O O6 0.250000 0.250000 0.500000
O O7 0.176942 0.247941 0.671023
O O8 0.460162 0.754388 0.153951
O O9 0.542247 0.000000 0.053445
O O10 0.500000 0.781201 0.000000
O O11 0.622029 0.734505 0.004768
O O12 0.727656 0.254278 0.149086
O O13 0.773409 0.000000 0.056131
O O14 0.750000 0.250000 0.000000
O O15 0.629601 0.500000 0.770711
O O16 0.693372 0.743343 0.788615
O O17 0.234539 0.000000 0.221629
#
# Coordination Sequence:
#
# PCOD9187450 Si02
#       6
#     8   8   8   8   8   8
#     4   8  16  33  58  84 108 143 188 234 281 337
#     4  10  20  36  58  83 117 151 188 239 296 346
#     4  11  22  38  63  89 117 149 192 244 293 344
#     4  12  25  41  60  84 119 157 196 238 293 350
#     4  11  21  35  59  88 116 151 197 237 286 351
#     4  10  19  35  59  85 115 151 192 240 293 343
#
# _framework density 17.891822999999999
#
# number of rings (size 3 to 8) (size 9 to 14) (size 15 to 20)
#    0.000    1.667    1.667    5.500    0.000    0.667 
#    3.000    0.000    0.000   17.000    0.000    0.000 
#    0.000    0.000    0.000    0.000    0.000    0.000 
#
# Total GULP energy -134058.414305 kJ/mol
# GULP energy per Si atom -5585.767263 kJ/mol
# Density = 1.785110 g / cm^3
# Si number density = 17.891823 Si / 1000 Ang^3
#
#
#
# Elastic Constant Matrix: (Units=GPa)
#
#
# Indices 1 2 3 4 5 6 
#
# 1 70.0289 20.3908 66.7496 -0.0001 5.8378 0.0006
# 2 20.3908 67.3819 24.1748 0.0000 7.7133 0.0008
# 3 66.7496 24.1748 144.4759 0.0000 9.5665 0.0003
# 4 -0.0001 0.0000 0.0000 27.6278 0.0000 8.8422
# 5 5.8378 7.7133 9.5665 0.0000 39.1601 -0.0001
# 6 0.0006 0.0008 0.0003 8.8422 -0.0001 21.3765
#
#
#
# Elastic Compliance Matrix: (Units=1/GPa)
#
#
# Indices 1 2 3 4 5 6 
#
# 1 0.026427 -0.003812 -0.011547 0.000000 -0.000368 -0.000001
# 2 -0.003812 0.016584 -0.000849 0.000000 -0.002491 -0.000001
# 3 -0.011547 -0.000849 0.012475 0.000000 -0.001159 0.000000
# 4 0.000000 0.000000 0.000000 0.041718 0.000000 -0.017256
# 5 -0.000368 -0.002491 -0.001159 0.000000 0.026365 0.000000
# 6 -0.000001 -0.000001 0.000000 -0.017256 0.000000 0.053918
#
#
# Mechanical properties :
#
#
# Convention : Reuss Voigt Hill
#
# Bulk Modulus (GPa) = 43.34669 56.05744 49.70206
# Shear Modulus (GPa) = 22.97851 29.00431 25.99141
#
# Velocity S-wave (km/s) = 3.58760 4.03065 3.81556
# Velocity P-wave (km/s) = 6.43746 7.28429 6.87393
#
# Compressibility (1/GPa) = 0.02306981
#
# Stress axis : x y z
#
# Youngs Moduli (GPa) = 37.83980 60.29881 80.15787
#
# Poissons Ratio (x) = 0.22988 0.92562
# Poissons Ratio (y) = 0.14426 0.06803
# Poissons Ratio (z) = 0.43695 0.05118
#
# Static dielectric constant tensor:
#      x y z
#    x 1.714180 0.000000 -0.056980 
#    y 0.000000 1.597750 0.000000 
#    z -0.056980 0.000000 1.631030 
# 
# From -- ./inp_files/280801.got.cif
#   From: 2010.05.17/outbox.cif.g08.bks.cpg/sg12_141_cif.got.tgz:280801.got - 2010.06.03 13:09:07.
