data_PCOD9187946
_publ_section_title
;
Structure prediction by ZEFSAII (Michael W. Deem and Ramdas Pophale) SiO2 
 PCOD9187946
Probable space group: C 2/M
;
_chemical_formula_sum "Si O2"
_cell_formula_units_Z 48
_cell_length_a 23.369952
_cell_length_b 13.335566
_cell_length_c 12.530803
_cell_angle_alpha 90.000000
_cell_angle_beta 29.910573
_cell_angle_gamma 90.000000
_cell_volume 1947.340959
_symmetry_space_group_name_H-M "C 2/M"
_symmetry_group_IT_number 12
_symmetry_cell_setting 'monoclinic'
loop_
_space_group_symop_operation_xyz
x,y,z
-x,y,-z
-x,-y,-z
x,-y,z
1/2+x,1/2+y,z
1/2-x,1/2+y,-z
1/2-x,1/2-y,-z
1/2+x,1/2-y,z
loop_
_atom_site_type_symbol
_atom_site_label
_atom_site_fract_x
_atom_site_fract_y
_atom_site_fract_z
Si Si1 0.147475 0.119464 0.577214
Si Si2 0.100879 0.620549 0.756471
Si Si3 0.749244 0.302810 0.209154
Si Si4 0.108120 0.884862 0.007436
Si Si5 0.088422 0.191741 0.274825
Si Si6 0.528096 0.114010 0.243121
O O1 0.269534 0.152660 0.427624
O O2 0.159404 0.151254 0.435270
O O3 0.020035 0.146590 0.823374
O O4 0.146338 0.000000 0.586618
O O5 0.099938 0.500000 0.769194
O O6 0.070291 0.639555 0.682804
O O7 0.000000 0.656683 0.000000
O O8 0.695280 0.288648 0.180080
O O9 0.799964 0.198789 0.172469
O O10 0.856585 0.376441 0.015383
O O11 0.108437 0.873294 0.136524
O O12 0.131966 0.000000 0.938039
O O13 0.040031 0.299240 0.311306
O O14 0.000000 0.142588 0.500000
O O15 0.515766 0.000000 0.302681
#
# Coordination Sequence:
#
# PCOD9187946 Si02
#       6
#     8   8   8   8   8   8
#     4  10  19  35  63  92 118 151 195 247 299 351
#     4   9  16  30  56  89 116 142 190 247 296 349
#     4  11  21  36  58  83 123 152 194 247 293 350
#     4  10  22  38  58  85 116 157 201 240 294 351
#     4  11  23  38  55  82 120 157 202 246 285 355
#     4  10  20  35  58  86 115 151 190 241 304 349
#
# _framework density 24.648997000000001
#
# number of rings (size 3 to 8) (size 9 to 14) (size 15 to 20)
#    0.000    1.833    3.333    2.500    0.000    4.000 
#    0.000    3.333    3.667    0.000    0.000    9.333 
#    0.000    0.000    0.000    0.000    0.000    0.000 
#
# Total GULP energy -134178.293771 kJ/mol
# GULP energy per Si atom -5590.762240 kJ/mol
# Density = 2.459290 g / cm^3
# Si number density = 24.648997 Si / 1000 Ang^3
#
#
#
# Elastic Constant Matrix: (Units=GPa)
#
#
# Indices 1 2 3 4 5 6 
#
# 1 119.8434 12.5664 27.0883 0.0000 -43.5957 0.0000
# 2 12.5664 90.8481 -0.3904 0.0000 -5.7570 0.0000
# 3 27.0883 -0.3904 66.4052 0.0000 -23.3766 0.0000
# 4 0.0000 0.0000 0.0000 21.4176 0.0000 -0.7331
# 5 -43.5957 -5.7570 -23.3766 0.0000 45.5124 0.0000
# 6 0.0000 0.0000 0.0000 -0.7331 0.0000 19.3543
#
#
#
# Elastic Compliance Matrix: (Units=1/GPa)
#
#
# Indices 1 2 3 4 5 6 
#
# 1 0.012974 -0.001059 -0.001185 0.000000 0.011685 0.000000
# 2 -0.001059 0.011208 0.000781 0.000000 0.000804 0.000000
# 3 -0.001185 0.000781 0.018533 0.000000 0.008483 0.000000
# 4 0.000000 0.000000 0.000000 0.046751 0.000000 0.001771
# 5 0.011685 0.000804 0.008483 0.000000 0.037623 0.000000
# 6 0.000000 0.000000 0.000000 0.001771 0.000000 0.051735
#
#
# Mechanical properties :
#
#
# Convention : Reuss Voigt Hill
#
# Bulk Modulus (GPa) = 25.13273 39.51392 32.32333
# Shear Modulus (GPa) = 25.63914 33.11236 29.37575
#
# Velocity S-wave (km/s) = 3.22866 3.66916 3.45594
# Velocity P-wave (km/s) = 4.91095 5.83230 5.39134
#
# Compressibility (1/GPa) = 0.03978875
#
# Stress axis : x y z
#
# Youngs Moduli (GPa) = 77.07890 89.22017 53.95684
#
# Poissons Ratio (x) = 0.09450 0.06395
# Poissons Ratio (y) = 0.08164 -0.04215
# Poissons Ratio (z) = 0.09135 -0.06969
#
# Static dielectric constant tensor:
#      x y z
#    x 1.985280 0.000000 -0.056440 
#    y 0.000000 1.935590 0.000000 
#    z -0.056440 0.000000 2.057710 
# 
# From -- ./inp_files/240595.got.cif
#   From: 2010.05.17/outbox.cif.g08.bks.cpg/sg12_121_cif.got.tgz:240595.got - 2010.06.03 13:09:07.
