data_PCOD9187795
_publ_section_title
;
Structure prediction by ZEFSAII (Michael W. Deem and Ramdas Pophale) SiO2 
 PCOD9187795
Probable space group: C 2/M
;
_chemical_formula_sum "Si O2"
_cell_formula_units_Z 64
_cell_length_a 26.339552
_cell_length_b 14.775393
_cell_length_c 8.956663
_cell_angle_alpha 90.000000
_cell_angle_beta 106.449654
_cell_angle_gamma 90.000000
_cell_volume 3343.054686
_symmetry_space_group_name_H-M "C 2/M"
_symmetry_group_IT_number 12
_symmetry_cell_setting 'monoclinic'
loop_
_space_group_symop_operation_xyz
x,y,z
-x,y,-z
-x,-y,-z
x,-y,z
1/2+x,1/2+y,z
1/2-x,1/2+y,-z
1/2-x,1/2-y,-z
1/2+x,1/2-y,z
loop_
_atom_site_type_symbol
_atom_site_label
_atom_site_fract_x
_atom_site_fract_y
_atom_site_fract_z
Si Si1 0.913211 0.258022 0.072894
Si Si2 0.017868 0.898353 0.839463
Si Si3 0.574366 0.726870 0.254026
Si Si4 0.291911 0.247011 0.902224
Si Si5 0.880961 0.398499 0.547962
Si Si6 0.179475 0.107588 0.305808
Si Si7 0.270579 0.894872 0.619405
Si Si8 0.452554 0.897337 0.342008
O O1 0.944679 0.326319 0.204365
O O2 0.927118 0.154681 0.129039
O O3 0.934056 0.262503 0.921025
O O4 0.850594 0.274159 0.014224
O O5 0.974118 0.833381 0.730930
O O6 0.019107 0.000000 0.783144
O O7 0.000000 0.903213 0.000000
O O8 0.587366 0.815551 0.356675
O O9 0.624669 0.659753 0.288701
O O10 0.295934 0.342508 0.817708
O O11 0.277840 0.172873 0.763356
O O12 0.250000 0.250000 0.000000
O O13 0.896426 0.500000 0.614149
O O14 0.820489 0.385245 0.547959
O O15 0.897435 0.396474 0.389192
O O16 0.218260 0.122510 0.478669
O O17 0.172300 0.000000 0.278730
O O18 0.269990 0.000000 0.668615
O O19 0.500000 0.878532 0.500000
O O20 0.461594 0.000000 0.295025
#
# Coordination Sequence:
#
# PCOD9187795 Si02
#       8
#     8   8   8   8   8   8   8   8
#     4  10  21  36  55  86 114 152 190 241 297 347
#     4   9  18  34  58  84 113 146 189 238 290 349
#     4  10  19  35  61  90 115 150 195 246 298 351
#     4  11  24  38  58  87 121 156 196 248 303 353
#     4  10  20  35  58  83 114 157 197 238 293 353
#     4  10  21  37  60  87 119 158 201 245 295 358
#     4  10  21  39  59  85 117 156 200 247 298 358
#     4  10  22  38  56  82 116 153 192 238 296 359
#
# _framework density 19.144168000000001
#
# number of rings (size 3 to 8) (size 9 to 14) (size 15 to 20)
#    0.000    2.000    2.500    1.500    1.750    4.500 
#    0.000    0.000    0.000    8.625    0.000    0.000 
#    0.000    0.000    0.000    0.000    0.000    0.000 
#
# Total GULP energy -178483.440899 kJ/mol
# GULP energy per Si atom -5577.607528 kJ/mol
# Density = 1.910060 g / cm^3
# Si number density = 19.144168 Si / 1000 Ang^3
#
#
#
# Elastic Constant Matrix: (Units=GPa)
#
#
# Indices 1 2 3 4 5 6 
#
# 1 64.0354 25.2160 33.4857 0.0000 1.8810 0.0000
# 2 25.2160 141.0210 73.8038 0.0000 10.5250 0.0000
# 3 33.4857 73.8038 75.0789 0.0000 18.3087 0.0000
# 4 0.0000 0.0000 0.0000 28.5002 0.0000 -1.0915
# 5 1.8810 10.5250 18.3087 0.0000 19.3624 0.0000
# 6 0.0000 0.0000 0.0000 -1.0915 0.0000 6.8462
#
#
#
# Elastic Compliance Matrix: (Units=1/GPa)
#
#
# Indices 1 2 3 4 5 6 
#
# 1 0.022407 0.003757 -0.016452 0.000000 0.011338 0.000000
# 2 0.003757 0.016081 -0.019837 0.000000 0.009651 0.000000
# 3 -0.016452 -0.019837 0.048268 0.000000 -0.033260 0.000000
# 4 0.000000 0.000000 0.000000 0.035303 0.000000 0.005629
# 5 0.011338 0.009651 -0.033260 0.000000 0.076749 0.000000
# 6 0.000000 0.000000 0.000000 0.005629 0.000000 0.146964
#
#
# Mechanical properties :
#
#
# Convention : Reuss Voigt Hill
#
# Bulk Modulus (GPa) = 46.09924 60.57181 53.33552
# Shear Modulus (GPa) = 11.95985 20.78375 16.37180
#
# Velocity S-wave (km/s) = 2.50216 3.29849 2.92753
# Velocity P-wave (km/s) = 5.69913 6.79818 6.27277
#
# Compressibility (1/GPa) = 0.02169233
#
# Stress axis : x y z
#
# Youngs Moduli (GPa) = 44.62913 62.18607 20.71763
#
# Poissons Ratio (x) = -0.23366 0.34085
# Poissons Ratio (y) = -0.16769 0.41098
# Poissons Ratio (z) = 0.73424 1.23359
#
# Static dielectric constant tensor:
#      x y z
#    x 1.700790 0.000000 0.020700 
#    y 0.000000 1.676650 0.000000 
#    z 0.020700 0.000000 1.661470 
# 
# From -- ./inp_files/111678.got.cif
#   From: 2010.05.17/outbox.cif.g08.bks.cpg/sg12_56_cif.got.tgz:111678.got - 2010.06.03 13:09:07.
