data_PCOD9187283
_publ_section_title
;
Structure prediction by ZEFSAII (Michael W. Deem and Ramdas Pophale) SiO2 
 PCOD9187283
Probable space group: C 2/M
;
_chemical_formula_sum "Si O2"
_cell_formula_units_Z 52
_cell_length_a 23.468729
_cell_length_b 12.683198
_cell_length_c 12.007034
_cell_angle_alpha 90.000000
_cell_angle_beta 126.656849
_cell_angle_gamma 90.000000
_cell_volume 2867.150881
_symmetry_space_group_name_H-M "C 2/M"
_symmetry_group_IT_number 12
_symmetry_cell_setting 'monoclinic'
loop_
_space_group_symop_operation_xyz
x,y,z
-x,y,-z
-x,-y,-z
x,-y,z
1/2+x,1/2+y,z
1/2-x,1/2+y,-z
1/2-x,1/2-y,-z
1/2+x,1/2-y,z
loop_
_atom_site_type_symbol
_atom_site_label
_atom_site_fract_x
_atom_site_fract_y
_atom_site_fract_z
Si Si1 0.500000 0.710245 0.500000
Si Si2 0.850603 0.121994 0.390405
Si Si3 0.215158 0.294945 0.847212
Si Si4 0.524420 0.229480 0.906117
Si Si5 0.151991 0.119342 0.121512
Si Si6 0.562252 0.119171 0.735136
Si Si7 0.607912 0.375741 0.315455
O O1 0.432099 0.639967 0.448157
O O2 0.481770 0.790253 0.379080
O O3 0.805883 0.199996 0.260835
O O4 0.851067 0.149374 0.522460
O O5 0.829991 0.000000 0.352316
O O6 0.273303 0.363721 0.850776
O O7 0.143906 0.357129 0.798003
O O8 0.250000 0.250000 0.000000
O O9 0.545858 0.138913 0.845497
O O10 0.460910 0.302581 0.783464
O O11 0.500000 0.192893 0.000000
O O12 0.593664 0.302176 0.003669
O O13 0.154193 0.136426 0.257325
O O14 0.126682 0.000000 0.074220
O O15 0.543659 0.000000 0.681408
O O16 0.586997 0.500000 0.298808
#
# Coordination Sequence:
#
# PCOD9187283 Si02
#       7
#     4   8   8   8   8   8   8
#     4  10  20  38  56  84 112 144 180 228 282 334
#     4  10  21  36  59  85 112 142 183 233 281 327
#     4  11  23  39  52  81 114 153 188 226 273 331
#     4  10  19  35  58  86 114 144 183 234 279 327
#     4  10  20  36  58  82 114 152 188 226 275 331
#     4  11  22  37  57  80 111 149 187 229 276 333
#     4   9  18  35  60  88 111 139 183 237 285 325
#
# _framework density 18.136469999999999
#
# number of rings (size 3 to 8) (size 9 to 14) (size 15 to 20)
#    0.000    1.846    3.077    1.385    0.000    4.000 
#    0.000    0.000    0.000    0.000    0.000    0.000 
#    0.000    0.000    0.000    0.000    0.000    0.000 
#
# Total GULP energy -145049.181416 kJ/mol
# GULP energy per Si atom -5578.814670 kJ/mol
# Density = 1.809519 g / cm^3
# Si number density = 18.136470 Si / 1000 Ang^3
#
#
#
# Elastic Constant Matrix: (Units=GPa)
#
#
# Indices 1 2 3 4 5 6 
#
# 1 82.5315 14.3290 17.6175 0.0000 -15.3776 0.0000
# 2 14.3290 42.2581 12.9116 0.0000 -12.6016 0.0000
# 3 17.6175 12.9116 74.2666 0.0000 -17.9143 0.0000
# 4 0.0000 0.0000 0.0000 12.4212 0.0000 -11.3213
# 5 -15.3776 -12.6016 -17.9143 0.0000 23.6498 0.0000
# 6 0.0000 0.0000 0.0000 -11.3213 0.0000 17.5106
#
#
#
# Elastic Compliance Matrix: (Units=1/GPa)
#
#
# Indices 1 2 3 4 5 6 
#
# 1 0.014086 -0.002312 -0.001257 0.000000 0.006975 0.000000
# 2 -0.002312 0.028663 -0.001362 0.000000 0.012737 0.000000
# 3 -0.001257 -0.001362 0.016674 0.000000 0.011087 0.000000
# 4 0.000000 0.000000 0.000000 0.196020 0.000000 0.126734
# 5 0.006975 0.012737 0.011087 0.000000 0.062004 0.000000
# 6 0.000000 0.000000 0.000000 0.126734 0.000000 0.139047
#
#
# Mechanical properties :
#
#
# Convention : Reuss Voigt Hill
#
# Bulk Modulus (GPa) = 20.17754 32.08582 26.13168
# Shear Modulus (GPa) = 10.35460 20.99619 15.67539
#
# Velocity S-wave (km/s) = 2.39200 3.40616 2.94309
# Velocity P-wave (km/s) = 4.33341 5.76185 5.09791
#
# Compressibility (1/GPa) = 0.04956005
#
# Stress axis : x y z
#
# Youngs Moduli (GPa) = 70.99280 34.88852 59.97192
#
# Poissons Ratio (x) = 0.08067 0.07539
# Poissons Ratio (y) = 0.16416 0.08169
# Poissons Ratio (z) = 0.08924 0.04752
#
# Static dielectric constant tensor:
#      x y z
#    x 1.618190 0.000000 -0.028980 
#    y 0.000000 1.581430 0.000000 
#    z -0.028980 0.000000 1.628580 
# 
# From -- ./inp_files/165091.got.cif
#   From: 2010.05.17/outbox.cif.g08.bks.cpg/sg12_83_cif.got.tgz:165091.got - 2010.06.03 13:09:07.
