data_PCOD9187539
_publ_section_title
;
Structure prediction by ZEFSAII (Michael W. Deem and Ramdas Pophale) SiO2 
 PCOD9187539
Probable space group: C 2/M
;
_chemical_formula_sum "Si O2"
_cell_formula_units_Z 48
_cell_length_a 19.949706
_cell_length_b 24.184750
_cell_length_c 9.305679
_cell_angle_alpha 90.000000
_cell_angle_beta 29.809612
_cell_angle_gamma 90.000000
_cell_volume 2231.963027
_symmetry_space_group_name_H-M "C 2/M"
_symmetry_group_IT_number 12
_symmetry_cell_setting 'monoclinic'
loop_
_space_group_symop_operation_xyz
x,y,z
-x,y,-z
-x,-y,-z
x,-y,z
1/2+x,1/2+y,z
1/2-x,1/2+y,-z
1/2-x,1/2-y,-z
1/2+x,1/2-y,z
loop_
_atom_site_type_symbol
_atom_site_label
_atom_site_fract_x
_atom_site_fract_y
_atom_site_fract_z
Si Si1 0.524289 0.244778 0.626810
Si Si2 0.829682 0.433048 0.962391
Si Si3 0.626498 0.934463 0.447891
Si Si4 0.211156 0.221724 0.722920
Si Si5 0.384961 0.599406 0.111188
Si Si6 0.431333 0.371474 0.474815
O O1 0.500000 0.235826 0.500000
O O2 0.649085 0.208590 0.452354
O O3 0.580894 0.307318 0.543307
O O4 0.390442 0.245561 0.977883
O O5 0.814588 0.500000 0.999049
O O6 0.829422 0.415534 0.794168
O O7 0.974205 0.414820 0.756347
O O8 0.709145 0.402495 0.264761
O O9 0.737025 0.924751 0.364169
O O10 0.612606 0.000000 0.456374
O O11 0.250000 0.250000 0.500000
O O12 0.139698 0.164261 0.814217
O O13 0.500000 0.575818 0.000000
O O14 0.460339 0.596699 0.820525
O O15 0.500000 0.370121 0.500000
#
# Coordination Sequence:
#
# PCOD9187539 Si02
#       6
#     8   8   8   8   8   8
#     4  10  22  38  59  88 122 153 204 266 307 349
#     4   9  18  35  60  90 121 155 199 242 293 360
#     4   9  19  37  60  89 123 156 193 245 298 352
#     4  11  22  41  61  85 120 167 206 246 306 376
#     4  11  23  39  58  87 121 156 201 247 297 360
#     4  10  19  35  59  89 119 154 199 248 298 351
#
# _framework density 21.505732999999999
#
# number of rings (size 3 to 8) (size 9 to 14) (size 15 to 20)
#    0.000    2.000    1.667    4.000    0.000    2.667 
#    3.000    2.500    0.000    2.000    0.000    0.000 
#    0.000    0.000    0.000    0.000    0.000    0.000 
#
# Total GULP energy -133845.997500 kJ/mol
# GULP energy per Si atom -5576.916562 kJ/mol
# Density = 2.145678 g / cm^3
# Si number density = 21.505733 Si / 1000 Ang^3
#
#
#
# Elastic Constant Matrix: (Units=GPa)
#
#
# Indices 1 2 3 4 5 6 
#
# 1 94.0526 12.5309 41.4793 -0.0001 -27.9285 0.0002
# 2 12.5309 14.0261 27.7346 -0.0001 -5.0376 -0.0001
# 3 41.4793 27.7346 149.0459 0.0008 -19.3978 0.0002
# 4 -0.0001 -0.0001 0.0008 35.6864 0.0004 -7.6186
# 5 -27.9285 -5.0376 -19.3978 0.0004 47.7977 -0.0002
# 6 0.0002 -0.0001 0.0002 -7.6186 -0.0002 21.4356
#
#
#
# Elastic Compliance Matrix: (Units=1/GPa)
#
#
# Indices 1 2 3 4 5 6 
#
# 1 0.014411 -0.006702 -0.001858 0.000000 0.006960 0.000000
# 2 -0.006702 0.116493 -0.019768 0.000001 0.000339 0.000001
# 3 -0.001858 -0.019768 0.011077 0.000000 0.001327 0.000000
# 4 0.000000 0.000001 0.000000 0.030323 0.000000 0.010777
# 5 0.006960 0.000339 0.001327 0.000000 0.025563 0.000000
# 6 0.000000 0.000001 0.000000 0.010777 0.000000 0.050482
#
#
# Mechanical properties :
#
#
# Convention : Reuss Voigt Hill
#
# Bulk Modulus (GPa) = 11.71965 46.73492 29.22728
# Shear Modulus (GPa) = 14.99494 32.67593 23.83543
#
# Velocity S-wave (km/s) = 2.64342 3.90218 3.33277
# Velocity P-wave (km/s) = 3.84425 6.48701 5.33196
#
# Compressibility (1/GPa) = 0.08532677
#
# Stress axis : x y z
#
# Youngs Moduli (GPa) = 69.38939 8.58422 90.27363
#
# Poissons Ratio (x) = 0.05753 0.16770
# Poissons Ratio (y) = 0.46504 1.78452
# Poissons Ratio (z) = 0.12891 0.16969
#
# Static dielectric constant tensor:
#      x y z
#    x 1.819490 0.000000 0.003700 
#    y 0.000000 1.848860 0.000000 
#    z 0.003700 0.000000 1.772410 
# 
# From -- ./inp_files/42150.got.cif
#   From: 2010.05.17/outbox.cif.g08.bks.cpg/sg12_22_cif.got.tgz:42150.got - 2010.06.03 13:09:07.
