data_PCOD9187163
_publ_section_title
;
Structure prediction by ZEFSAII (Michael W. Deem and Ramdas Pophale) SiO2 
 PCOD9187163
Probable space group: C 2/M
;
_chemical_formula_sum "Si O2"
_cell_formula_units_Z 48
_cell_length_a 16.402227
_cell_length_b 16.326360
_cell_length_c 19.532819
_cell_angle_alpha 90.000000
_cell_angle_beta 151.220060
_cell_angle_gamma 90.000000
_cell_volume 2518.288320
_symmetry_space_group_name_H-M "C 2/M"
_symmetry_group_IT_number 12
_symmetry_cell_setting 'monoclinic'
loop_
_space_group_symop_operation_xyz
x,y,z
-x,y,-z
-x,-y,-z
x,-y,z
1/2+x,1/2+y,z
1/2-x,1/2+y,-z
1/2-x,1/2-y,-z
1/2+x,1/2-y,z
loop_
_atom_site_type_symbol
_atom_site_label
_atom_site_fract_x
_atom_site_fract_y
_atom_site_fract_z
Si Si1 0.853417 0.217888 0.641318
Si Si2 0.337558 0.092260 0.181707
Si Si3 0.027823 0.357676 0.185047
Si Si4 0.411087 0.094624 0.503093
Si Si5 0.261652 0.722973 0.123576
Si Si6 0.185756 0.586877 0.170240
O O1 0.750000 0.250000 0.500000
O O2 0.759731 0.139706 0.601817
O O3 0.050521 0.209133 0.767808
O O4 0.852830 0.287556 0.697702
O O5 0.462868 0.098788 0.339096
O O6 0.234005 0.178495 0.108649
O O7 0.259038 0.000000 0.126470
O O8 0.942668 0.401470 0.187759
O O9 0.144023 0.408508 0.219366
O O10 0.876937 0.316337 0.029298
O O11 0.500000 0.128968 0.500000
O O12 0.373369 0.000000 0.461389
O O13 0.258351 0.670279 0.191332
O O14 0.274431 0.500000 0.218370
O O15 0.000000 0.582862 0.000000
#
# Coordination Sequence:
#
# PCOD9187163 Si02
#       6
#     8   8   8   8   8   8
#     4  11  20  35  58  83 110 148 191 232 287 329
#     4  10  19  35  58  81 111 150 191 231 280 337
#     4  10  20  36  60  86 115 148 191 230 282 345
#     4  10  22  38  56  80 112 152 196 235 283 341
#     4  10  21  37  57  91 117 148 189 232 284 341
#     4   9  19  36  59  86 117 152 185 227 285 341
#
# _framework density 19.060566000000001
#
# number of rings (size 3 to 8) (size 9 to 14) (size 15 to 20)
#    0.000    2.000    3.333    2.500    2.333    1.333 
#    0.000    2.500    0.000    5.500    0.000    0.000 
#    0.000    0.000    0.000    0.000    0.000    0.000 
#
# Total GULP energy -133622.077228 kJ/mol
# GULP energy per Si atom -5567.586551 kJ/mol
# Density = 1.901718 g / cm^3
# Si number density = 19.060566 Si / 1000 Ang^3
#
#
#
# Elastic Constant Matrix: (Units=GPa)
#
#
# Indices 1 2 3 4 5 6 
#
# 1 80.1044 52.1294 14.5656 0.0009 -23.3291 0.0001
# 2 52.1294 137.0964 17.8664 0.0012 -0.9238 0.0031
# 3 14.5656 17.8664 57.7739 0.0001 -13.0770 0.0042
# 4 0.0009 0.0012 0.0001 0.5502 0.0016 12.0168
# 5 -23.3291 -0.9238 -13.0770 0.0016 24.6905 0.0009
# 6 0.0001 0.0031 0.0042 12.0168 0.0009 14.3643
#
#
#
# Elastic Compliance Matrix: (Units=1/GPa)
#
#
# Indices 1 2 3 4 5 6 
#
# 1 0.025964 -0.010000 0.002289 0.000005 0.025370 -0.000005
# 2 -0.010000 0.011478 -0.003488 -0.000002 -0.010866 0.000001
# 3 0.002289 -0.003488 0.020759 -0.000006 0.013027 -0.000001
# 4 0.000005 -0.000002 -0.000006 -0.105234 0.000005 0.088035
# 5 0.025370 -0.010866 0.013027 0.000005 0.070966 -0.000011
# 6 -0.000005 0.000001 -0.000001 0.088035 -0.000011 -0.004031
#
#
# Mechanical properties :
#
#
# Convention : Reuss Voigt Hill
#
# Bulk Modulus (GPa) = 27.93045 49.34415 38.63730
# Shear Modulus (GPa) = 92.19388 20.61523 56.40455
#
# Velocity S-wave (km/s) = 6.96232 3.29228 5.44578
# Velocity P-wave (km/s) = 8.90602 6.35582 7.73672
#
# Compressibility (1/GPa) = 0.03580322
#
# Stress axis : x y z
#
# Youngs Moduli (GPa) = 38.51534 87.12496 48.17181
#
# Poissons Ratio (x) = 0.87123 -0.11027
# Poissons Ratio (y) = 0.38514 0.16802
# Poissons Ratio (z) = -0.08816 0.30389
#
# Static dielectric constant tensor:
#      x y z
#    x 1.716290 -0.000010 -0.056350 
#    y -0.000010 1.750180 0.000010 
#    z -0.056350 0.000010 1.677700 
# 
# From -- ./inp_files/270449.got.cif
#   From: 2010.05.17/outbox.cif.g08.bks.cpg/sg12_136_cif.got.tgz:270449.got - 2010.06.03 13:09:07.
