data_PCOD9187713
_publ_section_title
;
Structure prediction by ZEFSAII (Michael W. Deem and Ramdas Pophale) SiO2 
 PCOD9187713
Probable space group: C 2/M
;
_chemical_formula_sum "Si O2"
_cell_formula_units_Z 60
_cell_length_a 13.029930
_cell_length_b 14.659733
_cell_length_c 13.944741
_cell_angle_alpha 90.000000
_cell_angle_beta 70.800181
_cell_angle_gamma 90.000000
_cell_volume 2515.499209
_symmetry_space_group_name_H-M "C 2/M"
_symmetry_group_IT_number 12
_symmetry_cell_setting 'monoclinic'
loop_
_space_group_symop_operation_xyz
x,y,z
-x,y,-z
-x,-y,-z
x,-y,z
1/2+x,1/2+y,z
1/2-x,1/2+y,-z
1/2-x,1/2-y,-z
1/2+x,1/2-y,z
loop_
_atom_site_type_symbol
_atom_site_label
_atom_site_fract_x
_atom_site_fract_y
_atom_site_fract_z
Si Si1 0.821051 0.166796 0.376377
Si Si2 0.310745 0.856252 0.263136
Si Si3 0.956024 0.500000 0.323152
Si Si4 0.972650 0.895178 0.174219
Si Si5 0.895247 0.347804 0.649834
Si Si6 0.392473 0.348221 0.567031
Si Si7 0.757243 0.889173 0.131208
Si Si8 0.719131 0.611046 0.094068
O O1 0.822739 0.261621 0.316934
O O2 0.916960 0.110917 0.295660
O O3 0.703875 0.123333 0.389538
O O4 0.835140 0.175618 0.484267
O O5 0.405919 0.921310 0.266464
O O6 0.195634 0.894808 0.338860
O O7 0.292272 0.847923 0.155847
O O8 0.990712 0.419319 0.625833
O O9 0.877797 0.861708 0.131238
O O10 0.093560 0.855784 0.138895
O O11 0.988944 0.000000 0.140590
O O12 0.926919 0.245820 0.609546
O O13 0.834987 0.348971 0.771750
O O14 0.500000 0.398388 0.500000
O O15 0.749463 0.000000 0.145653
O O16 0.741882 0.867812 0.025074
O O17 0.721967 0.500000 0.104787
#
# Coordination Sequence:
#
# PCOD9187713 Si02
#       8
#     8   8   4   8   8   8   8   8
#     4  10  22  42  64  93 129 174 208 271 337 382
#     4  11  23  41  61  92 135 171 212 266 324 390
#     4  12  24  42  65  96 131 170 224 268 309 378
#     4   9  18  35  65  97 126 158 219 273 317 384
#     4  10  21  39  65  91 126 167 217 270 308 380
#     4  11  23  45  68  90 123 174 208 259 344 392
#     4   9  17  34  61  95 127 160 211 273 322 376
#     4  10  19  35  60  92 126 172 207 260 330 385
#
# _framework density 23.852124
#
# number of rings (size 3 to 8) (size 9 to 14) (size 15 to 20)
#    0.000    1.867    1.333    3.600    0.933    2.667 
#    1.200   15.333    0.000    4.800    0.000    0.000 
#    0.000    0.000    0.000    0.000    0.000    0.000 
#
# Total GULP energy -167234.317744 kJ/mol
# GULP energy per Si atom -5574.477258 kJ/mol
# Density = 2.379784 g / cm^3
# Si number density = 23.852124 Si / 1000 Ang^3
#
#
#
# Elastic Constant Matrix: (Units=GPa)
#
#
# Indices 1 2 3 4 5 6 
#
# 1 58.5005 23.5857 43.9365 0.0000 18.4392 0.0000
# 2 23.5857 83.3772 31.9408 0.0000 21.2086 0.0000
# 3 43.9365 31.9408 145.3318 0.0000 35.6211 0.0000
# 4 0.0000 0.0000 0.0000 27.5350 0.0000 8.8323
# 5 18.4392 21.2086 35.6211 0.0000 37.4900 0.0000
# 6 0.0000 0.0000 0.0000 8.8323 0.0000 15.5879
#
#
#
# Elastic Compliance Matrix: (Units=1/GPa)
#
#
# Indices 1 2 3 4 5 6 
#
# 1 0.024015 -0.003548 -0.005315 0.000000 -0.004754 0.000000
# 2 -0.003548 0.014783 -0.000723 0.000000 -0.005931 0.000000
# 3 -0.005315 -0.000723 0.010306 0.000000 -0.006769 0.000000
# 4 0.000000 0.000000 0.000000 0.044384 0.000000 -0.025149
# 5 -0.004754 -0.005931 -0.006769 0.000000 0.038799 0.000000
# 6 0.000000 0.000000 0.000000 -0.025149 0.000000 0.078402
#
#
# Mechanical properties :
#
#
# Convention : Reuss Voigt Hill
#
# Bulk Modulus (GPa) = 33.40894 54.01505 43.71200
# Shear Modulus (GPa) = 20.84756 28.63902 24.74329
#
# Velocity S-wave (km/s) = 2.95961 3.46886 3.22430
# Velocity P-wave (km/s) = 5.07111 6.22406 5.67693
#
# Compressibility (1/GPa) = 0.02993211
#
# Stress axis : x y z
#
# Youngs Moduli (GPa) = 41.64135 67.64602 97.03540
#
# Poissons Ratio (x) = 0.23999 0.51575
# Poissons Ratio (y) = 0.14773 0.07012
# Poissons Ratio (z) = 0.22133 0.04888
#
# Static dielectric constant tensor:
#      x y z
#    x 1.967320 0.000000 -0.027920 
#    y 0.000000 1.936460 0.000000 
#    z -0.027920 0.000000 1.887070 
# 
# From -- ./inp_files/145546.got.cif
#   From: 2010.05.17/outbox.cif.g08.bks.cpg/sg12_73_cif.got.tgz:145546.got - 2010.06.03 13:09:07.
