data_PCOD9187305
_publ_section_title
;
Structure prediction by ZEFSAII (Michael W. Deem and Ramdas Pophale) SiO2 
 PCOD9187305
Probable space group: C 2/M
;
_chemical_formula_sum "Si O2"
_cell_formula_units_Z 40
_cell_length_a 9.520393
_cell_length_b 20.004816
_cell_length_c 8.532465
_cell_angle_alpha 90.000000
_cell_angle_beta 86.749920
_cell_angle_gamma 90.000000
_cell_volume 1622.425889
_symmetry_space_group_name_H-M "C 2/M"
_symmetry_group_IT_number 12
_symmetry_cell_setting 'monoclinic'
loop_
_space_group_symop_operation_xyz
x,y,z
-x,y,-z
-x,-y,-z
x,-y,z
1/2+x,1/2+y,z
1/2-x,1/2+y,-z
1/2-x,1/2-y,-z
1/2+x,1/2-y,z
loop_
_atom_site_type_symbol
_atom_site_label
_atom_site_fract_x
_atom_site_fract_y
_atom_site_fract_z
Si Si1 0.266872 0.866942 0.951817
Si Si2 0.066396 0.923370 0.707276
Si Si3 0.399886 0.255867 0.854472
Si Si4 0.276802 0.927684 0.252423
Si Si5 0.315857 0.681654 0.556074
O O1 0.141928 0.900337 0.862316
O O2 0.360470 0.821586 0.832155
O O3 0.215719 0.807983 0.072330
O O4 0.329224 0.918561 0.071319
O O5 0.125171 0.872380 0.572495
O O6 0.896868 0.925568 0.741009
O O7 0.106375 0.000000 0.664621
O O8 0.424987 0.289101 0.683249
O O9 0.500000 0.256303 0.000000
O O10 0.306500 0.863056 0.354194
O O11 0.319147 0.000000 0.311530
O O12 0.250000 0.750000 0.500000
#
# Coordination Sequence:
#
# PCOD9187305 Si02
#       5
#     8   8   8   8   8
#     4  10  19  35  58  87 120 155 204 242 299 351
#     4  11  21  36  61  92 123 156 195 248 309 362
#     4  10  21  37  58  84 120 163 201 246 294 353
#     4  10  21  36  56  88 124 155 193 246 306 364
#     4  11  21  37  56  87 122 159 197 242 300 357
#
# _framework density 24.654440000000001
#
# number of rings (size 3 to 8) (size 9 to 14) (size 15 to 20)
#    0.000    1.600    2.000    4.800    0.000    3.200 
#    0.000    0.000    0.000    4.200    0.000    1.400 
#    0.000    0.000    0.000    0.000    0.000    0.000 
#
# Total GULP energy -111383.488914 kJ/mol
# GULP energy per Si atom -5569.174446 kJ/mol
# Density = 2.459833 g / cm^3
# Si number density = 24.654440 Si / 1000 Ang^3
#
#
#
# Elastic Constant Matrix: (Units=GPa)
#
#
# Indices 1 2 3 4 5 6 
#
# 1 25.2633 25.1697 11.5029 0.0000 -11.4025 0.0000
# 2 25.1697 220.9650 60.2372 0.0000 -1.0606 0.0000
# 3 11.5029 60.2372 111.0528 0.0000 -5.5923 0.0000
# 4 0.0000 0.0000 0.0000 39.9920 0.0000 1.3926
# 5 -11.4025 -1.0606 -5.5923 0.0000 15.2002 0.0000
# 6 0.0000 0.0000 0.0000 1.3926 0.0000 31.3702
#
#
#
# Elastic Compliance Matrix: (Units=1/GPa)
#
#
# Indices 1 2 3 4 5 6 
#
# 1 0.071353 -0.007727 -0.000541 0.000000 0.052787 0.000000
# 2 -0.007727 0.006155 -0.002862 0.000000 -0.006419 0.000000
# 3 -0.000541 -0.002862 0.010782 0.000000 0.003361 0.000000
# 4 0.000000 0.000000 0.000000 0.025044 0.000000 -0.001112
# 5 0.052787 -0.006419 0.003361 0.000000 0.106175 0.000000
# 6 0.000000 0.000000 0.000000 -0.001112 0.000000 0.031927
#
#
# Mechanical properties :
#
#
# Convention : Reuss Voigt Hill
#
# Bulk Modulus (GPa) = 15.14447 61.23342 38.18895
# Shear Modulus (GPa) = 16.90872 34.67059 25.78966
#
# Velocity S-wave (km/s) = 2.62167 3.75408 3.23777
# Velocity P-wave (km/s) = 3.91411 6.60919 5.43147
#
# Compressibility (1/GPa) = 0.06603069
#
# Stress axis : x y z
#
# Youngs Moduli (GPa) = 14.01485 162.46954 92.74539
#
# Poissons Ratio (x) = 1.25535 0.05022
# Poissons Ratio (y) = 0.10829 0.26539
# Poissons Ratio (z) = 0.00759 0.46491
#
# Static dielectric constant tensor:
#      x y z
#    x 2.084580 0.000000 -0.051740 
#    y 0.000000 2.032180 0.000000 
#    z -0.051740 0.000000 2.141060 
# 
# From -- ./inp_files/48779.got.cif
#   From: 2010.05.17/outbox.cif.g08.bks.cpg/sg12_25_cif.got.tgz:48779.got - 2010.06.03 13:09:07.
