data_PCOD9187565
_publ_section_title
;
Structure prediction by ZEFSAII (Michael W. Deem and Ramdas Pophale) SiO2 
 PCOD9187565
Probable space group: C 2/M
;
_chemical_formula_sum "Si O2"
_cell_formula_units_Z 64
_cell_length_a 9.898107
_cell_length_b 30.160147
_cell_length_c 15.606138
_cell_angle_alpha 90.000000
_cell_angle_beta 141.694202
_cell_angle_gamma 90.000000
_cell_volume 2887.842892
_symmetry_space_group_name_H-M "C 2/M"
_symmetry_group_IT_number 12
_symmetry_cell_setting 'monoclinic'
loop_
_space_group_symop_operation_xyz
x,y,z
-x,y,-z
-x,-y,-z
x,-y,z
1/2+x,1/2+y,z
1/2-x,1/2+y,-z
1/2-x,1/2-y,-z
1/2+x,1/2-y,z
loop_
_atom_site_type_symbol
_atom_site_label
_atom_site_fract_x
_atom_site_fract_y
_atom_site_fract_z
Si Si1 0.040928 0.787967 0.172197
Si Si2 0.462279 0.806198 0.082775
Si Si3 0.174206 0.123358 0.162600
Si Si4 0.789119 0.709160 0.456947
Si Si5 0.469259 0.093959 0.879137
Si Si6 0.406009 0.548562 0.110455
Si Si7 0.605157 0.110102 0.454762
Si Si8 0.028860 0.049564 0.655213
O O1 0.091182 0.736657 0.180205
O O2 0.180528 0.825030 0.192840
O O3 0.080877 0.795731 0.291577
O O4 0.791887 0.797503 0.024003
O O5 0.510921 0.855140 0.140237
O O6 0.500000 0.806104 0.000000
O O7 0.418884 0.105358 0.289599
O O8 0.057496 0.090939 0.171852
O O9 0.000000 0.120270 0.000000
O O10 0.750000 0.750000 0.500000
O O11 0.819533 0.661128 0.513442
O O12 0.000000 0.716835 0.500000
O O13 0.243126 0.075280 0.730740
O O14 0.500000 0.095940 0.000000
O O15 0.671157 0.062276 0.956311
O O16 0.475260 0.500000 0.110548
O O17 0.406218 0.544562 0.212469
O O18 0.500000 0.104840 0.500000
O O19 0.806417 0.077276 0.541273
O O20 0.003813 0.000000 0.607233
#
# Coordination Sequence:
#
# PCOD9187565 Si02
#       8
#     8   8   8   8   8   8   8   8
#     4  11  22  40  59  91 128 168 216 266 323 390
#     4  10  22  33  59  90 125 167 210 264 324 387
#     4  12  24  41  64  90 131 168 215 271 328 395
#     4  11  25  42  67  93 133 176 224 271 333 394
#     4   9  18  33  56  90 126 157 203 264 323 381
#     4  10  19  35  59  91 125 163 210 266 329 389
#     4  11  22  41  64  91 128 172 211 269 334 389
#     4  10  20  35  63  94 123 162 212 270 327 395
#
# _framework density 22.161868999999999
#
# number of rings (size 3 to 8) (size 9 to 14) (size 15 to 20)
#    0.000    1.500    5.000    0.750    5.250    4.500 
#    0.000    0.000    0.000    0.000    0.000    1.750 
#    0.000    0.000    0.000    0.000    0.000    0.000 
#
# Total GULP energy -178527.188271 kJ/mol
# GULP energy per Si atom -5578.974633 kJ/mol
# Density = 2.211143 g / cm^3
# Si number density = 22.161869 Si / 1000 Ang^3
#
#
#
# Elastic Constant Matrix: (Units=GPa)
#
#
# Indices 1 2 3 4 5 6 
#
# 1 20.8474 25.0834 17.3231 0.0000 10.8551 0.0000
# 2 25.0834 134.1234 56.7375 0.0000 28.0635 0.0000
# 3 17.3231 56.7375 128.0479 0.0000 25.0244 0.0000
# 4 0.0000 0.0000 0.0000 3.9256 0.0000 -8.2767
# 5 10.8551 28.0635 25.0244 0.0000 33.7276 0.0000
# 6 0.0000 0.0000 0.0000 -8.2767 0.0000 22.5553
#
#
#
# Elastic Compliance Matrix: (Units=1/GPa)
#
#
# Indices 1 2 3 4 5 6 
#
# 1 0.067299 -0.008845 -0.002796 0.000000 -0.012226 0.000000
# 2 -0.008845 0.011265 -0.002946 0.000000 -0.004340 0.000000
# 3 -0.002796 -0.002946 0.010337 0.000000 -0.004318 0.000000
# 4 0.000000 0.000000 0.000000 1.125458 0.000000 0.412986
# 5 -0.012226 -0.004340 -0.004318 0.000000 0.040399 0.000000
# 6 0.000000 0.000000 0.000000 0.412986 0.000000 0.195880
#
#
# Mechanical properties :
#
#
# Convention : Reuss Voigt Hill
#
# Bulk Modulus (GPa) = 16.74327 53.47850 35.11089
# Shear Modulus (GPa) = 3.33395 24.30003 13.81699
#
# Velocity S-wave (km/s) = 1.22786 3.31491 2.49962
# Velocity P-wave (km/s) = 3.09541 6.23175 4.92018
#
# Compressibility (1/GPa) = 0.05972548
#
# Stress axis : x y z
#
# Youngs Moduli (GPa) = 14.85898 88.77431 96.73661
#
# Poissons Ratio (x) = 0.78523 0.27049
# Poissons Ratio (y) = 0.13143 0.28503
# Poissons Ratio (z) = 0.04155 0.26157
#
# Static dielectric constant tensor:
#      x y z
#    x 1.890520 0.000000 -0.003630 
#    y 0.000000 1.862240 0.000000 
#    z -0.003630 0.000000 1.822150 
# 
# From -- ./inp_files/266309.got.cif
#   From: 2010.05.17/outbox.cif.g08.bks.cpg/sg12_134_cif.got.tgz:266309.got - 2010.06.03 13:09:07.
