data_PCOD9187457
_publ_section_title
;
Structure prediction by ZEFSAII (Michael W. Deem and Ramdas Pophale) SiO2 
 PCOD9187457
Probable space group: C 2/M
;
_chemical_formula_sum "Si O2"
_cell_formula_units_Z 48
_cell_length_a 9.758398
_cell_length_b 15.199417
_cell_length_c 18.510122
_cell_angle_alpha 90.000000
_cell_angle_beta 105.576890
_cell_angle_gamma 90.000000
_cell_volume 2644.619551
_symmetry_space_group_name_H-M "C 2/M"
_symmetry_group_IT_number 12
_symmetry_cell_setting 'monoclinic'
loop_
_space_group_symop_operation_xyz
x,y,z
-x,y,-z
-x,-y,-z
x,-y,z
1/2+x,1/2+y,z
1/2-x,1/2+y,-z
1/2-x,1/2-y,-z
1/2+x,1/2-y,z
loop_
_atom_site_type_symbol
_atom_site_label
_atom_site_fract_x
_atom_site_fract_y
_atom_site_fract_z
Si Si1 0.666654 0.189970 0.042825
Si Si2 0.230603 0.196309 0.781923
Si Si3 0.024838 0.690664 0.305491
Si Si4 0.843150 0.000000 0.514368
Si Si5 0.655256 0.000000 0.056351
Si Si6 0.271449 0.500000 0.225897
Si Si7 0.117621 0.806393 0.453159
Si Si8 0.608238 0.000000 0.354042
O O1 0.694856 0.211677 0.130466
O O2 0.723767 0.090384 0.041879
O O3 0.500000 0.192348 0.000000
O O4 0.750000 0.250000 0.000000
O O5 0.348607 0.193944 0.735535
O O6 0.159642 0.097330 0.772546
O O7 0.117926 0.272621 0.750698
O O8 0.058284 0.757713 0.374929
O O9 0.021297 0.591310 0.336786
O O10 0.836999 0.907329 0.554936
O O11 0.717453 0.000000 0.436808
O O12 0.000000 0.000000 0.500000
O O13 0.655560 0.000000 0.143992
O O14 0.500000 0.000000 0.000000
O O15 0.203747 0.500000 0.295204
O O16 0.250000 0.750000 0.500000
O O17 0.000000 0.807467 0.500000
#
# Coordination Sequence:
#
# PCOD9187457 Si02
#       8
#     8   8   8   4   4   4   8   4
#     4  10  19  35  59  85 116 147 188 231 278 333
#     4  10  21  37  58  86 112 150 187 234 282 332
#     4  11  22  38  59  81 116 147 191 233 283 334
#     4  10  22  36  60  82 110 145 196 232 282 333
#     4   8  16  32  53  81 108 145 188 224 265 329
#     4   8  18  32  57  78 106 144 192 228 266 325
#     4  11  22  38  58  83 109 147 189 235 279 332
#     4  10  20  38  55  81 113 152 184 232 281 341
#
# _framework density 18.150058999999999
#
# number of rings (size 3 to 8) (size 9 to 14) (size 15 to 20)
#    0.000    2.000    1.667    2.000    7.000    1.333 
#    0.000    5.417    0.000    0.000    0.000    0.000 
#    0.000    0.000    0.000    0.000    0.000    0.000 
#
# Total GULP energy -133716.571350 kJ/mol
# GULP energy per Si atom -5571.523806 kJ/mol
# Density = 1.810875 g / cm^3
# Si number density = 18.150059 Si / 1000 Ang^3
#
#
#
# Elastic Constant Matrix: (Units=GPa)
#
#
# Indices 1 2 3 4 5 6 
#
# 1 56.9829 45.8849 22.3965 0.0000 7.2246 0.0000
# 2 45.8849 173.5956 73.2507 0.0000 8.4568 0.0000
# 3 22.3965 73.2507 101.2056 0.0000 6.1764 0.0000
# 4 0.0000 0.0000 0.0000 30.8454 0.0000 1.3337
# 5 7.2246 8.4568 6.1764 0.0000 32.9188 0.0000
# 6 0.0000 0.0000 0.0000 1.3337 0.0000 26.9648
#
#
#
# Elastic Compliance Matrix: (Units=1/GPa)
#
#
# Indices 1 2 3 4 5 6 
#
# 1 0.022733 -0.005481 -0.000854 0.000000 -0.003421 0.000000
# 2 -0.005481 0.009649 -0.005759 0.000000 -0.000195 0.000000
# 3 -0.000854 -0.005759 0.014300 0.000000 -0.001016 0.000000
# 4 0.000000 0.000000 0.000000 0.032489 0.000000 -0.001607
# 5 -0.003421 -0.000195 -0.001016 0.000000 0.031369 0.000000
# 6 0.000000 0.000000 0.000000 -0.001607 0.000000 0.037165
#
#
# Mechanical properties :
#
#
# Convention : Reuss Voigt Hill
#
# Bulk Modulus (GPa) = 44.46010 68.31646 56.38828
# Shear Modulus (GPa) = 27.87200 30.82927 29.35064
#
# Velocity S-wave (km/s) = 3.92298 4.12585 4.02569
# Velocity P-wave (km/s) = 6.71332 7.77293 7.26247
#
# Compressibility (1/GPa) = 0.02249208
#
# Stress axis : x y z
#
# Youngs Moduli (GPa) = 43.98973 103.63926 69.92996
#
# Poissons Ratio (x) = 0.56810 0.05975
# Poissons Ratio (y) = 0.24113 0.40271
# Poissons Ratio (z) = 0.03759 0.59683
#
# Static dielectric constant tensor:
#      x y z
#    x 1.604710 0.000000 0.030250 
#    y 0.000000 1.677000 0.000000 
#    z 0.030250 0.000000 1.644610 
# 
# From -- ./inp_files/262199.got.cif
#   From: 2010.05.17/outbox.cif.g08.bks.cpg/sg12_132_cif.got.tgz:262199.got - 2010.06.03 13:09:07.
