data_PCOD9187050
_publ_section_title
;
Structure prediction by ZEFSAII (Michael W. Deem and Ramdas Pophale) SiO2 
 PCOD9187050
Probable space group: C 2/M
;
_chemical_formula_sum "Si O2"
_cell_formula_units_Z 56
_cell_length_a 23.190726
_cell_length_b 7.493201
_cell_length_c 15.046046
_cell_angle_alpha 90.000000
_cell_angle_beta 113.814927
_cell_angle_gamma 90.000000
_cell_volume 2391.972280
_symmetry_space_group_name_H-M "C 2/M"
_symmetry_group_IT_number 12
_symmetry_cell_setting 'monoclinic'
loop_
_space_group_symop_operation_xyz
x,y,z
-x,y,-z
-x,-y,-z
x,-y,z
1/2+x,1/2+y,z
1/2-x,1/2+y,-z
1/2-x,1/2-y,-z
1/2+x,1/2-y,z
loop_
_atom_site_type_symbol
_atom_site_label
_atom_site_fract_x
_atom_site_fract_y
_atom_site_fract_z
Si Si1 0.345375 0.293277 0.252161
Si Si2 0.484944 0.282728 0.090036
Si Si3 0.111430 0.216452 0.252636
Si Si4 0.656034 0.282442 0.948010
Si Si5 0.570789 0.795843 0.537967
Si Si6 0.210143 0.215048 0.164514
Si Si7 0.822431 0.301607 0.524663
O O1 0.363890 0.500000 0.256004
O O2 0.335290 0.218141 0.146853
O O3 0.397423 0.203972 0.345303
O O4 0.275079 0.280280 0.247678
O O5 0.486249 0.500000 0.089469
O O6 0.539710 0.227278 0.191231
O O7 0.415090 0.231881 0.072191
O O8 0.500000 0.222465 0.000000
O O9 0.151711 0.264796 0.190405
O O10 0.143095 0.295001 0.359158
O O11 0.113603 0.000000 0.262138
O O12 0.661132 0.500000 0.950535
O O13 0.699221 0.219116 0.056595
O O14 0.500000 0.716734 0.500000
O O15 0.625991 0.711874 0.509779
O O16 0.561375 0.000000 0.499676
O O17 0.211945 0.000000 0.163595
O O18 0.815651 0.500000 0.482594
O O19 0.750000 0.250000 0.500000
#
# Coordination Sequence:
#
# PCOD9187050 Si02
#       7
#     8   8   8   8   8   8   8
#     4  11  23  36  56  86 116 147 187 239 290 329
#     4   9  15  29  53  82 113 146 185 230 274 328
#     4  10  20  33  59  90 114 146 189 234 283 336
#     4   9  18  32  52  82 117 149 187 229 274 332
#     4  10  24  46  65  82 112 156 201 241 290 356
#     4  10  19  35  57  83 117 157 192 222 269 342
#     4  11  24  42  64  88 116 151 194 245 298 350
#
# _framework density 23.411642000000001
#
# number of rings (size 3 to 8) (size 9 to 14) (size 15 to 20)
#    0.000    2.000    1.429    2.143    2.000    5.429 
#    0.000    0.714    0.000    1.286    0.000    0.000 
#    0.000    0.000    0.000    0.000    0.000    0.000 
#
# Total GULP energy -156355.981349 kJ/mol
# GULP energy per Si atom -5584.142191 kJ/mol
# Density = 2.335836 g / cm^3
# Si number density = 23.411642 Si / 1000 Ang^3
#
#
#
# Elastic Constant Matrix: (Units=GPa)
#
#
# Indices 1 2 3 4 5 6 
#
# 1 155.6737 6.4647 55.5912 0.0000 28.7205 0.0000
# 2 6.4647 62.1592 -4.7934 0.0000 -1.7843 0.0000
# 3 55.5912 -4.7934 135.9068 0.0000 27.7491 0.0000
# 4 0.0000 0.0000 0.0000 21.8008 0.0000 -16.2802
# 5 28.7205 -1.7843 27.7491 0.0000 48.6985 0.0000
# 6 0.0000 0.0000 0.0000 -16.2802 0.0000 -27.2978
#
#
#
# Elastic Compliance Matrix: (Units=1/GPa)
#
#
# Indices 1 2 3 4 5 6 
#
# 1 0.008020 -0.001132 -0.002655 0.000000 -0.003258 0.000000
# 2 -0.001132 0.016295 0.000882 0.000000 0.000762 0.000000
# 3 -0.002655 0.000882 0.009222 0.000000 -0.003656 0.000000
# 4 0.000000 0.000000 0.000000 0.031736 0.000000 -0.018927
# 5 -0.003258 0.000762 -0.003656 0.000000 0.024568 0.000000
# 6 0.000000 0.000000 0.000000 -0.018927 0.000000 -0.025345
#
#
# Mechanical properties :
#
#
# Convention : Reuss Voigt Hill
#
# Bulk Modulus (GPa) = 36.06626 52.02939 44.04782
# Shear Modulus (GPa) = 62.85498 28.40544 45.63021
#
# Velocity S-wave (km/s) = 5.18710 3.48703 4.41958
# Velocity P-wave (km/s) = 7.16334 6.20359 6.70067
#
# Compressibility (1/GPa) = 0.02772675
#
# Stress axis : x y z
#
# Youngs Moduli (GPa) = 124.68783 61.36695 108.43964
#
# Poissons Ratio (x) = 0.06949 0.28792
# Poissons Ratio (y) = 0.14120 -0.09568
# Poissons Ratio (z) = 0.33106 -0.05415
#
# Static dielectric constant tensor:
#      x y z
#    x 1.906540 0.000000 -0.030880 
#    y 0.000000 1.927620 0.000000 
#    z -0.030880 0.000000 1.827570 
# 
# From -- ./inp_files/238875.got.cif
#   From: 2010.05.17/outbox.cif.g08.bks.cpg/sg12_120_cif.got.tgz:238875.got - 2010.06.03 13:09:07.
