data_PCOD9187188
_publ_section_title
;
Structure prediction by ZEFSAII (Michael W. Deem and Ramdas Pophale) SiO2 
 PCOD9187188
Probable space group: C 2/M
;
_chemical_formula_sum "Si O2"
_cell_formula_units_Z 48
_cell_length_a 25.654877
_cell_length_b 8.979688
_cell_length_c 20.852065
_cell_angle_alpha 90.000000
_cell_angle_beta 144.828353
_cell_angle_gamma 90.000000
_cell_volume 2767.093010
_symmetry_space_group_name_H-M "C 2/M"
_symmetry_group_IT_number 12
_symmetry_cell_setting 'monoclinic'
loop_
_space_group_symop_operation_xyz
x,y,z
-x,y,-z
-x,-y,-z
x,-y,z
1/2+x,1/2+y,z
1/2-x,1/2+y,-z
1/2-x,1/2-y,-z
1/2+x,1/2-y,z
loop_
_atom_site_type_symbol
_atom_site_label
_atom_site_fract_x
_atom_site_fract_y
_atom_site_fract_z
Si Si1 0.693911 0.179313 0.885455
Si Si2 0.309169 0.178923 0.742999
Si Si3 0.007468 0.678471 0.279657
Si Si4 0.310273 0.678174 0.879520
Si Si5 0.305919 0.678464 0.497849
Si Si6 0.505600 0.178334 0.885526
O O1 0.588724 0.220624 0.786401
O O2 0.740026 0.222335 0.864815
O O3 0.698979 0.000000 0.896590
O O4 0.750000 0.250000 0.000000
O O5 0.285444 0.255596 0.785742
O O6 0.242860 0.218904 0.617896
O O7 0.411683 0.219097 0.825391
O O8 0.306852 0.000000 0.748247
O O9 0.020267 0.500000 0.299040
O O10 0.092267 0.762211 0.395116
O O11 0.002645 0.710559 0.198574
O O12 0.313001 0.500000 0.879169
O O13 0.408493 0.739804 0.998527
O O14 0.303091 0.500000 0.501132
O O15 0.250000 0.750000 0.500000
O O16 0.518342 0.000000 0.905262
#
# Coordination Sequence:
#
# PCOD9187188 Si02
#       6
#     8   8   8   8   8   8
#     4  10  21  37  58  83 114 148 189 232 279 336
#     4  10  22  39  56  79 113 153 189 222 278 347
#     4  10  20  37  59  85 114 148 187 233 283 331
#     4  11  23  36  54  86 117 146 188 235 280 330
#     4  11  22  38  60  86 114 147 190 235 279 335
#     4  10  19  35  58  82 113 152 185 223 282 344
#
# _framework density 17.346723999999998
#
# number of rings (size 3 to 8) (size 9 to 14) (size 15 to 20)
#    0.000    1.667    3.333    1.500    0.000    6.000 
#    0.000    0.833    0.000    5.000    0.000    0.000 
#    0.000    0.000    0.000    0.000    0.000    0.000 
#
# Total GULP energy -134072.817757 kJ/mol
# GULP energy per Si atom -5586.367407 kJ/mol
# Density = 1.730724 g / cm^3
# Si number density = 17.346724 Si / 1000 Ang^3
#
#
#
# Elastic Constant Matrix: (Units=GPa)
#
#
# Indices 1 2 3 4 5 6 
#
# 1 168.2977 54.3615 105.0561 0.0000 -8.4064 0.0000
# 2 54.3615 31.5781 53.7974 0.0000 -4.6070 0.0000
# 3 105.0561 53.7974 138.5612 0.0000 3.1847 0.0000
# 4 0.0000 0.0000 0.0000 35.4846 0.0000 -1.2601
# 5 -8.4064 -4.6070 3.1847 0.0000 30.3576 0.0000
# 6 0.0000 0.0000 0.0000 -1.2601 0.0000 25.5302
#
#
#
# Elastic Compliance Matrix: (Units=1/GPa)
#
#
# Indices 1 2 3 4 5 6 
#
# 1 0.014087 -0.016918 -0.004153 0.000000 0.001769 0.000000
# 2 -0.016918 0.124882 -0.036075 0.000000 0.018052 0.000000
# 3 -0.004153 -0.036075 0.024584 0.000000 -0.009204 0.000000
# 4 0.000000 0.000000 0.000000 0.028231 0.000000 0.001393
# 5 0.001769 0.018052 -0.009204 0.000000 0.037136 0.000000
# 6 0.000000 0.000000 0.000000 0.001393 0.000000 0.039238
#
#
# Mechanical properties :
#
#
# Convention : Reuss Voigt Hill
#
# Bulk Modulus (GPa) = 20.29938 84.98522 52.64230
# Shear Modulus (GPa) = 12.53544 26.62261 19.57903
#
# Velocity S-wave (km/s) = 2.69111 3.92182 3.36324
# Velocity P-wave (km/s) = 4.62425 8.34302 6.74499
#
# Compressibility (1/GPa) = 0.04926258
#
# Stress axis : x y z
#
# Youngs Moduli (GPa) = 70.98623 8.00754 40.67741
#
# Poissons Ratio (x) = 0.13547 0.16894
# Poissons Ratio (y) = 1.20091 1.46742
# Poissons Ratio (z) = 0.29482 0.28887
#
# Static dielectric constant tensor:
#      x y z
#    x 1.582810 0.000000 0.003990 
#    y 0.000000 1.579760 0.000000 
#    z 0.003990 0.000000 1.559540 
# 
# From -- ./inp_files/327173.got.cif
#   From: 2010.05.17/outbox.cif.g08.bks.cpg/sg12_164_cif.got.tgz:327173.got - 2010.06.03 13:09:07.
