data_PCOD9187963
_publ_section_title
;
Structure prediction by ZEFSAII (Michael W. Deem and Ramdas Pophale) SiO2 
 PCOD9187963
Probable space group: C 2/M
;
_chemical_formula_sum "Si O2"
_cell_formula_units_Z 64
_cell_length_a 25.898010
_cell_length_b 14.756278
_cell_length_c 12.424487
_cell_angle_alpha 90.000000
_cell_angle_beta 137.355965
_cell_angle_gamma 90.000000
_cell_volume 3216.573559
_symmetry_space_group_name_H-M "C 2/M"
_symmetry_group_IT_number 12
_symmetry_cell_setting 'monoclinic'
loop_
_space_group_symop_operation_xyz
x,y,z
-x,y,-z
-x,-y,-z
x,-y,z
1/2+x,1/2+y,z
1/2-x,1/2+y,-z
1/2-x,1/2-y,-z
1/2+x,1/2-y,z
loop_
_atom_site_type_symbol
_atom_site_label
_atom_site_fract_x
_atom_site_fract_y
_atom_site_fract_z
Si Si1 0.132431 0.099014 0.889448
Si Si2 0.418069 0.258271 0.339722
Si Si3 0.082075 0.597906 0.183303
Si Si4 0.693730 0.141472 0.163808
Si Si5 0.609987 0.324816 0.071016
Si Si6 0.691810 0.103387 0.908513
Si Si7 0.128856 0.893630 0.542216
Si Si8 0.931693 0.206310 0.760234
O O1 0.081327 0.180879 0.767249
O O2 0.108613 0.000000 0.812077
O O3 0.128662 0.099667 0.012457
O O4 0.218569 0.116560 0.980455
O O5 0.500000 0.221426 0.500000
O O6 0.357782 0.178448 0.228596
O O7 0.395142 0.332312 0.393597
O O8 0.086388 0.500000 0.246208
O O9 0.140597 0.599042 0.173820
O O10 0.093201 0.687843 0.271846
O O11 0.000000 0.605550 0.000000
O O12 0.671435 0.246899 0.139906
O O13 0.779975 0.116698 0.322805
O O14 0.679527 0.113652 0.018252
O O15 0.606331 0.340924 0.192913
O O16 0.523108 0.293659 0.913598
O O17 0.672601 0.000000 0.848381
O O18 0.092589 0.848157 0.381494
O O19 0.109081 0.000000 0.522331
#
# Coordination Sequence:
#
# PCOD9187963 Si02
#       8
#     8   8   8   8   8   8   8   8
#     4  11  22  39  65  94 123 162 213 260 308 368
#     4  12  25  40  63  92 129 162 205 262 315 372
#     4  10  19  35  63  95 123 158 210 263 310 367
#     4  11  20  40  66  92 123 164 211 264 307 372
#     4  10  20  39  65  90 124 166 209 259 314 368
#     4  11  23  42  67  94 123 162 209 259 317 380
#     4  12  26  41  61  91 128 171 213 257 311 372
#     4  10  22  41  60  91 131 165 211 258 313 374
#
# _framework density 19.896948999999999
#
# number of rings (size 3 to 8) (size 9 to 14) (size 15 to 20)
#    0.000    1.125    5.000    3.375    0.000    5.250 
#    0.000    1.875    0.000    2.250    0.000    0.000 
#    0.000    0.000    0.000    0.000    0.000    0.000 
#
# Total GULP energy -178638.949732 kJ/mol
# GULP energy per Si atom -5582.467179 kJ/mol
# Density = 1.985166 g / cm^3
# Si number density = 19.896949 Si / 1000 Ang^3
#
#
#
# Elastic Constant Matrix: (Units=GPa)
#
#
# Indices 1 2 3 4 5 6 
#
# 1 69.0998 20.6133 8.0590 0.0000 -9.3538 0.0000
# 2 20.6133 109.4041 44.7774 0.0000 -16.9265 0.0000
# 3 8.0590 44.7774 70.5439 0.0000 -11.3222 0.0000
# 4 0.0000 0.0000 0.0000 11.4111 0.0000 -8.1086
# 5 -9.3538 -16.9265 -11.3222 0.0000 28.3377 0.0000
# 6 0.0000 0.0000 0.0000 -8.1086 0.0000 -0.6696
#
#
#
# Elastic Compliance Matrix: (Units=1/GPa)
#
#
# Indices 1 2 3 4 5 6 
#
# 1 0.015699 -0.002543 0.000436 0.000000 0.003837 0.000000
# 2 -0.002543 0.013331 -0.007510 0.000000 0.004123 0.000000
# 3 0.000436 -0.007510 0.019442 0.000000 0.003427 0.000000
# 4 0.000000 0.000000 0.000000 0.009123 0.000000 -0.110487
# 5 0.003837 0.004123 0.003427 0.000000 0.040387 0.000000
# 6 0.000000 0.000000 0.000000 -0.110487 0.000000 -0.155485
#
#
# Mechanical properties :
#
#
# Convention : Reuss Voigt Hill
#
# Bulk Modulus (GPa) = 34.19915 43.99413 39.09664
# Shear Modulus (GPa) = -175.29230 19.52238 -77.88496
#
# Velocity S-wave (km/s) = -9.39635 3.13577 -6.26332
# Velocity P-wave (km/s) = 10.02479 5.93883 5.71081
#
# Compressibility (1/GPa) = 0.02924049
#
# Stress axis : x y z
#
# Youngs Moduli (GPa) = 63.69859 75.01343 51.43429
#
# Poissons Ratio (x) = 0.19075 -0.02245
# Poissons Ratio (y) = 0.16197 0.38625
# Poissons Ratio (z) = -0.02780 0.56331
#
# Static dielectric constant tensor:
#      x y z
#    x 1.724670 0.000000 -0.006650 
#    y 0.000000 1.724300 0.000000 
#    z -0.006650 0.000000 1.692540 
# 
# From -- ./inp_files/183821.got.cif
#   From: 2010.05.17/outbox.cif.g08.bks.cpg/sg12_92_cif.got.tgz:183821.got - 2010.06.03 13:09:07.
