data_PCOD9187666
_publ_section_title
;
Structure prediction by ZEFSAII (Michael W. Deem and Ramdas Pophale) SiO2 
 PCOD9187666
Probable space group: C 2/M
;
_chemical_formula_sum "Si O2"
_cell_formula_units_Z 64
_cell_length_a 12.896227
_cell_length_b 14.303673
_cell_length_c 31.198774
_cell_angle_alpha 90.000000
_cell_angle_beta 152.066392
_cell_angle_gamma 90.000000
_cell_volume 2695.934116
_symmetry_space_group_name_H-M "C 2/M"
_symmetry_group_IT_number 12
_symmetry_cell_setting 'monoclinic'
loop_
_space_group_symop_operation_xyz
x,y,z
-x,y,-z
-x,-y,-z
x,-y,z
1/2+x,1/2+y,z
1/2-x,1/2+y,-z
1/2-x,1/2-y,-z
1/2+x,1/2-y,z
loop_
_atom_site_type_symbol
_atom_site_label
_atom_site_fract_x
_atom_site_fract_y
_atom_site_fract_z
Si Si1 0.369718 0.608842 0.242722
Si Si2 0.957226 0.113770 0.090473
Si Si3 0.719548 0.397811 0.600572
Si Si4 0.042191 0.885344 0.215817
Si Si5 0.597453 0.885005 0.793889
Si Si6 0.948396 0.650466 0.602764
Si Si7 0.590102 0.885513 0.888532
Si Si8 0.782929 0.656616 0.451458
O O1 0.318497 0.500000 0.216980
O O2 0.418656 0.647639 0.213447
O O3 0.586715 0.613664 0.351497
O O4 0.153531 0.647946 0.186961
O O5 0.927701 0.140195 0.129162
O O6 0.198418 0.142450 0.161360
O O7 0.955016 0.000000 0.088572
O O8 0.769477 0.144961 0.988870
O O9 0.500000 0.354391 0.500000
O O10 0.646173 0.500000 0.589901
O O11 0.888380 0.407342 0.623019
O O12 0.860926 0.350157 0.689285
O O13 0.289727 0.845379 0.306360
O O14 0.061929 0.000000 0.224421
O O15 0.638628 0.857611 0.857639
O O16 0.583381 0.000000 0.787060
O O17 0.853033 0.613140 0.522861
O O18 0.830125 0.747216 0.573140
O O19 0.593477 0.000000 0.889152
O O20 0.000000 0.659057 0.500000
#
# Coordination Sequence:
#
# PCOD9187666 Si02
#       8
#     8   8   8   8   8   8   8   8
#     4  10  22  38  57  84 116 147 188 238 282 336
#     4   9  16  29  52  81 112 147 186 229 281 337
#     4  10  20  32  51  83 116 146 183 230 284 332
#     4  10  19  35  60  88 115 147 188 232 282 333
#     4   9  16  28  46  75 113 150 185 221 271 333
#     4  11  22  38  58  78 111 149 188 233 272 339
#     4   9  18  31  49  78 115 149 182 230 286 333
#     4  11  24  41  57  79 110 149 194 228 282 346
#
# _framework density 23.739453999999999
#
# number of rings (size 3 to 8) (size 9 to 14) (size 15 to 20)
#    0.000    2.125    2.500    1.125    1.750    3.250 
#    0.000    2.500    0.000    0.750    0.000    0.000 
#    0.000    0.000    0.000    0.000    0.000    0.000 
#
# Total GULP energy -178784.936793 kJ/mol
# GULP energy per Si atom -5587.029275 kJ/mol
# Density = 2.368542 g / cm^3
# Si number density = 23.739454 Si / 1000 Ang^3
#
#
#
# Elastic Constant Matrix: (Units=GPa)
#
#
# Indices 1 2 3 4 5 6 
#
# 1 106.8143 5.3776 22.8691 -0.0001 -32.4868 0.0000
# 2 5.3776 55.9495 -7.6956 0.0002 -4.5612 -0.0001
# 3 22.8691 -7.6956 130.4578 0.0004 -34.1883 -0.0004
# 4 -0.0001 0.0002 0.0004 4.1004 0.0000 3.5898
# 5 -32.4868 -4.5612 -34.1883 0.0000 47.2911 -0.0002
# 6 0.0000 -0.0001 -0.0004 3.5898 -0.0002 23.8168
#
#
#
# Elastic Compliance Matrix: (Units=1/GPa)
#
#
# Indices 1 2 3 4 5 6 
#
# 1 0.011847 -0.000475 0.000020 0.000000 0.008107 0.000000
# 2 -0.000475 0.018413 0.001911 -0.000001 0.002831 0.000000
# 3 0.000020 0.001911 0.009656 -0.000001 0.007178 0.000000
# 4 0.000000 -0.000001 -0.000001 0.280954 -0.000001 -0.042347
# 5 0.008107 0.002831 0.007178 -0.000001 0.032177 0.000001
# 6 0.000000 0.000000 0.000000 -0.042347 0.000001 0.048370
#
#
# Mechanical properties :
#
#
# Convention : Reuss Voigt Hill
#
# Bulk Modulus (GPa) = 23.34921 37.14710 30.24815
# Shear Modulus (GPa) = 12.11296 33.21969 22.66632
#
# Velocity S-wave (km/s) = 2.26131 3.74484 3.09333
# Velocity P-wave (km/s) = 4.08350 5.86347 5.05249
#
# Compressibility (1/GPa) = 0.04282801
#
# Stress axis : x y z
#
# Youngs Moduli (GPa) = 84.40632 54.31047 103.56458
#
# Poissons Ratio (x) = 0.02580 -0.00204
# Poissons Ratio (y) = 0.04010 -0.19796
# Poissons Ratio (z) = -0.00166 -0.10381
#
# Static dielectric constant tensor:
#      x y z
#    x 1.850590 0.000000 -0.013340 
#    y 0.000000 2.004230 0.000000 
#    z -0.013340 0.000000 1.872350 
# 
# From -- ./inp_files/374502.got.cif
#   From: 2010.05.17/outbox.cif.g08.bks.cpg/sg12_188_cif.got.tgz:374502.got - 2010.06.03 13:09:07.
