data_PCOD9187202
_publ_section_title
;
Structure prediction by ZEFSAII (Michael W. Deem and Ramdas Pophale) SiO2 
 PCOD9187202
Probable space group: C 2/M
;
_chemical_formula_sum "Si O2"
_cell_formula_units_Z 48
_cell_length_a 18.287368
_cell_length_b 14.560680
_cell_length_c 9.602478
_cell_angle_alpha 90.000000
_cell_angle_beta 94.276064
_cell_angle_gamma 90.000000
_cell_volume 2549.796859
_symmetry_space_group_name_H-M "C 2/M"
_symmetry_group_IT_number 12
_symmetry_cell_setting 'monoclinic'
loop_
_space_group_symop_operation_xyz
x,y,z
-x,y,-z
-x,-y,-z
x,-y,z
1/2+x,1/2+y,z
1/2-x,1/2+y,-z
1/2-x,1/2-y,-z
1/2+x,1/2-y,z
loop_
_atom_site_type_symbol
_atom_site_label
_atom_site_fract_x
_atom_site_fract_y
_atom_site_fract_z
Si Si1 0.351452 0.287492 0.116399
Si Si2 0.341317 0.609444 0.827724
Si Si3 0.779716 0.290591 0.361551
Si Si4 0.496234 0.604744 0.167836
Si Si5 0.568088 0.105517 0.594490
Si Si6 0.071385 0.396107 0.919401
O O1 0.296035 0.280501 0.237324
O O2 0.427799 0.329702 0.186820
O O3 0.369095 0.184517 0.063792
O O4 0.329344 0.346186 0.978526
O O5 0.343958 0.500000 0.844561
O O6 0.278358 0.639313 0.713635
O O7 0.422169 0.637964 0.782266
O O8 0.750000 0.250000 0.500000
O O9 0.856797 0.339461 0.404533
O O10 0.484068 0.500000 0.216565
O O11 0.500000 0.600613 0.000000
O O12 0.500000 0.145102 0.500000
O O13 0.548645 0.102822 0.754698
O O14 0.579801 0.000000 0.549035
O O15 0.096867 0.500000 0.958503
O O16 0.000000 0.373951 0.000000
#
# Coordination Sequence:
#
# PCOD9187202 Si02
#       6
#     8   8   8   8   8   8
#     4  10  19  35  58  83 111 149 194 233 274 333
#     4  10  20  38  62  85 113 147 186 236 289 337
#     4  11  24  37  52  80 119 155 185 225 282 340
#     4   8  15  30  56  85 107 135 183 240 287 327
#     4   9  19  37  57  74 101 146 191 226 267 325
#     4   9  17  29  50  83 114 138 175 231 284 327
#
# _framework density 18.825030000000002
#
# number of rings (size 3 to 8) (size 9 to 14) (size 15 to 20)
#    0.000    2.500    0.000    4.000    0.000    4.667 
#    0.000    3.333    0.000    3.000    0.000    0.000 
#    0.000    0.000    0.000    0.000    0.000    0.000 
#
# Total GULP energy -133816.014393 kJ/mol
# GULP energy per Si atom -5575.667266 kJ/mol
# Density = 1.878218 g / cm^3
# Si number density = 18.825030 Si / 1000 Ang^3
#
#
#
# Elastic Constant Matrix: (Units=GPa)
#
#
# Indices 1 2 3 4 5 6 
#
# 1 103.1373 27.7960 53.0625 0.0000 11.1661 0.0000
# 2 27.7960 57.8311 37.2811 0.0000 -3.2547 0.0000
# 3 53.0625 37.2811 79.2140 0.0000 -9.6154 0.0000
# 4 0.0000 0.0000 0.0000 15.6559 0.0000 10.3423
# 5 11.1661 -3.2547 -9.6154 0.0000 41.1989 0.0000
# 6 0.0000 0.0000 0.0000 10.3423 0.0000 21.3458
#
#
#
# Elastic Compliance Matrix: (Units=1/GPa)
#
#
# Indices 1 2 3 4 5 6 
#
# 1 0.016744 -0.000942 -0.011664 0.000000 -0.007335 0.000000
# 2 -0.000942 0.024901 -0.011134 0.000000 -0.000376 0.000000
# 3 -0.011664 -0.011134 0.026711 0.000000 0.008516 0.000000
# 4 0.000000 0.000000 0.000000 0.093941 0.000000 -0.045516
# 5 -0.007335 -0.000376 0.008516 0.000000 0.028218 0.000000
# 6 0.000000 0.000000 0.000000 -0.045516 0.000000 0.068901
#
#
# Mechanical properties :
#
#
# Convention : Reuss Voigt Hill
#
# Bulk Modulus (GPa) = 47.89915 52.94019 50.41967
# Shear Modulus (GPa) = 15.93096 23.77631 19.85364
#
# Velocity S-wave (km/s) = 2.91222 3.55775 3.25105
# Velocity P-wave (km/s) = 6.06693 6.71268 6.39796
#
# Compressibility (1/GPa) = 0.02087720
#
# Stress axis : x y z
#
# Youngs Moduli (GPa) = 59.72120 40.15921 37.43808
#
# Poissons Ratio (x) = 0.03783 0.43666
# Poissons Ratio (y) = 0.05625 0.41684
# Poissons Ratio (z) = 0.69656 0.44713
#
# Static dielectric constant tensor:
#      x y z
#    x 1.691020 0.000000 0.003570 
#    y 0.000000 1.682400 0.000000 
#    z 0.003570 0.000000 1.639380 
# 
# From -- ./inp_files/73650.got.cif
#   From: 2010.05.17/outbox.cif.g08.bks.cpg/sg12_37_cif.got.tgz:73650.got - 2010.06.03 13:09:07.
