data_PCOD9187393
_publ_section_title
;
Structure prediction by ZEFSAII (Michael W. Deem and Ramdas Pophale) SiO2 
 PCOD9187393
Probable space group: C 2/M
;
_chemical_formula_sum "Si O2"
_cell_formula_units_Z 40
_cell_length_a 18.693629
_cell_length_b 14.041619
_cell_length_c 13.426321
_cell_angle_alpha 90.000000
_cell_angle_beta 144.770617
_cell_angle_gamma 90.000000
_cell_volume 2032.973435
_symmetry_space_group_name_H-M "C 2/M"
_symmetry_group_IT_number 12
_symmetry_cell_setting 'monoclinic'
loop_
_space_group_symop_operation_xyz
x,y,z
-x,y,-z
-x,-y,-z
x,-y,z
1/2+x,1/2+y,z
1/2-x,1/2+y,-z
1/2-x,1/2-y,-z
1/2+x,1/2-y,z
loop_
_atom_site_type_symbol
_atom_site_label
_atom_site_fract_x
_atom_site_fract_y
_atom_site_fract_z
Si Si1 0.223244 0.612374 0.975919
Si Si2 0.975307 0.310494 0.586966
Si Si3 0.137370 0.238161 0.018885
Si Si4 0.386069 0.295501 0.658747
Si Si5 0.789419 0.896301 0.721191
O O1 0.234177 0.500000 0.999435
O O2 0.215162 0.670532 0.070681
O O3 0.095777 0.640952 0.773125
O O4 0.328515 0.658158 0.025631
O O5 0.936893 0.215966 0.604749
O O6 0.857111 0.380435 0.461263
O O7 0.000000 0.291767 0.500000
O O8 0.992164 0.260470 0.841464
O O9 0.169502 0.188968 0.159182
O O10 0.250000 0.250000 0.500000
O O11 0.362245 0.387390 0.699579
O O12 0.812083 0.000000 0.792420
#
# Coordination Sequence:
#
# PCOD9187393 Si02
#       5
#     8   8   8   8   8
#     4  10  20  34  54  86 117 146 187 234 284 335
#     4  10  19  35  59  83 111 152 193 232 279 331
#     4  10  20  33  54  83 113 147 187 235 284 332
#     4   9  21  37  52  78 113 153 185 229 286 336
#     4  11  21  34  59  90 117 147 189 236 284 336
#
# _framework density 19.675615000000001
#
# number of rings (size 3 to 8) (size 9 to 14) (size 15 to 20)
#    0.000    2.000    2.000    1.800    0.000    3.200 
#    0.000    0.000    0.000   21.000    0.000    0.000 
#    0.000    0.000    0.000    0.000    0.000    0.000 
#
# Total GULP energy -111352.538844 kJ/mol
# GULP energy per Si atom -5567.626942 kJ/mol
# Density = 1.963083 g / cm^3
# Si number density = 19.675615 Si / 1000 Ang^3
#
#
#
# Elastic Constant Matrix: (Units=GPa)
#
#
# Indices 1 2 3 4 5 6 
#
# 1 97.5556 53.7583 -5.0543 0.0000 -13.1154 0.0000
# 2 53.7583 111.2666 26.5036 0.0000 -19.0023 0.0000
# 3 -5.0543 26.5036 46.9954 0.0000 4.9496 0.0000
# 4 0.0000 0.0000 0.0000 13.7305 0.0000 -6.7886
# 5 -13.1154 -19.0023 4.9496 0.0000 31.5230 0.0000
# 6 0.0000 0.0000 0.0000 -6.7886 0.0000 15.1505
#
#
#
# Elastic Compliance Matrix: (Units=1/GPa)
#
#
# Indices 1 2 3 4 5 6 
#
# 1 0.015689 -0.009251 0.006919 0.000000 -0.000136 0.000000
# 2 -0.009251 0.017801 -0.011957 0.000000 0.008759 0.000000
# 3 0.006919 -0.011957 0.029713 0.000000 -0.008994 0.000000
# 4 0.000000 0.000000 0.000000 0.093557 0.000000 0.041921
# 5 -0.000136 0.008759 -0.008994 0.000000 0.038359 0.000000
# 6 0.000000 0.000000 0.000000 0.041921 0.000000 0.084788
#
#
# Mechanical properties :
#
#
# Convention : Reuss Voigt Hill
#
# Bulk Modulus (GPa) = 28.88073 45.13696 37.00885
# Shear Modulus (GPa) = 15.62375 24.12147 19.87261
#
# Velocity S-wave (km/s) = 2.82098 3.50517 3.18152
# Velocity P-wave (km/s) = 5.03198 6.27471 5.68739
#
# Compressibility (1/GPa) = 0.03462516
#
# Stress axis : x y z
#
# Youngs Moduli (GPa) = 63.74008 56.17648 33.65517
#
# Poissons Ratio (x) = 0.51970 -0.23286
# Poissons Ratio (y) = 0.58967 0.40240
# Poissons Ratio (z) = -0.44101 0.67168
#
# Static dielectric constant tensor:
#      x y z
#    x 1.752400 0.000000 0.004130 
#    y 0.000000 1.662750 0.000000 
#    z 0.004130 0.000000 1.741160 
# 
# From -- ./inp_files/153873.got.cif
#   From: 2010.05.17/outbox.cif.g08.bks.cpg/sg12_77_cif.got.tgz:153873.got - 2010.06.03 13:09:07.
