data_PCOD9187594
_publ_section_title
;
Structure prediction by ZEFSAII (Michael W. Deem and Ramdas Pophale) SiO2 
 PCOD9187594
Probable space group: C 2/M
;
_chemical_formula_sum "Si O2"
_cell_formula_units_Z 56
_cell_length_a 31.238835
_cell_length_b 7.780386
_cell_length_c 22.189476
_cell_angle_alpha 90.000000
_cell_angle_beta 155.589167
_cell_angle_gamma 90.000000
_cell_volume 2228.865401
_symmetry_space_group_name_H-M "C 2/M"
_symmetry_group_IT_number 12
_symmetry_cell_setting 'monoclinic'
loop_
_space_group_symop_operation_xyz
x,y,z
-x,y,-z
-x,-y,-z
x,-y,z
1/2+x,1/2+y,z
1/2-x,1/2+y,-z
1/2-x,1/2-y,-z
1/2+x,1/2-y,z
loop_
_atom_site_type_symbol
_atom_site_label
_atom_site_fract_x
_atom_site_fract_y
_atom_site_fract_z
Si Si1 0.474832 0.296755 0.834944
Si Si2 0.185579 0.794576 0.043841
Si Si3 0.125087 0.291241 0.412268
Si Si4 0.910632 0.701606 0.196704
Si Si5 0.330197 0.709699 0.748648
Si Si6 0.289801 0.208174 0.293055
Si Si7 0.486565 0.301684 0.417036
O O1 0.494103 0.500000 0.867999
O O2 0.578860 0.226049 0.937608
O O3 0.386378 0.273044 0.670743
O O4 0.430584 0.227888 0.841122
O O5 0.177382 0.761252 0.962438
O O6 0.187863 0.000000 0.052073
O O7 0.272294 0.732138 0.201871
O O8 0.123684 0.500000 0.410295
O O9 0.228623 0.239516 0.579807
O O10 0.019972 0.227451 0.310691
O O11 0.913616 0.500000 0.193176
O O12 0.911580 0.734175 0.269112
O O13 0.335371 0.500000 0.754807
O O14 0.305375 0.757743 0.785526
O O15 0.395506 0.281625 0.454732
O O16 0.298243 0.000000 0.305932
O O17 0.500000 0.215112 0.500000
O O18 0.461005 0.500000 0.392327
#
# Coordination Sequence:
#
# PCOD9187594 Si02
#       7
#     8   8   8   8   8   8   8
#     4   9  17  28  45  73 108 148 188 226 266 309
#     4   9  19  34  54  82 117 153 190 228 266 316
#     4   9  16  28  46  71 105 142 183 229 269 312
#     4  10  19  35  60  84 111 148 185 223 272 331
#     4   9  16  28  47  73 108 145 187 230 266 311
#     4  10  20  37  58  81 113 151 187 226 275 329
#     4  11  24  41  62  88 113 134 170 229 285 336
#
# _framework density 25.124889
#
# number of rings (size 3 to 8) (size 9 to 14) (size 15 to 20)
#    0.000    2.429    1.429    1.286    0.000    2.857 
#    0.000    4.286    0.000    0.000    0.000    5.000 
#    0.000    0.000    0.000    0.000    0.000    0.000 
#
# Total GULP energy -156412.991532 kJ/mol
# GULP energy per Si atom -5586.178269 kJ/mol
# Density = 2.506770 g / cm^3
# Si number density = 25.124889 Si / 1000 Ang^3
#
#
#
# Elastic Constant Matrix: (Units=GPa)
#
#
# Indices 1 2 3 4 5 6 
#
# 1 129.8528 1.6909 45.7652 0.0000 -26.3718 0.0000
# 2 1.6909 43.1892 9.4043 0.0000 -2.0656 0.0000
# 3 45.7652 9.4043 136.4606 0.0000 -28.9089 0.0000
# 4 0.0000 0.0000 0.0000 10.4661 0.0000 0.0973
# 5 -26.3718 -2.0656 -28.9089 0.0000 41.0880 0.0000
# 6 0.0000 0.0000 0.0000 0.0973 0.0000 9.6570
#
#
#
# Elastic Compliance Matrix: (Units=1/GPa)
#
#
# Indices 1 2 3 4 5 6 
#
# 1 0.009390 0.000331 -0.002223 0.000000 0.004479 0.000000
# 2 0.000331 0.023518 -0.001688 0.000000 0.000207 0.000000
# 3 -0.002223 -0.001688 0.009248 0.000000 0.004995 0.000000
# 4 0.000000 0.000000 0.000000 0.095556 0.000000 -0.000963
# 5 0.004479 0.000207 0.004995 0.000000 0.030738 0.000000
# 6 0.000000 0.000000 0.000000 -0.000963 0.000000 0.103562
#
#
# Mechanical properties :
#
#
# Convention : Reuss Voigt Hill
#
# Bulk Modulus (GPa) = 28.57452 47.02483 37.79967
# Shear Modulus (GPa) = 17.19174 29.08502 23.13838
#
# Velocity S-wave (km/s) = 2.61866 3.40607 3.03798
# Velocity P-wave (km/s) = 4.53220 5.85025 5.23289
#
# Compressibility (1/GPa) = 0.03499622
#
# Stress axis : x y z
#
# Youngs Moduli (GPa) = 106.49745 42.51990 108.12920
#
# Poissons Ratio (x) = -0.01406 0.24037
# Poissons Ratio (y) = -0.03521 0.18250
# Poissons Ratio (z) = 0.23674 0.07177
#
# Static dielectric constant tensor:
#      x y z
#    x 2.105040 0.000000 -0.003750 
#    y 0.000000 1.915150 0.000000 
#    z -0.003750 0.000000 2.020770 
# 
# From -- ./inp_files/329642.got.cif
#   From: 2010.05.17/outbox.cif.g08.bks.cpg/sg12_165_cif.got.tgz:329642.got - 2010.06.03 13:09:07.
