data_PCOD9187293
_publ_section_title
;
Structure prediction by ZEFSAII (Michael W. Deem and Ramdas Pophale) SiO2 
 PCOD9187293
Probable space group: C 2/M
;
_chemical_formula_sum "Si O2"
_cell_formula_units_Z 64
_cell_length_a 17.425919
_cell_length_b 20.434168
_cell_length_c 25.992190
_cell_angle_alpha 90.000000
_cell_angle_beta 156.768171
_cell_angle_gamma 90.000000
_cell_volume 3650.817964
_symmetry_space_group_name_H-M "C 2/M"
_symmetry_group_IT_number 12
_symmetry_cell_setting 'monoclinic'
loop_
_space_group_symop_operation_xyz
x,y,z
-x,y,-z
-x,-y,-z
x,-y,z
1/2+x,1/2+y,z
1/2-x,1/2+y,-z
1/2-x,1/2-y,-z
1/2+x,1/2-y,z
loop_
_atom_site_type_symbol
_atom_site_label
_atom_site_fract_x
_atom_site_fract_y
_atom_site_fract_z
Si Si1 0.706469 0.724874 0.351417
Si Si2 0.303734 0.629910 0.263383
Si Si3 0.894841 0.925238 0.485362
Si Si4 0.179664 0.167905 0.841193
Si Si5 0.638269 0.225317 0.664238
Si Si6 0.087556 0.422888 0.935987
Si Si7 0.002443 0.366967 0.775482
Si Si8 0.775391 0.813130 0.860163
O O1 0.541814 0.680464 0.276864
O O2 0.759286 0.702972 0.325718
O O3 0.610360 0.797277 0.288094
O O4 0.907411 0.727438 0.508062
O O5 0.518551 0.609124 0.412003
O O6 0.294613 0.631310 0.196888
O O7 0.282020 0.702167 0.273695
O O8 0.138825 0.584874 0.186757
O O9 0.667753 0.918015 0.340377
O O10 0.000000 0.894723 0.500000
O O11 0.955112 0.000000 0.524880
O O12 0.261732 0.240610 0.878433
O O13 0.293581 0.124946 0.952966
O O14 0.689243 0.188787 0.749035
O O15 0.140242 0.500000 0.970141
O O16 0.105154 0.391281 0.890401
O O17 0.147177 0.358733 0.817493
O O18 0.000000 0.832043 0.000000
#
# Coordination Sequence:
#
# PCOD9187293 Si02
#       8
#     8   8   8   8   8   8   8   8
#     4  10  20  35  59  87 113 154 183 237 291 342
#     4  11  20  35  56  82 120 148 184 227 286 346
#     4  11  20  33  54  82 113 150 190 229 279 341
#     4  10  24  36  57  83 118 149 195 233 280 345
#     4  10  19  35  58  86 121 146 184 228 295 347
#     4  12  24  39  57  81 117 160 194 230 281 346
#     4  11  22  35  58  83 116 149 188 237 284 345
#     4  10  23  37  58  88 118 148 184 238 295 340
#
# _framework density 17.530318999999999
#
# number of rings (size 3 to 8) (size 9 to 14) (size 15 to 20)
#    0.000    1.375    3.750    2.625    3.500    4.000 
#    0.000    0.000    0.000    1.500    0.000    1.750 
#    0.000    0.000    0.000    0.000    0.000    0.000 
#
# Total GULP energy -178462.492916 kJ/mol
# GULP energy per Si atom -5576.952904 kJ/mol
# Density = 1.749042 g / cm^3
# Si number density = 17.530319 Si / 1000 Ang^3
#
#
#
# Elastic Constant Matrix: (Units=GPa)
#
#
# Indices 1 2 3 4 5 6 
#
# 1 112.3587 20.3318 47.4239 -0.0090 3.6390 0.0013
# 2 20.3318 25.7208 8.6765 -0.0220 -4.7061 -0.0204
# 3 47.4239 8.6765 79.8849 -0.0086 -2.5691 -0.0165
# 4 -0.0090 -0.0220 -0.0086 19.5665 0.0162 10.2718
# 5 3.6390 -4.7061 -2.5691 0.0162 31.1573 -0.0099
# 6 0.0013 -0.0204 -0.0165 10.2718 -0.0099 -41.2887
#
#
#
# Elastic Compliance Matrix: (Units=1/GPa)
#
#
# Indices 1 2 3 4 5 6 
#
# 1 0.013726 -0.009047 -0.007280 -0.000008 -0.003570 0.000007
# 2 -0.009047 0.047375 0.000491 0.000050 0.008253 -0.000014
# 3 -0.007280 0.000491 0.016861 0.000006 0.002315 -0.000006
# 4 -0.000008 0.000050 0.000006 0.045204 -0.000011 0.011246
# 5 -0.003570 0.008253 0.002315 -0.000011 0.033950 -0.000016
# 6 0.000007 -0.000014 -0.000006 0.011246 -0.000016 -0.021422
#
#
# Mechanical properties :
#
#
# Convention : Reuss Voigt Hill
#
# Bulk Modulus (GPa) = 21.60375 41.20322 31.40349
# Shear Modulus (GPa) = 27.35273 11.32248 19.33761
#
# Velocity S-wave (km/s) = 3.95436 2.54417 3.32489
# Velocity P-wave (km/s) = 5.76192 5.67322 5.71774
#
# Compressibility (1/GPa) = 0.04628826
#
# Stress axis : x y z
#
# Youngs Moduli (GPa) = 72.85593 21.10813 59.30770
#
# Poissons Ratio (x) = 0.19097 0.43179
# Poissons Ratio (y) = 0.65914 -0.02910
# Poissons Ratio (z) = 0.53043 -0.01036
#
# Static dielectric constant tensor:
#      x y z
#    x 1.648300 0.000000 -0.042370 
#    y 0.000000 1.592790 -0.000010 
#    z -0.042370 -0.000010 1.624980 
# 
# From -- ./inp_files/159248.got.cif
#   From: 2010.05.17/outbox.cif.g08.bks.cpg/sg12_80_cif.got.tgz:159248.got - 2010.06.03 13:09:07.
