data_PCOD9187456
_publ_section_title
;
Structure prediction by ZEFSAII (Michael W. Deem and Ramdas Pophale) SiO2 
 PCOD9187456
Probable space group: C 2/M
;
_chemical_formula_sum "Si O2"
_cell_formula_units_Z 64
_cell_length_a 12.575657
_cell_length_b 14.493089
_cell_length_c 17.708711
_cell_angle_alpha 90.000000
_cell_angle_beta 91.050451
_cell_angle_gamma 90.000000
_cell_volume 3227.049295
_symmetry_space_group_name_H-M "C 2/M"
_symmetry_group_IT_number 12
_symmetry_cell_setting 'monoclinic'
loop_
_space_group_symop_operation_xyz
x,y,z
-x,y,-z
-x,-y,-z
x,-y,z
1/2+x,1/2+y,z
1/2-x,1/2+y,-z
1/2-x,1/2-y,-z
1/2+x,1/2-y,z
loop_
_atom_site_type_symbol
_atom_site_label
_atom_site_fract_x
_atom_site_fract_y
_atom_site_fract_z
Si Si1 0.511996 0.390385 0.182472
Si Si2 0.799990 0.857305 0.081617
Si Si3 0.233882 0.891857 0.647870
Si Si4 0.224162 0.146367 0.089422
Si Si5 0.931770 0.755801 0.311974
Si Si6 0.395452 0.896453 0.207114
Si Si7 0.362422 0.103444 0.795090
Si Si8 0.952781 0.607195 0.581848
O O1 0.516799 0.500000 0.201155
O O2 0.410759 0.375355 0.125655
O O3 0.619417 0.362126 0.139882
O O4 0.491606 0.325610 0.255056
O O5 0.767407 0.750207 0.082322
O O6 0.705604 0.898995 0.130323
O O7 0.801697 0.888352 0.994940
O O8 0.136773 0.822904 0.636028
O O9 0.290096 0.857207 0.727014
O O10 0.325219 0.887027 0.586282
O O11 0.201487 0.000000 0.656238
O O12 0.321733 0.099451 0.133341
O O13 0.858904 0.685157 0.261853
O O14 0.002216 0.683452 0.360055
O O15 0.517009 0.865312 0.190223
O O16 0.393770 0.000000 0.239969
O O17 0.377904 0.000000 0.766811
O O18 0.979498 0.500000 0.602375
O O19 0.000000 0.623904 0.500000
#
# Coordination Sequence:
#
# PCOD9187456 Si02
#       8
#     8   8   8   8   8   8   8   8
#     4  12  25  42  64  91 126 174 224 265 319 386
#     4  11  23  40  62  83 120 170 223 272 324 379
#     4  10  20  38  64  93 125 163 207 253 301 372
#     4  11  25  40  56  88 127 166 213 280 332 375
#     4  12  22  37  67  95 124 159 210 259 302 364
#     4  11  22  37  59  90 125 163 207 268 333 380
#     4  10  19  35  59  85 115 158 214 261 307 373
#     4  10  23  44  70  99 130 163 199 245 310 385
#
# _framework density 19.832360000000001
#
# number of rings (size 3 to 8) (size 9 to 14) (size 15 to 20)
#    0.000    1.125    3.750    2.625    1.750    3.500 
#    0.000    1.250    0.000    1.500    0.000    0.000 
#    0.000    0.000    0.000    0.000    0.000    0.000 
#
# Total GULP energy -178451.204011 kJ/mol
# GULP energy per Si atom -5576.600125 kJ/mol
# Density = 1.978722 g / cm^3
# Si number density = 19.832360 Si / 1000 Ang^3
#
#
#
# Elastic Constant Matrix: (Units=GPa)
#
#
# Indices 1 2 3 4 5 6 
#
# 1 70.1393 29.8649 4.0585 0.0000 -9.2552 0.0000
# 2 29.8649 132.3268 22.6197 0.0000 -8.2229 0.0000
# 3 4.0585 22.6197 65.6893 0.0000 -20.3594 0.0000
# 4 0.0000 0.0000 0.0000 17.4914 0.0000 3.8205
# 5 -9.2552 -8.2229 -20.3594 0.0000 27.8355 0.0000
# 6 0.0000 0.0000 0.0000 3.8205 0.0000 25.6673
#
#
#
# Elastic Compliance Matrix: (Units=1/GPa)
#
#
# Indices 1 2 3 4 5 6 
#
# 1 0.016499 -0.003714 0.002094 0.000000 0.005921 0.000000
# 2 -0.003714 0.008870 -0.003098 0.000000 -0.000880 0.000000
# 3 0.002094 -0.003098 0.020810 0.000000 0.015002 0.000000
# 4 0.000000 0.000000 0.000000 0.059092 0.000000 -0.008796
# 5 0.005921 -0.000880 0.015002 0.000000 0.048607 0.000000
# 6 0.000000 0.000000 0.000000 -0.008796 0.000000 0.040269
#
#
# Mechanical properties :
#
#
# Convention : Reuss Voigt Hill
#
# Bulk Modulus (GPa) = 27.21459 42.36017 34.78738
# Shear Modulus (GPa) = 23.16643 28.30631 25.73637
#
# Velocity S-wave (km/s) = 3.42147 3.78203 3.60626
# Velocity P-wave (km/s) = 5.41856 6.36217 5.90923
#
# Compressibility (1/GPa) = 0.03674500
#
# Stress axis : x y z
#
# Youngs Moduli (GPa) = 60.61095 112.73939 48.05335
#
# Poissons Ratio (x) = 0.41868 -0.10065
# Poissons Ratio (y) = 0.22509 0.14885
# Poissons Ratio (z) = -0.12695 0.34923
#
# Static dielectric constant tensor:
#      x y z
#    x 1.713320 0.000000 -0.000460 
#    y 0.000000 1.835200 0.000000 
#    z -0.000460 0.000000 1.708990 
# 
# From -- ./inp_files/263334.got.cif
#   From: 2010.05.17/outbox.cif.g08.bks.cpg/sg12_132_cif.got.tgz:263334.got - 2010.06.03 13:09:07.
