data_PCOD9187931
_publ_section_title
;
Structure prediction by ZEFSAII (Michael W. Deem and Ramdas Pophale) SiO2 
 PCOD9187931
Probable space group: C 2/M
;
_chemical_formula_sum "Si O2"
_cell_formula_units_Z 32
_cell_length_a 19.660318
_cell_length_b 8.659592
_cell_length_c 24.268341
_cell_angle_alpha 90.000000
_cell_angle_beta 22.593066
_cell_angle_gamma 90.000000
_cell_volume 1587.328705
_symmetry_space_group_name_H-M "C 2/M"
_symmetry_group_IT_number 12
_symmetry_cell_setting 'monoclinic'
loop_
_space_group_symop_operation_xyz
x,y,z
-x,y,-z
-x,-y,-z
x,-y,z
1/2+x,1/2+y,z
1/2-x,1/2+y,-z
1/2-x,1/2-y,-z
1/2+x,1/2-y,z
loop_
_atom_site_type_symbol
_atom_site_label
_atom_site_fract_x
_atom_site_fract_y
_atom_site_fract_z
Si Si1 0.222996 0.000000 0.913013
Si Si2 0.779627 0.500000 0.001933
Si Si3 0.400279 0.329370 0.633320
Si Si4 0.528001 0.251179 0.869498
Si Si5 0.504483 0.000000 0.611142
Si Si6 0.114357 0.000000 0.714396
O O1 0.266973 0.000000 0.945268
O O2 0.400675 0.000000 0.746007
O O3 0.094305 0.855134 0.999759
O O4 0.890501 0.642379 0.941319
O O5 0.575463 0.500000 0.173498
O O6 0.500000 0.328393 0.500000
O O7 0.443711 0.500000 0.626687
O O8 0.448214 0.164004 0.625110
O O9 0.189905 0.325315 0.779702
O O10 0.614560 0.356454 0.756632
O O11 0.716948 0.000000 0.450704
#
# Coordination Sequence:
#
# PCOD9187931 Si02
#       6
#     4   4   8   8   4   4
#     4  10  23  38  60  93 125 163 205 256 314 368
#     4  10  20  41  66  93 116 163 223 251 295 372
#     4  11  22  38  65  97 123 162 211 257 305 378
#     4  10  19  39  64  88 119 164 213 255 294 372
#     4  12  23  41  62  97 132 161 195 262 331 359
#     4  10  19  35  63  86 122 164 201 247 309 374
#
# _framework density 20.159655000000001
#
# number of rings (size 3 to 8) (size 9 to 14) (size 15 to 20)
#    0.000    1.750    3.750    4.875    0.000    2.000 
#    2.250    6.250    0.000    0.000    0.000    0.000 
#    0.000    0.000    0.000    0.000    0.000    0.000 
#
# Total GULP energy -89192.016171 kJ/mol
# GULP energy per Si atom -5574.501011 kJ/mol
# Density = 2.011377 g / cm^3
# Si number density = 20.159655 Si / 1000 Ang^3
#
#
#
# Elastic Constant Matrix: (Units=GPa)
#
#
# Indices 1 2 3 4 5 6 
#
# 1 29.2545 28.9362 41.6556 -0.0002 -7.7375 0.0001
# 2 28.9362 147.0658 45.9487 -0.0014 -7.4744 0.0003
# 3 41.6556 45.9487 188.4862 -0.0017 1.6985 0.0002
# 4 -0.0002 -0.0014 -0.0017 10.7819 -0.0016 -10.9953
# 5 -7.7375 -7.4744 1.6985 -0.0016 29.0433 -0.0002
# 6 0.0001 0.0003 0.0002 -10.9953 -0.0002 4.4994
#
#
#
# Elastic Compliance Matrix: (Units=1/GPa)
#
#
# Indices 1 2 3 4 5 6 
#
# 1 0.063588 -0.007883 -0.012272 0.000000 0.015630 0.000000
# 2 -0.007883 0.008455 -0.000320 0.000000 0.000095 -0.000001
# 3 -0.012272 -0.000320 0.008130 0.000000 -0.003827 -0.000001
# 4 0.000000 0.000000 0.000000 -0.062160 -0.000004 -0.151902
# 5 0.015630 0.000095 -0.003827 -0.000004 0.038844 -0.000010
# 6 0.000000 -0.000001 -0.000001 -0.151902 -0.000010 -0.148954
#
#
# Mechanical properties :
#
#
# Convention : Reuss Voigt Hill
#
# Bulk Modulus (GPa) = 25.49481 66.43195 45.96338
# Shear Modulus (GPa) = -131.32739 25.41598 -52.95570
#
# Velocity S-wave (km/s) = -8.07992 3.55454 -5.13081
# Velocity P-wave (km/s) = 8.62397 7.06192 3.50015
#
# Compressibility (1/GPa) = 0.03922368
#
# Stress axis : x y z
#
# Youngs Moduli (GPa) = 15.72622 118.26685 122.99966
#
# Poissons Ratio (x) = 0.93227 1.50948
# Poissons Ratio (y) = 0.12397 0.03936
# Poissons Ratio (z) = 0.19300 0.03785
#
# Static dielectric constant tensor:
#      x y z
#    x 1.680710 0.000000 -0.004070 
#    y 0.000000 1.833820 0.000000 
#    z -0.004070 0.000000 1.689210 
# 
# From -- ./inp_files/92232.got.cif
#   From: 2010.05.17/outbox.cif.g08.bks.cpg/sg12_47_cif.got.tgz:92232.got - 2010.06.03 13:09:07.
