data_PCOD9187883
_publ_section_title
;
Structure prediction by ZEFSAII (Michael W. Deem and Ramdas Pophale) SiO2 
 PCOD9187883
Probable space group: C 2/M
;
_chemical_formula_sum "Si O2"
_cell_formula_units_Z 56
_cell_length_a 27.133945
_cell_length_b 8.330507
_cell_length_c 12.881931
_cell_angle_alpha 90.000000
_cell_angle_beta 68.865970
_cell_angle_gamma 90.000000
_cell_volume 2715.974807
_symmetry_space_group_name_H-M "C 2/M"
_symmetry_group_IT_number 12
_symmetry_cell_setting 'monoclinic'
loop_
_space_group_symop_operation_xyz
x,y,z
-x,y,-z
-x,-y,-z
x,-y,z
1/2+x,1/2+y,z
1/2-x,1/2+y,-z
1/2-x,1/2-y,-z
1/2+x,1/2-y,z
loop_
_atom_site_type_symbol
_atom_site_label
_atom_site_fract_x
_atom_site_fract_y
_atom_site_fract_z
Si Si1 0.699496 0.189776 0.600239
Si Si2 0.152279 0.304023 0.843219
Si Si3 0.466027 0.191926 0.129126
Si Si4 0.189811 0.305625 0.040001
Si Si5 0.118727 0.310385 0.287267
Si Si6 0.995992 0.188760 0.681110
Si Si7 0.109035 0.189986 0.519662
O O1 0.750000 0.250000 0.500000
O O2 0.692404 0.252543 0.723182
O O3 0.646926 0.230271 0.575296
O O4 0.704246 0.000000 0.604152
O O5 0.153199 0.500000 0.844931
O O6 0.093753 0.258676 0.850788
O O7 0.165478 0.249025 0.948938
O O8 0.489391 0.282987 0.209869
O O9 0.466704 0.000000 0.151791
O O10 0.500000 0.217287 0.000000
O O11 0.188136 0.500000 0.041336
O O12 0.155605 0.251137 0.165030
O O13 0.250000 0.250000 0.000000
O O14 0.127418 0.500000 0.293522
O O15 0.129059 0.226950 0.389237
O O16 0.057731 0.279031 0.304672
O O17 0.048151 0.244292 0.578906
O O18 0.987695 0.000000 0.665571
O O19 0.109639 0.000000 0.537934
#
# Coordination Sequence:
#
# PCOD9187883 Si02
#       7
#     8   8   8   8   8   8   8
#     4  11  23  40  64  93 124 162 206 254 309 369
#     4   9  19  38  62  88 120 157 198 244 302 363
#     4  10  19  35  62  90 120 161 204 250 302 366
#     4  10  23  43  64  91 122 159 205 254 306 365
#     4  11  24  41  64  92 125 165 211 258 305 370
#     4  11  23  39  60  91 128 163 202 254 313 371
#     4  11  24  42  63  91 128 166 206 257 313 370
#
# _framework density 20.618746999999999
#
# number of rings (size 3 to 8) (size 9 to 14) (size 15 to 20)
#    0.000    1.571    1.429    3.000    2.000    7.143 
#    0.000    1.429    0.000    0.000    0.000    0.000 
#    0.000    0.000    0.000    0.000    0.000    0.000 
#
# Total GULP energy -156541.333354 kJ/mol
# GULP energy per Si atom -5590.761905 kJ/mol
# Density = 2.057182 g / cm^3
# Si number density = 20.618747 Si / 1000 Ang^3
#
#
#
# Elastic Constant Matrix: (Units=GPa)
#
#
# Indices 1 2 3 4 5 6 
#
# 1 32.6591 -7.8240 12.4057 0.0000 -11.7550 0.0000
# 2 -7.8240 11.5837 6.8453 0.0000 -9.7329 0.0000
# 3 12.4057 6.8453 135.7595 0.0000 -12.5977 0.0000
# 4 0.0000 0.0000 0.0000 19.7436 0.0000 -4.6095
# 5 -11.7550 -9.7329 -12.5977 0.0000 40.0677 0.0000
# 6 0.0000 0.0000 0.0000 -4.6095 0.0000 29.8177
#
#
#
# Elastic Compliance Matrix: (Units=1/GPa)
#
#
# Indices 1 2 3 4 5 6 
#
# 1 0.064419 0.077280 -0.006477 0.000000 0.035635 0.000000
# 2 0.077280 0.202470 -0.010922 0.000000 0.068421 0.000000
# 3 -0.006477 -0.010922 0.008329 0.000000 -0.001934 0.000000
# 4 0.000000 0.000000 0.000000 0.052546 0.000000 0.008123
# 5 0.035635 0.068421 -0.001934 0.000000 0.051424 0.000000
# 6 0.000000 0.000000 0.000000 0.008123 0.000000 0.034793
#
#
# Mechanical properties :
#
#
# Convention : Reuss Voigt Hill
#
# Bulk Modulus (GPa) = 2.53176 22.53959 12.53567
# Shear Modulus (GPa) = 11.74044 29.16415 20.45230
#
# Velocity S-wave (km/s) = 2.38881 3.76500 3.15290
# Velocity P-wave (km/s) = 2.97307 5.46403 4.39856
#
# Compressibility (1/GPa) = 0.39498231
#
# Stress axis : x y z
#
# Youngs Moduli (GPa) = 15.52326 4.93901 120.06255
#
# Poissons Ratio (x) = -0.38169 0.77759
# Poissons Ratio (y) = -1.19964 1.31130
# Poissons Ratio (z) = 0.10054 0.05394
#
# Static dielectric constant tensor:
#      x y z
#    x 1.699680 0.000000 -0.006890 
#    y 0.000000 1.730660 0.000000 
#    z -0.006890 0.000000 1.761780 
# 
# From -- ./inp_files/180797.got.cif
#   From: 2010.05.17/outbox.cif.g08.bks.cpg/sg12_91_cif.got.tgz:180797.got - 2010.06.03 13:09:07.
