data_PCOD9187129
_publ_section_title
;
Structure prediction by ZEFSAII (Michael W. Deem and Ramdas Pophale) SiO2 
 PCOD9187129
Probable space group: C 2/M
;
_chemical_formula_sum "Si O2"
_cell_formula_units_Z 64
_cell_length_a 11.775222
_cell_length_b 15.304972
_cell_length_c 17.025505
_cell_angle_alpha 90.000000
_cell_angle_beta 109.215146
_cell_angle_gamma 90.000000
_cell_volume 2897.388695
_symmetry_space_group_name_H-M "C 2/M"
_symmetry_group_IT_number 12
_symmetry_cell_setting 'monoclinic'
loop_
_space_group_symop_operation_xyz
x,y,z
-x,y,-z
-x,-y,-z
x,-y,z
1/2+x,1/2+y,z
1/2-x,1/2+y,-z
1/2-x,1/2-y,-z
1/2+x,1/2-y,z
loop_
_atom_site_type_symbol
_atom_site_label
_atom_site_fract_x
_atom_site_fract_y
_atom_site_fract_z
Si Si1 0.521185 0.272977 0.096345
Si Si2 0.951546 0.231907 0.574931
Si Si3 0.231611 0.093988 0.183149
Si Si4 0.799209 0.185332 0.306479
Si Si5 0.396800 0.398197 0.181094
Si Si6 0.846191 0.853299 0.683922
Si Si7 0.501531 0.903230 0.188108
Si Si8 0.152315 0.403556 0.384861
O O1 0.641860 0.329947 0.137169
O O2 0.415933 0.332096 0.113051
O O3 0.529830 0.179745 0.140941
O O4 0.500000 0.261643 0.000000
O O5 0.072565 0.232748 0.655431
O O6 0.000000 0.214896 0.500000
O O7 0.865191 0.158986 0.595427
O O8 0.887121 0.325489 0.567160
O O9 0.245405 0.094927 0.281557
O O10 0.359963 0.102906 0.173543
O O11 0.177686 0.000000 0.148842
O O12 0.801812 0.137569 0.223414
O O13 0.695169 0.255665 0.300145
O O14 0.780511 0.116772 0.372885
O O15 0.376530 0.500000 0.157156
O O16 0.526313 0.388606 0.254932
O O17 0.566920 0.901599 0.287717
O O18 0.527727 0.000000 0.159766
O O19 0.147586 0.500000 0.418870
#
# Coordination Sequence:
#
# PCOD9187129 Si02
#       8
#     8   8   8   8   8   8   8   8
#     4  11  22  35  57  85 116 148 183 224 273 332
#     4  10  21  34  52  79 113 147 177 213 269 334
#     4  10  20  37  60  82 110 146 185 232 278 323
#     4  10  19  35  58  79 104 140 185 228 269 317
#     4  10  20  35  56  81 110 142 181 231 278 323
#     4   9  17  31  54  77 101 137 183 223 263 312
#     4  10  22  40  60  83 109 143 188 232 277 326
#     4  10  20  35  58  83 105 134 180 234 274 314
#
# _framework density 22.088854999999999
#
# number of rings (size 3 to 8) (size 9 to 14) (size 15 to 20)
#    0.000    2.000    0.000    7.125    0.000    4.000 
#    0.000    0.625    0.000   21.750    0.000    0.000 
#    0.000    0.000    0.000    0.000    0.000    0.000 
#
# Total GULP energy -178377.767485 kJ/mol
# GULP energy per Si atom -5574.305234 kJ/mol
# Density = 2.203858 g / cm^3
# Si number density = 22.088855 Si / 1000 Ang^3
#
#
#
# Elastic Constant Matrix: (Units=GPa)
#
#
# Indices 1 2 3 4 5 6 
#
# 1 66.4906 37.0087 12.1593 0.0000 -12.7472 0.0000
# 2 37.0087 135.6722 31.6336 0.0000 -6.7582 0.0000
# 3 12.1593 31.6336 78.5316 0.0000 -21.7445 0.0000
# 4 0.0000 0.0000 0.0000 9.0609 0.0000 -1.7836
# 5 -12.7472 -6.7582 -21.7445 0.0000 18.1716 0.0000
# 6 0.0000 0.0000 0.0000 -1.7836 0.0000 28.0026
#
#
#
# Elastic Compliance Matrix: (Units=1/GPa)
#
#
# Indices 1 2 3 4 5 6 
#
# 1 0.020778 -0.005704 0.003782 0.000000 0.016980 0.000000
# 2 -0.005704 0.009722 -0.004696 0.000000 -0.006004 0.000000
# 3 0.003782 -0.004696 0.021372 0.000000 0.026481 0.000000
# 4 0.000000 0.000000 0.000000 0.111766 0.000000 0.007119
# 5 0.016980 -0.006004 0.026481 0.000000 0.096396 0.000000
# 6 0.000000 0.000000 0.000000 0.007119 0.000000 0.036164
#
#
# Mechanical properties :
#
#
# Convention : Reuss Voigt Hill
#
# Bulk Modulus (GPa) = 25.88180 49.14418 37.51299
# Shear Modulus (GPa) = 15.51288 24.37320 19.94304
#
# Velocity S-wave (km/s) = 2.65296 3.32537 3.00801
# Velocity P-wave (km/s) = 4.59639 6.08612 5.39294
#
# Compressibility (1/GPa) = 0.03863719
#
# Stress axis : x y z
#
# Youngs Moduli (GPa) = 48.12743 102.85561 46.79074
#
# Poissons Ratio (x) = 0.58668 -0.17696
# Poissons Ratio (y) = 0.27451 0.21971
# Poissons Ratio (z) = -0.18202 0.48297
#
# Static dielectric constant tensor:
#      x y z
#    x 1.864270 0.000000 -0.002320 
#    y 0.000000 1.892510 0.000000 
#    z -0.002320 0.000000 1.836420 
# 
# From -- ./inp_files/263361.got.cif
#   From: 2010.05.17/outbox.cif.g08.bks.cpg/sg12_132_cif.got.tgz:263361.got - 2010.06.03 13:09:07.
