data_PCOD9187322
_publ_section_title
;
Structure prediction by ZEFSAII (Michael W. Deem and Ramdas Pophale) SiO2 
 PCOD9187322
Probable space group: C 2/M
;
_chemical_formula_sum "Si O2"
_cell_formula_units_Z 50
_cell_length_a 27.613019
_cell_length_b 12.876107
_cell_length_c 9.154951
_cell_angle_alpha 90.000000
_cell_angle_beta 129.000137
_cell_angle_gamma 90.000000
_cell_volume 2529.625593
_symmetry_space_group_name_H-M "C 2/M"
_symmetry_group_IT_number 12
_symmetry_cell_setting 'monoclinic'
loop_
_space_group_symop_operation_xyz
x,y,z
-x,y,-z
-x,-y,-z
x,-y,z
1/2+x,1/2+y,z
1/2-x,1/2+y,-z
1/2-x,1/2-y,-z
1/2+x,1/2-y,z
loop_
_atom_site_type_symbol
_atom_site_label
_atom_site_fract_x
_atom_site_fract_y
_atom_site_fract_z
Si Si1 0.891768 0.382242 0.291051
Si Si2 0.145144 0.754723 0.040038
Si Si3 0.500000 0.000000 0.000000
Si Si4 0.034361 0.325106 0.290252
Si Si5 0.264357 0.882316 0.233148
Si Si6 0.529772 0.617184 0.894857
Si Si7 0.152454 0.621150 0.334804
O O1 0.893837 0.500000 0.239848
O O2 0.944672 0.367620 0.513384
O O3 0.825871 0.368036 0.251656
O O4 0.891631 0.302250 0.159082
O O5 0.208803 0.803667 0.101876
O O6 0.161584 0.671269 0.195924
O O7 0.101207 0.843780 0.025636
O O8 0.504834 0.092670 0.880400
O O9 0.097747 0.319408 0.314890
O O10 0.006787 0.210670 0.252111
O O11 0.288107 0.875134 0.446368
O O12 0.242394 0.000000 0.166479
O O13 0.524492 0.500000 0.825597
O O14 0.500000 0.616216 0.000000
O O15 0.130230 0.500000 0.283568
#
# Coordination Sequence:
#
# PCOD9187322 Si02
#       7
#     8   8   2   8   8   8   8
#     4  10  22  40  60  92 129 151 195 252 321 374
#     4  12  21  37  60  91 117 163 201 249 307 363
#     4  12  16  32  66  90 116 156 218 230 306 378
#     4  11  20  39  62  89 117 167 195 252 308 362
#     4   9  20  38  61  84 118 163 201 250 297 367
#     4  11  24  41  60  86 120 161 211 254 294 359
#     4  10  19  35  58  89 121 149 203 254 309 359
#
# _framework density 19.76577
#
# number of rings (size 3 to 8) (size 9 to 14) (size 15 to 20)
#    0.000    1.440    4.000    2.880    0.000    0.640 
#    1.440    3.200    0.000    3.840    0.000    0.000 
#    0.000    0.000    0.000    0.000    0.000    0.000 
#
# Total GULP energy -139367.824174 kJ/mol
# GULP energy per Si atom -5574.712967 kJ/mol
# Density = 1.972078 g / cm^3
# Si number density = 19.765770 Si / 1000 Ang^3
#
#
#
# Elastic Constant Matrix: (Units=GPa)
#
#
# Indices 1 2 3 4 5 6 
#
# 1 53.2222 38.5537 17.7556 0.0000 -2.8709 0.0000
# 2 38.5537 143.9822 46.4364 0.0000 1.4326 0.0000
# 3 17.7556 46.4364 74.1741 0.0000 -13.6650 0.0000
# 4 0.0000 0.0000 0.0000 27.8758 0.0000 -1.0514
# 5 -2.8709 1.4326 -13.6650 0.0000 25.5772 0.0000
# 6 0.0000 0.0000 0.0000 -1.0514 0.0000 20.5681
#
#
#
# Elastic Compliance Matrix: (Units=1/GPa)
#
#
# Indices 1 2 3 4 5 6 
#
# 1 0.023673 -0.005836 -0.001623 0.000000 0.002117 0.000000
# 2 -0.005836 0.010482 -0.005983 0.000000 -0.004439 0.000000
# 3 -0.001623 -0.005983 0.019570 0.000000 0.010609 0.000000
# 4 0.000000 0.000000 0.000000 0.035943 0.000000 0.001837
# 5 0.002117 -0.004439 0.010609 0.000000 0.045251 0.000000
# 6 0.000000 0.000000 0.000000 0.001837 0.000000 0.048713
#
#
# Mechanical properties :
#
#
# Convention : Reuss Voigt Hill
#
# Bulk Modulus (GPa) = 37.25692 52.98555 45.12124
# Shear Modulus (GPa) = 22.78298 26.04641 24.41469
#
# Velocity S-wave (km/s) = 3.39875 3.63403 3.51835
# Velocity P-wave (km/s) = 5.85595 6.66882 6.27556
#
# Compressibility (1/GPa) = 0.02684065
#
# Stress axis : x y z
#
# Youngs Moduli (GPa) = 42.24302 95.40380 51.09834
#
# Poissons Ratio (x) = 0.55682 0.08292
# Poissons Ratio (y) = 0.24655 0.30570
# Poissons Ratio (z) = 0.06855 0.57077
#
# Static dielectric constant tensor:
#      x y z
#    x 1.826660 0.000000 0.105630 
#    y 0.000000 1.678030 0.000000 
#    z 0.105630 0.000000 1.761320 
# 
# From -- ./inp_files/103308.got.cif
#   From: 2010.05.17/outbox.cif.g08.bks.cpg/sg12_52_cif.got.tgz:103308.got - 2010.06.03 13:09:07.
