data_PCOD9187841
_publ_section_title
;
Structure prediction by ZEFSAII (Michael W. Deem and Ramdas Pophale) SiO2 
 PCOD9187841
Probable space group: C 2/M
;
_chemical_formula_sum "Si O2"
_cell_formula_units_Z 56
_cell_length_a 8.340721
_cell_length_b 22.054193
_cell_length_c 26.754739
_cell_angle_alpha 90.000000
_cell_angle_beta 145.350427
_cell_angle_gamma 90.000000
_cell_volume 2798.134052
_symmetry_space_group_name_H-M "C 2/M"
_symmetry_group_IT_number 12
_symmetry_cell_setting 'monoclinic'
loop_
_space_group_symop_operation_xyz
x,y,z
-x,y,-z
-x,-y,-z
x,-y,z
1/2+x,1/2+y,z
1/2-x,1/2+y,-z
1/2-x,1/2-y,-z
1/2+x,1/2-y,z
loop_
_atom_site_type_symbol
_atom_site_label
_atom_site_fract_x
_atom_site_fract_y
_atom_site_fract_z
Si Si1 0.230189 0.889848 0.875257
Si Si2 0.163254 0.931177 0.972086
Si Si3 0.691241 0.570281 0.690004
Si Si4 0.528872 0.772068 0.100137
Si Si5 0.331293 0.841129 0.149150
Si Si6 0.686754 0.429537 0.498291
Si Si7 0.209742 0.930167 0.316451
O O1 0.180759 0.917420 0.917076
O O2 0.313968 0.819488 0.896153
O O3 0.959878 0.899035 0.771519
O O4 0.514948 0.921907 0.926896
O O5 0.936795 0.882992 0.932614
O O6 0.074511 0.000000 0.958485
O O7 0.780530 0.500000 0.702490
O O8 0.500091 0.594040 0.595237
O O9 0.494516 0.569183 0.688326
O O10 0.948255 0.614535 0.767749
O O11 0.456651 0.808175 0.132200
O O12 0.720977 0.713005 0.156165
O O13 0.250000 0.750000 0.000000
O O14 0.500000 0.428523 0.500000
O O15 0.743951 0.500000 0.498538
O O16 0.991562 0.402790 0.589871
O O17 0.261329 0.000000 0.313607
#
# Coordination Sequence:
#
# PCOD9187841 Si02
#       7
#     8   8   8   8   8   8   8
#     4  11  22  41  62  94 127 171 216 263 320 380
#     4  11  24  40  61  94 136 170 204 264 334 392
#     4  10  21  39  63  99 134 164 206 263 331 390
#     4  12  25  43  65  88 122 172 231 270 306 369
#     4  12  25  43  65  92 125 171 221 270 318 375
#     4   9  19  35  60  94 132 169 206 254 318 393
#     4  10  19  35  61  93 131 168 207 254 317 391
#
# _framework density 20.013337
#
# number of rings (size 3 to 8) (size 9 to 14) (size 15 to 20)
#    0.000    1.286    2.857    3.857    4.000    1.714 
#    0.000    0.714    0.000    0.857    0.000    0.000 
#    0.000    0.000    0.000    0.000    0.000    0.000 
#
# Total GULP energy -156513.274634 kJ/mol
# GULP energy per Si atom -5589.759808 kJ/mol
# Density = 1.996779 g / cm^3
# Si number density = 20.013337 Si / 1000 Ang^3
#
#
#
# Elastic Constant Matrix: (Units=GPa)
#
#
# Indices 1 2 3 4 5 6 
#
# 1 60.7009 28.1892 41.8650 -0.0021 -0.5954 0.0000
# 2 28.1892 116.8198 50.1109 -0.0140 7.8128 -0.0007
# 3 41.8650 50.1109 167.3332 -0.0212 -7.2197 0.0084
# 4 -0.0021 -0.0140 -0.0212 14.4138 -0.0040 9.4161
# 5 -0.5954 7.8128 -7.2197 -0.0040 27.8756 0.0005
# 6 0.0000 -0.0007 0.0084 9.4161 0.0005 20.8433
#
#
#
# Elastic Compliance Matrix: (Units=1/GPa)
#
#
# Indices 1 2 3 4 5 6 
#
# 1 0.020913 -0.003240 -0.004251 -0.000010 0.000254 0.000006
# 2 -0.003240 0.010685 -0.002550 0.000006 -0.003724 -0.000001
# 3 -0.004251 -0.002550 0.007919 0.000016 0.002675 -0.000011
# 4 -0.000010 0.000006 0.000016 0.098425 0.000017 -0.044464
# 5 0.000254 -0.003724 0.002675 0.000017 0.037616 -0.000010
# 6 0.000006 -0.000001 -0.000011 -0.044464 -0.000010 0.068064
#
#
# Mechanical properties :
#
#
# Convention : Reuss Voigt Hill
#
# Bulk Modulus (GPa) = 51.45334 65.02047 58.23691
# Shear Modulus (GPa) = 18.50606 27.60581 23.05593
#
# Velocity S-wave (km/s) = 3.04416 3.71802 3.39784
# Velocity P-wave (km/s) = 6.17424 7.14077 6.67502
#
# Compressibility (1/GPa) = 0.01943508
#
# Stress axis : x y z
#
# Youngs Moduli (GPa) = 47.81665 93.59037 126.28365
#
# Poissons Ratio (x) = 0.30322 0.53684
# Poissons Ratio (y) = 0.15492 0.32201
# Poissons Ratio (z) = 0.20327 0.23864
#
# Static dielectric constant tensor:
#      x y z
#    x 1.758260 0.000000 0.009680 
#    y 0.000000 1.716280 0.000000 
#    z 0.009680 0.000000 1.711230 
# 
# From -- ./inp_files/373175.got.cif
#   From: 2010.05.17/outbox.cif.g08.bks.cpg/sg12_187_cif.got.tgz:373175.got - 2010.06.03 13:09:07.
