data_PCOD9187147
_publ_section_title
;
Structure prediction by ZEFSAII (Michael W. Deem and Ramdas Pophale) SiO2 
 PCOD9187147
Probable space group: C 2/M
;
_chemical_formula_sum "Si O2"
_cell_formula_units_Z 48
_cell_length_a 23.136961
_cell_length_b 13.655661
_cell_length_c 20.163559
_cell_angle_alpha 90.000000
_cell_angle_beta 153.969805
_cell_angle_gamma 90.000000
_cell_volume 2795.742325
_symmetry_space_group_name_H-M "C 2/M"
_symmetry_group_IT_number 12
_symmetry_cell_setting 'monoclinic'
loop_
_space_group_symop_operation_xyz
x,y,z
-x,y,-z
-x,-y,-z
x,-y,z
1/2+x,1/2+y,z
1/2-x,1/2+y,-z
1/2-x,1/2-y,-z
1/2+x,1/2-y,z
loop_
_atom_site_type_symbol
_atom_site_label
_atom_site_fract_x
_atom_site_fract_y
_atom_site_fract_z
Si Si1 0.953057 0.114832 0.875891
Si Si2 0.833572 0.312746 0.396448
Si Si3 0.378514 0.884808 0.295136
Si Si4 0.320760 0.615088 0.132778
Si Si5 0.650012 0.293935 0.976562
Si Si6 0.552386 0.609833 0.478652
O O1 0.798824 0.139293 0.713543
O O2 0.036857 0.179827 0.911746
O O3 0.976933 0.000000 0.885977
O O4 0.000000 0.132225 0.000000
O O5 0.839358 0.330107 0.322910
O O6 0.845471 0.197866 0.424332
O O7 0.969097 0.361356 0.561661
O O8 0.362087 0.000000 0.290036
O O9 0.281637 0.848717 0.138403
O O10 0.293107 0.500000 0.095412
O O11 0.378892 0.662254 0.125536
O O12 0.428212 0.625011 0.301959
O O13 0.192540 0.680612 0.016422
O O14 0.500000 0.615202 0.500000
O O15 0.604339 0.500000 0.520749
#
# Coordination Sequence:
#
# PCOD9187147 Si02
#       6
#     8   8   8   8   8   8
#     4  11  22  35  54  84 123 155 178 225 293 350
#     4  11  19  33  52  83 113 145 184 230 279 330
#     4  11  19  31  54  83 112 143 185 235 278 331
#     4  10  21  38  61  85 111 149 195 239 281 332
#     4  11  21  37  60  86 115 150 188 233 284 344
#     4  10  19  35  58  81 106 145 195 239 277 322
#
# _framework density 17.168965
#
# number of rings (size 3 to 8) (size 9 to 14) (size 15 to 20)
#    0.000    1.333    5.000    3.500    0.000    0.000 
#    0.000    1.667    0.000    1.000    0.000    0.000 
#    0.000    0.000    0.000    0.000    0.000    0.000 
#
# Total GULP energy -133966.617802 kJ/mol
# GULP energy per Si atom -5581.942408 kJ/mol
# Density = 1.712989 g / cm^3
# Si number density = 17.168965 Si / 1000 Ang^3
#
#
#
# Elastic Constant Matrix: (Units=GPa)
#
#
# Indices 1 2 3 4 5 6 
#
# 1 73.0437 22.6600 28.5548 0.0000 4.2569 0.0000
# 2 22.6600 121.5486 10.7661 0.0000 -3.4884 0.0000
# 3 28.5548 10.7661 69.3033 0.0000 -7.1769 0.0000
# 4 0.0000 0.0000 0.0000 24.3609 0.0000 -3.8523
# 5 4.2569 -3.4884 -7.1769 0.0000 32.3277 0.0000
# 6 0.0000 0.0000 0.0000 -3.8523 0.0000 16.3857
#
#
#
# Elastic Compliance Matrix: (Units=1/GPa)
#
#
# Indices 1 2 3 4 5 6 
#
# 1 0.017640 -0.002766 -0.007277 0.000000 -0.004237 0.000000
# 2 -0.002766 0.008788 -0.000092 0.000000 0.001292 0.000000
# 3 -0.007277 -0.000092 0.017953 0.000000 0.004934 0.000000
# 4 0.000000 0.000000 0.000000 0.042634 0.000000 0.010023
# 5 -0.004237 0.001292 0.004934 0.000000 0.032726 0.000000
# 6 0.000000 0.000000 0.000000 0.010023 0.000000 0.063385
#
#
# Mechanical properties :
#
#
# Convention : Reuss Voigt Hill
#
# Bulk Modulus (GPa) = 41.47402 43.09527 42.28464
# Shear Modulus (GPa) = 23.64808 28.07586 25.86197
#
# Velocity S-wave (km/s) = 3.71532 4.04823 3.88535
# Velocity P-wave (km/s) = 6.52792 6.85610 6.69402
#
# Compressibility (1/GPa) = 0.02411148
#
# Stress axis : x y z
#
# Youngs Moduli (GPa) = 56.68857 113.79190 55.70086
#
# Poissons Ratio (x) = 0.31471 0.40536
# Poissons Ratio (y) = 0.15678 0.00512
# Poissons Ratio (z) = 0.41254 0.01046
#
# Static dielectric constant tensor:
#      x y z
#    x 1.564980 0.000000 -0.019660 
#    y 0.000000 1.607940 0.000000 
#    z -0.019660 0.000000 1.581780 
# 
# From -- ./inp_files/284094.got.cif
#   From: 2010.05.17/outbox.cif.g08.bks.cpg/sg12_143_cif.got.tgz:284094.got - 2010.06.03 13:09:07.
