data_PCOD9187540
_publ_section_title
;
Structure prediction by ZEFSAII (Michael W. Deem and Ramdas Pophale) SiO2 
 PCOD9187540
Probable space group: C 2/M
;
_chemical_formula_sum "Si O2"
_cell_formula_units_Z 40
_cell_length_a 5.482319
_cell_length_b 18.732024
_cell_length_c 18.479109
_cell_angle_alpha 90.000000
_cell_angle_beta 98.559158
_cell_angle_gamma 90.000000
_cell_volume 1876.575494
_symmetry_space_group_name_H-M "C 2/M"
_symmetry_group_IT_number 12
_symmetry_cell_setting 'monoclinic'
loop_
_space_group_symop_operation_xyz
x,y,z
-x,y,-z
-x,-y,-z
x,-y,z
1/2+x,1/2+y,z
1/2-x,1/2+y,-z
1/2-x,1/2-y,-z
1/2+x,1/2-y,z
loop_
_atom_site_type_symbol
_atom_site_label
_atom_site_fract_x
_atom_site_fract_y
_atom_site_fract_z
Si Si1 0.414560 0.914380 0.331245
Si Si2 0.296324 0.865496 0.092233
Si Si3 0.457400 0.586369 0.416554
Si Si4 0.135833 0.712465 0.773799
Si Si5 0.784047 0.918579 0.067835
O O1 0.684338 0.895184 0.375700
O O2 0.379186 0.867015 0.258654
O O3 0.188562 0.895100 0.375328
O O4 0.408299 0.000000 0.318810
O O5 0.319520 0.793228 0.137747
O O6 0.558798 0.904604 0.111080
O O7 0.052616 0.904515 0.111080
O O8 0.251930 0.867833 0.003775
O O9 0.500000 0.613391 0.500000
O O10 0.459243 0.500000 0.419789
O O11 0.373651 0.750276 0.750458
O O12 0.770468 0.000000 0.040545
#
# Coordination Sequence:
#
# PCOD9187540 Si02
#       5
#     8   8   8   8   8
#     4  10  21  37  62  92 117 154 203 243 284 347
#     4  10  20  36  56  82 109 153 197 232 287 357
#     4   9  17  33  60  94 125 149 186 245 301 343
#     4  12  26  44  60  82 122 166 199 239 299 351
#     4  10  19  35  59  89 120 146 186 250 310 347
#
# _framework density 21.315422000000002
#
# number of rings (size 3 to 8) (size 9 to 14) (size 15 to 20)
#    0.000    1.800    0.000    6.000    0.000    4.800 
#    0.000   14.000    0.000   12.000    0.000    0.000 
#    0.000    0.000    0.000    0.000    0.000    0.000 
#
# Total GULP energy -111502.103446 kJ/mol
# GULP energy per Si atom -5575.105172 kJ/mol
# Density = 2.126691 g / cm^3
# Si number density = 21.315422 Si / 1000 Ang^3
#
#
#
# Elastic Constant Matrix: (Units=GPa)
#
#
# Indices 1 2 3 4 5 6 
#
# 1 247.8291 41.7224 43.0379 0.0000 -1.2710 0.0000
# 2 41.7224 43.1677 34.4085 0.0000 -1.1701 0.0000
# 3 43.0379 34.4085 82.9671 0.0000 -1.2208 0.0000
# 4 0.0000 0.0000 0.0000 19.5228 0.0000 -0.1907
# 5 -1.2710 -1.1701 -1.2208 0.0000 10.9184 0.0000
# 6 0.0000 0.0000 0.0000 -0.1907 0.0000 25.4193
#
#
#
# Elastic Compliance Matrix: (Units=1/GPa)
#
#
# Indices 1 2 3 4 5 6 
#
# 1 0.004860 -0.004014 -0.000856 0.000000 0.000040 0.000000
# 2 -0.004014 0.037969 -0.013634 0.000000 0.002078 0.000000
# 3 -0.000856 -0.013634 0.018158 0.000000 0.000469 0.000000
# 4 0.000000 0.000000 0.000000 0.051226 0.000000 0.000384
# 5 0.000040 0.002078 0.000469 0.000000 0.091868 0.000000
# 6 0.000000 0.000000 0.000000 0.000384 0.000000 0.039343
#
#
# Mechanical properties :
#
#
# Convention : Reuss Voigt Hill
#
# Bulk Modulus (GPa) = 41.70200 68.03348 54.86774
# Shear Modulus (GPa) = 17.33566 28.15845 22.74706
#
# Velocity S-wave (km/s) = 2.85492 3.63855 3.27029
# Velocity P-wave (km/s) = 5.52034 7.04548 6.32902
#
# Compressibility (1/GPa) = 0.02397966
#
# Stress axis : x y z
#
# Youngs Moduli (GPa) = 205.78025 26.33756 55.07206
#
# Poissons Ratio (x) = 0.10571 0.04712
# Poissons Ratio (y) = 0.82595 0.75085
# Poissons Ratio (z) = 0.17607 0.35908
#
# Static dielectric constant tensor:
#      x y z
#    x 1.826440 0.000000 0.000150 
#    y 0.000000 1.745870 0.000000 
#    z 0.000150 0.000000 1.798720 
# 
# From -- ./inp_files/252597.got.cif
#   From: 2010.05.17/outbox.cif.g08.bks.cpg/sg12_127_cif.got.tgz:252597.got - 2010.06.03 13:09:07.
