data_PCOD9187496
_publ_section_title
;
Structure prediction by ZEFSAII (Michael W. Deem and Ramdas Pophale) SiO2 
 PCOD9187496
Probable space group: C 2/M
;
_chemical_formula_sum "Si O2"
_cell_formula_units_Z 64
_cell_length_a 27.028517
_cell_length_b 7.784121
_cell_length_c 14.381952
_cell_angle_alpha 90.000000
_cell_angle_beta 87.603732
_cell_angle_gamma 90.000000
_cell_volume 3023.219625
_symmetry_space_group_name_H-M "C 2/M"
_symmetry_group_IT_number 12
_symmetry_cell_setting 'monoclinic'
loop_
_space_group_symop_operation_xyz
x,y,z
-x,y,-z
-x,-y,-z
x,-y,z
1/2+x,1/2+y,z
1/2-x,1/2+y,-z
1/2-x,1/2-y,-z
1/2+x,1/2-y,z
loop_
_atom_site_type_symbol
_atom_site_label
_atom_site_fract_x
_atom_site_fract_y
_atom_site_fract_z
Si Si1 0.795509 0.200102 0.429242
Si Si2 0.637725 0.793913 0.412759
Si Si3 0.508652 0.789540 0.794874
Si Si4 0.708557 0.201003 0.781912
Si Si5 0.816955 0.201796 0.782175
Si Si6 0.408625 0.797462 0.901825
Si Si7 0.975249 0.709911 0.597191
Si Si8 0.390656 0.211235 0.111709
O O1 0.750000 0.250000 0.500000
O O2 0.843544 0.237760 0.487932
O O3 0.796046 0.289389 0.329442
O O4 0.791252 0.000000 0.409771
O O5 0.672471 0.724998 0.328151
O O6 0.581969 0.736998 0.396317
O O7 0.639674 0.000000 0.408686
O O8 0.459699 0.728923 0.854046
O O9 0.502883 0.735312 0.688391
O O10 0.559909 0.735769 0.837366
O O11 0.508014 0.000000 0.795760
O O12 0.762210 0.275412 0.805712
O O13 0.659745 0.272559 0.835305
O O14 0.710565 0.000000 0.806872
O O15 0.862607 0.278653 0.835568
O O16 0.816950 0.000000 0.803010
O O17 0.417542 0.000000 0.913636
O O18 0.395175 0.729810 0.004754
O O19 0.975563 0.500000 0.596499
O O20 0.000000 0.768505 0.500000
O O21 0.389884 0.000000 0.113370
#
# Coordination Sequence:
#
# PCOD9187496 Si02
#       8
#     8   8   8   8   8   8   8   8
#     4  12  24  38  58  84 114 151 191 231 277 337
#     4  11  21  36  59  85 114 150 191 236 283 336
#     4   9  16  30  54  85 115 142 185 244 294 340
#     4  10  22  39  57  83 115 151 193 237 286 343
#     4  11  22  36  56  81 115 153 192 236 283 343
#     4  10  19  35  59  87 111 142 194 247 294 344
#     4   9  18  30  50  86 119 144 182 234 288 342
#     4   9  19  34  57  85 114 147 189 245 299 340
#
# _framework density 21.169485000000002
#
# number of rings (size 3 to 8) (size 9 to 14) (size 15 to 20)
#    0.000    1.875    2.500    2.250    1.750    2.500 
#    0.000    0.625    0.000    5.250    0.000    0.000 
#    0.000    0.000    0.000    0.000    0.000    0.000 
#
# Total GULP energy -178758.802911 kJ/mol
# GULP energy per Si atom -5586.212591 kJ/mol
# Density = 2.112130 g / cm^3
# Si number density = 21.169485 Si / 1000 Ang^3
#
#
#
# Elastic Constant Matrix: (Units=GPa)
#
#
# Indices 1 2 3 4 5 6 
#
# 1 154.0256 -3.0696 54.0592 0.0000 -22.9080 0.0000
# 2 -3.0696 30.3003 -12.2079 0.0000 -6.0127 0.0000
# 3 54.0592 -12.2079 96.6801 0.0000 -24.1196 0.0000
# 4 0.0000 0.0000 0.0000 8.8811 0.0000 1.8232
# 5 -22.9080 -6.0127 -24.1196 0.0000 35.3087 0.0000
# 6 0.0000 0.0000 0.0000 1.8232 0.0000 13.1475
#
#
#
# Elastic Compliance Matrix: (Units=1/GPa)
#
#
# Indices 1 2 3 4 5 6 
#
# 1 0.008282 -0.000269 -0.004021 0.000000 0.002581 0.000000
# 2 -0.000269 0.038533 0.007967 0.000000 0.011830 0.000000
# 3 -0.004021 0.007967 0.016015 0.000000 0.009688 0.000000
# 4 0.000000 0.000000 0.000000 0.115898 0.000000 -0.016072
# 5 0.002581 0.011830 0.009688 0.000000 0.038628 0.000000
# 6 0.000000 0.000000 0.000000 -0.016072 0.000000 0.078289
#
#
# Mechanical properties :
#
#
# Convention : Reuss Voigt Hill
#
# Bulk Modulus (GPa) = 14.24814 39.84104 27.04459
# Shear Modulus (GPa) = 16.04181 27.61574 21.82877
#
# Velocity S-wave (km/s) = 2.75577 3.61571 3.21463
# Velocity P-wave (km/s) = 4.10741 6.02429 5.15572
#
# Compressibility (1/GPa) = 0.07018460
#
# Stress axis : x y z
#
# Youngs Moduli (GPa) = 120.74036 25.95163 62.44245
#
# Poissons Ratio (x) = 0.00698 0.25109
# Poissons Ratio (y) = 0.03247 -0.49750
# Poissons Ratio (z) = 0.48552 -0.20677
#
# Static dielectric constant tensor:
#      x y z
#    x 1.763080 0.000000 -0.003140 
#    y 0.000000 1.797440 0.000000 
#    z -0.003140 0.000000 1.740140 
# 
# From -- ./inp_files/238806.got.cif
#   From: 2010.05.17/outbox.cif.g08.bks.cpg/sg12_120_cif.got.tgz:238806.got - 2010.06.03 13:09:07.
