data_PCOD9187611
_publ_section_title
;
Structure prediction by ZEFSAII (Michael W. Deem and Ramdas Pophale) SiO2 
 PCOD9187611
Probable space group: C 2/M
;
_chemical_formula_sum "Si O2"
_cell_formula_units_Z 48
_cell_length_a 17.500172
_cell_length_b 14.346717
_cell_length_c 10.614463
_cell_angle_alpha 90.000000
_cell_angle_beta 101.468445
_cell_angle_gamma 90.000000
_cell_volume 2611.765475
_symmetry_space_group_name_H-M "C 2/M"
_symmetry_group_IT_number 12
_symmetry_cell_setting 'monoclinic'
loop_
_space_group_symop_operation_xyz
x,y,z
-x,y,-z
-x,-y,-z
x,-y,z
1/2+x,1/2+y,z
1/2-x,1/2+y,-z
1/2-x,1/2-y,-z
1/2+x,1/2-y,z
loop_
_atom_site_type_symbol
_atom_site_label
_atom_site_fract_x
_atom_site_fract_y
_atom_site_fract_z
Si Si1 0.363416 0.290131 0.781767
Si Si2 0.328695 0.692254 0.049351
Si Si3 0.508617 0.000000 0.710295
Si Si4 0.254522 0.896973 0.755187
Si Si5 0.980576 0.693247 0.141191
Si Si6 0.231927 0.142460 0.472973
Si Si7 0.132470 0.500000 0.528436
O O1 0.315210 0.190597 0.772746
O O2 0.451764 0.260300 0.783973
O O3 0.328637 0.355698 0.661713
O O4 0.355787 0.336462 0.917753
O O5 0.303741 0.618742 0.147191
O O6 0.396434 0.759031 0.124409
O O7 0.250000 0.750000 0.000000
O O8 0.515271 0.906561 0.792928
O O9 0.579045 0.000000 0.633424
O O10 0.427446 0.000000 0.607371
O O11 0.211371 0.894154 0.605567
O O12 0.291789 0.000000 0.779653
O O13 0.000000 0.682255 0.000000
O O14 0.250000 0.250000 0.500000
O O15 0.309881 0.087864 0.459299
#
# Coordination Sequence:
#
# PCOD9187611 Si02
#       7
#     8   8   4   8   8   8   4
#     4   9  20  37  60  82 118 156 194 235 298 351
#     4   9  20  38  56  84 114 147 198 237 289 352
#     4  11  23  34  56  92 128 145 185 240 308 357
#     4  10  19  35  60  85 113 150 198 243 285 350
#     4  10  21  39  60  85 120 155 191 242 296 361
#     4  10  20  36  60  78 116 160 196 232 288 348
#     4  11  24  38  54  92 127 153 193 243 291 368
#
# _framework density 18.378371999999999
#
# number of rings (size 3 to 8) (size 9 to 14) (size 15 to 20)
#    0.000    2.167    0.833    2.250    8.167    0.000 
#   10.500    0.000    1.833    2.500    0.000    0.000 
#    0.000    0.000    0.000    0.000    0.000    0.000 
#
# Total GULP energy -133745.791330 kJ/mol
# GULP energy per Si atom -5572.741305 kJ/mol
# Density = 1.833654 g / cm^3
# Si number density = 18.378372 Si / 1000 Ang^3
#
#
#
# Elastic Constant Matrix: (Units=GPa)
#
#
# Indices 1 2 3 4 5 6 
#
# 1 111.1838 40.5286 44.8718 0.0000 13.8968 0.0000
# 2 40.5286 67.1760 30.4430 0.0000 0.2572 0.0000
# 3 44.8718 30.4430 99.0326 0.0000 8.3171 0.0000
# 4 0.0000 0.0000 0.0000 24.2098 0.0000 -3.7132
# 5 13.8968 0.2572 8.3171 0.0000 28.1515 0.0000
# 6 0.0000 0.0000 0.0000 -3.7132 0.0000 15.3177
#
#
#
# Elastic Compliance Matrix: (Units=1/GPa)
#
#
# Indices 1 2 3 4 5 6 
#
# 1 0.013530 -0.006476 -0.003675 0.000000 -0.005534 0.000000
# 2 -0.006476 0.020453 -0.003698 0.000000 0.004103 0.000000
# 3 -0.003675 -0.003698 0.013068 0.000000 -0.002013 0.000000
# 4 0.000000 0.000000 0.000000 0.042901 0.000000 0.010400
# 5 -0.005534 0.004103 -0.002013 0.000000 0.038811 0.000000
# 6 0.000000 0.000000 0.000000 0.010400 0.000000 0.067805
#
#
# Mechanical properties :
#
#
# Convention : Reuss Voigt Hill
#
# Bulk Modulus (GPa) = 51.66774 56.56434 54.11604
# Shear Modulus (GPa) = 21.67162 24.30575 22.98868
#
# Velocity S-wave (km/s) = 3.43766 3.64059 3.54058
# Velocity P-wave (km/s) = 6.62805 6.96537 6.79880
#
# Compressibility (1/GPa) = 0.01935444
#
# Stress axis : x y z
#
# Youngs Moduli (GPa) = 73.91252 48.89154 76.52022
#
# Poissons Ratio (x) = 0.31663 0.28119
# Poissons Ratio (y) = 0.47867 0.28295
# Poissons Ratio (z) = 0.27161 0.18078
#
# Static dielectric constant tensor:
#      x y z
#    x 1.627770 0.000000 0.001690 
#    y 0.000000 1.608860 0.000000 
#    z 0.001690 0.000000 1.684930 
# 
# From -- ./inp_files/143133.got.cif
#   From: 2010.05.17/outbox.cif.g08.bks.cpg/sg12_72_cif.got.tgz:143133.got - 2010.06.03 13:09:07.
