data_PCOD9187075
_publ_section_title
;
Structure prediction by ZEFSAII (Michael W. Deem and Ramdas Pophale) SiO2 
 PCOD9187075
Probable space group: C 2/M
;
_chemical_formula_sum "Si O2"
_cell_formula_units_Z 48
_cell_length_a 27.803989
_cell_length_b 14.044012
_cell_length_c 6.541833
_cell_angle_alpha 90.000000
_cell_angle_beta 104.351908
_cell_angle_gamma 90.000000
_cell_volume 2474.731580
_symmetry_space_group_name_H-M "C 2/M"
_symmetry_group_IT_number 12
_symmetry_cell_setting 'monoclinic'
loop_
_space_group_symop_operation_xyz
x,y,z
-x,y,-z
-x,-y,-z
x,-y,z
1/2+x,1/2+y,z
1/2-x,1/2+y,-z
1/2-x,1/2-y,-z
1/2+x,1/2-y,z
loop_
_atom_site_type_symbol
_atom_site_label
_atom_site_fract_x
_atom_site_fract_y
_atom_site_fract_z
Si Si1 0.891817 0.891632 0.552001
Si Si2 0.778788 0.895888 0.546341
Si Si3 0.442422 0.762865 0.888275
Si Si4 0.631549 0.762619 0.807791
Si Si5 0.371328 0.887782 0.586472
Si Si6 0.786809 0.290207 0.783386
O O1 0.838153 0.897024 0.603886
O O2 0.927305 0.828492 0.733280
O O3 0.879682 0.832292 0.334572
O O4 0.909085 0.000000 0.535022
O O5 0.765865 0.810876 0.685021
O O6 0.756824 0.866016 0.301835
O O7 0.760118 0.000000 0.584428
O O8 0.423119 0.853706 0.739969
O O9 0.500000 0.763697 0.000000
O O10 0.409948 0.764401 0.060275
O O11 0.628932 0.848656 0.643718
O O12 0.684525 0.772473 0.976890
O O13 0.329114 0.830391 0.670143
O O14 0.363840 0.000000 0.593916
#
# Coordination Sequence:
#
# PCOD9187075 Si02
#       6
#     8   8   8   8   8   8
#     4  10  21  38  57  86 117 147 189 234 276 331
#     4  10  19  35  57  84 118 153 190 229 271 329
#     4  10  22  41  60  81 112 149 186 234 290 339
#     4  10  20  38  58  83 109 152 183 233 278 338
#     4  10  21  38  57  85 115 146 188 234 279 335
#     4  10  20  37  58  81 120 157 186 225 281 328
#
# _framework density 19.396042999999999
#
# number of rings (size 3 to 8) (size 9 to 14) (size 15 to 20)
#    0.000    2.000    5.000    0.500    0.000    8.667 
#    0.000    1.667    0.000    0.000    0.000    0.000 
#    0.000    0.000    0.000    0.000    0.000    0.000 
#
# Total GULP energy -133837.616755 kJ/mol
# GULP energy per Si atom -5576.567365 kJ/mol
# Density = 1.935190 g / cm^3
# Si number density = 19.396043 Si / 1000 Ang^3
#
#
#
# Elastic Constant Matrix: (Units=GPa)
#
#
# Indices 1 2 3 4 5 6 
#
# 1 59.1255 21.1381 36.5857 0.0000 30.6202 0.0000
# 2 21.1381 170.4477 55.9279 0.0000 8.4970 0.0000
# 3 36.5857 55.9279 120.7676 0.0000 19.4023 0.0000
# 4 0.0000 0.0000 0.0000 7.0564 0.0000 0.3249
# 5 30.6202 8.4970 19.4023 0.0000 35.7678 0.0000
# 6 0.0000 0.0000 0.0000 0.3249 0.0000 12.7496
#
#
#
# Elastic Compliance Matrix: (Units=1/GPa)
#
#
# Indices 1 2 3 4 5 6 
#
# 1 0.034307 -0.001084 -0.005712 0.000000 -0.026014 0.000000
# 2 -0.001084 0.006953 -0.003040 0.000000 0.000925 0.000000
# 3 -0.005712 -0.003040 0.011521 0.000000 -0.000638 0.000000
# 4 0.000000 0.000000 0.000000 0.141882 0.000000 -0.003616
# 5 -0.026014 0.000925 -0.000638 0.000000 0.050354 0.000000
# 6 0.000000 0.000000 0.000000 -0.003616 0.000000 0.078526
#
#
# Mechanical properties :
#
#
# Convention : Reuss Voigt Hill
#
# Bulk Modulus (GPa) = 30.20268 64.18268 47.19268
# Shear Modulus (GPa) = 14.11427 26.89404 20.50416
#
# Velocity S-wave (km/s) = 2.70050 3.72771 3.25488
# Velocity P-wave (km/s) = 5.03279 7.18959 6.20561
#
# Compressibility (1/GPa) = 0.03310965
#
# Stress axis : x y z
#
# Youngs Moduli (GPa) = 29.14834 143.82857 86.79717
#
# Poissons Ratio (x) = 0.15585 0.49578
# Poissons Ratio (y) = 0.03158 0.26388
# Poissons Ratio (z) = 0.16649 0.43727
#
# Static dielectric constant tensor:
#      x y z
#    x 1.705300 0.000000 -0.001510 
#    y 0.000000 1.689660 0.000000 
#    z -0.001510 0.000000 1.702900 
# 
# From -- ./inp_files/31313.got.cif
#   From: 2010.05.17/outbox.cif.g08.bks.cpg/sg12_16_cif.got.tgz:31313.got - 2010.06.03 13:09:07.
