data_PCOD9187886
_publ_section_title
;
Structure prediction by ZEFSAII (Michael W. Deem and Ramdas Pophale) SiO2 
 PCOD9187886
Probable space group: C 2/M
;
_chemical_formula_sum "Si O2"
_cell_formula_units_Z 60
_cell_length_a 19.153177
_cell_length_b 14.939465
_cell_length_c 18.989239
_cell_angle_alpha 90.000000
_cell_angle_beta 33.209368
_cell_angle_gamma 90.000000
_cell_volume 2975.953849
_symmetry_space_group_name_H-M "C 2/M"
_symmetry_group_IT_number 12
_symmetry_cell_setting 'monoclinic'
loop_
_space_group_symop_operation_xyz
x,y,z
-x,y,-z
-x,-y,-z
x,-y,z
1/2+x,1/2+y,z
1/2-x,1/2+y,-z
1/2-x,1/2-y,-z
1/2+x,1/2-y,z
loop_
_atom_site_type_symbol
_atom_site_label
_atom_site_fract_x
_atom_site_fract_y
_atom_site_fract_z
Si Si1 0.628523 0.164587 0.847535
Si Si2 0.692008 0.500000 0.337254
Si Si3 0.743365 0.398515 0.058257
Si Si4 0.037931 0.903863 0.732378
Si Si5 0.323774 0.250527 0.768963
Si Si6 0.645633 0.785245 0.676047
Si Si7 0.576232 0.646778 0.541048
Si Si8 0.945391 0.605145 0.763850
O O1 0.720582 0.078733 0.773418
O O2 0.712368 0.248024 0.805499
O O3 0.597998 0.178001 0.791319
O O4 0.500000 0.153527 0.000000
O O5 0.615650 0.576998 0.448370
O O6 0.749426 0.500000 0.083728
O O7 0.611887 0.394997 0.124902
O O8 0.730136 0.319332 0.125790
O O9 0.858898 0.387938 0.907083
O O10 0.109160 0.817400 0.699007
O O11 0.043409 0.901284 0.642598
O O12 0.086504 0.000000 0.715999
O O13 0.452637 0.294485 0.629069
O O14 0.369893 0.159857 0.767538
O O15 0.796745 0.797638 0.549214
O O16 0.575741 0.843420 0.674551
O O17 0.965364 0.500000 0.731703
#
# Coordination Sequence:
#
# PCOD9187886 Si02
#       8
#     8   4   8   8   8   8   8   8
#     4  11  26  41  62  92 133 174 211 261 326 388
#     4  10  23  41  62  94 131 165 202 258 320 398
#     4   9  19  34  57  89 115 156 210 263 318 371
#     4  10  19  35  62  90 122 158 207 268 320 375
#     4  11  23  40  62  87 130 174 211 260 317 395
#     4  11  23  39  60  92 126 166 214 271 322 376
#     4  10  21  38  61  91 126 161 208 255 321 387
#     4  11  23  38  63  91 125 169 221 276 320 366
#
# _framework density 20.161602999999999
#
# number of rings (size 3 to 8) (size 9 to 14) (size 15 to 20)
#    0.000    1.600    3.333    1.800    7.467    2.667 
#    0.000    0.667    0.000    0.800    0.000    4.667 
#    0.000    0.000    0.000    0.000    0.000    0.000 
#
# Total GULP energy -167031.736149 kJ/mol
# GULP energy per Si atom -5567.724538 kJ/mol
# Density = 2.011571 g / cm^3
# Si number density = 20.161603 Si / 1000 Ang^3
#
#
#
# Elastic Constant Matrix: (Units=GPa)
#
#
# Indices 1 2 3 4 5 6 
#
# 1 61.6829 33.0064 8.6642 0.0000 -8.7369 0.0000
# 2 33.0064 120.9757 13.9854 0.0000 -9.5630 0.0000
# 3 8.6642 13.9854 105.2195 0.0000 -9.7246 0.0000
# 4 0.0000 0.0000 0.0000 22.8606 0.0000 9.4447
# 5 -8.7369 -9.5630 -9.7246 0.0000 21.2636 0.0000
# 6 0.0000 0.0000 0.0000 9.4447 0.0000 -8.8642
#
#
#
# Elastic Compliance Matrix: (Units=1/GPa)
#
#
# Indices 1 2 3 4 5 6 
#
# 1 0.019687 -0.004869 -0.000448 0.000000 0.005694 0.000000
# 2 -0.004869 0.009843 -0.000713 0.000000 0.002100 0.000000
# 3 -0.000448 -0.000713 0.010012 0.000000 0.004074 0.000000
# 4 0.000000 0.000000 0.000000 0.030373 0.000000 0.032362
# 5 0.005694 0.002100 0.004074 0.000000 0.052176 0.000000
# 6 0.000000 0.000000 0.000000 0.032362 0.000000 -0.078332
#
#
# Mechanical properties :
#
#
# Convention : Reuss Voigt Hill
#
# Bulk Modulus (GPa) = 36.38780 44.35443 40.37111
# Shear Modulus (GPa) = 76.94530 22.53346 49.73938
#
# Velocity S-wave (km/s) = 6.18443 3.34674 4.97231
# Velocity P-wave (km/s) = 8.31164 6.08124 7.28234
#
# Compressibility (1/GPa) = 0.02748174
#
# Stress axis : x y z
#
# Youngs Moduli (GPa) = 50.79488 101.59382 99.87859
#
# Poissons Ratio (x) = 0.49470 0.04470
# Poissons Ratio (y) = 0.24734 0.07124
# Poissons Ratio (z) = 0.02273 0.07246
#
# Static dielectric constant tensor:
#      x y z
#    x 1.752420 0.000000 -0.005420 
#    y 0.000000 1.666140 0.000000 
#    z -0.005420 0.000000 1.739390 
# 
# From -- ./inp_files/322101.got.cif
#   From: 2010.05.17/outbox.cif.g08.bks.cpg/sg12_162_cif.got.tgz:322101.got - 2010.06.03 13:09:07.
