data_PCOD9187290
_publ_section_title
;
Structure prediction by ZEFSAII (Michael W. Deem and Ramdas Pophale) SiO2 
 PCOD9187290
Probable space group: C 2/M
;
_chemical_formula_sum "Si O2"
_cell_formula_units_Z 56
_cell_length_a 20.726760
_cell_length_b 8.933018
_cell_length_c 17.957267
_cell_angle_alpha 90.000000
_cell_angle_beta 71.257415
_cell_angle_gamma 90.000000
_cell_volume 3148.523056
_symmetry_space_group_name_H-M "C 2/M"
_symmetry_group_IT_number 12
_symmetry_cell_setting 'monoclinic'
loop_
_space_group_symop_operation_xyz
x,y,z
-x,y,-z
-x,-y,-z
x,-y,z
1/2+x,1/2+y,z
1/2-x,1/2+y,-z
1/2-x,1/2-y,-z
1/2+x,1/2-y,z
loop_
_atom_site_type_symbol
_atom_site_label
_atom_site_fract_x
_atom_site_fract_y
_atom_site_fract_z
Si Si1 0.652959 0.822281 0.593366
Si Si2 0.310916 0.321323 0.571730
Si Si3 0.671737 0.179330 0.836397
Si Si4 0.677725 0.179964 0.004931
Si Si5 0.328599 0.320708 0.734960
Si Si6 0.929408 0.178218 0.245347
Si Si7 0.422709 0.179377 0.824534
O O1 0.652955 0.765194 0.508630
O O2 0.729712 0.791155 0.595171
O O3 0.599968 0.738691 0.665578
O O4 0.642090 0.000000 0.601297
O O5 0.319441 0.500000 0.558038
O O6 0.335260 0.281817 0.645379
O O7 0.750709 0.210575 0.788079
O O8 0.622273 0.263864 0.798785
O O9 0.661693 0.000000 0.830852
O O10 0.659392 0.220389 0.926998
O O11 0.620831 0.223116 0.086166
O O12 0.684845 0.000000 0.004393
O O13 0.750000 0.250000 0.000000
O O14 0.338982 0.500000 0.738991
O O15 0.379863 0.234356 0.769248
O O16 0.003608 0.246036 0.203280
O O17 0.931992 0.000000 0.245089
O O18 0.429440 0.000000 0.821274
#
# Coordination Sequence:
#
# PCOD9187290 Si02
#       7
#     8   8   8   8   8   8   8
#     4  10  19  35  58  86 119 154 190 238 293 345
#     4   9  18  33  56  88 119 151 191 236 287 343
#     4  10  20  38  62  87 118 155 194 241 293 346
#     4  10  21  37  61  89 118 153 194 242 292 344
#     4  10  19  36  61  88 119 155 194 238 289 346
#     4  12  25  40  59  85 118 158 199 243 294 349
#     4  11  24  40  59  86 120 157 196 241 295 351
#
# _framework density 17.786116
#
# number of rings (size 3 to 8) (size 9 to 14) (size 15 to 20)
#    0.000    1.714    2.857    2.143    0.000    3.429 
#    0.000    3.571    0.000    4.286    0.000    0.000 
#    0.000    0.000    0.000    0.000    0.000    0.000 
#
# Total GULP energy -156420.909127 kJ/mol
# GULP energy per Si atom -5586.461040 kJ/mol
# Density = 1.774563 g / cm^3
# Si number density = 17.786116 Si / 1000 Ang^3
#
#
#
# Elastic Constant Matrix: (Units=GPa)
#
#
# Indices 1 2 3 4 5 6 
#
# 1 82.9027 48.8323 52.7612 0.0000 -11.1509 0.0000
# 2 48.8323 60.1014 52.8557 0.0000 -7.9930 0.0000
# 3 52.7612 52.8557 130.8045 0.0000 -2.6034 0.0000
# 4 0.0000 0.0000 0.0000 28.4355 0.0000 2.9740
# 5 -11.1509 -7.9930 -2.6034 0.0000 27.1512 0.0000
# 6 0.0000 0.0000 0.0000 2.9740 0.0000 32.8641
#
#
#
# Elastic Compliance Matrix: (Units=1/GPa)
#
#
# Indices 1 2 3 4 5 6 
#
# 1 0.024361 -0.016426 -0.003092 0.000000 0.004873 0.000000
# 2 -0.016426 0.038128 -0.008709 0.000000 0.003643 0.000000
# 3 -0.003092 -0.008709 0.012358 0.000000 -0.002649 0.000000
# 4 0.000000 0.000000 0.000000 0.035503 0.000000 -0.003213
# 5 0.004873 0.003643 -0.002649 0.000000 0.039651 0.000000
# 6 0.000000 0.000000 0.000000 -0.003213 0.000000 0.030719
#
#
# Mechanical properties :
#
#
# Convention : Reuss Voigt Hill
#
# Bulk Modulus (GPa) = 54.36486 64.74524 59.55505
# Shear Modulus (GPa) = 20.55033 25.64747 23.09890
#
# Velocity S-wave (km/s) = 3.40283 3.80148 3.60766
# Velocity P-wave (km/s) = 6.78758 7.46656 7.13515
#
# Compressibility (1/GPa) = 0.01839423
#
# Stress axis : x y z
#
# Youngs Moduli (GPa) = 41.04930 26.22734 80.91673
#
# Poissons Ratio (x) = 0.43082 0.25017
# Poissons Ratio (y) = 0.67428 0.70468
# Poissons Ratio (z) = 0.12691 0.22841
#
# Static dielectric constant tensor:
#      x y z
#    x 1.570590 0.000000 0.003650 
#    y 0.000000 1.594550 0.000000 
#    z 0.003650 0.000000 1.606860 
# 
# From -- ./inp_files/275012.got.cif
#   From: 2010.05.17/outbox.cif.g08.bks.cpg/sg12_138_cif.got.tgz:275012.got - 2010.06.03 13:09:07.
