data_PCOD9187395
_publ_section_title
;
Structure prediction by ZEFSAII (Michael W. Deem and Ramdas Pophale) SiO2 
 PCOD9187395
Probable space group: C 2/M
;
_chemical_formula_sum "Si O2"
_cell_formula_units_Z 48
_cell_length_a 29.519409
_cell_length_b 7.553368
_cell_length_c 14.854451
_cell_angle_alpha 90.000000
_cell_angle_beta 39.831938
_cell_angle_gamma 90.000000
_cell_volume 2121.532611
_symmetry_space_group_name_H-M "C 2/M"
_symmetry_group_IT_number 12
_symmetry_cell_setting 'monoclinic'
loop_
_space_group_symop_operation_xyz
x,y,z
-x,y,-z
-x,-y,-z
x,-y,z
1/2+x,1/2+y,z
1/2-x,1/2+y,-z
1/2-x,1/2-y,-z
1/2+x,1/2-y,z
loop_
_atom_site_type_symbol
_atom_site_label
_atom_site_fract_x
_atom_site_fract_y
_atom_site_fract_z
Si Si1 0.044141 0.297714 0.688819
Si Si2 0.692706 0.710319 0.511290
Si Si3 0.777392 0.289737 0.858661
Si Si4 0.951858 0.282060 0.989503
Si Si5 0.704601 0.793646 0.792118
Si Si6 0.570452 0.216361 0.446809
O O1 0.022334 0.500000 0.704338
O O2 0.116308 0.296099 0.636495
O O3 0.062064 0.221251 0.563246
O O4 0.984993 0.219686 0.844340
O O5 0.680121 0.500000 0.526988
O O6 0.750000 0.750000 0.500000
O O7 0.729290 0.780315 0.364115
O O8 0.779408 0.500000 0.845459
O O9 0.721738 0.220041 0.870501
O O10 0.856217 0.223180 0.711632
O O11 0.750000 0.250000 0.000000
O O12 0.952241 0.500000 0.987395
O O13 0.871237 0.219826 0.119266
O O14 0.000000 0.227980 0.000000
O O15 0.702297 0.000000 0.770096
O O16 0.500000 0.267794 0.500000
O O17 0.572977 0.000000 0.443265
#
# Coordination Sequence:
#
# PCOD9187395 Si02
#       6
#     8   8   8   8   8   8
#     4  10  19  35  59  83 112 147 190 238 285 336
#     4  11  22  36  58  85 117 152 191 236 287 344
#     4  11  23  39  61  87 117 149 189 239 291 348
#     4   9  18  33  56  85 114 149 194 237 276 329
#     4  10  21  38  60  86 116 151 193 239 284 337
#     4   9  19  35  58  86 110 144 193 238 281 335
#
# _framework density 22.625153000000001
#
# number of rings (size 3 to 8) (size 9 to 14) (size 15 to 20)
#    0.000    2.000    1.667    2.000    2.333    3.333 
#    0.000    0.833    0.000    4.500    0.000    0.000 
#    0.000    0.000    0.000    0.000    0.000    0.000 
#
# Total GULP energy -134079.128645 kJ/mol
# GULP energy per Si atom -5586.630360 kJ/mol
# Density = 2.257366 g / cm^3
# Si number density = 22.625153 Si / 1000 Ang^3
#
#
#
# Elastic Constant Matrix: (Units=GPa)
#
#
# Indices 1 2 3 4 5 6 
#
# 1 81.1880 -11.1916 1.4894 0.0000 -6.7865 0.0001
# 2 -11.1916 61.1891 7.0661 -0.0004 -4.3634 0.0001
# 3 1.4894 7.0661 84.9402 0.0000 -1.8340 -0.0001
# 4 0.0000 -0.0004 0.0000 4.7086 0.0000 0.7685
# 5 -6.7865 -4.3634 -1.8340 0.0000 43.6445 0.0000
# 6 0.0001 0.0001 -0.0001 0.7685 0.0000 17.2056
#
#
#
# Elastic Compliance Matrix: (Units=1/GPa)
#
#
# Indices 1 2 3 4 5 6 
#
# 1 0.012864 0.002558 -0.000390 0.000000 0.002240 0.000000
# 2 0.002558 0.017121 -0.001425 0.000002 0.002050 0.000000
# 3 -0.000390 -0.001425 0.011905 0.000000 0.000297 0.000000
# 4 0.000000 0.000002 0.000000 0.213936 0.000000 -0.009555
# 5 0.002240 0.002050 0.000297 0.000000 0.023478 0.000000
# 6 0.000000 0.000000 0.000000 -0.009555 0.000000 0.058548
#
#
# Mechanical properties :
#
#
# Convention : Reuss Voigt Hill
#
# Bulk Modulus (GPa) = 23.05450 24.67169 23.86309
# Shear Modulus (GPa) = 14.25214 28.44197 21.34705
#
# Velocity S-wave (km/s) = 2.51255 3.54940 3.07499
# Velocity P-wave (km/s) = 4.31615 5.26554 4.81430
#
# Compressibility (1/GPa) = 0.04337548
#
# Stress axis : x y z
#
# Youngs Moduli (GPa) = 77.73627 58.40691 83.99984
#
# Poissons Ratio (x) = -0.14938 0.03276
# Poissons Ratio (y) = -0.19882 0.11969
# Poissons Ratio (z) = 0.03032 0.08322
#
# Static dielectric constant tensor:
#      x y z
#    x 1.804500 0.000000 0.013400 
#    y 0.000000 1.888390 0.000000 
#    z 0.013400 0.000000 1.823080 
# 
# From -- ./inp_files/230441.got.cif
#   From: 2010.05.17/outbox.cif.g08.bks.cpg/sg12_116_cif.got.tgz:230441.got - 2010.06.03 13:09:07.
