data_PCOD9187833
_publ_section_title
;
Structure prediction by ZEFSAII (Michael W. Deem and Ramdas Pophale) SiO2 
 PCOD9187833
Probable space group: C 2/M
;
_chemical_formula_sum "Si O2"
_cell_formula_units_Z 58
_cell_length_a 25.419899
_cell_length_b 7.735231
_cell_length_c 24.419852
_cell_angle_alpha 90.000000
_cell_angle_beta 33.418096
_cell_angle_gamma 90.000000
_cell_volume 2644.479564
_symmetry_space_group_name_H-M "C 2/M"
_symmetry_group_IT_number 12
_symmetry_cell_setting 'monoclinic'
loop_
_space_group_symop_operation_xyz
x,y,z
-x,y,-z
-x,-y,-z
x,-y,z
1/2+x,1/2+y,z
1/2-x,1/2+y,-z
1/2-x,1/2-y,-z
1/2+x,1/2-y,z
loop_
_atom_site_type_symbol
_atom_site_label
_atom_site_fract_x
_atom_site_fract_y
_atom_site_fract_z
Si Si1 0.500000 0.500000 0.000000
Si Si2 0.859195 0.209040 0.475310
Si Si3 0.310873 0.798709 0.893858
Si Si4 0.665091 0.296674 0.701808
Si Si5 0.276619 0.701571 0.801564
Si Si6 0.382706 0.200783 0.141222
Si Si7 0.978242 0.788480 0.580615
Si Si8 0.969911 0.790913 0.272289
O O1 0.465638 0.343025 0.072218
O O2 0.756275 0.270826 0.583708
O O3 0.899014 0.268691 0.382205
O O4 0.937411 0.264446 0.452161
O O5 0.856839 0.000000 0.476471
O O6 0.277136 0.712846 0.866541
O O7 0.422084 0.760301 0.808508
O O8 0.299038 0.000000 0.894415
O O9 0.250000 0.750000 0.000000
O O10 0.655833 0.500000 0.719624
O O11 0.675194 0.207300 0.751564
O O12 0.572714 0.231654 0.748519
O O13 0.275902 0.500000 0.786800
O O14 0.184489 0.771447 0.849856
O O15 0.376273 0.774047 0.691837
O O16 0.410248 0.000000 0.108536
O O17 0.000000 0.733999 0.500000
O O18 0.976474 0.000000 0.583026
O O19 0.967662 0.000000 0.274213
#
# Coordination Sequence:
#
# PCOD9187833 Si02
#       8
#     2   8   8   8   8   8   8   8
#     4  12  26  48  72  98 142 168 226 296 342 400
#     4  10  19  35  61  92 132 179 223 271 337 414
#     4  12  26  43  68  96 131 173 223 283 344 401
#     4  11  23  40  64  97 139 179 228 287 340 401
#     4  10  21  42  69  96 133 173 221 273 331 412
#     4  11  25  46  74 102 134 181 228 280 353 417
#     4   9  16  30  58  93 128 168 214 265 325 395
#     4  10  22  42  65  92 133 182 227 280 338 404
#
# _framework density 21.932482
#
# number of rings (size 3 to 8) (size 9 to 14) (size 15 to 20)
#    0.000    1.517    2.069    3.103    0.966    4.966 
#    0.000    0.000    0.000    1.655    0.000    0.000 
#    0.000    0.000    0.000    0.000    0.000    0.000 
#
# Total GULP energy -161804.596690 kJ/mol
# GULP energy per Si atom -5579.468851 kJ/mol
# Density = 2.188256 g / cm^3
# Si number density = 21.932482 Si / 1000 Ang^3
#
#
#
# Elastic Constant Matrix: (Units=GPa)
#
#
# Indices 1 2 3 4 5 6 
#
# 1 117.4313 1.4715 33.6462 0.0003 7.3248 -0.0019
# 2 1.4715 72.3499 0.4844 -0.0090 -3.2381 0.0029
# 3 33.6462 0.4844 110.6121 -0.0155 19.5598 0.0051
# 4 0.0003 -0.0090 -0.0155 25.5810 0.0107 2.8146
# 5 7.3248 -3.2381 19.5598 0.0107 24.6514 -0.0059
# 6 -0.0019 0.0029 0.0051 2.8146 -0.0059 3.1523
#
#
#
# Elastic Compliance Matrix: (Units=1/GPa)
#
#
# Indices 1 2 3 4 5 6 
#
# 1 0.009339 -0.000200 -0.002727 -0.000003 -0.000637 0.000011
# 2 -0.000200 0.013927 -0.000389 0.000005 0.002197 -0.000013
# 3 -0.002727 -0.000389 0.011327 0.000016 -0.008228 -0.000049
# 4 -0.000003 0.000005 0.000016 0.043350 -0.000039 -0.038707
# 5 -0.000637 0.002197 -0.008228 -0.000039 0.047572 0.000134
# 6 0.000011 -0.000013 -0.000049 -0.038707 0.000134 0.351789
#
#
# Mechanical properties :
#
#
# Convention : Reuss Voigt Hill
#
# Bulk Modulus (GPa) = 35.76446 41.28861 38.52653
# Shear Modulus (GPa) = 10.13671 28.32969 19.23320
#
# Velocity S-wave (km/s) = 2.15216 3.59789 2.96451
# Velocity P-wave (km/s) = 4.74529 6.01049 5.41497
#
# Compressibility (1/GPa) = 0.02796072
#
# Stress axis : x y z
#
# Youngs Moduli (GPa) = 107.07451 71.80432 88.28563
#
# Poissons Ratio (x) = 0.01438 0.24078
# Poissons Ratio (y) = 0.02144 0.03431
# Poissons Ratio (z) = 0.29202 0.02790
#
# Static dielectric constant tensor:
#      x y z
#    x 1.804340 0.000010 -0.021710 
#    y 0.000010 1.777440 0.000000 
#    z -0.021710 0.000000 1.821340 
# 
# From -- ./inp_files/351412.got.cif
#   From: 2010.05.17/outbox.cif.g08.bks.cpg/sg12_176_cif.got.tgz:351412.got - 2010.06.03 13:09:07.
