data_PCOD9187881
_publ_section_title
;
Structure prediction by ZEFSAII (Michael W. Deem and Ramdas Pophale) SiO2 
 PCOD9187881
Probable space group: C 2/M
;
_chemical_formula_sum "Si O2"
_cell_formula_units_Z 64
_cell_length_a 22.532534
_cell_length_b 18.842008
_cell_length_c 25.201971
_cell_angle_alpha 90.000000
_cell_angle_beta 162.083551
_cell_angle_gamma 90.000000
_cell_volume 3291.547496
_symmetry_space_group_name_H-M "C 2/M"
_symmetry_group_IT_number 12
_symmetry_cell_setting 'monoclinic'
loop_
_space_group_symop_operation_xyz
x,y,z
-x,y,-z
-x,-y,-z
x,-y,z
1/2+x,1/2+y,z
1/2-x,1/2+y,-z
1/2-x,1/2-y,-z
1/2+x,1/2-y,z
loop_
_atom_site_type_symbol
_atom_site_label
_atom_site_fract_x
_atom_site_fract_y
_atom_site_fract_z
Si Si1 0.700541 0.081170 0.876631
Si Si2 0.420991 0.421720 0.312586
Si Si3 0.077142 0.843577 0.840753
Si Si4 0.493807 0.274341 0.432406
Si Si5 0.623966 0.212227 0.294353
Si Si6 0.652093 0.304721 0.084556
Si Si7 0.130757 0.661606 0.003026
Si Si8 0.253617 0.886023 0.511845
O O1 0.782317 0.135729 0.901868
O O2 0.466256 0.083055 0.681638
O O3 0.758103 0.000000 0.914731
O O4 0.794013 0.106745 0.012162
O O5 0.413768 0.500000 0.330331
O O6 0.459369 0.355249 0.383546
O O7 0.213742 0.401895 0.109396
O O8 0.597989 0.421382 0.420132
O O9 0.183368 0.825882 0.876143
O O10 0.039475 0.770262 0.838151
O O11 0.870580 0.874938 0.646992
O O12 0.500000 0.271086 0.500000
O O13 0.697719 0.252384 0.582357
O O14 0.335916 0.223971 0.272712
O O15 0.690458 0.184871 0.407914
O O16 0.542486 0.150844 0.186139
O O17 0.581292 0.232357 0.994299
O O18 0.500000 0.328462 0.000000
#
# Coordination Sequence:
#
# PCOD9187881 Si02
#       8
#     8   8   8   8   8   8   8   8
#     4  12  25  40  62  92 124 169 210 251 317 377
#     4   9  20  37  57  87 130 165 193 244 303 371
#     4  11  21  36  62  92 127 154 197 258 318 365
#     4  10  22  37  62  90 111 158 211 253 310 359
#     4  11  18  35  59  90 123 149 203 257 307 364
#     4  11  23  42  63  84 120 160 209 270 304 357
#     4  10  19  35  62  90 117 159 202 247 306 365
#     4  10  21  37  59  91 126 164 199 247 305 374
#
# _framework density 19.443742
#
# number of rings (size 3 to 8) (size 9 to 14) (size 15 to 20)
#    0.000    1.500    2.500    4.125    0.000    3.000 
#    0.000    0.625    0.000   13.125    0.000    0.000 
#    0.000    0.000    0.000    0.000    0.000    0.000 
#
# Total GULP energy -178385.015016 kJ/mol
# GULP energy per Si atom -5574.531719 kJ/mol
# Density = 1.939949 g / cm^3
# Si number density = 19.443742 Si / 1000 Ang^3
#
#
#
# Elastic Constant Matrix: (Units=GPa)
#
#
# Indices 1 2 3 4 5 6 
#
# 1 74.9289 20.6713 13.1337 0.0084 -5.6301 0.0071
# 2 20.6713 74.4328 8.5571 -0.0926 -4.5714 -0.0039
# 3 13.1337 8.5571 106.3732 -0.2031 -13.3509 0.0598
# 4 0.0084 -0.0926 -0.2031 8.2680 0.0129 3.9421
# 5 -5.6301 -4.5714 -13.3509 0.0129 29.0743 0.0359
# 6 0.0071 -0.0039 0.0598 3.9421 0.0359 10.0794
#
#
#
# Elastic Compliance Matrix: (Units=1/GPa)
#
#
# Indices 1 2 3 4 5 6 
#
# 1 0.014761 -0.003848 -0.001306 -0.000108 0.001654 0.000032
# 2 -0.003848 0.014646 -0.000538 0.000184 0.001311 -0.000065
# 3 -0.001306 -0.000538 0.010149 0.000336 0.004323 -0.000206
# 4 -0.000108 0.000184 0.000336 0.148686 0.000168 -0.058154
# 5 0.001654 0.001311 0.004323 0.000168 0.036906 -0.000224
# 6 0.000032 -0.000065 -0.000206 -0.058154 -0.000224 0.121958
#
#
# Mechanical properties :
#
#
# Convention : Reuss Voigt Hill
#
# Bulk Modulus (GPa) = 35.49592 37.82880 36.66236
# Shear Modulus (GPa) = 13.59138 23.70918 18.65028
#
# Velocity S-wave (km/s) = 2.64675 3.49574 3.10044
# Velocity P-wave (km/s) = 5.25697 5.98259 5.63148
#
# Compressibility (1/GPa) = 0.02817225
#
# Stress axis : x y z
#
# Youngs Moduli (GPa) = 67.74779 68.27746 98.53486
#
# Poissons Ratio (x) = 0.26272 0.12865
# Poissons Ratio (y) = 0.26068 0.05304
# Poissons Ratio (z) = 0.08845 0.03675
#
# Static dielectric constant tensor:
#      x y z
#    x 1.677180 0.000010 -0.004230 
#    y 0.000010 1.698530 -0.000010 
#    z -0.004230 -0.000010 1.733010 
# 
# From -- ./inp_files/347890.got.cif
#   From: 2010.05.17/outbox.cif.g08.bks.cpg/sg12_174_cif.got.tgz:347890.got - 2010.06.03 13:09:07.
