data_PCOD9187944
_publ_section_title
;
Structure prediction by ZEFSAII (Michael W. Deem and Ramdas Pophale) SiO2 
 PCOD9187944
Probable space group: C 2/M
;
_chemical_formula_sum "Si O2"
_cell_formula_units_Z 58
_cell_length_a 21.391252
_cell_length_b 15.217760
_cell_length_c 9.350537
_cell_angle_alpha 90.000000
_cell_angle_beta 92.493152
_cell_angle_gamma 90.000000
_cell_volume 3040.970463
_symmetry_space_group_name_H-M "C 2/M"
_symmetry_group_IT_number 12
_symmetry_cell_setting 'monoclinic'
loop_
_space_group_symop_operation_xyz
x,y,z
-x,y,-z
-x,-y,-z
x,-y,z
1/2+x,1/2+y,z
1/2-x,1/2+y,-z
1/2-x,1/2-y,-z
1/2+x,1/2-y,z
loop_
_atom_site_type_symbol
_atom_site_label
_atom_site_fract_x
_atom_site_fract_y
_atom_site_fract_z
Si Si1 0.500000 0.500000 0.000000
Si Si2 0.089113 0.162726 0.975712
Si Si3 0.438147 0.215332 0.268804
Si Si4 0.860873 0.400079 0.039570
Si Si5 0.575718 0.816153 0.202185
Si Si6 0.776837 0.896217 0.937518
Si Si7 0.765887 0.893815 0.591849
Si Si8 0.847599 0.269234 0.517555
O O1 0.554180 0.575616 0.015584
O O2 0.071493 0.236577 0.088986
O O3 0.163703 0.151687 0.990048
O O4 0.065779 0.193195 0.818084
O O5 0.508053 0.177127 0.268631
O O6 0.406785 0.227782 0.418109
O O7 0.394529 0.152940 0.167745
O O8 0.854458 0.500000 0.086483
O O9 0.901274 0.393516 0.899260
O O10 0.790362 0.365601 0.009877
O O11 0.627870 0.795405 0.324132
O O12 0.774974 0.886808 0.764652
O O13 0.783500 0.000000 0.970131
O O14 0.817421 0.828830 0.523847
O O15 0.702053 0.842654 0.541805
O O16 0.767013 0.000000 0.557584
#
# Coordination Sequence:
#
# PCOD9187944 Si02
#       8
#     2   8   8   8   8   8   8   8
#     4  12  20  40  64  94 126 164 206 256 318 372
#     4  11  21  37  63  89 121 163 201 257 308 368
#     4  11  23  40  59  88 125 163 208 254 313 373
#     4  10  22  40  63  91 121 158 209 267 312 370
#     4  11  23  40  60  88 124 161 210 257 311 369
#     4  10  19  35  63  91 117 157 205 254 311 366
#     4  10  22  41  62  91 126 165 207 259 316 372
#     4  11  23  41  64  88 125 171 202 258 315 373
#
# _framework density 19.072858
#
# number of rings (size 3 to 8) (size 9 to 14) (size 15 to 20)
#    0.000    1.379    4.828    1.655    0.000    6.069 
#    1.241    1.379    0.000    4.138    0.000    0.000 
#    0.000    0.000    0.000    0.000    0.000    0.000 
#
# Total GULP energy -161503.535898 kJ/mol
# GULP energy per Si atom -5569.087445 kJ/mol
# Density = 1.902945 g / cm^3
# Si number density = 19.072858 Si / 1000 Ang^3
#
#
#
# Elastic Constant Matrix: (Units=GPa)
#
#
# Indices 1 2 3 4 5 6 
#
# 1 106.2791 15.1262 -8.1715 0.0000 -11.5478 0.0000
# 2 15.1262 76.7356 -0.2510 0.0000 -4.4264 0.0000
# 3 -8.1715 -0.2510 50.0190 0.0000 -8.9823 0.0000
# 4 0.0000 0.0000 0.0000 9.7751 0.0000 1.1507
# 5 -11.5478 -4.4264 -8.9823 0.0000 31.7405 0.0000
# 6 0.0000 0.0000 0.0000 1.1507 0.0000 27.7463
#
#
#
# Elastic Compliance Matrix: (Units=1/GPa)
#
#
# Indices 1 2 3 4 5 6 
#
# 1 0.010304 -0.001782 0.002426 0.000000 0.004187 0.000000
# 2 -0.001782 0.013454 -0.000003 0.000000 0.001227 0.000000
# 3 0.002426 -0.000003 0.021647 0.000000 0.007008 0.000000
# 4 0.000000 0.000000 0.000000 0.102803 0.000000 -0.004263
# 5 0.004187 0.001227 0.007008 0.000000 0.035183 0.000000
# 6 0.000000 0.000000 0.000000 -0.004263 0.000000 0.036218
#
#
# Mechanical properties :
#
#
# Convention : Reuss Voigt Hill
#
# Bulk Modulus (GPa) = 21.41870 27.38234 24.40052
# Shear Modulus (GPa) = 21.37767 28.94104 25.15935
#
# Velocity S-wave (km/s) = 3.35153 3.89960 3.63591
# Velocity P-wave (km/s) = 5.12165 5.88759 5.51793
#
# Compressibility (1/GPa) = 0.04668818
#
# Stress axis : x y z
#
# Youngs Moduli (GPa) = 97.04707 74.32871 46.19508
#
# Poissons Ratio (x) = 0.13243 -0.11209
# Poissons Ratio (y) = 0.17291 0.00015
# Poissons Ratio (z) = -0.23547 0.00024
#
# Static dielectric constant tensor:
#      x y z
#    x 1.702200 0.000000 -0.026800 
#    y 0.000000 1.657600 0.000000 
#    z -0.026800 0.000000 1.640170 
# 
# From -- ./inp_files/96380.got.cif
#   From: 2010.05.17/outbox.cif.g08.bks.cpg/sg12_49_cif.got.tgz:96380.got - 2010.06.03 13:09:07.
