data_PCOD9187852
_publ_section_title
;
Structure prediction by ZEFSAII (Michael W. Deem and Ramdas Pophale) SiO2 
 PCOD9187852
Probable space group: C 2/M
;
_chemical_formula_sum "Si O2"
_cell_formula_units_Z 52
_cell_length_a 8.916418
_cell_length_b 25.462699
_cell_length_c 10.609667
_cell_angle_alpha 90.000000
_cell_angle_beta 67.093368
_cell_angle_gamma 90.000000
_cell_volume 2218.821778
_symmetry_space_group_name_H-M "C 2/M"
_symmetry_group_IT_number 12
_symmetry_cell_setting 'monoclinic'
loop_
_space_group_symop_operation_xyz
x,y,z
-x,y,-z
-x,-y,-z
x,-y,z
1/2+x,1/2+y,z
1/2-x,1/2+y,-z
1/2-x,1/2-y,-z
1/2+x,1/2-y,z
loop_
_atom_site_type_symbol
_atom_site_label
_atom_site_fract_x
_atom_site_fract_y
_atom_site_fract_z
Si Si1 0.048561 0.000000 0.840940
Si Si2 0.373888 0.410490 0.326716
Si Si3 0.864024 0.302781 0.307466
Si Si4 0.831511 0.500000 0.475925
Si Si5 0.593920 0.698562 0.589829
Si Si6 0.654439 0.116710 0.157038
Si Si7 0.697329 0.197785 0.944851
Si Si8 0.414245 0.000000 0.812555
O O1 0.998166 0.051094 0.782371
O O2 0.248504 0.000000 0.778356
O O3 0.000000 0.000000 0.000000
O O4 0.272557 0.448004 0.455665
O O5 0.452831 0.360321 0.362248
O O6 0.260286 0.389993 0.249034
O O7 0.774333 0.309371 0.470446
O O8 0.915786 0.241446 0.297653
O O9 0.754445 0.305884 0.217222
O O10 0.002941 0.346368 0.246665
O O11 0.000000 0.500000 0.500000
O O12 0.910459 0.500000 0.312130
O O13 0.500000 0.720286 0.500000
O O14 0.604352 0.058516 0.124547
O O15 0.743825 0.148616 0.017128
O O16 0.500000 0.198122 0.000000
O O17 0.750000 0.250000 0.000000
#
# Coordination Sequence:
#
# PCOD9187852 Si02
#       8
#     4   8   8   4   8   8   8   4
#     4   9  19  38  58  90 125 161 205 248 307 377
#     4  10  21  37  65  97 123 158 213 258 312 362
#     4  10  24  40  60  85 126 162 202 260 312 371
#     4  11  16  34  66  98 123 154 207 269 302 368
#     4  11  25  39  57  90 127 166 206 251 314 381
#     4  10  20  38  66  93 122 155 207 262 309 366
#     4  10  22  40  61  87 121 165 208 250 310 376
#     4  10  19  35  61  99 122 154 208 257 316 363
#
# _framework density 23.435860999999999
#
# number of rings (size 3 to 8) (size 9 to 14) (size 15 to 20)
#    0.000    1.846    3.077    1.846    8.615    0.000 
#    5.538    8.077    0.000    0.000    0.000    0.000 
#    0.000    0.000    0.000    0.000    0.000    0.000 
#
# Total GULP energy -145047.870709 kJ/mol
# GULP energy per Si atom -5578.764258 kJ/mol
# Density = 2.338252 g / cm^3
# Si number density = 23.435861 Si / 1000 Ang^3
#
#
#
# Elastic Constant Matrix: (Units=GPa)
#
#
# Indices 1 2 3 4 5 6 
#
# 1 35.2487 13.5166 8.2555 0.0000 4.5730 0.0000
# 2 13.5166 193.1221 58.1235 0.0000 6.2514 0.0000
# 3 8.2555 58.1235 88.7735 0.0000 7.1935 0.0000
# 4 0.0000 0.0000 0.0000 37.0881 0.0000 6.1794
# 5 4.5730 6.2514 7.1935 0.0000 23.5108 0.0000
# 6 0.0000 0.0000 0.0000 6.1794 0.0000 31.0178
#
#
#
# Elastic Compliance Matrix: (Units=1/GPa)
#
#
# Indices 1 2 3 4 5 6 
#
# 1 0.029923 -0.001516 -0.001386 0.000000 -0.004993 0.000000
# 2 -0.001516 0.006530 -0.004120 0.000000 -0.000181 0.000000
# 3 -0.001386 -0.004120 0.014336 0.000000 -0.003021 0.000000
# 4 0.000000 0.000000 0.000000 0.027889 0.000000 -0.005556
# 5 -0.004993 -0.000181 -0.003021 0.000000 0.044477 0.000000
# 6 0.000000 0.000000 0.000000 -0.005556 0.000000 0.033346
#
#
# Mechanical properties :
#
#
# Convention : Reuss Voigt Hill
#
# Bulk Modulus (GPa) = 27.21336 52.99282 40.10309
# Shear Modulus (GPa) = 27.35339 34.13992 30.74665
#
# Velocity S-wave (km/s) = 3.42008 3.82086 3.62601
# Velocity P-wave (km/s) = 5.21852 6.49048 5.88894
#
# Compressibility (1/GPa) = 0.03674666
#
# Stress axis : x y z
#
# Youngs Moduli (GPa) = 33.41867 153.14085 69.75585
#
# Poissons Ratio (x) = 0.23210 0.09667
# Poissons Ratio (y) = 0.05065 0.28738
# Poissons Ratio (z) = 0.04631 0.63091
#
# Static dielectric constant tensor:
#      x y z
#    x 1.913310 0.000000 -0.063090 
#    y 0.000000 1.913870 0.000000 
#    z -0.063090 0.000000 2.039420 
# 
# From -- ./inp_files/133112.got.cif
#   From: 2010.05.17/outbox.cif.g08.bks.cpg/sg12_67_cif.got.tgz:133112.got - 2010.06.03 13:09:07.
