data_PCOD9187425
_publ_section_title
;
Structure prediction by ZEFSAII (Michael W. Deem and Ramdas Pophale) SiO2 
 PCOD9187425
Probable space group: C 2/M
;
_chemical_formula_sum "Si O2"
_cell_formula_units_Z 64
_cell_length_a 33.862318
_cell_length_b 7.663783
_cell_length_c 14.495838
_cell_angle_alpha 90.000000
_cell_angle_beta 50.900082
_cell_angle_gamma 90.000000
_cell_volume 2919.385237
_symmetry_space_group_name_H-M "C 2/M"
_symmetry_group_IT_number 12
_symmetry_cell_setting 'monoclinic'
loop_
_space_group_symop_operation_xyz
x,y,z
-x,y,-z
-x,-y,-z
x,-y,z
1/2+x,1/2+y,z
1/2-x,1/2+y,-z
1/2-x,1/2-y,-z
1/2+x,1/2-y,z
loop_
_atom_site_type_symbol
_atom_site_label
_atom_site_fract_x
_atom_site_fract_y
_atom_site_fract_z
Si Si1 0.297570 0.708235 0.495277
Si Si2 0.641199 0.711730 0.216788
Si Si3 0.996412 0.713495 0.211156
Si Si4 0.023182 0.708237 0.371151
Si Si5 0.400090 0.206004 0.238802
Si Si6 0.395419 0.212049 0.036725
Si Si7 0.198646 0.797789 0.953433
Si Si8 0.299092 0.297726 0.700793
O O1 0.299687 0.500000 0.496493
O O2 0.250000 0.750000 0.500000
O O3 0.349219 0.772538 0.372444
O O4 0.293185 0.777696 0.606803
O O5 0.643599 0.500000 0.212578
O O6 0.583641 0.762093 0.278915
O O7 0.659166 0.777923 0.290368
O O8 0.679823 0.773174 0.079875
O O9 0.994557 0.500000 0.215397
O O10 0.948581 0.777362 0.222598
O O11 0.997619 0.775494 0.315028
O O12 0.049890 0.760007 0.085506
O O13 0.014843 0.500000 0.383935
O O14 0.000000 0.780585 0.500000
O O15 0.392584 0.274379 0.146442
O O16 0.410060 0.000000 0.212016
O O17 0.349962 0.283840 0.041899
O O18 0.391051 0.000000 0.040407
O O19 0.246092 0.708840 0.834131
O O20 0.212657 0.000000 0.944551
O O21 0.313223 0.500000 0.667271
#
# Coordination Sequence:
#
# PCOD9187425 Si02
#       8
#     8   8   8   8   8   8   8   8
#     4  11  24  42  61  84 114 150 190 231 284 342
#     4  10  22  40  59  84 116 150 189 233 283 340
#     4   9  18  35  57  84 116 149 189 233 276 332
#     4  10  21  36  58  88 118 150 190 235 282 333
#     4  10  21  36  59  87 114 149 194 238 280 332
#     4  10  19  35  59  84 114 155 193 229 281 338
#     4  11  22  36  58  88 116 145 187 238 288 335
#     4  10  23  41  60  81 111 151 192 232 281 344
#
# _framework density 21.922422999999998
#
# number of rings (size 3 to 8) (size 9 to 14) (size 15 to 20)
#    0.000    1.875    1.250    2.250    1.750    7.250 
#    0.000    1.250    0.000    1.500    0.000    0.000 
#    0.000    0.000    0.000    0.000    0.000    0.000 
#
# Total GULP energy -178859.309064 kJ/mol
# GULP energy per Si atom -5589.353408 kJ/mol
# Density = 2.187253 g / cm^3
# Si number density = 21.922423 Si / 1000 Ang^3
#
#
#
# Elastic Constant Matrix: (Units=GPa)
#
#
# Indices 1 2 3 4 5 6 
#
# 1 111.5436 -6.6920 6.4580 0.0000 29.1977 0.0000
# 2 -6.6920 39.5182 -10.2882 0.0001 10.4979 -0.0001
# 3 6.4580 -10.2882 74.5492 0.0000 34.9593 0.0000
# 4 0.0000 0.0001 0.0000 9.2482 0.0000 -10.5289
# 5 29.1977 10.4979 34.9593 0.0000 45.3379 0.0000
# 6 0.0000 -0.0001 0.0000 -10.5289 0.0000 10.1868
#
#
#
# Elastic Compliance Matrix: (Units=1/GPa)
#
#
# Indices 1 2 3 4 5 6 
#
# 1 0.013433 0.008805 0.007933 -0.000001 -0.016807 -0.000001
# 2 0.008805 0.039119 0.018080 -0.000003 -0.028669 -0.000002
# 3 0.007933 0.018080 0.030671 -0.000002 -0.032945 -0.000002
# 4 -0.000001 -0.000003 -0.000002 -0.611887 0.000003 -0.632434
# 5 -0.016807 -0.028669 -0.032945 0.000003 0.064922 0.000003
# 6 -0.000001 -0.000002 -0.000002 -0.632434 0.000003 -0.555505
#
#
# Mechanical properties :
#
#
# Convention : Reuss Voigt Hill
#
# Bulk Modulus (GPa) = 6.54201 22.72964 14.63583
# Shear Modulus (GPa) = -4.81729 28.69681 11.93976
#
# Velocity S-wave (km/s) = -1.48398 3.62196 2.33628
# Velocity P-wave (km/s) = 0.23321 5.28036 3.73742
#
# Compressibility (1/GPa) = 0.15285811
#
# Stress axis : x y z
#
# Youngs Moduli (GPa) = 74.44157 25.56329 32.60372
#
# Poissons Ratio (x) = -0.22508 -0.25864
# Poissons Ratio (y) = -0.65543 -0.58948
# Poissons Ratio (z) = -0.59052 -0.46219
#
# Static dielectric constant tensor:
#      x y z
#    x 1.784280 0.000000 0.045520 
#    y 0.000000 1.829260 0.000000 
#    z 0.045520 0.000000 1.761900 
# 
# From -- ./inp_files/249742.got.cif
#   From: 2010.05.17/outbox.cif.g08.bks.cpg/sg12_125_cif.got.tgz:249742.got - 2010.06.03 13:09:07.
