data_PCOD9187988
_publ_section_title
;
Structure prediction by ZEFSAII (Michael W. Deem and Ramdas Pophale) SiO2 
 PCOD9187988
Probable space group: C 2/M
;
_chemical_formula_sum "Si O2"
_cell_formula_units_Z 36
_cell_length_a 13.501200
_cell_length_b 7.448598
_cell_length_c 18.191272
_cell_angle_alpha 90.000000
_cell_angle_beta 129.651599
_cell_angle_gamma 90.000000
_cell_volume 1408.530409
_symmetry_space_group_name_H-M "C 2/M"
_symmetry_group_IT_number 12
_symmetry_cell_setting 'monoclinic'
loop_
_space_group_symop_operation_xyz
x,y,z
-x,y,-z
-x,-y,-z
x,-y,z
1/2+x,1/2+y,z
1/2-x,1/2+y,-z
1/2-x,1/2-y,-z
1/2+x,1/2-y,z
loop_
_atom_site_type_symbol
_atom_site_label
_atom_site_fract_x
_atom_site_fract_y
_atom_site_fract_z
Si Si1 0.490185 0.711938 0.582708
Si Si2 0.869383 0.215432 0.979531
Si Si3 0.740139 0.790479 0.219850
Si Si4 0.515411 0.705293 0.819409
Si Si5 0.435686 0.000000 0.659195
O O1 0.500000 0.736101 0.500000
O O2 0.470913 0.500000 0.587520
O O3 0.628659 0.773401 0.681438
O O4 0.395498 0.842258 0.580275
O O5 0.762232 0.268637 0.869322
O O6 0.872265 0.000000 0.984000
O O7 0.000000 0.279582 0.000000
O O8 0.883780 0.275849 0.070605
O O9 0.617470 0.695137 0.196116
O O10 0.728080 0.000000 0.232306
O O11 0.543739 0.500000 0.809196
O O12 0.481813 0.842964 0.739865
#
# Coordination Sequence:
#
# PCOD9187988 Si02
#       5
#     8   8   8   8   4
#     4  10  24  45  67  85 120 160 208 252 302 363
#     4   8  16  30  54  88 121 161 199 242 290 350
#     4  10  19  35  65  93 115 162 215 244 290 361
#     4  10  21  37  61  92 131 157 196 249 303 353
#     4  12  23  40  65  94 120 164 192 258 306 364
#
# _framework density 25.558554000000001
#
# number of rings (size 3 to 8) (size 9 to 14) (size 15 to 20)
#    0.000    2.222    1.111    3.000    4.667    1.333 
#    0.000    2.222    0.000    0.000    0.000    0.000 
#    0.000    0.000    0.000    0.000    0.000    0.000 
#
# Total GULP energy -100236.043538 kJ/mol
# GULP energy per Si atom -5568.669085 kJ/mol
# Density = 2.550038 g / cm^3
# Si number density = 25.558554 Si / 1000 Ang^3
#
#
#
# Elastic Constant Matrix: (Units=GPa)
#
#
# Indices 1 2 3 4 5 6 
#
# 1 60.7680 32.2247 49.2915 0.0000 -19.6885 0.0000
# 2 32.2247 159.6224 42.7370 0.0000 -31.2014 0.0000
# 3 49.2915 42.7370 143.9314 0.0000 -36.3492 0.0000
# 4 0.0000 0.0000 0.0000 40.8286 0.0000 -22.8179
# 5 -19.6885 -31.2014 -36.3492 0.0000 44.1122 0.0000
# 6 0.0000 0.0000 0.0000 -22.8179 0.0000 26.3390
#
#
#
# Elastic Compliance Matrix: (Units=1/GPa)
#
#
# Indices 1 2 3 4 5 6 
#
# 1 0.024352 -0.002410 -0.006705 0.000000 0.003639 0.000000
# 2 -0.002410 0.007645 -0.000443 0.000000 0.003967 0.000000
# 3 -0.006705 -0.000443 0.010785 0.000000 0.005581 0.000000
# 4 0.000000 0.000000 0.000000 0.047481 0.000000 0.041134
# 5 0.003639 0.003967 0.005581 0.000000 0.031699 0.000000
# 6 0.000000 0.000000 0.000000 0.041134 0.000000 0.073601
#
#
# Mechanical properties :
#
#
# Convention : Reuss Voigt Hill
#
# Bulk Modulus (GPa) = 42.25323 68.09203 55.17263
# Shear Modulus (GPa) = 22.46511 38.26052 30.36281
#
# Velocity S-wave (km/s) = 2.96795 3.87327 3.45043
# Velocity P-wave (km/s) = 5.32098 6.83392 6.12435
#
# Compressibility (1/GPa) = 0.02366683
#
# Stress axis : x y z
#
# Youngs Moduli (GPa) = 41.06496 130.79936 92.72142
#
# Poissons Ratio (x) = 0.31517 0.62170
# Poissons Ratio (y) = 0.09895 0.04108
# Poissons Ratio (z) = 0.27534 0.05795
#
# Static dielectric constant tensor:
#      x y z
#    x 2.235370 0.000000 0.044030 
#    y 0.000000 1.879250 0.000000 
#    z 0.044030 0.000000 2.015150 
# 
# From -- ./inp_files/267443.got.cif
#   From: 2010.05.17/outbox.cif.g08.bks.cpg/sg12_134_cif.got.tgz:267443.got - 2010.06.03 13:09:07.
