data_PCOD9187260
_publ_section_title
;
Structure prediction by ZEFSAII (Michael W. Deem and Ramdas Pophale) SiO2 
 PCOD9187260
Probable space group: C 2/M
;
_chemical_formula_sum "Si O2"
_cell_formula_units_Z 64
_cell_length_a 25.315146
_cell_length_b 8.959599
_cell_length_c 15.404362
_cell_angle_alpha 90.000000
_cell_angle_beta 85.566758
_cell_angle_gamma 90.000000
_cell_volume 3483.464589
_symmetry_space_group_name_H-M "C 2/M"
_symmetry_group_IT_number 12
_symmetry_cell_setting 'monoclinic'
loop_
_space_group_symop_operation_xyz
x,y,z
-x,y,-z
-x,-y,-z
x,-y,z
1/2+x,1/2+y,z
1/2-x,1/2+y,-z
1/2-x,1/2-y,-z
1/2+x,1/2-y,z
loop_
_atom_site_type_symbol
_atom_site_label
_atom_site_fract_x
_atom_site_fract_y
_atom_site_fract_z
Si Si1 0.804707 0.164888 0.401968
Si Si2 0.819690 0.334294 0.563045
Si Si3 0.558866 0.677633 0.170203
Si Si4 0.329559 0.824501 0.226045
Si Si5 0.251466 0.319662 0.097493
Si Si6 0.064504 0.174665 0.816731
Si Si7 0.063513 0.666560 0.991981
Si Si8 0.845078 0.679763 0.757140
O O1 0.835482 0.228548 0.481471
O O2 0.743546 0.149511 0.435911
O O3 0.804272 0.272814 0.319634
O O4 0.824133 0.000000 0.373513
O O5 0.843466 0.500000 0.549417
O O6 0.828410 0.284413 0.660741
O O7 0.561577 0.500000 0.155492
O O8 0.496851 0.713056 0.195229
O O9 0.600385 0.733460 0.234857
O O10 0.577553 0.767137 0.082623
O O11 0.300747 0.741181 0.149133
O O12 0.390551 0.775008 0.231303
O O13 0.324982 0.000000 0.212858
O O14 0.254442 0.500000 0.090374
O O15 0.199586 0.282414 0.164200
O O16 0.250000 0.250000 0.000000
O O17 0.074194 0.213912 0.916530
O O18 0.072334 0.000000 0.799026
O O19 0.086047 0.500000 0.973448
O O20 0.000000 0.651859 0.000000
O O21 0.852306 0.500000 0.761930
#
# Coordination Sequence:
#
# PCOD9187260 Si02
#       8
#     8   8   8   8   8   8   8   8
#     4  10  19  35  58  85 115 145 181 231 283 335
#     4   9  18  35  57  84 113 145 183 227 279 335
#     4  10  21  35  54  80 109 145 190 235 282 331
#     4  12  24  38  59  85 114 151 192 235 283 341
#     4  11  24  42  58  81 117 159 197 233 280 337
#     4  10  21  37  55  77 108 146 189 238 284 331
#     4   9  17  31  51  74 101 136 183 233 277 323
#     4  10  21  38  59  81 115 153 189 231 279 337
#
# _framework density 18.372512
#
# number of rings (size 3 to 8) (size 9 to 14) (size 15 to 20)
#    0.000    1.875    1.250    3.000    1.750    5.000 
#    0.000    0.000    0.000    0.750    0.000    5.250 
#    0.000    0.000    0.000    0.000    0.000    0.000 
#
# Total GULP energy -178287.589706 kJ/mol
# GULP energy per Si atom -5571.487178 kJ/mol
# Density = 1.833070 g / cm^3
# Si number density = 18.372512 Si / 1000 Ang^3
#
#
#
# Elastic Constant Matrix: (Units=GPa)
#
#
# Indices 1 2 3 4 5 6 
#
# 1 69.7388 37.5969 25.6217 0.0000 13.6848 0.0000
# 2 37.5969 78.6779 42.6283 0.0000 10.6982 0.0000
# 3 25.6217 42.6283 86.8650 0.0000 22.8447 0.0000
# 4 0.0000 0.0000 0.0000 23.5707 0.0000 -3.3084
# 5 13.6848 10.6982 22.8447 0.0000 21.3518 0.0000
# 6 0.0000 0.0000 0.0000 -3.3084 0.0000 16.0386
#
#
#
# Elastic Compliance Matrix: (Units=1/GPa)
#
#
# Indices 1 2 3 4 5 6 
#
# 1 0.020838 -0.009114 0.000888 0.000000 -0.009738 0.000000
# 2 -0.009114 0.021305 -0.009039 0.000000 0.004838 0.000000
# 3 0.000888 -0.009039 0.020379 0.000000 -0.017844 0.000000
# 4 0.000000 0.000000 0.000000 0.043690 0.000000 0.009012
# 5 -0.009738 0.004838 -0.017844 0.000000 0.069743 0.000000
# 6 0.000000 0.000000 0.000000 0.009012 0.000000 0.064209
#
#
# Mechanical properties :
#
#
# Convention : Reuss Voigt Hill
#
# Bulk Modulus (GPa) = 35.72735 49.66394 42.69564
# Shear Modulus (GPa) = 17.60401 20.82120 19.21260
#
# Velocity S-wave (km/s) = 3.09879 3.37007 3.23728
# Velocity P-wave (km/s) = 5.68257 6.49873 6.10431
#
# Compressibility (1/GPa) = 0.02798976
#
# Stress axis : x y z
#
# Youngs Moduli (GPa) = 47.99015 46.93717 49.06999
#
# Poissons Ratio (x) = 0.42779 -0.04355
# Poissons Ratio (y) = 0.43739 0.44356
# Poissons Ratio (z) = -0.04259 0.42428
#
# Static dielectric constant tensor:
#      x y z
#    x 1.655790 0.000000 -0.032030 
#    y 0.000000 1.659250 0.000000 
#    z -0.032030 0.000000 1.664090 
# 
# From -- ./inp_files/238673.got.cif
#   From: 2010.05.17/outbox.cif.g08.bks.cpg/sg12_120_cif.got.tgz:238673.got - 2010.06.03 13:09:07.
