data_PCOD9187465
_publ_section_title
;
Structure prediction by ZEFSAII (Michael W. Deem and Ramdas Pophale) SiO2 
 PCOD9187465
Probable space group: C 2/M
;
_chemical_formula_sum "Si O2"
_cell_formula_units_Z 48
_cell_length_a 8.298177
_cell_length_b 16.283812
_cell_length_c 27.729135
_cell_angle_alpha 90.000000
_cell_angle_beta 38.684703
_cell_angle_gamma 90.000000
_cell_volume 2341.957058
_symmetry_space_group_name_H-M "C 2/M"
_symmetry_group_IT_number 12
_symmetry_cell_setting 'monoclinic'
loop_
_space_group_symop_operation_xyz
x,y,z
-x,y,-z
-x,-y,-z
x,-y,z
1/2+x,1/2+y,z
1/2-x,1/2+y,-z
1/2-x,1/2-y,-z
1/2+x,1/2-y,z
loop_
_atom_site_type_symbol
_atom_site_label
_atom_site_fract_x
_atom_site_fract_y
_atom_site_fract_z
Si Si1 0.675968 0.000000 0.730914
Si Si2 0.410417 0.337550 0.696070
Si Si3 0.701621 0.664746 0.083623
Si Si4 0.094555 0.000000 0.873179
Si Si5 0.897853 0.500000 0.894071
Si Si6 0.914168 0.672790 0.132028
Si Si7 0.450240 0.804264 0.607506
Si Si8 0.000000 0.192163 0.500000
O O1 0.825033 0.916831 0.685247
O O2 0.632534 0.000000 0.799584
O O3 0.380100 0.000000 0.782566
O O4 0.204737 0.325439 0.786860
O O5 0.412011 0.259128 0.660681
O O6 0.687002 0.351993 0.657124
O O7 0.553432 0.582285 0.105024
O O8 0.695887 0.674866 0.142623
O O9 0.582617 0.745635 0.087701
O O10 0.000000 0.658205 0.000000
O O11 0.151273 0.000000 0.917107
O O12 0.930963 0.587215 0.911975
O O13 0.720559 0.850072 0.556738
O O14 0.480375 0.750151 0.551711
#
# Coordination Sequence:
#
# PCOD9187465 Si02
#       8
#     4   8   8   4   4   8   8   4
#     4   8  20  37  56  79 120 140 185 236 304 327
#     4  10  19  35  59  86 109 150 191 236 287 337
#     4  12  25  40  58  83 114 157 200 242 304 364
#     4  10  22  42  60  79 115 158 187 254 303 349
#     4   8  19  39  61  80 112 152 175 237 317 337
#     4  11  22  39  60  86 118 146 198 254 292 352
#     4   9  17  30  60  85 114 152 190 223 273 334
#     4   8  16  32  50  88 124 146 184 228 262 332
#
# _framework density 20.495678999999999
#
# number of rings (size 3 to 8) (size 9 to 14) (size 15 to 20)
#    0.500    1.667    0.000    3.250    2.333    0.000 
#    0.000    1.250    0.000   19.000    0.000    0.000 
#    0.000    0.000    0.000    0.000    0.000    0.000 
#
# Total GULP energy -133757.561336 kJ/mol
# GULP energy per Si atom -5573.231722 kJ/mol
# Density = 2.044903 g / cm^3
# Si number density = 20.495679 Si / 1000 Ang^3
#
#
#
# Elastic Constant Matrix: (Units=GPa)
#
#
# Indices 1 2 3 4 5 6 
#
# 1 86.7568 41.3607 31.9722 0.0037 -15.2050 0.0169
# 2 41.3607 135.1932 35.0832 -0.0061 -30.3620 0.0211
# 3 31.9722 35.0832 70.4312 -0.0334 -22.1708 0.0297
# 4 0.0037 -0.0061 -0.0334 0.6484 0.0082 -4.6537
# 5 -15.2050 -30.3620 -22.1708 0.0082 55.5524 -0.0146
# 6 0.0169 0.0211 0.0297 -4.6537 -0.0146 6.0204
#
#
#
# Elastic Compliance Matrix: (Units=1/GPa)
#
#
# Indices 1 2 3 4 5 6 
#
# 1 0.014986 -0.003186 -0.005116 0.000092 0.000319 0.000066
# 2 -0.003186 0.009765 -0.002302 0.000020 0.003547 0.000010
# 3 -0.005116 -0.002302 0.019249 -0.000110 0.005024 -0.000146
# 4 0.000092 0.000020 -0.000110 -0.339121 -0.000027 -0.262133
# 5 0.000319 0.003547 0.005024 -0.000027 0.022032 -0.000006
# 6 0.000066 0.000010 -0.000146 -0.262133 -0.000006 -0.036522
#
#
# Mechanical properties :
#
#
# Convention : Reuss Voigt Hill
#
# Bulk Modulus (GPa) = 43.87146 56.57927 50.22537
# Shear Modulus (GPa) = -17.80583 24.70858 3.45137
#
# Velocity S-wave (km/s) = -2.95067 3.47587 1.29908
# Velocity P-wave (km/s) = 3.13737 6.61621 5.17771
#
# Compressibility (1/GPa) = 0.02279386
#
# Stress axis : x y z
#
# Youngs Moduli (GPa) = 66.72697 102.40382 51.95203
#
# Poissons Ratio (x) = 0.32623 0.26578
# Poissons Ratio (y) = 0.21257 0.11958
# Poissons Ratio (z) = 0.34136 0.23570
#
# Static dielectric constant tensor:
#      x y z
#    x 1.744030 0.000000 -0.009930 
#    y 0.000000 1.764720 -0.000010 
#    z -0.009930 -0.000010 1.802080 
# 
# From -- ./inp_files/372879.got.cif
#   From: 2010.05.17/outbox.cif.g08.bks.cpg/sg12_187_cif.got.tgz:372879.got - 2010.06.03 13:09:07.
