data_PCOD9187829
_publ_section_title
;
Structure prediction by ZEFSAII (Michael W. Deem and Ramdas Pophale) SiO2 
 PCOD9187829
Probable space group: C 2/M
;
_chemical_formula_sum "Si O2"
_cell_formula_units_Z 48
_cell_length_a 14.188894
_cell_length_b 21.416208
_cell_length_c 12.564108
_cell_angle_alpha 90.000000
_cell_angle_beta 29.712513
_cell_angle_gamma 90.000000
_cell_volume 1892.328170
_symmetry_space_group_name_H-M "C 2/M"
_symmetry_group_IT_number 12
_symmetry_cell_setting 'monoclinic'
loop_
_space_group_symop_operation_xyz
x,y,z
-x,y,-z
-x,-y,-z
x,-y,z
1/2+x,1/2+y,z
1/2-x,1/2+y,-z
1/2-x,1/2-y,-z
1/2+x,1/2-y,z
loop_
_atom_site_type_symbol
_atom_site_label
_atom_site_fract_x
_atom_site_fract_y
_atom_site_fract_z
Si Si1 0.298353 0.156180 0.863438
Si Si2 0.271687 0.258312 0.725228
Si Si3 0.721340 0.571607 0.748567
Si Si4 0.498645 0.391444 0.325450
Si Si5 0.708445 0.096557 0.774409
Si Si6 0.725636 0.830152 0.473823
O O1 0.223568 0.219868 0.880603
O O2 0.331879 0.111816 0.728101
O O3 0.501655 0.171047 0.718493
O O4 0.152087 0.117549 0.079270
O O5 0.500000 0.262670 0.500000
O O6 0.195446 0.327638 0.793177
O O7 0.221584 0.216118 0.673297
O O8 0.778156 0.500000 0.692400
O O9 0.737440 0.602056 0.616674
O O10 0.500000 0.575299 0.000000
O O11 0.644888 0.412931 0.273288
O O12 0.308298 0.423173 0.565601
O O13 0.382706 0.326493 0.411750
O O14 0.500000 0.071079 0.000000
#
# Coordination Sequence:
#
# PCOD9187829 Si02
#       6
#     8   8   8   8   8   8
#     4  10  21  36  58  82 114 152 186 223 282 336
#     4   9  19  38  50  76 114 146 186 236 280 325
#     4  10  19  35  61  92 126 152 172 214 277 348
#     4  11  22  39  54  78 109 147 199 243 276 322
#     4  11  24  39  53  75 107 150 201 244 280 321
#     4  10  21  36  58  82 114 152 186 223 282 336
#
# _framework density 25.365579
#
# number of rings (size 3 to 8) (size 9 to 14) (size 15 to 20)
#    0.000    1.833    3.333    2.500    2.333    2.667 
#    0.000    0.000    0.000    0.000    0.000    9.333 
#    0.000   16.000    0.000    0.000    0.000    0.000 
#
# Total GULP energy -133650.648169 kJ/mol
# GULP energy per Si atom -5568.777007 kJ/mol
# Density = 2.530785 g / cm^3
# Si number density = 25.365579 Si / 1000 Ang^3
#
#
#
# Elastic Constant Matrix: (Units=GPa)
#
#
# Indices 1 2 3 4 5 6 
#
# 1 77.2392 2.3957 36.6853 -0.0128 -13.5570 0.0136
# 2 2.3957 93.6519 8.5920 -0.0240 2.2867 0.0208
# 3 36.6853 8.5920 200.6328 -0.0173 -3.7753 0.0491
# 4 -0.0128 -0.0240 -0.0173 3.9016 0.0113 -3.0802
# 5 -13.5570 2.2867 -3.7753 0.0113 53.2611 -0.0075
# 6 0.0136 0.0208 0.0491 -3.0802 -0.0075 -5.4033
#
#
#
# Elastic Compliance Matrix: (Units=1/GPa)
#
#
# Indices 1 2 3 4 5 6 
#
# 1 0.014837 -0.000226 -0.002636 0.000021 0.003600 -0.000005
# 2 -0.000226 0.010736 -0.000429 0.000065 -0.000549 0.000000
# 3 -0.002636 -0.000429 0.005480 0.000032 -0.000264 0.000023
# 4 0.000021 0.000065 0.000032 0.176754 -0.000047 -0.100761
# 5 0.003600 -0.000549 -0.000264 -0.000047 0.019696 0.000004
# 6 -0.000005 0.000000 0.000023 -0.100761 0.000004 -0.127632
#
#
# Mechanical properties :
#
#
# Convention : Reuss Voigt Hill
#
# Bulk Modulus (GPa) = 40.86109 51.87441 46.36775
# Shear Modulus (GPa) = 43.62601 31.94197 37.78399
#
# Velocity S-wave (km/s) = 4.15165 3.55246 3.86369
# Velocity P-wave (km/s) = 6.25504 6.10915 6.18253
#
# Compressibility (1/GPa) = 0.02447316
#
# Stress axis : x y z
#
# Youngs Moduli (GPa) = 67.39733 93.14137 182.49722
#
# Poissons Ratio (x) = 0.02102 0.48099
# Poissons Ratio (y) = 0.01521 0.07826
# Poissons Ratio (z) = 0.17763 0.03994
#
# Static dielectric constant tensor:
#      x y z
#    x 2.211350 0.000000 0.015470 
#    y 0.000000 2.009520 0.000030 
#    z 0.015470 0.000030 2.011660 
# 
# From -- ./inp_files/149640.got.cif
#   From: 2010.05.17/outbox.cif.g08.bks.cpg/sg12_75_cif.got.tgz:149640.got - 2010.06.03 13:09:07.
