data_PCOD9187523
_publ_section_title
;
Structure prediction by ZEFSAII (Michael W. Deem and Ramdas Pophale) SiO2 
 PCOD9187523
Probable space group: C 2/M
;
_chemical_formula_sum "Si O2"
_cell_formula_units_Z 56
_cell_length_a 25.833731
_cell_length_b 21.180178
_cell_length_c 8.843407
_cell_angle_alpha 90.000000
_cell_angle_beta 146.017694
_cell_angle_gamma 90.000000
_cell_volume 2704.575430
_symmetry_space_group_name_H-M "C 2/M"
_symmetry_group_IT_number 12
_symmetry_cell_setting 'monoclinic'
loop_
_space_group_symop_operation_xyz
x,y,z
-x,y,-z
-x,-y,-z
x,-y,z
1/2+x,1/2+y,z
1/2-x,1/2+y,-z
1/2-x,1/2-y,-z
1/2+x,1/2-y,z
loop_
_atom_site_type_symbol
_atom_site_label
_atom_site_fract_x
_atom_site_fract_y
_atom_site_fract_z
Si Si1 0.996694 0.813242 0.172761
Si Si2 0.403424 0.262076 0.339147
Si Si3 0.713843 0.315960 0.346571
Si Si4 0.746286 0.570890 0.655833
Si Si5 0.093685 0.068627 0.552619
Si Si6 0.264907 0.631250 0.918053
Si Si7 0.392456 0.881711 0.233390
O O1 0.066879 0.761303 0.411966
O O2 0.026396 0.877708 0.327809
O O3 0.890884 0.800731 0.955478
O O4 0.000000 0.818036 0.000000
O O5 0.500000 0.287480 0.500000
O O6 0.389230 0.194655 0.228596
O O7 0.313911 0.306227 0.108995
O O8 0.750000 0.250000 0.500000
O O9 0.716772 0.372096 0.476098
O O10 0.759617 0.346638 0.308940
O O11 0.748210 0.500000 0.593295
O O12 0.673649 0.569056 0.618091
O O13 0.843532 0.589007 0.968790
O O14 0.049894 0.000000 0.452280
O O15 0.149064 0.083804 0.841669
O O16 0.175319 0.604749 0.788363
O O17 0.500000 0.900409 0.500000
#
# Coordination Sequence:
#
# PCOD9187523 Si02
#       7
#     8   8   8   8   8   8   8
#     4  11  22  36  57  91 127 165 202 249 306 383
#     4  10  19  35  59  87 123 154 202 250 308 376
#     4  12  25  38  59  93 134 171 203 253 320 381
#     4  10  22  42  63  91 124 162 210 264 319 377
#     4   9  20  39  65  90 121 164 212 255 310 384
#     4  10  21  38  58  87 126 157 203 260 310 368
#     4  10  22  39  64  86 109 161 215 266 310 362
#
# _framework density 20.705652000000001
#
# number of rings (size 3 to 8) (size 9 to 14) (size 15 to 20)
#    0.000    1.714    2.857    1.286    4.000    1.714 
#    0.000    1.429    0.000    0.857    0.000    0.000 
#    0.000    0.000    0.000    0.000    0.000    0.000 
#
# Total GULP energy -156105.005180 kJ/mol
# GULP energy per Si atom -5575.178756 kJ/mol
# Density = 2.065853 g / cm^3
# Si number density = 20.705652 Si / 1000 Ang^3
#
#
#
# Elastic Constant Matrix: (Units=GPa)
#
#
# Indices 1 2 3 4 5 6 
#
# 1 59.7026 1.1248 21.7177 0.0000 -7.1283 0.0000
# 2 1.1248 103.3082 29.0893 0.0000 -14.0806 0.0000
# 3 21.7177 29.0893 80.5242 0.0000 -0.2762 0.0000
# 4 0.0000 0.0000 0.0000 26.3300 0.0000 -1.2856
# 5 -7.1283 -14.0806 -0.2762 0.0000 36.2840 0.0000
# 6 0.0000 0.0000 0.0000 -1.2856 0.0000 13.1178
#
#
#
# Elastic Compliance Matrix: (Units=1/GPa)
#
#
# Indices 1 2 3 4 5 6 
#
# 1 0.019435 0.002099 -0.005984 0.000000 0.004587 0.000000
# 2 0.002099 0.011667 -0.004764 0.000000 0.004903 0.000000
# 3 -0.005984 -0.004764 0.015743 0.000000 -0.002904 0.000000
# 4 0.000000 0.000000 0.000000 0.038162 0.000000 0.003740
# 5 0.004587 0.004903 -0.002904 0.000000 0.030342 0.000000
# 6 0.000000 0.000000 0.000000 0.003740 0.000000 0.076599
#
#
# Mechanical properties :
#
#
# Convention : Reuss Voigt Hill
#
# Bulk Modulus (GPa) = 33.84513 38.59986 36.22250
# Shear Modulus (GPa) = 22.82117 27.91990 25.37054
#
# Velocity S-wave (km/s) = 3.32350 3.67607 3.50422
# Velocity P-wave (km/s) = 5.57753 6.05810 5.82278
#
# Compressibility (1/GPa) = 0.02954635
#
# Stress axis : x y z
#
# Youngs Moduli (GPa) = 51.45474 85.71471 63.51844
#
# Poissons Ratio (x) = -0.17987 0.38009
# Poissons Ratio (y) = -0.10798 0.30258
# Poissons Ratio (z) = 0.30790 0.40832
#
# Static dielectric constant tensor:
#      x y z
#    x 1.857260 0.000000 -0.038570 
#    y 0.000000 1.772350 0.000000 
#    z -0.038570 0.000000 1.755410 
# 
# From -- ./inp_files/113390.got.cif
#   From: 2010.05.17/outbox.cif.g08.bks.cpg/sg12_57_cif.got.tgz:113390.got - 2010.06.03 13:09:07.
