data_PCOD9187319
_publ_section_title
;
Structure prediction by ZEFSAII (Michael W. Deem and Ramdas Pophale) SiO2 
 PCOD9187319
Probable space group: C 2/M
;
_chemical_formula_sum "Si O2"
_cell_formula_units_Z 60
_cell_length_a 8.725483
_cell_length_b 23.556855
_cell_length_c 15.017125
_cell_angle_alpha 90.000000
_cell_angle_beta 105.949067
_cell_angle_gamma 90.000000
_cell_volume 2967.875885
_symmetry_space_group_name_H-M "C 2/M"
_symmetry_group_IT_number 12
_symmetry_cell_setting 'monoclinic'
loop_
_space_group_symop_operation_xyz
x,y,z
-x,y,-z
-x,-y,-z
x,-y,z
1/2+x,1/2+y,z
1/2-x,1/2+y,-z
1/2-x,1/2-y,-z
1/2+x,1/2-y,z
loop_
_atom_site_type_symbol
_atom_site_label
_atom_site_fract_x
_atom_site_fract_y
_atom_site_fract_z
Si Si1 0.932854 0.625872 0.204436
Si Si2 0.500000 0.846949 0.500000
Si Si3 0.033437 0.937518 0.697578
Si Si4 0.814265 0.933539 0.948226
Si Si5 0.662599 0.064639 0.638963
Si Si6 0.441649 0.321620 0.389915
Si Si7 0.317521 0.935586 0.877174
Si Si8 0.412466 0.220603 0.664186
O O1 0.763832 0.610451 0.132988
O O2 0.940639 0.586263 0.293883
O O3 0.064647 0.606608 0.154139
O O4 0.974569 0.688520 0.246871
O O5 0.364487 0.890205 0.444105
O O6 0.550316 0.808029 0.425810
O O7 0.070731 0.887079 0.636802
O O8 0.147308 0.932067 0.800716
O O9 0.848402 0.934294 0.693427
O O10 0.062529 0.000000 0.662700
O O11 0.798644 0.000000 0.915638
O O12 0.714783 0.927416 0.024036
O O13 0.000000 0.924174 0.000000
O O14 0.621095 0.000000 0.608536
O O15 0.500000 0.315225 0.500000
O O16 0.558882 0.287224 0.343241
O O17 0.270581 0.293010 0.347245
O O18 0.379385 0.000000 0.874288
#
# Coordination Sequence:
#
# PCOD9187319 Si02
#       8
#     8   4   8   8   8   8   8   8
#     4  11  21  36  57  90 125 163 211 255 307 369
#     4  10  21  38  56  86 117 158 218 256 306 368
#     4  10  22  39  60  91 124 161 202 258 327 377
#     4  10  20  35  60  95 130 167 209 255 314 379
#     4  10  20  34  55  82 124 167 203 253 314 373
#     4  12  24  42  66  89 122 164 215 271 310 376
#     4  10  19  35  58  88 126 160 201 254 309 372
#     4  11  25  40  62  91 118 164 215 262 313 367
#
# _framework density 20.216477999999999
#
# number of rings (size 3 to 8) (size 9 to 14) (size 15 to 20)
#    0.000    1.467    2.000    3.800    3.733    3.467 
#    0.000    0.667    0.000    0.800    0.000    0.000 
#    0.000    0.000    0.000    0.000    0.000    0.000 
#
# Total GULP energy -167639.631916 kJ/mol
# GULP energy per Si atom -5587.987731 kJ/mol
# Density = 2.017046 g / cm^3
# Si number density = 20.216478 Si / 1000 Ang^3
#
#
#
# Elastic Constant Matrix: (Units=GPa)
#
#
# Indices 1 2 3 4 5 6 
#
# 1 49.6542 9.8670 9.7560 0.0000 8.5741 0.0000
# 2 9.8670 95.7747 37.3639 0.0000 7.8928 0.0000
# 3 9.7560 37.3639 80.7600 0.0000 16.0014 0.0000
# 4 0.0000 0.0000 0.0000 0.8204 0.0000 -2.3256
# 5 8.5741 7.8928 16.0014 0.0000 30.0806 0.0000
# 6 0.0000 0.0000 0.0000 -2.3256 0.0000 20.0420
#
#
#
# Elastic Compliance Matrix: (Units=1/GPa)
#
#
# Indices 1 2 3 4 5 6 
#
# 1 0.021511 -0.001434 -0.000888 0.000000 -0.005283 0.000000
# 2 -0.001434 0.012838 -0.005790 0.000000 0.000120 0.000000
# 3 -0.000888 -0.005790 0.016563 0.000000 -0.007038 0.000000
# 4 0.000000 0.000000 0.000000 1.816479 0.000000 0.210780
# 5 -0.005283 0.000120 -0.007038 0.000000 0.038462 0.000000
# 6 0.000000 0.000000 0.000000 0.210780 0.000000 0.074354
#
#
# Mechanical properties :
#
#
# Convention : Reuss Voigt Hill
#
# Bulk Modulus (GPa) = 28.82964 37.79587 33.31276
# Shear Modulus (GPa) = 2.49005 21.46873 11.97939
#
# Velocity S-wave (km/s) = 1.11102 3.26228 2.43689
# Velocity P-wave (km/s) = 3.99215 5.73813 4.94284
#
# Compressibility (1/GPa) = 0.03468652
#
# Stress axis : x y z
#
# Youngs Moduli (GPa) = 46.48788 77.89466 60.37556
#
# Poissons Ratio (x) = 0.11172 0.05364
# Poissons Ratio (y) = 0.06667 0.34958
# Poissons Ratio (z) = 0.04130 0.45101
#
# Static dielectric constant tensor:
#      x y z
#    x 1.745260 0.000000 0.021140 
#    y 0.000000 1.710970 0.000000 
#    z 0.021140 0.000000 1.723450 
# 
# From -- ./inp_files/198909.got.cif
#   From: 2010.05.17/outbox.cif.g08.bks.cpg/sg12_100_cif.got.tgz:198909.got - 2010.06.03 13:09:07.
