data_PCOD9187024
_publ_section_title
;
Structure prediction by ZEFSAII (Michael W. Deem and Ramdas Pophale) SiO2 
 PCOD9187024
Probable space group: C 2/M
;
_chemical_formula_sum "Si O2"
_cell_formula_units_Z 40
_cell_length_a 24.275782
_cell_length_b 14.121769
_cell_length_c 19.211073
_cell_angle_alpha 90.000000
_cell_angle_beta 20.228161
_cell_angle_gamma 90.000000
_cell_volume 2277.130845
_symmetry_space_group_name_H-M "C 2/M"
_symmetry_group_IT_number 12
_symmetry_cell_setting 'monoclinic'
loop_
_space_group_symop_operation_xyz
x,y,z
-x,y,-z
-x,-y,-z
x,-y,z
1/2+x,1/2+y,z
1/2-x,1/2+y,-z
1/2-x,1/2-y,-z
1/2+x,1/2-y,z
loop_
_atom_site_type_symbol
_atom_site_label
_atom_site_fract_x
_atom_site_fract_y
_atom_site_fract_z
Si Si1 0.360085 0.605160 0.223291
Si Si2 0.148203 0.750585 0.279612
Si Si3 0.082830 0.111251 0.090782
Si Si4 0.017769 0.890476 0.632836
Si Si5 0.689993 0.197026 0.774792
O O1 0.282902 0.500000 0.317674
O O2 0.445935 0.626039 0.194889
O O3 0.268567 0.698313 0.306117
O O4 0.500000 0.598022 0.000000
O O5 0.077837 0.821360 0.305511
O O6 0.251180 0.805571 0.215581
O O7 0.000000 0.709901 0.500000
O O8 0.263688 0.672836 0.110126
O O9 0.020550 0.132938 0.241755
O O10 0.122821 0.000000 0.039914
O O11 0.204090 0.875088 0.394787
O O12 0.974937 0.000000 0.671348
O O13 0.500000 0.184612 0.000000
#
# Coordination Sequence:
#
# PCOD9187024 Si02
#       5
#     8   8   8   8   8
#     4   9  16  30  55  81 110 138 166 213 272 325
#     4  10  20  35  57  81 108 141 178 221 266 317
#     4  10  19  35  58  82 110 141 174 216 274 328
#     4  10  23  38  54  77 109 148 182 220 268 310
#     4  10  19  35  57  83 105 141 184 220 262 316
#
# _framework density 17.565964000000001
#
# number of rings (size 3 to 8) (size 9 to 14) (size 15 to 20)
#    0.000    2.200    4.000    0.600    0.000    5.200 
#    0.000    3.000    0.000    1.200    0.000    0.000 
#    0.000    0.000    0.000    0.000    0.000    0.000 
#
# Total GULP energy -111411.787967 kJ/mol
# GULP energy per Si atom -5570.589398 kJ/mol
# Density = 1.752598 g / cm^3
# Si number density = 17.565964 Si / 1000 Ang^3
#
#
#
# Elastic Constant Matrix: (Units=GPa)
#
#
# Indices 1 2 3 4 5 6 
#
# 1 122.0191 33.9800 42.4175 0.0000 19.4708 0.0000
# 2 33.9800 44.0498 6.2780 -0.0002 19.0004 0.0003
# 3 42.4175 6.2780 74.6034 0.0002 18.7060 0.0000
# 4 0.0000 -0.0002 0.0002 32.2414 0.0002 -6.3843
# 5 19.4708 19.0004 18.7060 0.0002 26.9753 -0.0002
# 6 0.0000 0.0003 0.0000 -6.3843 -0.0002 31.0740
#
#
#
# Elastic Compliance Matrix: (Units=1/GPa)
#
#
# Indices 1 2 3 4 5 6 
#
# 1 0.013171 -0.010355 -0.007338 0.000000 0.002875 0.000000
# 2 -0.010355 0.041591 0.009513 0.000000 -0.028418 -0.000001
# 3 -0.007338 0.009513 0.020733 0.000000 -0.015781 0.000000
# 4 0.000000 0.000000 0.000000 0.032331 0.000000 0.006643
# 5 0.002875 -0.028418 -0.015781 0.000000 0.065955 0.000001
# 6 0.000000 -0.000001 0.000000 0.006643 0.000001 0.033546
#
#
# Mechanical properties :
#
#
# Convention : Reuss Voigt Hill
#
# Bulk Modulus (GPa) = 16.91042 45.11372 31.01207
# Shear Modulus (GPa) = 20.54232 28.59127 24.56679
#
# Velocity S-wave (km/s) = 3.42342 4.03879 3.74377
# Velocity P-wave (km/s) = 5.02733 6.89111 6.03164
#
# Compressibility (1/GPa) = 0.05913514
#
# Stress axis : x y z
#
# Youngs Moduli (GPa) = 75.92303 24.04362 48.23226
#
# Poissons Ratio (x) = 0.24896 0.35395
# Poissons Ratio (y) = 0.78615 -0.45883
# Poissons Ratio (z) = 0.55715 -0.22872
#
# Static dielectric constant tensor:
#      x y z
#    x 1.600620 0.000000 -0.005040 
#    y 0.000000 1.620670 0.000000 
#    z -0.005040 0.000000 1.585190 
# 
# From -- ./inp_files/72329.got.cif
#   From: 2010.05.17/outbox.cif.g08.bks.cpg/sg12_37_cif.got.tgz:72329.got - 2010.06.03 13:09:07.
