data_PCOD9187618
_publ_section_title
;
Structure prediction by ZEFSAII (Michael W. Deem and Ramdas Pophale) SiO2 
 PCOD9187618
Probable space group: C 2/M
;
_chemical_formula_sum "Si O2"
_cell_formula_units_Z 48
_cell_length_a 30.135124
_cell_length_b 7.700335
_cell_length_c 15.540446
_cell_angle_alpha 90.000000
_cell_angle_beta 139.877902
_cell_angle_gamma 90.000000
_cell_volume 2323.882402
_symmetry_space_group_name_H-M "C 2/M"
_symmetry_group_IT_number 12
_symmetry_cell_setting 'monoclinic'
loop_
_space_group_symop_operation_xyz
x,y,z
-x,y,-z
-x,-y,-z
x,-y,z
1/2+x,1/2+y,z
1/2-x,1/2+y,-z
1/2-x,1/2-y,-z
1/2+x,1/2-y,z
loop_
_atom_site_type_symbol
_atom_site_label
_atom_site_fract_x
_atom_site_fract_y
_atom_site_fract_z
Si Si1 0.576144 0.211906 0.145556
Si Si2 0.316921 0.200607 0.355407
Si Si3 0.573153 0.210735 0.820311
Si Si4 0.420108 0.212522 0.652952
Si Si5 0.422887 0.296670 0.368788
Si Si6 0.161535 0.297047 0.111665
O O1 0.588212 0.270695 0.261022
O O2 0.630408 0.273929 0.154642
O O3 0.577967 0.000000 0.151927
O O4 0.500000 0.259693 0.000000
O O5 0.360354 0.273365 0.500262
O O6 0.366653 0.212012 0.346826
O O7 0.243312 0.284377 0.229889
O O8 0.302236 0.000000 0.352343
O O9 0.495145 0.263614 0.728479
O O10 0.592403 0.275368 0.754435
O O11 0.574654 0.000000 0.819087
O O12 0.623870 0.274041 0.970958
O O13 0.419469 0.000000 0.650775
O O14 0.500000 0.225990 0.500000
O O15 0.423529 0.500000 0.392317
O O16 0.142152 0.500000 0.083456
#
# Coordination Sequence:
#
# PCOD9187618 Si02
#       6
#     8   8   8   8   8   8
#     4   9  15  29  56  87 113 143 187 234 276 324
#     4  11  23  38  57  81 117 155 186 229 282 339
#     4  10  19  35  60  86 111 146 191 233 275 330
#     4   9  17  31  55  85 111 144 191 230 269 329
#     4  11  23  38  59  86 113 143 185 237 287 335
#     4  10  21  36  58  87 118 148 186 236 281 326
#
# _framework density 20.655090999999999
#
# number of rings (size 3 to 8) (size 9 to 14) (size 15 to 20)
#    0.000    2.000    3.333    1.000    0.000    2.667 
#    0.000    0.000    0.000    2.500    0.000    0.000 
#    0.000    0.000    0.000    0.000    0.000    0.000 
#
# Total GULP energy -134052.431856 kJ/mol
# GULP energy per Si atom -5585.517994 kJ/mol
# Density = 2.060808 g / cm^3
# Si number density = 20.655091 Si / 1000 Ang^3
#
#
#
# Elastic Constant Matrix: (Units=GPa)
#
#
# Indices 1 2 3 4 5 6 
#
# 1 118.4260 -14.4498 55.2502 0.0000 -16.5930 0.0000
# 2 -14.4498 31.5875 -10.3828 0.0000 -0.9678 0.0000
# 3 55.2502 -10.3828 130.3416 0.0000 -15.8710 0.0000
# 4 0.0000 0.0000 0.0000 -0.3540 0.0000 0.1995
# 5 -16.5930 -0.9678 -15.8710 0.0000 40.7249 0.0000
# 6 0.0000 0.0000 0.0000 0.1995 0.0000 -31.1514
#
#
#
# Elastic Compliance Matrix: (Units=1/GPa)
#
#
# Indices 1 2 3 4 5 6 
#
# 1 0.011259 0.003902 -0.004086 0.000000 0.003088 0.000000
# 2 0.003902 0.033998 0.001413 0.000001 0.002949 0.000000
# 3 -0.004086 0.001413 0.009782 0.000000 0.002181 0.000000
# 4 0.000000 0.000001 0.000000 -2.835271 0.000000 -0.018158
# 5 0.003088 0.002949 0.002181 0.000000 0.026733 0.000000
# 6 0.000000 0.000000 0.000000 -0.018158 0.000000 -0.032218
#
#
# Mechanical properties :
#
#
# Convention : Reuss Voigt Hill
#
# Bulk Modulus (GPa) = 17.39180 37.91003 27.65092
# Shear Modulus (GPa) = -1.80570 18.50642 8.35036
#
# Velocity S-wave (km/s) = -0.93601 2.99653 2.01284
# Velocity P-wave (km/s) = 2.69634 5.51053 4.33798
#
# Compressibility (1/GPa) = 0.05749835
#
# Stress axis : x y z
#
# Youngs Moduli (GPa) = 88.81782 29.41351 102.22656
#
# Poissons Ratio (x) = -0.11477 0.41767
# Poissons Ratio (y) = -0.34658 -0.14447
# Poissons Ratio (z) = 0.36289 -0.04157
#
# Static dielectric constant tensor:
#      x y z
#    x 1.697840 0.000000 -0.019630 
#    y 0.000000 1.768130 0.000000 
#    z -0.019630 0.000000 1.716340 
# 
# From -- ./inp_files/229916.got.cif
#   From: 2010.05.17/outbox.cif.g08.bks.cpg/sg12_115_cif.got.tgz:229916.got - 2010.06.03 13:09:07.
