data_PCOD9187759
_publ_section_title
;
Structure prediction by ZEFSAII (Michael W. Deem and Ramdas Pophale) SiO2 
 PCOD9187759
Probable space group: C 2/M
;
_chemical_formula_sum "Si O2"
_cell_formula_units_Z 52
_cell_length_a 11.258655
_cell_length_b 29.505741
_cell_length_c 8.862389
_cell_angle_alpha 90.000000
_cell_angle_beta 74.192029
_cell_angle_gamma 90.000000
_cell_volume 2832.697625
_symmetry_space_group_name_H-M "C 2/M"
_symmetry_group_IT_number 12
_symmetry_cell_setting 'monoclinic'
loop_
_space_group_symop_operation_xyz
x,y,z
-x,y,-z
-x,-y,-z
x,-y,z
1/2+x,1/2+y,z
1/2-x,1/2+y,-z
1/2-x,1/2-y,-z
1/2+x,1/2-y,z
loop_
_atom_site_type_symbol
_atom_site_label
_atom_site_fract_x
_atom_site_fract_y
_atom_site_fract_z
Si Si1 0.754496 0.680719 0.581803
Si Si2 0.722369 0.778035 0.747526
Si Si3 0.892725 0.177861 0.916513
Si Si4 0.324082 0.867862 0.832861
Si Si5 0.632425 0.552851 0.868752
Si Si6 0.500000 0.823367 0.000000
Si Si7 0.468437 0.387401 0.340420
O O1 0.733846 0.728427 0.672712
O O2 0.786986 0.689914 0.397048
O O3 0.841776 0.649061 0.654818
O O4 0.626156 0.654254 0.624649
O O5 0.843468 0.786604 0.809969
O O6 0.604751 0.791333 0.889652
O O7 0.926310 0.133315 0.804816
O O8 0.778580 0.165590 0.061484
O O9 0.000000 0.188546 0.000000
O O10 0.250965 0.915826 0.869748
O O11 0.441597 0.856563 0.893721
O O12 0.661385 0.500000 0.870825
O O13 0.596636 0.570173 0.714961
O O14 0.500000 0.560416 0.000000
O O15 0.500000 0.397833 0.500000
#
# Coordination Sequence:
#
# PCOD9187759 Si02
#       7
#     8   8   8   8   8   4   8
#     4  10  21  37  55  79 114 148 197 235 284 318
#     4  10  23  37  52  84 111 154 198 234 269 332
#     4  11  18  34  56  80 110 144 189 227 286 335
#     4  10  20  38  54  81 112 154 184 234 283 342
#     4  10  19  35  61  88 113 142 184 240 294 349
#     4  10  24  38  55  78 118 154 201 226 274 336
#     4  11  19  33  56  84 113 149 173 235 294 344
#
# _framework density 18.357059
#
# number of rings (size 3 to 8) (size 9 to 14) (size 15 to 20)
#    0.000    1.692    6.154    0.000    0.000    5.846 
#    1.385    0.385    0.000    0.000    0.000    8.615 
#    0.000    0.000    0.000    0.000    0.000    0.000 
#
# Total GULP energy -144826.054607 kJ/mol
# GULP energy per Si atom -5570.232870 kJ/mol
# Density = 1.831528 g / cm^3
# Si number density = 18.357059 Si / 1000 Ang^3
#
#
#
# Elastic Constant Matrix: (Units=GPa)
#
#
# Indices 1 2 3 4 5 6 
#
# 1 77.6957 20.9579 29.8691 0.0000 29.1168 0.0000
# 2 20.9579 73.1730 26.4970 0.0000 14.2505 0.0000
# 3 29.8691 26.4970 103.1893 0.0000 18.0760 0.0000
# 4 0.0000 0.0000 0.0000 12.9360 0.0000 -4.8547
# 5 29.1168 14.2505 18.0760 0.0000 27.3946 0.0000
# 6 0.0000 0.0000 0.0000 -4.8547 0.0000 6.4951
#
#
#
# Elastic Compliance Matrix: (Units=1/GPa)
#
#
# Indices 1 2 3 4 5 6 
#
# 1 0.022089 -0.001347 -0.002327 0.000000 -0.021241 0.000000
# 2 -0.001347 0.016067 -0.002852 0.000000 -0.005044 0.000000
# 3 -0.002327 -0.002852 0.011763 0.000000 -0.003805 0.000000
# 4 0.000000 0.000000 0.000000 0.107441 0.000000 0.080305
# 5 -0.021241 -0.005044 -0.003805 0.000000 0.064215 0.000000
# 6 0.000000 0.000000 0.000000 0.080305 0.000000 0.213984
#
#
# Mechanical properties :
#
#
# Convention : Reuss Voigt Hill
#
# Bulk Modulus (GPa) = 27.12458 45.41179 36.26818
# Shear Modulus (GPa) = 10.84832 21.14741 15.99786
#
# Velocity S-wave (km/s) = 2.43361 3.39780 2.95529
# Velocity P-wave (km/s) = 4.76495 6.33918 5.60758
#
# Compressibility (1/GPa) = 0.03686693
#
# Stress axis : x y z
#
# Youngs Moduli (GPa) = 45.27133 62.23820 85.00928
#
# Poissons Ratio (x) = 0.08385 0.19782
# Poissons Ratio (y) = 0.06099 0.24246
# Poissons Ratio (z) = 0.10535 0.17752
#
# Static dielectric constant tensor:
#      x y z
#    x 1.672330 0.000000 0.018000 
#    y 0.000000 1.638540 0.000000 
#    z 0.018000 0.000000 1.724230 
# 
# From -- ./inp_files/53764.got.cif
#   From: 2010.05.17/outbox.cif.g08.bks.cpg/sg12_27_cif.got.tgz:53764.got - 2010.06.03 13:09:07.
