data_PCOD9187803
_publ_section_title
;
Structure prediction by ZEFSAII (Michael W. Deem and Ramdas Pophale) SiO2 
 PCOD9187803
Probable space group: C 2/M
;
_chemical_formula_sum "Si O2"
_cell_formula_units_Z 56
_cell_length_a 25.763978
_cell_length_b 8.218963
_cell_length_c 19.009881
_cell_angle_alpha 90.000000
_cell_angle_beta 137.687485
_cell_angle_gamma 90.000000
_cell_volume 2709.796713
_symmetry_space_group_name_H-M "C 2/M"
_symmetry_group_IT_number 12
_symmetry_cell_setting 'monoclinic'
loop_
_space_group_symop_operation_xyz
x,y,z
-x,y,-z
-x,-y,-z
x,-y,z
1/2+x,1/2+y,z
1/2-x,1/2+y,-z
1/2-x,1/2-y,-z
1/2+x,1/2-y,z
loop_
_atom_site_type_symbol
_atom_site_label
_atom_site_fract_x
_atom_site_fract_y
_atom_site_fract_z
Si Si1 0.201112 0.697227 0.128166
Si Si2 0.350777 0.303351 0.189427
Si Si3 0.660037 0.692476 0.501153
Si Si4 0.584156 0.809522 0.287702
Si Si5 0.186132 0.188279 0.272701
Si Si6 0.004669 0.198414 0.424123
Si Si7 0.590373 0.195627 0.896507
O O1 0.202163 0.500000 0.132353
O O2 0.277834 0.749067 0.162601
O O3 0.198010 0.760942 0.204024
O O4 0.128810 0.750075 0.007870
O O5 0.350085 0.500000 0.187287
O O6 0.429780 0.247882 0.306099
O O7 0.355359 0.242791 0.114281
O O8 0.671160 0.500000 0.524055
O O9 0.639414 0.723038 0.399354
O O10 0.734940 0.780224 0.605651
O O11 0.584054 0.748606 0.467364
O O12 0.619770 0.787283 0.246342
O O13 0.496729 0.743448 0.203170
O O14 0.583072 0.000000 0.304913
O O15 0.165541 0.000000 0.255871
O O16 0.000000 0.251663 0.500000
O O17 0.004082 0.000000 0.423009
O O18 0.586055 0.000000 0.894785
#
# Coordination Sequence:
#
# PCOD9187803 Si02
#       7
#     8   8   8   8   8   8   8
#     4  10  22  41  63  89 122 163 203 243 300 360
#     4  10  19  35  61  90 122 160 202 244 290 357
#     4  11  21  38  63  89 122 158 200 248 296 360
#     4  11  23  41  63  88 122 161 202 248 301 360
#     4  12  26  42  61  88 120 156 203 256 308 358
#     4   9  17  30  53  86 120 156 195 235 283 344
#     4  10  22  39  62  91 124 160 200 248 300 356
#
# _framework density 20.665756999999999
#
# number of rings (size 3 to 8) (size 9 to 14) (size 15 to 20)
#    0.000    1.571    1.429    3.857    0.000    4.571 
#    0.000    2.857    0.000    2.143    0.000    0.000 
#    0.000    0.000    0.000    0.000    0.000    0.000 
#
# Total GULP energy -156535.261688 kJ/mol
# GULP energy per Si atom -5590.545060 kJ/mol
# Density = 2.061872 g / cm^3
# Si number density = 20.665757 Si / 1000 Ang^3
#
#
#
# Elastic Constant Matrix: (Units=GPa)
#
#
# Indices 1 2 3 4 5 6 
#
# 1 95.0380 -9.0798 45.0019 0.0000 -28.2316 0.0000
# 2 -9.0798 12.5936 -0.1407 0.0000 0.8586 0.0000
# 3 45.0019 -0.1407 84.0816 0.0000 -8.6823 0.0000
# 4 0.0000 0.0000 0.0000 20.3602 0.0000 -8.5468
# 5 -28.2316 0.8586 -8.6823 0.0000 15.1125 0.0000
# 6 0.0000 0.0000 0.0000 -8.5468 0.0000 23.6171
#
#
#
# Elastic Compliance Matrix: (Units=1/GPa)
#
#
# Indices 1 2 3 4 5 6 
#
# 1 0.036745 0.022276 -0.013471 0.000000 0.059638 0.000000
# 2 0.022276 0.093228 -0.008522 0.000000 0.031420 0.000000
# 3 -0.013471 -0.008522 0.017583 0.000000 -0.014579 0.000000
# 4 0.000000 0.000000 0.000000 0.057913 0.000000 0.020958
# 5 0.059638 0.031420 -0.014579 0.000000 0.167418 0.000000
# 6 0.000000 0.000000 0.000000 0.020958 0.000000 0.049927
#
#
# Mechanical properties :
#
#
# Convention : Reuss Voigt Hill
#
# Bulk Modulus (GPa) = 6.75119 29.25292 18.00206
# Shear Modulus (GPa) = 10.60168 22.21340 16.40754
#
# Velocity S-wave (km/s) = 2.26742 3.28211 2.82077
# Velocity P-wave (km/s) = 3.18259 5.34312 4.39760
#
# Compressibility (1/GPa) = 0.14812196
#
# Stress axis : x y z
#
# Youngs Moduli (GPa) = 27.21474 10.72639 56.87179
#
# Poissons Ratio (x) = -0.23894 0.76612
# Poissons Ratio (y) = -0.60623 0.48466
# Poissons Ratio (z) = 0.36661 0.09141
#
# Static dielectric constant tensor:
#      x y z
#    x 1.720400 0.000000 0.010170 
#    y 0.000000 1.717170 0.000000 
#    z 0.010170 0.000000 1.724310 
# 
# From -- ./inp_files/288455.got.cif
#   From: 2010.05.17/outbox.cif.g08.bks.cpg/sg12_145_cif.got.tgz:288455.got - 2010.06.03 13:09:07.
