data_PCOD9187037
_publ_section_title
;
Structure prediction by ZEFSAII (Michael W. Deem and Ramdas Pophale) SiO2 
 PCOD9187037
Probable space group: C 2/M
;
_chemical_formula_sum "Si O2"
_cell_formula_units_Z 56
_cell_length_a 18.491700
_cell_length_b 12.050240
_cell_length_c 11.591389
_cell_angle_alpha 90.000000
_cell_angle_beta 71.687134
_cell_angle_gamma 90.000000
_cell_volume 2452.091284
_symmetry_space_group_name_H-M "C 2/M"
_symmetry_group_IT_number 12
_symmetry_cell_setting 'monoclinic'
loop_
_space_group_symop_operation_xyz
x,y,z
-x,y,-z
-x,-y,-z
x,-y,z
1/2+x,1/2+y,z
1/2-x,1/2+y,-z
1/2-x,1/2-y,-z
1/2+x,1/2-y,z
loop_
_atom_site_type_symbol
_atom_site_label
_atom_site_fract_x
_atom_site_fract_y
_atom_site_fract_z
Si Si1 0.965482 0.373381 0.229382
Si Si2 0.130938 0.382147 0.243731
Si Si3 0.864708 0.333982 0.499723
Si Si4 0.776060 0.877049 0.581504
Si Si5 0.841514 0.119904 0.969458
Si Si6 0.764718 0.293085 0.154879
Si Si7 0.009608 0.125299 0.857392
O O1 0.946524 0.500000 0.188038
O O2 0.922876 0.368476 0.372843
O O3 0.055942 0.375109 0.205059
O O4 0.952519 0.246094 0.188383
O O5 0.168400 0.500000 0.201935
O O6 0.109985 0.376185 0.389138
O O7 0.193614 0.290434 0.195413
O O8 0.846624 0.203444 0.522355
O O9 0.781569 0.375104 0.497734
O O10 0.728070 0.837953 0.719079
O O11 0.802875 0.000000 0.591457
O O12 0.768783 0.121567 0.920992
O O13 0.921027 0.129942 0.860424
O O14 0.844848 0.000000 0.027471
O O15 0.831122 0.221457 0.063325
O O16 0.039452 0.000000 0.807061
O O17 0.000000 0.122104 0.000000
#
# Coordination Sequence:
#
# PCOD9187037 Si02
#       7
#     8   8   8   8   8   8   8
#     4  11  22  38  62  89 116 150 196 241 288 339
#     4  10  19  35  57  83 114 148 188 235 284 339
#     4  10  22  37  57  84 117 149 188 234 288 342
#     4  10  21  38  57  83 116 150 187 235 287 344
#     4  10  20  37  57  81 113 151 193 239 286 341
#     4  10  20  34  57  85 110 149 190 238 282 342
#     4  10  23  42  61  84 119 156 194 237 291 349
#
# _framework density 22.837648999999999
#
# number of rings (size 3 to 8) (size 9 to 14) (size 15 to 20)
#    0.000    1.857    1.429    2.571    2.000    2.000 
#    0.000    1.429    0.000    2.571    0.000    0.000 
#    0.000    0.000    0.000    0.000    0.000    0.000 
#
# Total GULP energy -155990.226179 kJ/mol
# GULP energy per Si atom -5571.079506 kJ/mol
# Density = 2.278567 g / cm^3
# Si number density = 22.837649 Si / 1000 Ang^3
#
#
#
# Elastic Constant Matrix: (Units=GPa)
#
#
# Indices 1 2 3 4 5 6 
#
# 1 32.6514 6.3183 -9.1837 0.0000 2.9788 0.0000
# 2 6.3183 209.4528 27.6491 0.0000 -5.8633 0.0000
# 3 -9.1837 27.6491 37.8693 0.0000 1.7359 0.0000
# 4 0.0000 0.0000 0.0000 8.5084 0.0000 -1.4540
# 5 2.9788 -5.8633 1.7359 0.0000 30.7796 0.0000
# 6 0.0000 0.0000 0.0000 -1.4540 0.0000 5.0944
#
#
#
# Elastic Compliance Matrix: (Units=1/GPa)
#
#
# Indices 1 2 3 4 5 6 
#
# 1 0.034446 -0.002536 0.010407 0.000000 -0.004404 0.000000
# 2 -0.002536 0.005517 -0.004715 0.000000 0.001562 0.000000
# 3 0.010407 -0.004715 0.032544 0.000000 -0.003741 0.000000
# 4 0.000000 0.000000 0.000000 0.123557 0.000000 0.035263
# 5 -0.004404 0.001562 -0.003741 0.000000 0.033424 0.000000
# 6 0.000000 0.000000 0.000000 0.035263 0.000000 0.206358
#
#
# Mechanical properties :
#
#
# Convention : Reuss Voigt Hill
#
# Bulk Modulus (GPa) = 12.68712 36.61564 24.65138
# Shear Modulus (GPa) = 10.96957 25.88914 18.42935
#
# Velocity S-wave (km/s) = 2.19402 3.37057 2.84381
# Velocity P-wave (km/s) = 3.46204 5.58709 4.64765
#
# Compressibility (1/GPa) = 0.07882007
#
# Stress axis : x y z
#
# Youngs Moduli (GPa) = 29.03073 181.25940 30.72740
#
# Poissons Ratio (x) = 0.45971 -0.31979
# Poissons Ratio (y) = 0.07363 0.14487
# Poissons Ratio (z) = -0.30213 0.85458
#
# Static dielectric constant tensor:
#      x y z
#    x 1.890590 0.000000 0.028820 
#    y 0.000000 1.958890 0.000000 
#    z 0.028820 0.000000 1.861060 
# 
# From -- ./inp_files/165618.got.cif
#   From: 2010.05.17/outbox.cif.g08.bks.cpg/sg12_83_cif.got.tgz:165618.got - 2010.06.03 13:09:07.
