data_PCOD9187552
_publ_section_title
;
Structure prediction by ZEFSAII (Michael W. Deem and Ramdas Pophale) SiO2 
 PCOD9187552
Probable space group: C 2/M
;
_chemical_formula_sum "Si O2"
_cell_formula_units_Z 64
_cell_length_a 21.756970
_cell_length_b 15.700097
_cell_length_c 30.129536
_cell_angle_alpha 90.000000
_cell_angle_beta 161.920884
_cell_angle_gamma 90.000000
_cell_volume 3193.867427
_symmetry_space_group_name_H-M "C 2/M"
_symmetry_group_IT_number 12
_symmetry_cell_setting 'monoclinic'
loop_
_space_group_symop_operation_xyz
x,y,z
-x,y,-z
-x,-y,-z
x,-y,z
1/2+x,1/2+y,z
1/2-x,1/2+y,-z
1/2-x,1/2-y,-z
1/2+x,1/2-y,z
loop_
_atom_site_type_symbol
_atom_site_label
_atom_site_fract_x
_atom_site_fract_y
_atom_site_fract_z
Si Si1 0.530595 0.309283 0.384846
Si Si2 0.775511 0.592557 0.142556
Si Si3 0.539524 0.905295 0.235355
Si Si4 0.332227 0.878919 0.536606
Si Si5 0.893380 0.773063 0.471711
Si Si6 0.653946 0.779382 0.067598
Si Si7 0.761148 0.332305 0.974626
Si Si8 0.316056 0.594882 0.660747
O O1 0.646210 0.219943 0.461470
O O2 0.683595 0.382801 0.476238
O O3 0.463809 0.302415 0.389697
O O4 0.363778 0.305023 0.233253
O O5 0.675122 0.500000 0.074190
O O6 0.645487 0.676281 0.059438
O O7 0.890996 0.602822 0.175176
O O8 0.950612 0.592877 0.299536
O O9 0.697355 0.829437 0.344858
O O10 0.410380 0.894659 0.102390
O O11 0.629057 0.000000 0.298744
O O12 0.236320 0.915503 0.427045
O O13 0.826195 0.673662 0.422429
O O14 0.000000 0.796409 0.500000
O O15 0.500000 0.808605 0.000000
O O16 0.658024 0.810806 0.019381
O O17 0.750000 0.250000 0.000000
O O18 0.541670 0.372677 0.820731
O O19 0.290484 0.500000 0.663938
#
# Coordination Sequence:
#
# PCOD9187552 Si02
#       8
#     8   8   8   8   8   8   8   8
#     4   9  18  34  58  85 112 149 200 239 294 355
#     4  10  19  35  59  90 120 151 198 258 305 358
#     4  11  23  40  64  89 116 157 212 262 302 357
#     4   9  16  33  59  84 113 144 191 253 296 340
#     4  11  23  39  63  91 128 162 192 247 312 370
#     4  11  23  37  60  87 121 168 203 243 310 371
#     4  12  22  40  64  85 120 165 215 254 299 357
#     4  11  22  38  63  93 120 158 203 249 302 365
#
# _framework density 20.038401
#
# number of rings (size 3 to 8) (size 9 to 14) (size 15 to 20)
#    0.000    1.500    5.000    0.750    1.750    0.750 
#    0.000    0.000    0.000    3.000    0.000    0.000 
#    0.000    0.000    0.000    0.000    0.000    0.000 
#
# Total GULP energy -178250.102060 kJ/mol
# GULP energy per Si atom -5570.315689 kJ/mol
# Density = 1.999279 g / cm^3
# Si number density = 20.038401 Si / 1000 Ang^3
#
#
#
# Elastic Constant Matrix: (Units=GPa)
#
#
# Indices 1 2 3 4 5 6 
#
# 1 106.0820 5.9800 4.5698 -0.1326 -17.0362 0.0329
# 2 5.9800 65.3689 6.1315 0.0356 -2.6160 0.0001
# 3 4.5698 6.1315 29.7969 -0.2282 -20.8657 0.0643
# 4 -0.1326 0.0356 -0.2282 -48.8305 0.1477 12.2682
# 5 -17.0362 -2.6160 -20.8657 0.1477 31.3428 -0.0314
# 6 0.0329 0.0001 0.0643 12.2682 -0.0314 9.5789
#
#
#
# Elastic Compliance Matrix: (Units=1/GPa)
#
#
# Indices 1 2 3 4 5 6 
#
# 1 0.010719 -0.001077 0.004860 -0.000027 0.008972 -0.000006
# 2 -0.001077 0.015748 -0.004805 0.000027 -0.002470 -0.000008
# 3 0.004860 -0.004805 0.066263 -0.000200 0.046355 -0.000054
# 4 -0.000027 0.000027 -0.000200 -0.015493 -0.000052 0.019843
# 5 0.008972 -0.002470 0.046355 -0.000052 0.067436 -0.000054
# 6 -0.000006 -0.000008 -0.000054 0.019843 -0.000054 0.078982
#
#
# Mechanical properties :
#
#
# Convention : Reuss Voigt Hill
#
# Bulk Modulus (GPa) = 11.02701 26.06784 18.54742
# Shear Modulus (GPa) = 19.53681 10.72267 15.12974
#
# Velocity S-wave (km/s) = 3.12584 2.31575 2.75078
# Velocity P-wave (km/s) = 4.30612 4.49304 4.40057
#
# Compressibility (1/GPa) = 0.09068645
#
# Stress axis : x y z
#
# Youngs Moduli (GPa) = 93.29337 63.49937 15.09137
#
# Poissons Ratio (x) = 0.06842 -0.07335
# Poissons Ratio (y) = 0.10052 0.07251
# Poissons Ratio (z) = -0.45345 0.30511
#
# Static dielectric constant tensor:
#      x y z
#    x 1.762440 0.000000 -0.016430 
#    y 0.000000 1.751800 -0.000040 
#    z -0.016430 -0.000040 1.703500 
# 
# From -- ./inp_files/381623.got.cif
#   From: 2010.05.17/outbox.cif.g08.bks.cpg/sg12_191_cif.got.tgz:381623.got - 2010.06.03 13:09:07.
