data_PCOD9187985
_publ_section_title
;
Structure prediction by ZEFSAII (Michael W. Deem and Ramdas Pophale) SiO2 
 PCOD9187985
Probable space group: C 2/M
;
_chemical_formula_sum "Si O2"
_cell_formula_units_Z 56
_cell_length_a 9.479174
_cell_length_b 15.933220
_cell_length_c 22.502517
_cell_angle_alpha 90.000000
_cell_angle_beta 120.907818
_cell_angle_gamma 90.000000
_cell_volume 2916.015412
_symmetry_space_group_name_H-M "C 2/M"
_symmetry_group_IT_number 12
_symmetry_cell_setting 'monoclinic'
loop_
_space_group_symop_operation_xyz
x,y,z
-x,y,-z
-x,-y,-z
x,-y,z
1/2+x,1/2+y,z
1/2-x,1/2+y,-z
1/2-x,1/2-y,-z
1/2+x,1/2-y,z
loop_
_atom_site_type_symbol
_atom_site_label
_atom_site_fract_x
_atom_site_fract_y
_atom_site_fract_z
Si Si1 0.694539 0.767768 0.172832
Si Si2 0.597964 0.684336 0.960023
Si Si3 0.449867 0.771317 0.734155
Si Si4 0.323356 0.403230 0.661447
Si Si5 0.544438 0.907011 0.364370
Si Si6 0.679186 0.836701 0.509957
Si Si7 0.671123 0.094977 0.067972
O O1 0.535485 0.717960 0.115535
O O2 0.665426 0.790336 0.234960
O O3 0.708324 0.845467 0.131154
O O4 0.861800 0.715408 0.205645
O O5 0.687003 0.604830 0.950327
O O6 0.500000 0.671547 0.000000
O O7 0.750000 0.750000 0.000000
O O8 0.428486 0.673360 0.711355
O O9 0.413660 0.832425 0.671548
O O10 0.383291 0.500000 0.679468
O O11 0.287654 0.378832 0.585065
O O12 0.146440 0.399726 0.656684
O O13 0.648698 0.896202 0.447016
O O14 0.569221 0.000000 0.344068
O O15 0.500000 0.820436 0.500000
O O16 0.750000 0.750000 0.500000
O O17 0.651997 0.000000 0.083503
O O18 0.500000 0.121786 0.000000
#
# Coordination Sequence:
#
# PCOD9187985 Si02
#       7
#     8   8   8   8   8   8   8
#     4  12  23  39  63  91 120 166 204 239 307 374
#     4  12  20  40  70  92 117 161 205 252 301 366
#     4  12  23  38  62  90 124 168 208 250 303 380
#     4  10  21  39  62  89 122 164 211 256 311 370
#     4  10  21  39  62  90 121 160 211 262 305 363
#     4  10  19  35  65  89 116 157 209 263 311 362
#     4  11  24  42  65  96 127 154 202 264 312 362
#
# _framework density 19.204288999999999
#
# number of rings (size 3 to 8) (size 9 to 14) (size 15 to 20)
#    0.000    1.000    7.143    0.429    0.000    3.143 
#    0.000    0.714    0.000    0.857    0.000    0.000 
#    0.000    0.000    0.000    0.000    0.000    0.000 
#
# Total GULP energy -156301.549749 kJ/mol
# GULP energy per Si atom -5582.198205 kJ/mol
# Density = 1.916058 g / cm^3
# Si number density = 19.204289 Si / 1000 Ang^3
#
#
#
# Elastic Constant Matrix: (Units=GPa)
#
#
# Indices 1 2 3 4 5 6 
#
# 1 81.5312 21.8283 19.7935 0.0000 -19.2954 0.0000
# 2 21.8283 96.6246 22.3854 0.0000 -13.7492 0.0000
# 3 19.7935 22.3854 66.8274 0.0000 -12.8589 0.0000
# 4 0.0000 0.0000 0.0000 18.2386 0.0000 3.6174
# 5 -19.2954 -13.7492 -12.8589 0.0000 36.5347 0.0000
# 6 0.0000 0.0000 0.0000 3.6174 0.0000 20.0789
#
#
#
# Elastic Compliance Matrix: (Units=1/GPa)
#
#
# Indices 1 2 3 4 5 6 
#
# 1 0.014869 -0.001874 -0.002575 0.000000 0.006241 0.000000
# 2 -0.001874 0.011796 -0.002931 0.000000 0.002418 0.000000
# 3 -0.002575 -0.002931 0.017414 0.000000 0.003666 0.000000
# 4 0.000000 0.000000 0.000000 0.056860 0.000000 -0.010244
# 5 0.006241 0.002418 0.003666 0.000000 0.032868 0.000000
# 6 0.000000 0.000000 0.000000 -0.010244 0.000000 0.051649
#
#
# Mechanical properties :
#
#
# Convention : Reuss Voigt Hill
#
# Bulk Modulus (GPa) = 34.10894 41.44419 37.77656
# Shear Modulus (GPa) = 23.81066 27.03550 25.42308
#
# Velocity S-wave (km/s) = 3.52499 3.75612 3.64239
# Velocity P-wave (km/s) = 5.86234 6.35915 6.11579
#
# Compressibility (1/GPa) = 0.02931783
#
# Stress axis : x y z
#
# Youngs Moduli (GPa) = 67.25240 84.77594 57.42544
#
# Poissons Ratio (x) = 0.15890 0.14789
# Poissons Ratio (y) = 0.12606 0.16831
# Poissons Ratio (z) = 0.17320 0.24847
#
# Static dielectric constant tensor:
#      x y z
#    x 1.666820 0.000000 0.000300 
#    y 0.000000 1.660080 0.000000 
#    z 0.000300 0.000000 1.683560 
# 
# From -- ./inp_files/333009.got.cif
#   From: 2010.05.17/outbox.cif.g08.bks.cpg/sg12_167_cif.got.tgz:333009.got - 2010.06.03 13:09:07.
