data_PCOD9187824
_publ_section_title
;
Structure prediction by ZEFSAII (Michael W. Deem and Ramdas Pophale) SiO2 
 PCOD9187824
Probable space group: C 2/M
;
_chemical_formula_sum "Si O2"
_cell_formula_units_Z 48
_cell_length_a 18.396725
_cell_length_b 15.011023
_cell_length_c 12.712131
_cell_angle_alpha 90.000000
_cell_angle_beta 37.467708
_cell_angle_gamma 90.000000
_cell_volume 2135.487919
_symmetry_space_group_name_H-M "C 2/M"
_symmetry_group_IT_number 12
_symmetry_cell_setting 'monoclinic'
loop_
_space_group_symop_operation_xyz
x,y,z
-x,y,-z
-x,-y,-z
x,-y,z
1/2+x,1/2+y,z
1/2-x,1/2+y,-z
1/2-x,1/2-y,-z
1/2+x,1/2-y,z
loop_
_atom_site_type_symbol
_atom_site_label
_atom_site_fract_x
_atom_site_fract_y
_atom_site_fract_z
Si Si1 0.011588 0.393927 0.362886
Si Si2 0.362451 0.864629 0.177154
Si Si3 0.625597 0.393396 0.305933
Si Si4 0.784500 0.893639 0.017014
Si Si5 0.131745 0.151913 0.848624
Si Si6 0.297352 0.153041 0.476846
O O1 0.983789 0.500000 0.384769
O O2 0.920415 0.339008 0.398153
O O3 0.000000 0.372775 0.500000
O O4 0.143526 0.379384 0.167961
O O5 0.250695 0.881842 0.226548
O O6 0.373544 0.757513 0.166365
O O7 0.320224 0.895711 0.340956
O O8 0.500000 0.896772 0.000000
O O9 0.500000 0.359102 0.500000
O O10 0.610937 0.500000 0.314079
O O11 0.646477 0.357007 0.163843
O O12 0.817164 0.858307 0.093824
O O13 0.804087 0.000000 0.998411
O O14 0.209115 0.112008 0.664972
O O15 0.000000 0.113478 0.000000
O O16 0.250000 0.250000 0.500000
#
# Coordination Sequence:
#
# PCOD9187824 Si02
#       6
#     8   8   8   8   8   8
#     4  10  19  35  61  92 122 154 202 258 308 358
#     4  10  22  41  60  86 122 165 205 249 302 370
#     4  10  23  42  61  88 123 158 204 255 307 372
#     4  10  21  39  63  90 121 159 204 256 309 365
#     4  10  22  38  58  88 124 159 203 254 302 367
#     4  10  21  38  58  88 125 156 197 253 302 368
#
# _framework density 22.477298000000001
#
# number of rings (size 3 to 8) (size 9 to 14) (size 15 to 20)
#    0.000    2.000    1.667    1.000    2.333    2.000 
#    6.000    0.000    0.000    0.000    0.000    0.000 
#    0.000    0.000    0.000    0.000    0.000    0.000 
#
# Total GULP energy -133994.559017 kJ/mol
# GULP energy per Si atom -5583.106626 kJ/mol
# Density = 2.242614 g / cm^3
# Si number density = 22.477298 Si / 1000 Ang^3
#
#
#
# Elastic Constant Matrix: (Units=GPa)
#
#
# Indices 1 2 3 4 5 6 
#
# 1 151.1254 21.4909 87.2201 0.0000 13.3550 0.0000
# 2 21.4909 53.0565 25.1497 0.0000 -1.8850 0.0000
# 3 87.2201 25.1497 196.4365 0.0000 34.8022 0.0000
# 4 0.0000 0.0000 0.0000 127.0308 0.0000 -179.3823
# 5 13.3550 -1.8850 34.8022 0.0000 42.8382 0.0000
# 6 0.0000 0.0000 0.0000 -179.3823 0.0000 291.5328
#
#
#
# Elastic Compliance Matrix: (Units=1/GPa)
#
#
# Indices 1 2 3 4 5 6 
#
# 1 0.009071 -0.001854 -0.003825 0.000000 0.000198 0.000000
# 2 -0.001854 0.020896 -0.002473 0.000000 0.003507 0.000000
# 3 -0.003825 -0.002473 0.008076 0.000000 -0.005478 0.000000
# 4 0.000000 0.000000 0.000000 0.060040 0.000000 0.036943
# 5 0.000198 0.003507 -0.005478 0.000000 0.027886 0.000000
# 6 0.000000 0.000000 0.000000 0.036943 0.000000 0.026161
#
#
# Mechanical properties :
#
#
# Convention : Reuss Voigt Hill
#
# Bulk Modulus (GPa) = 46.00316 74.25998 60.13157
# Shear Modulus (GPa) = 28.46053 110.06420 69.26236
#
# Velocity S-wave (km/s) = 3.56222 7.00522 5.55709
# Velocity P-wave (km/s) = 6.11802 9.92675 8.24532
#
# Compressibility (1/GPa) = 0.02173764
#
# Stress axis : x y z
#
# Youngs Moduli (GPa) = 110.24275 47.85650 123.81863
#
# Poissons Ratio (x) = 0.08872 0.47365
# Poissons Ratio (y) = 0.20438 0.30626
# Poissons Ratio (z) = 0.42172 0.11837
#
# Static dielectric constant tensor:
#      x y z
#    x 1.783500 0.000000 0.006000 
#    y 0.000000 1.852090 0.000000 
#    z 0.006000 0.000000 1.894970 
# 
# From -- ./inp_files/147939.got.cif
#   From: 2010.05.17/outbox.cif.g08.bks.cpg/sg12_74_cif.got.tgz:147939.got - 2010.06.03 13:09:07.
