data_PCOD9187469
_publ_section_title
;
Structure prediction by ZEFSAII (Michael W. Deem and Ramdas Pophale) SiO2 
 PCOD9187469
Probable space group: C 2/M
;
_chemical_formula_sum "Si O2"
_cell_formula_units_Z 48
_cell_length_a 21.096939
_cell_length_b 8.084816
_cell_length_c 15.633746
_cell_angle_alpha 90.000000
_cell_angle_beta 111.583286
_cell_angle_gamma 90.000000
_cell_volume 2479.598338
_symmetry_space_group_name_H-M "C 2/M"
_symmetry_group_IT_number 12
_symmetry_cell_setting 'monoclinic'
loop_
_space_group_symop_operation_xyz
x,y,z
-x,y,-z
-x,-y,-z
x,-y,z
1/2+x,1/2+y,z
1/2-x,1/2+y,-z
1/2-x,1/2-y,-z
1/2+x,1/2-y,z
loop_
_atom_site_type_symbol
_atom_site_label
_atom_site_fract_x
_atom_site_fract_y
_atom_site_fract_z
Si Si1 0.076061 0.300889 0.759421
Si Si2 0.924479 0.702473 0.739269
Si Si3 0.328298 0.199751 0.039710
Si Si4 0.171817 0.302907 0.460871
Si Si5 0.074703 0.802727 0.565499
Si Si6 0.075911 0.701985 0.066660
O O1 0.075151 0.500000 0.763627
O O2 0.131178 0.241076 0.855895
O O3 0.090583 0.252779 0.669447
O O4 0.000157 0.244168 0.748206
O O5 0.924405 0.500000 0.739047
O O6 0.869524 0.760536 0.642678
O O7 0.910631 0.755557 0.829550
O O8 0.331418 0.000000 0.041352
O O9 0.250000 0.250000 0.000000
O O10 0.369083 0.257525 0.975728
O O11 0.169786 0.500000 0.456080
O O12 0.250000 0.250000 0.500000
O O13 0.131018 0.249717 0.525005
O O14 0.000000 0.736648 0.500000
O O15 0.071096 0.000000 0.563382
O O16 0.076295 0.500000 0.066733
O O17 0.000000 0.751837 0.000000
#
# Coordination Sequence:
#
# PCOD9187469 Si02
#       6
#     8   8   8   8   8   8
#     4  10  19  35  59  86 112 149 198 240 283 345
#     4   9  17  31  56  85 110 143 191 236 280 336
#     4  10  21  35  56  85 119 151 186 234 288 343
#     4  11  23  39  59  85 120 156 193 241 294 350
#     4  11  23  38  59  87 116 150 196 248 299 352
#     4   9  15  29  55  84 107 136 184 234 271 322
#
# _framework density 19.357973999999999
#
# number of rings (size 3 to 8) (size 9 to 14) (size 15 to 20)
#    0.000    2.000    3.333    1.000    0.000    2.667 
#    0.000    1.667    0.000    2.500    0.000    0.000 
#    0.000    0.000    0.000    0.000    0.000    0.000 
#
# Total GULP energy -134026.339779 kJ/mol
# GULP energy per Si atom -5584.430824 kJ/mol
# Density = 1.931391 g / cm^3
# Si number density = 19.357974 Si / 1000 Ang^3
#
#
#
# Elastic Constant Matrix: (Units=GPa)
#
#
# Indices 1 2 3 4 5 6 
#
# 1 195.0688 8.6007 136.8644 0.0000 -1.5160 0.0000
# 2 8.6007 12.6469 17.0131 0.0000 1.7859 0.0000
# 3 136.8644 17.0131 234.8747 0.0000 -9.1681 0.0000
# 4 0.0000 0.0000 0.0000 3.8592 0.0000 12.3604
# 5 -1.5160 1.7859 -9.1681 0.0000 38.3769 0.0000
# 6 0.0000 0.0000 0.0000 12.3604 0.0000 18.6380
#
#
#
# Elastic Compliance Matrix: (Units=1/GPa)
#
#
# Indices 1 2 3 4 5 6 
#
# 1 0.008717 0.001208 -0.005204 0.000000 -0.000955 0.000000
# 2 0.001208 0.089003 -0.007379 0.000000 -0.005857 0.000000
# 3 -0.005204 -0.007379 0.007904 0.000000 0.002026 0.000000
# 4 0.000000 0.000000 0.000000 -0.230517 0.000000 0.152876
# 5 -0.000955 -0.005857 0.002026 0.000000 0.026776 0.000000
# 6 0.000000 0.000000 0.000000 0.152876 0.000000 -0.047731
#
#
# Mechanical properties :
#
#
# Convention : Reuss Voigt Hill
#
# Bulk Modulus (GPa) = 12.06673 85.28301 48.67487
# Shear Modulus (GPa) = -52.37178 30.84895 -10.76141
#
# Velocity S-wave (km/s) = -5.20702 3.99633 -2.36035
# Velocity P-wave (km/s) = 5.46844 8.08984 4.21555
#
# Compressibility (1/GPa) = 0.08287252
#
# Stress axis : x y z
#
# Youngs Moduli (GPa) = 114.71503 11.23552 126.52016
#
# Poissons Ratio (x) = -0.01357 0.65846
# Poissons Ratio (y) = -0.13855 0.93364
# Poissons Ratio (z) = 0.59703 0.08291
#
# Static dielectric constant tensor:
#      x y z
#    x 1.627090 0.000000 0.007720 
#    y 0.000000 1.692970 0.000000 
#    z 0.007720 0.000000 1.672360 
# 
# From -- ./inp_files/230378.got.cif
#   From: 2010.05.17/outbox.cif.g08.bks.cpg/sg12_116_cif.got.tgz:230378.got - 2010.06.03 13:09:07.
