data_PCOD9187945
_publ_section_title
;
Structure prediction by ZEFSAII (Michael W. Deem and Ramdas Pophale) SiO2 
 PCOD9187945
Probable space group: C 2/M
;
_chemical_formula_sum "Si O2"
_cell_formula_units_Z 56
_cell_length_a 14.203756
_cell_length_b 21.508618
_cell_length_c 17.271646
_cell_angle_alpha 90.000000
_cell_angle_beta 151.525553
_cell_angle_gamma 90.000000
_cell_volume 2515.680132
_symmetry_space_group_name_H-M "C 2/M"
_symmetry_group_IT_number 12
_symmetry_cell_setting 'monoclinic'
loop_
_space_group_symop_operation_xyz
x,y,z
-x,y,-z
-x,-y,-z
x,-y,z
1/2+x,1/2+y,z
1/2-x,1/2+y,-z
1/2-x,1/2-y,-z
1/2+x,1/2-y,z
loop_
_atom_site_type_symbol
_atom_site_label
_atom_site_fract_x
_atom_site_fract_y
_atom_site_fract_z
Si Si1 0.885785 0.647604 0.135284
Si Si2 0.855579 0.430515 0.587586
Si Si3 0.966289 0.173151 0.886553
Si Si4 0.213167 0.430069 0.642041
Si Si5 0.546188 0.338226 0.378919
Si Si6 0.180150 0.425906 0.069079
Si Si7 0.220943 0.247443 0.368352
O O1 0.945428 0.608355 0.255140
O O2 0.050071 0.700453 0.246613
O O3 0.674305 0.679134 0.993281
O O4 0.883676 0.600163 0.061413
O O5 0.885214 0.500000 0.636360
O O6 0.773522 0.432823 0.440977
O O7 0.687616 0.393391 0.511517
O O8 0.888345 0.104777 0.810071
O O9 0.800410 0.216921 0.730161
O O10 0.000000 0.184564 0.000000
O O11 0.201448 0.500000 0.664997
O O12 0.000000 0.399212 0.500000
O O13 0.345183 0.374570 0.214752
O O14 0.576760 0.281017 0.460347
O O15 0.651984 0.306010 0.379952
O O16 0.243645 0.500000 0.110612
O O17 0.000000 0.423518 0.000000
#
# Coordination Sequence:
#
# PCOD9187945 Si02
#       7
#     8   8   8   8   8   8   8
#     4  11  23  41  64  95 139 173 220 280 341 401
#     4  10  19  35  63  91 122 174 223 265 328 392
#     4  12  24  40  64  98 132 172 220 277 336 404
#     4  10  21  38  57  85 127 171 218 266 316 383
#     4  10  20  41  70  89 128 173 228 276 332 395
#     4  11  24  43  70 103 138 177 228 288 347 401
#     4  10  22  42  65  93 129 179 222 273 331 407
#
# _framework density 22.260383000000001
#
# number of rings (size 3 to 8) (size 9 to 14) (size 15 to 20)
#    0.000    1.429    2.857    2.143    0.000    3.143 
#    0.000    2.857    0.000    7.714    0.000    0.000 
#    0.000    0.000    0.000    0.000    0.000    0.000 
#
# Total GULP energy -156177.106951 kJ/mol
# GULP energy per Si atom -5577.753820 kJ/mol
# Density = 2.220972 g / cm^3
# Si number density = 22.260383 Si / 1000 Ang^3
#
#
#
# Elastic Constant Matrix: (Units=GPa)
#
#
# Indices 1 2 3 4 5 6 
#
# 1 51.4947 20.6338 9.7959 0.0082 -11.4798 -0.0003
# 2 20.6338 137.0184 46.8027 0.0004 -2.9144 0.0001
# 3 9.7959 46.8027 76.5689 0.0295 -12.4609 0.0014
# 4 0.0082 0.0004 0.0295 39.9768 0.0056 2.4842
# 5 -11.4798 -2.9144 -12.4609 0.0056 37.7149 -0.0002
# 6 -0.0003 0.0001 0.0014 2.4842 -0.0002 19.3260
#
#
#
# Elastic Compliance Matrix: (Units=1/GPa)
#
#
# Indices 1 2 3 4 5 6 
#
# 1 0.022152 -0.003278 0.000238 -0.000006 0.006568 0.000001
# 2 -0.003278 0.009762 -0.005905 0.000005 -0.002194 0.000000
# 3 0.000238 -0.005905 0.017519 -0.000014 0.005404 0.000001
# 4 -0.000006 0.000005 -0.000014 0.025216 -0.000010 -0.003241
# 5 0.006568 -0.002194 0.005404 -0.000010 0.030130 0.000001
# 6 0.000001 0.000000 0.000001 -0.003241 0.000001 0.052160
#
#
# Mechanical properties :
#
#
# Convention : Reuss Voigt Hill
#
# Bulk Modulus (GPa) = 31.70164 46.61631 39.15897
# Shear Modulus (GPa) = 26.97718 31.92683 29.45201
#
# Velocity S-wave (km/s) = 3.48500 3.79125 3.64135
# Velocity P-wave (km/s) = 5.51959 6.33653 5.94211
#
# Compressibility (1/GPa) = 0.03154411
#
# Stress axis : x y z
#
# Youngs Moduli (GPa) = 45.14325 102.43604 57.08246
#
# Poissons Ratio (x) = 0.33574 -0.01360
# Poissons Ratio (y) = 0.14796 0.33707
# Poissons Ratio (z) = -0.01076 0.60488
#
# Static dielectric constant tensor:
#      x y z
#    x 1.894290 0.000000 -0.000960 
#    y 0.000000 1.864770 0.000000 
#    z -0.000960 0.000000 1.878020 
# 
# From -- ./inp_files/272398.got.cif
#   From: 2010.05.17/outbox.cif.g08.bks.cpg/sg12_137_cif.got.tgz:272398.got - 2010.06.03 13:09:07.
