data_PCOD9187561
_publ_section_title
;
Structure prediction by ZEFSAII (Michael W. Deem and Ramdas Pophale) SiO2 
 PCOD9187561
Probable space group: C 2/M
;
_chemical_formula_sum "Si O2"
_cell_formula_units_Z 48
_cell_length_a 11.471679
_cell_length_b 19.420797
_cell_length_c 12.026858
_cell_angle_alpha 90.000000
_cell_angle_beta 75.264478
_cell_angle_gamma 90.000000
_cell_volume 2591.326887
_symmetry_space_group_name_H-M "C 2/M"
_symmetry_group_IT_number 12
_symmetry_cell_setting 'monoclinic'
loop_
_space_group_symop_operation_xyz
x,y,z
-x,y,-z
-x,-y,-z
x,-y,z
1/2+x,1/2+y,z
1/2-x,1/2+y,-z
1/2-x,1/2-y,-z
1/2+x,1/2-y,z
loop_
_atom_site_type_symbol
_atom_site_label
_atom_site_fract_x
_atom_site_fract_y
_atom_site_fract_z
Si Si1 0.039737 0.872905 0.865227
Si Si2 0.976306 0.326926 0.682452
Si Si3 0.849572 0.821107 0.742705
Si Si4 0.754514 0.421317 0.674820
Si Si5 0.908241 0.288650 0.120934
Si Si6 0.235459 0.330384 0.533535
O O1 0.149824 0.916446 0.791489
O O2 0.083643 0.793343 0.861563
O O3 0.935361 0.869166 0.796369
O O4 0.000000 0.892412 0.000000
O O5 0.918341 0.250162 0.693804
O O6 0.872219 0.381894 0.690353
O O7 0.036923 0.328801 0.788409
O O8 0.090903 0.338967 0.575670
O O9 0.733270 0.805181 0.848665
O O10 0.798377 0.846375 0.636316
O O11 0.780109 0.500000 0.639757
O O12 0.714233 0.377658 0.576596
O O13 0.000000 0.304016 0.000000
O O14 0.250000 0.250000 0.500000
#
# Coordination Sequence:
#
# PCOD9187561 Si02
#       6
#     8   8   8   8   8   8
#     4  10  22  37  59  87 120 156 195 245 302 355
#     4  10  20  34  56  88 121 152 193 238 296 346
#     4  10  19  35  59  91 121 149 194 253 298 346
#     4  12  25  40  58  86 121 160 201 239 292 363
#     4   9  18  31  59  93 119 148 191 252 305 341
#     4  11  21  37  61  89 119 156 196 246 295 352
#
# _framework density 18.523330000000001
#
# number of rings (size 3 to 8) (size 9 to 14) (size 15 to 20)
#    0.000    1.667    3.333    2.500    2.333    5.667 
#    0.000    1.667    0.000    1.500    0.000    0.000 
#    0.000    0.000    0.000    0.000    0.000    0.000 
#
# Total GULP energy -133859.384876 kJ/mol
# GULP energy per Si atom -5577.474370 kJ/mol
# Density = 1.848117 g / cm^3
# Si number density = 18.523330 Si / 1000 Ang^3
#
#
#
# Elastic Constant Matrix: (Units=GPa)
#
#
# Indices 1 2 3 4 5 6 
#
# 1 96.9648 11.6148 26.2046 0.0000 -2.8546 0.0000
# 2 11.6148 58.4904 28.4358 0.0000 4.5879 0.0000
# 3 26.2046 28.4358 84.9894 0.0000 -9.1155 0.0000
# 4 0.0000 0.0000 0.0000 11.9608 0.0000 0.1377
# 5 -2.8546 4.5879 -9.1155 0.0000 27.3398 0.0000
# 6 0.0000 0.0000 0.0000 0.1377 0.0000 6.5851
#
#
#
# Elastic Compliance Matrix: (Units=1/GPa)
#
#
# Indices 1 2 3 4 5 6 
#
# 1 0.011273 -0.000689 -0.003222 0.000000 0.000219 0.000000
# 2 -0.000689 0.021426 -0.007622 0.000000 -0.006209 0.000000
# 3 -0.003222 -0.007622 0.015982 0.000000 0.006271 0.000000
# 4 0.000000 0.000000 0.000000 0.083627 0.000000 -0.001748
# 5 0.000219 -0.006209 0.006271 0.000000 0.039732 0.000000
# 6 0.000000 0.000000 0.000000 -0.001748 0.000000 0.151894
#
#
# Mechanical properties :
#
#
# Convention : Reuss Voigt Hill
#
# Bulk Modulus (GPa) = 39.03967 41.43945 40.23956
# Shear Modulus (GPa) = 14.06313 20.78976 17.42644
#
# Velocity S-wave (km/s) = 2.75837 3.35379 3.07055
# Velocity P-wave (km/s) = 5.59165 6.11697 5.86020
#
# Compressibility (1/GPa) = 0.02561497
#
# Stress axis : x y z
#
# Youngs Moduli (GPa) = 88.71027 46.67149 62.56898
#
# Poissons Ratio (x) = 0.03218 0.20157
# Poissons Ratio (y) = 0.06116 0.47691
# Poissons Ratio (z) = 0.28578 0.35574
#
# Static dielectric constant tensor:
#      x y z
#    x 1.668370 0.000000 -0.006890 
#    y 0.000000 1.599140 0.000000 
#    z -0.006890 0.000000 1.693880 
# 
# From -- ./inp_files/131640.got.cif
#   From: 2010.05.17/outbox.cif.g08.bks.cpg/sg12_66_cif.got.tgz:131640.got - 2010.06.03 13:09:07.
