data_PCOD9187809
_publ_section_title
;
Structure prediction by ZEFSAII (Michael W. Deem and Ramdas Pophale) SiO2 
 PCOD9187809
Probable space group: C 2/M
;
_chemical_formula_sum "Si O2"
_cell_formula_units_Z 56
_cell_length_a 12.610000
_cell_length_b 13.148043
_cell_length_c 19.526618
_cell_angle_alpha 90.000000
_cell_angle_beta 54.902518
_cell_angle_gamma 90.000000
_cell_volume 2648.801603
_symmetry_space_group_name_H-M "C 2/M"
_symmetry_group_IT_number 12
_symmetry_cell_setting 'monoclinic'
loop_
_space_group_symop_operation_xyz
x,y,z
-x,y,-z
-x,-y,-z
x,-y,z
1/2+x,1/2+y,z
1/2-x,1/2+y,-z
1/2-x,1/2-y,-z
1/2+x,1/2-y,z
loop_
_atom_site_type_symbol
_atom_site_label
_atom_site_fract_x
_atom_site_fract_y
_atom_site_fract_z
Si Si1 0.264523 0.173543 0.733578
Si Si2 0.608691 0.386062 0.289218
Si Si3 0.147969 0.328466 0.449896
Si Si4 0.021962 0.177862 0.172081
Si Si5 0.357939 0.613691 0.480728
Si Si6 0.395525 0.113226 0.817364
Si Si7 0.124843 0.878590 0.995187
O O1 0.293852 0.293517 0.733157
O O2 0.287504 0.148564 0.646280
O O3 0.363449 0.120502 0.748797
O O4 0.117430 0.142644 0.803348
O O5 0.659055 0.500000 0.282689
O O6 0.564226 0.376264 0.226417
O O7 0.482291 0.371549 0.384697
O O8 0.231076 0.376010 0.480136
O O9 0.147121 0.206524 0.464500
O O10 0.000000 0.362513 0.500000
O O11 0.010506 0.296430 0.196346
O O12 0.121565 0.163810 0.073185
O O13 0.363935 0.500000 0.508347
O O14 0.437371 0.000000 0.820384
O O15 0.258171 0.137386 0.905283
O O16 0.109277 0.000000 0.007258
O O17 0.000000 0.837901 0.000000
#
# Coordination Sequence:
#
# PCOD9187809 Si02
#       7
#     8   8   8   8   8   8   8
#     4  11  22  37  58  86 112 152 190 239 286 334
#     4  10  21  37  57  85 113 147 194 236 282 342
#     4  11  22  39  59  81 118 147 192 240 289 335
#     4  11  21  37  61  86 119 153 187 235 291 331
#     4  10  22  38  59  83 110 149 194 236 286 344
#     4  10  23  39  59  87 119 152 191 232 283 344
#     4  10  19  35  61  91 115 148 193 234 277 338
#
# _framework density 21.141635999999998
#
# number of rings (size 3 to 8) (size 9 to 14) (size 15 to 20)
#    0.000    1.571    4.286    0.857    0.000    2.857 
#    0.000    1.429    0.000    0.429    0.000    0.000 
#    0.000    0.000    0.000    0.000    0.000    0.000 
#
# Total GULP energy -156482.273104 kJ/mol
# GULP energy per Si atom -5588.652611 kJ/mol
# Density = 2.109352 g / cm^3
# Si number density = 21.141636 Si / 1000 Ang^3
#
#
#
# Elastic Constant Matrix: (Units=GPa)
#
#
# Indices 1 2 3 4 5 6 
#
# 1 60.6071 -9.3238 -6.2111 0.0000 3.1851 0.0000
# 2 -9.3238 64.9690 -3.8538 0.0000 -8.0982 0.0000
# 3 -6.2111 -3.8538 66.5681 0.0000 13.8790 0.0000
# 4 0.0000 0.0000 0.0000 16.5078 0.0000 -6.8939
# 5 3.1851 -8.0982 13.8790 0.0000 17.2981 0.0000
# 6 0.0000 0.0000 0.0000 -6.8939 0.0000 1.8195
#
#
#
# Elastic Compliance Matrix: (Units=1/GPa)
#
#
# Indices 1 2 3 4 5 6 
#
# 1 0.017321 0.002104 0.002639 0.000000 -0.004322 0.000000
# 2 0.002104 0.016635 -0.000461 0.000000 0.007770 0.000000
# 3 0.002639 -0.000461 0.018479 0.000000 -0.015528 0.000000
# 4 0.000000 0.000000 0.000000 -0.104029 0.000000 -0.394163
# 5 -0.004322 0.007770 -0.015528 0.000000 0.074702 0.000000
# 6 0.000000 0.000000 0.000000 -0.394163 0.000000 -0.943851
#
#
# Mechanical properties :
#
#
# Convention : Reuss Voigt Hill
#
# Bulk Modulus (GPa) = 16.39368 17.04074 16.71721
# Shear Modulus (GPa) = -5.50071 21.22727 7.86328
#
# Velocity S-wave (km/s) = -1.61477 3.17211 1.93065
# Velocity P-wave (km/s) = 2.07229 4.63618 3.59086
#
# Compressibility (1/GPa) = 0.06099911
#
# Stress axis : x y z
#
# Youngs Moduli (GPa) = 57.73369 60.11412 54.11440
#
# Poissons Ratio (x) = -0.12646 -0.14281
# Poissons Ratio (y) = -0.12145 0.02493
# Poissons Ratio (z) = -0.15236 0.02769
#
# Static dielectric constant tensor:
#      x y z
#    x 1.736360 0.000000 -0.010840 
#    y 0.000000 1.760720 0.000000 
#    z -0.010840 0.000000 1.763280 
# 
# From -- ./inp_files/204981.got.cif
#   From: 2010.05.17/outbox.cif.g08.bks.cpg/sg12_103_cif.got.tgz:204981.got - 2010.06.03 13:09:07.
