data_PCOD9187619
_publ_section_title
;
Structure prediction by ZEFSAII (Michael W. Deem and Ramdas Pophale) SiO2 
 PCOD9187619
Probable space group: C 2/M
;
_chemical_formula_sum "Si O2"
_cell_formula_units_Z 56
_cell_length_a 19.080179
_cell_length_b 18.290002
_cell_length_c 14.308982
_cell_angle_alpha 90.000000
_cell_angle_beta 144.430763
_cell_angle_gamma 90.000000
_cell_volume 2904.649841
_symmetry_space_group_name_H-M "C 2/M"
_symmetry_group_IT_number 12
_symmetry_cell_setting 'monoclinic'
loop_
_space_group_symop_operation_xyz
x,y,z
-x,y,-z
-x,-y,-z
x,-y,z
1/2+x,1/2+y,z
1/2-x,1/2+y,-z
1/2-x,1/2-y,-z
1/2+x,1/2-y,z
loop_
_atom_site_type_symbol
_atom_site_label
_atom_site_fract_x
_atom_site_fract_y
_atom_site_fract_z
Si Si1 0.140811 0.810918 0.160101
Si Si2 0.358264 0.417063 0.016342
Si Si3 0.168810 0.080916 0.571210
Si Si4 0.624049 0.282951 0.625955
Si Si5 0.359133 0.417475 0.666371
Si Si6 0.605269 0.084080 0.042611
Si Si7 0.743790 0.826438 0.050010
O O1 0.252143 0.755116 0.273538
O O2 0.159525 0.857388 0.274772
O O3 0.153842 0.864834 0.085795
O O4 0.000000 0.784435 0.000000
O O5 0.329813 0.500000 0.959556
O O6 0.497739 0.414571 0.199177
O O7 0.277995 0.388271 0.013426
O O8 0.095098 0.150484 0.524791
O O9 0.206173 0.092416 0.503813
O O10 0.278236 0.080444 0.763407
O O11 0.110661 0.000000 0.511977
O O12 0.500000 0.237337 0.500000
O O13 0.658254 0.314125 0.763768
O O14 0.333179 0.500000 0.673182
O O15 0.629974 0.142399 0.986572
O O16 0.584079 0.000000 0.985507
O O17 0.500000 0.104640 0.000000
O O18 0.750000 0.750000 0.000000
#
# Coordination Sequence:
#
# PCOD9187619 Si02
#       7
#     8   8   8   8   8   8   8
#     4  10  21  38  59  85 118 159 198 242 296 352
#     4  10  19  35  60  86 111 149 199 246 291 345
#     4   9  19  36  57  83 112 147 192 247 301 347
#     4  11  23  38  56  84 122 154 194 245 300 359
#     4   9  18  35  59  86 113 144 196 251 292 345
#     4   9  19  37  59  83 114 154 201 246 297 360
#     4  11  21  37  55  84 118 156 193 244 297 357
#
# _framework density 19.279432
#
# number of rings (size 3 to 8) (size 9 to 14) (size 15 to 20)
#    0.000    2.143    1.429    1.714    0.000    5.429 
#    2.571    0.000    0.000    1.714    0.000    0.000 
#    0.000    0.000    0.000    0.000    0.000    0.000 
#
# Total GULP energy -155902.707757 kJ/mol
# GULP energy per Si atom -5567.953848 kJ/mol
# Density = 1.923555 g / cm^3
# Si number density = 19.279432 Si / 1000 Ang^3
#
#
#
# Elastic Constant Matrix: (Units=GPa)
#
#
# Indices 1 2 3 4 5 6 
#
# 1 122.4860 63.3949 36.0860 0.0000 6.2688 0.0000
# 2 63.3949 102.6673 35.3049 0.0000 5.0348 0.0000
# 3 36.0860 35.3049 40.0234 0.0000 0.5942 0.0000
# 4 0.0000 0.0000 0.0000 15.3995 0.0000 -8.2808
# 5 6.2688 5.0348 0.5942 0.0000 34.0621 0.0000
# 6 0.0000 0.0000 0.0000 -8.2808 0.0000 48.6537
#
#
#
# Elastic Compliance Matrix: (Units=1/GPa)
#
#
# Indices 1 2 3 4 5 6 
#
# 1 0.013226 -0.005744 -0.006836 0.000000 -0.001466 0.000000
# 2 -0.005744 0.016594 -0.009440 0.000000 -0.001231 0.000000
# 3 -0.006836 -0.009440 0.039447 0.000000 0.001965 0.000000
# 4 0.000000 0.000000 0.000000 0.071479 0.000000 0.012166
# 5 -0.001466 -0.001231 0.001965 0.000000 0.029776 0.000000
# 6 0.000000 0.000000 0.000000 0.012166 0.000000 0.022624
#
#
# Mechanical properties :
#
#
# Convention : Reuss Voigt Hill
#
# Bulk Modulus (GPa) = 39.64178 59.41648 49.52913
# Shear Modulus (GPa) = 20.35870 28.31580 24.33725
#
# Velocity S-wave (km/s) = 3.25311 3.83653 3.55680
# Velocity P-wave (km/s) = 5.89208 7.10709 6.52792
#
# Compressibility (1/GPa) = 0.02522591
#
# Stress axis : x y z
#
# Youngs Moduli (GPa) = 75.60662 60.26384 25.35045
#
# Poissons Ratio (x) = 0.34617 0.17331
# Poissons Ratio (y) = 0.43430 0.23931
# Poissons Ratio (z) = 0.51688 0.56889
#
# Static dielectric constant tensor:
#      x y z
#    x 1.716200 0.000000 0.040610 
#    y 0.000000 1.748440 0.000000 
#    z 0.040610 0.000000 1.682660 
# 
# From -- ./inp_files/226590.got.cif
#   From: 2010.05.17/outbox.cif.g08.bks.cpg/sg12_114_cif.got.tgz:226590.got - 2010.06.03 13:09:07.
