data_PCOD9187190
_publ_section_title
;
Structure prediction by ZEFSAII (Michael W. Deem and Ramdas Pophale) SiO2 
 PCOD9187190
Probable space group: C 2/M
;
_chemical_formula_sum "Si O2"
_cell_formula_units_Z 56
_cell_length_a 22.726821
_cell_length_b 20.567738
_cell_length_c 20.666710
_cell_angle_alpha 90.000000
_cell_angle_beta 162.686789
_cell_angle_gamma 90.000000
_cell_volume 2874.896498
_symmetry_space_group_name_H-M "C 2/M"
_symmetry_group_IT_number 12
_symmetry_cell_setting 'monoclinic'
loop_
_space_group_symop_operation_xyz
x,y,z
-x,y,-z
-x,-y,-z
x,-y,z
1/2+x,1/2+y,z
1/2-x,1/2+y,-z
1/2-x,1/2-y,-z
1/2+x,1/2-y,z
loop_
_atom_site_type_symbol
_atom_site_label
_atom_site_fract_x
_atom_site_fract_y
_atom_site_fract_z
Si Si1 0.004057 0.681919 0.579255
Si Si2 0.664567 0.788600 0.228390
Si Si3 0.680475 0.930138 0.239344
Si Si4 0.565041 0.076520 0.750424
Si Si5 0.593771 0.656316 0.830986
Si Si6 0.212089 0.573114 0.417232
Si Si7 0.148154 0.264463 0.992892
O O1 0.823689 0.731826 0.399635
O O2 0.000000 0.662442 0.500000
O O3 0.990856 0.620861 0.613518
O O4 0.204353 0.720700 0.808573
O O5 0.770161 0.858163 0.325153
O O6 0.534265 0.789199 0.156763
O O7 0.500000 0.777687 0.000000
O O8 0.609385 0.929787 0.239310
O O9 0.790209 0.000000 0.346352
O O10 0.500000 0.931073 0.000000
O O11 0.427967 0.087273 0.669485
O O12 0.568389 0.000000 0.739235
O O13 0.778234 0.103818 0.995038
O O14 0.387216 0.624559 0.596917
O O15 0.572049 0.719072 0.854314
O O16 0.718922 0.679880 0.900527
O O17 0.294327 0.500000 0.514158
#
# Coordination Sequence:
#
# PCOD9187190 Si02
#       7
#     8   8   8   8   8   8   8
#     4  11  22  38  58  85 118 152 200 249 293 348
#     4  11  20  35  59  79 112 152 189 237 290 342
#     4   9  19  34  55  84 114 148 187 230 286 349
#     4  10  22  38  59  85 116 157 197 243 298 347
#     4  10  20  35  57  83 117 143 191 240 285 349
#     4  10  19  35  58  82 114 152 191 235 284 346
#     4  10  21  35  54  86 112 148 189 238 293 344
#
# _framework density 19.478963
#
# number of rings (size 3 to 8) (size 9 to 14) (size 15 to 20)
#    0.000    1.857    1.429    3.000    0.000    0.286 
#    0.000    6.429    0.000    1.714    0.000    0.000 
#    0.000    0.000    0.000    0.000    0.000    0.000 
#
# Total GULP energy -156211.036777 kJ/mol
# GULP energy per Si atom -5578.965599 kJ/mol
# Density = 1.943463 g / cm^3
# Si number density = 19.478963 Si / 1000 Ang^3
#
#
#
# Elastic Constant Matrix: (Units=GPa)
#
#
# Indices 1 2 3 4 5 6 
#
# 1 89.0058 43.7103 39.1189 -0.0387 -16.5275 -0.0057
# 2 43.7103 132.6578 47.0236 -0.0176 -1.7641 -0.0068
# 3 39.1189 47.0236 68.3514 -0.0541 -14.8907 -0.0408
# 4 -0.0387 -0.0176 -0.0541 29.1790 -0.0318 -1.2354
# 5 -16.5275 -1.7641 -14.8907 -0.0318 29.4040 -0.0128
# 6 -0.0057 -0.0068 -0.0408 -1.2354 -0.0128 28.1070
#
#
#
# Elastic Compliance Matrix: (Units=1/GPa)
#
#
# Indices 1 2 3 4 5 6 
#
# 1 0.016580 -0.003296 -0.005884 0.000016 0.006142 -0.000002
# 2 -0.003296 0.010905 -0.006606 -0.000015 -0.004544 -0.000010
# 3 -0.005884 -0.006606 0.024431 0.000045 0.008669 0.000039
# 4 0.000016 -0.000015 0.000045 0.034335 0.000068 0.001509
# 5 0.006142 -0.004544 0.008669 0.000068 0.041579 0.000035
# 6 -0.000002 -0.000010 0.000039 0.001509 0.000035 0.035645
#
#
# Mechanical properties :
#
#
# Convention : Reuss Voigt Hill
#
# Bulk Modulus (GPa) = 49.15121 61.08006 55.11564
# Shear Modulus (GPa) = 24.77341 28.01548 26.39444
#
# Velocity S-wave (km/s) = 3.57010 3.79653 3.68506
# Velocity P-wave (km/s) = 6.50246 7.11640 6.81635
#
# Compressibility (1/GPa) = 0.02034538
#
# Stress axis : x y z
#
# Youngs Moduli (GPa) = 60.31260 91.69697 40.93136
#
# Poissons Ratio (x) = 0.30222 0.24083
# Poissons Ratio (y) = 0.19878 0.27040
# Poissons Ratio (z) = 0.35486 0.60577
#
# Static dielectric constant tensor:
#      x y z
#    x 1.675870 0.000000 -0.019460 
#    y 0.000000 1.719520 -0.000010 
#    z -0.019460 -0.000010 1.663850 
# 
# From -- ./inp_files/286105.got.cif
#   From: 2010.05.17/outbox.cif.g08.bks.cpg/sg12_144_cif.got.tgz:286105.got - 2010.06.03 13:09:07.
