data_PCOD9187212
_publ_section_title
;
Structure prediction by ZEFSAII (Michael W. Deem and Ramdas Pophale) SiO2 
 PCOD9187212
Probable space group: C 2/M
;
_chemical_formula_sum "Si O2"
_cell_formula_units_Z 48
_cell_length_a 13.128301
_cell_length_b 13.757967
_cell_length_c 20.382138
_cell_angle_alpha 90.000000
_cell_angle_beta 38.306018
_cell_angle_gamma 90.000000
_cell_volume 2281.955437
_symmetry_space_group_name_H-M "C 2/M"
_symmetry_group_IT_number 12
_symmetry_cell_setting 'monoclinic'
loop_
_space_group_symop_operation_xyz
x,y,z
-x,y,-z
-x,-y,-z
x,-y,z
1/2+x,1/2+y,z
1/2-x,1/2+y,-z
1/2-x,1/2-y,-z
1/2+x,1/2-y,z
loop_
_atom_site_type_symbol
_atom_site_label
_atom_site_fract_x
_atom_site_fract_y
_atom_site_fract_z
Si Si1 0.130832 0.388992 0.104631
Si Si2 0.962021 0.805563 0.915138
Si Si3 0.001082 0.114657 0.748810
Si Si4 0.183665 0.746580 0.256716
Si Si5 0.689086 0.754078 0.402494
Si Si6 0.584356 0.111481 0.653044
O O1 0.122982 0.500000 0.085185
O O2 0.080224 0.307815 0.077107
O O3 0.015313 0.381159 0.227107
O O4 0.317823 0.358960 0.026705
O O5 0.959939 0.856719 0.844541
O O6 0.146120 0.804912 0.849006
O O7 0.183885 0.159114 0.647088
O O8 0.878608 0.171548 0.761836
O O9 0.995350 0.000000 0.742158
O O10 0.216185 0.782541 0.314041
O O11 0.036507 0.668415 0.334091
O O12 0.500000 0.780372 0.500000
O O13 0.745816 0.668429 0.422505
O O14 0.607377 0.000000 0.624297
#
# Coordination Sequence:
#
# PCOD9187212 Si02
#       6
#     8   8   8   8   8   8
#     4  10  19  35  58  83 116 154 192 230 272 330
#     4  10  20  37  57  82 122 154 186 228 282 326
#     4  10  21  38  58  86 116 148 189 233 279 335
#     4  10  20  38  57  84 110 151 183 234 280 336
#     4  10  22  41  60  82 113 148 185 234 291 341
#     4  10  21  38  57  85 115 146 190 236 277 330
#
# _framework density 21.034590999999999
#
# number of rings (size 3 to 8) (size 9 to 14) (size 15 to 20)
#    0.000    2.000    5.000    0.500    0.000    8.667 
#    0.000    3.333    0.000    3.000    0.000    0.000 
#    0.000    0.000    0.000    0.000    0.000    0.000 
#
# Total GULP energy -133992.090538 kJ/mol
# GULP energy per Si atom -5583.003772 kJ/mol
# Density = 2.098672 g / cm^3
# Si number density = 21.034591 Si / 1000 Ang^3
#
#
#
# Elastic Constant Matrix: (Units=GPa)
#
#
# Indices 1 2 3 4 5 6 
#
# 1 183.6270 111.6302 125.0519 -0.0001 -90.5101 0.0000
# 2 111.6302 207.9577 109.1032 -0.0001 -71.6384 0.0000
# 3 125.0519 109.1032 218.8447 -0.0004 -127.2358 0.0001
# 4 -0.0001 -0.0001 -0.0004 13.0090 0.0001 1.5971
# 5 -90.5101 -71.6384 -127.2358 0.0001 96.5520 0.0000
# 6 0.0000 0.0000 0.0001 1.5971 0.0000 7.3528
#
#
#
# Elastic Compliance Matrix: (Units=1/GPa)
#
#
# Indices 1 2 3 4 5 6 
#
# 1 0.011634 -0.003308 -0.000364 0.000000 0.007973 0.000000
# 2 -0.003308 0.007581 -0.001804 0.000000 0.000147 0.000000
# 3 -0.000364 -0.001804 0.020100 0.000000 0.024809 0.000000
# 4 0.000000 0.000000 0.000000 0.078976 0.000000 -0.017154
# 5 0.007973 0.000147 0.024809 0.000000 0.050633 0.000000
# 6 0.000000 0.000000 0.000000 -0.017154 0.000000 0.139728
#
#
# Mechanical properties :
#
#
# Convention : Reuss Voigt Hill
#
# Bulk Modulus (GPa) = 35.25487 144.66669 89.96078
# Shear Modulus (GPa) = 15.19484 41.02570 28.11027
#
# Velocity S-wave (km/s) = 2.69062 4.42112 3.65962
# Velocity P-wave (km/s) = 5.14290 9.74611 7.79217
#
# Compressibility (1/GPa) = 0.02836488
#
# Stress axis : x y z
#
# Youngs Moduli (GPa) = 85.95472 131.90169 49.75024
#
# Poissons Ratio (x) = 0.43632 0.01808
# Poissons Ratio (y) = 0.28433 0.08975
# Poissons Ratio (z) = 0.03125 0.23796
#
# Static dielectric constant tensor:
#      x y z
#    x 1.752440 0.000000 0.018700 
#    y 0.000000 1.720760 0.000000 
#    z 0.018700 0.000000 1.837630 
# 
# From -- ./inp_files/204564.got.cif
#   From: 2010.05.17/outbox.cif.g08.bks.cpg/sg12_103_cif.got.tgz:204564.got - 2010.06.03 13:09:07.
