data_PCOD9187307
_publ_section_title
;
Structure prediction by ZEFSAII (Michael W. Deem and Ramdas Pophale) SiO2 
 PCOD9187307
Probable space group: C 2/M
;
_chemical_formula_sum "Si O2"
_cell_formula_units_Z 56
_cell_length_a 14.620146
_cell_length_b 17.912813
_cell_length_c 11.125408
_cell_angle_alpha 90.000000
_cell_angle_beta 74.473140
_cell_angle_gamma 90.000000
_cell_volume 2807.278189
_symmetry_space_group_name_H-M "C 2/M"
_symmetry_group_IT_number 12
_symmetry_cell_setting 'monoclinic'
loop_
_space_group_symop_operation_xyz
x,y,z
-x,y,-z
-x,-y,-z
x,-y,z
1/2+x,1/2+y,z
1/2-x,1/2+y,-z
1/2-x,1/2-y,-z
1/2+x,1/2-y,z
loop_
_atom_site_type_symbol
_atom_site_label
_atom_site_fract_x
_atom_site_fract_y
_atom_site_fract_z
Si Si1 0.093933 0.582889 0.885167
Si Si2 0.647528 0.233144 0.984138
Si Si3 0.593997 0.414603 0.383757
Si Si4 0.251104 0.413109 0.463387
Si Si5 0.801957 0.793676 0.266662
Si Si6 0.087410 0.665797 0.639213
Si Si7 0.408116 0.257093 0.738087
O O1 0.137744 0.500000 0.867916
O O2 0.072648 0.609780 0.757394
O O3 0.150449 0.650174 0.927501
O O4 0.000000 0.579094 0.000000
O O5 0.580208 0.242148 0.122633
O O6 0.750000 0.250000 0.000000
O O7 0.634937 0.287935 0.875773
O O8 0.500000 0.411376 0.500000
O O9 0.599301 0.500000 0.332895
O O10 0.685542 0.403120 0.438101
O O11 0.587863 0.344801 0.295409
O O12 0.244680 0.500000 0.441905
O O13 0.301677 0.370540 0.337149
O O14 0.146805 0.378728 0.519777
O O15 0.841788 0.731047 0.341702
O O16 0.694481 0.772699 0.267618
O O17 0.990287 0.708796 0.646213
#
# Coordination Sequence:
#
# PCOD9187307 Si02
#       7
#     8   8   8   8   8   8   8
#     4  10  19  35  58  87 120 158 199 244 297 353
#     4   9  20  39  56  86 119 155 204 250 288 361
#     4  10  22  39  61  89 117 152 203 260 303 347
#     4  11  23  41  59  88 125 159 201 252 305 361
#     4  10  22  38  59  85 118 158 207 242 300 357
#     4  11  21  36  61  89 120 158 200 247 304 362
#     4  11  21  37  61  88 121 156 202 247 302 360
#
# _framework density 19.948148
#
# number of rings (size 3 to 8) (size 9 to 14) (size 15 to 20)
#    0.000    1.714    2.857    1.714    2.000    0.000 
#    0.000    5.714    0.000    0.000    0.000    6.000 
#    0.000    0.000    0.000    0.000    0.000    0.000 
#
# Total GULP energy -156280.427923 kJ/mol
# GULP energy per Si atom -5581.443854 kJ/mol
# Density = 1.990274 g / cm^3
# Si number density = 19.948148 Si / 1000 Ang^3
#
#
#
# Elastic Constant Matrix: (Units=GPa)
#
#
# Indices 1 2 3 4 5 6 
#
# 1 68.6452 24.7422 -2.4074 0.0000 -11.4218 0.0000
# 2 24.7422 126.8286 61.1701 0.0000 11.3250 0.0000
# 3 -2.4074 61.1701 74.6449 0.0000 0.9367 0.0000
# 4 0.0000 0.0000 0.0000 23.5682 0.0000 8.3948
# 5 -11.4218 11.3250 0.9367 0.0000 18.6281 0.0000
# 6 0.0000 0.0000 0.0000 8.3948 0.0000 21.0705
#
#
#
# Elastic Compliance Matrix: (Units=1/GPa)
#
#
# Indices 1 2 3 4 5 6 
#
# 1 0.021724 -0.010192 0.008813 0.000000 0.019073 0.000000
# 2 -0.010192 0.018923 -0.015623 0.000000 -0.016968 0.000000
# 3 0.008813 -0.015623 0.026313 0.000000 0.013579 0.000000
# 4 0.000000 0.000000 0.000000 0.049447 0.000000 -0.019701
# 5 0.019073 -0.016968 0.013579 0.000000 0.075010 0.000000
# 6 0.000000 0.000000 0.000000 -0.019701 0.000000 0.055309
#
#
# Mechanical properties :
#
#
# Convention : Reuss Voigt Hill
#
# Bulk Modulus (GPa) = 30.34229 48.56983 39.45606
# Shear Modulus (GPa) = 17.14009 25.09427 21.11718
#
# Velocity S-wave (km/s) = 2.93445 3.55064 3.25715
# Velocity P-wave (km/s) = 5.16961 6.41953 5.82817
#
# Compressibility (1/GPa) = 0.03295731
#
# Stress axis : x y z
#
# Youngs Moduli (GPa) = 46.03267 52.84579 38.00367
#
# Poissons Ratio (x) = 0.53859 -0.33493
# Poissons Ratio (y) = 0.46915 0.59372
# Poissons Ratio (z) = -0.40569 0.82560
#
# Static dielectric constant tensor:
#      x y z
#    x 1.709050 0.000000 -0.002680 
#    y 0.000000 1.694530 0.000000 
#    z -0.002680 0.000000 1.763490 
# 
# From -- ./inp_files/145508.got.cif
#   From: 2010.05.17/outbox.cif.g08.bks.cpg/sg12_73_cif.got.tgz:145508.got - 2010.06.03 13:09:07.
