data_PCOD9187416
_publ_section_title
;
Structure prediction by ZEFSAII (Michael W. Deem and Ramdas Pophale) SiO2 
 PCOD9187416
Probable space group: C 2/M
;
_chemical_formula_sum "Si O2"
_cell_formula_units_Z 48
_cell_length_a 32.575788
_cell_length_b 17.004275
_cell_length_c 16.120256
_cell_angle_alpha 90.000000
_cell_angle_beta 162.993001
_cell_angle_gamma 90.000000
_cell_volume 2611.763270
_symmetry_space_group_name_H-M "C 2/M"
_symmetry_group_IT_number 12
_symmetry_cell_setting 'monoclinic'
loop_
_space_group_symop_operation_xyz
x,y,z
-x,y,-z
-x,-y,-z
x,-y,z
1/2+x,1/2+y,z
1/2-x,1/2+y,-z
1/2-x,1/2-y,-z
1/2+x,1/2-y,z
loop_
_atom_site_type_symbol
_atom_site_label
_atom_site_fract_x
_atom_site_fract_y
_atom_site_fract_z
Si Si1 0.167562 0.908749 0.340660
Si Si2 0.146348 0.796356 0.738209
Si Si3 0.308695 0.908010 0.935621
Si Si4 0.616397 0.647105 0.413947
Si Si5 0.197673 0.091709 0.215388
Si Si6 0.586576 0.802855 0.457362
O O1 0.190378 0.858166 0.467108
O O2 0.231787 0.883645 0.376604
O O3 0.206721 0.000000 0.432768
O O4 0.000000 0.908080 0.000000
O O5 0.223820 0.872045 0.849467
O O6 0.111945 0.740142 0.593604
O O7 0.000000 0.815742 0.500000
O O8 0.250000 0.750000 0.000000
O O9 0.212724 0.893512 0.669205
O O10 0.339983 0.000000 0.005671
O O11 0.447428 0.855249 0.192449
O O12 0.581151 0.734265 0.377922
O O13 0.467883 0.602889 0.119032
O O14 0.283519 0.142617 0.316482
O O15 0.232467 0.000000 0.275542
#
# Coordination Sequence:
#
# PCOD9187416 Si02
#       6
#     8   8   8   8   8   8
#     4   8  15  30  53  81 114 150 194 243 280 320
#     4  11  23  44  66  85 114 152 188 232 288 349
#     4  11  23  39  60  89 120 149 186 237 290 340
#     4  10  19  35  59  84 112 155 200 235 277 332
#     4  10  20  36  58  83 113 155 199 236 280 338
#     4  11  23  38  59  84 120 151 182 235 296 347
#
# _framework density 18.37839
#
# number of rings (size 3 to 8) (size 9 to 14) (size 15 to 20)
#    0.000    1.833    1.667    5.000    2.333    1.000 
#    0.000    5.000    0.000    3.000    0.000    0.000 
#    0.000    0.000    0.000    0.000    0.000    0.000 
#
# Total GULP energy -133941.471633 kJ/mol
# GULP energy per Si atom -5580.894651 kJ/mol
# Density = 1.833656 g / cm^3
# Si number density = 18.378390 Si / 1000 Ang^3
#
#
#
# Elastic Constant Matrix: (Units=GPa)
#
#
# Indices 1 2 3 4 5 6 
#
# 1 72.1557 41.0451 22.7393 0.0000 -9.9709 0.0000
# 2 41.0451 109.3639 19.4179 0.0000 -6.1517 0.0000
# 3 22.7393 19.4179 46.0996 0.0000 -5.1206 0.0000
# 4 0.0000 0.0000 0.0000 43.1528 0.0000 51.8102
# 5 -9.9709 -6.1517 -5.1206 0.0000 29.2718 0.0000
# 6 0.0000 0.0000 0.0000 51.8102 0.0000 116.5554
#
#
#
# Elastic Compliance Matrix: (Units=1/GPa)
#
#
# Indices 1 2 3 4 5 6 
#
# 1 0.020078 -0.006072 -0.006862 0.000000 0.004363 0.000000
# 2 -0.006072 0.011774 -0.001957 0.000000 0.000064 0.000000
# 3 -0.006862 -0.001957 0.026103 0.000000 0.001818 0.000000
# 4 0.000000 0.000000 0.000000 0.049696 0.000000 -0.022090
# 5 0.004363 0.000064 0.001818 0.000000 0.035980 0.000000
# 6 0.000000 0.000000 0.000000 -0.022090 0.000000 0.018399
#
#
# Mechanical properties :
#
#
# Convention : Reuss Voigt Hill
#
# Bulk Modulus (GPa) = 35.49426 43.78044 39.63735
# Shear Modulus (GPa) = 24.85068 47.42379 36.13723
#
# Velocity S-wave (km/s) = 3.68117 5.08528 4.43910
# Velocity P-wave (km/s) = 6.11744 7.63895 6.92014
#
# Compressibility (1/GPa) = 0.02817357
#
# Stress axis : x y z
#
# Youngs Moduli (GPa) = 49.80568 84.93557 38.30964
#
# Poissons Ratio (x) = 0.51570 0.26287
# Poissons Ratio (y) = 0.30241 0.07498
# Poissons Ratio (z) = 0.34175 0.16624
#
# Static dielectric constant tensor:
#      x y z
#    x 1.644680 0.000000 0.001380 
#    y 0.000000 1.626750 0.000000 
#    z 0.001380 0.000000 1.616040 
# 
# From -- ./inp_files/195960.got.cif
#   From: 2010.05.17/outbox.cif.g08.bks.cpg/sg12_98_cif.got.tgz:195960.got - 2010.06.03 13:09:07.
