data_PCOD9187488
_publ_section_title
;
Structure prediction by ZEFSAII (Michael W. Deem and Ramdas Pophale) SiO2 
 PCOD9187488
Probable space group: C 2/M
;
_chemical_formula_sum "Si O2"
_cell_formula_units_Z 64
_cell_length_a 14.918007
_cell_length_b 8.080220
_cell_length_c 23.587630
_cell_angle_alpha 90.000000
_cell_angle_beta 83.930800
_cell_angle_gamma 90.000000
_cell_volume 2827.334532
_symmetry_space_group_name_H-M "C 2/M"
_symmetry_group_IT_number 12
_symmetry_cell_setting 'monoclinic'
loop_
_space_group_symop_operation_xyz
x,y,z
-x,y,-z
-x,-y,-z
x,-y,z
1/2+x,1/2+y,z
1/2-x,1/2+y,-z
1/2-x,1/2-y,-z
1/2+x,1/2-y,z
loop_
_atom_site_type_symbol
_atom_site_label
_atom_site_fract_x
_atom_site_fract_y
_atom_site_fract_z
Si Si1 0.205679 0.197270 0.862125
Si Si2 0.820140 0.187668 0.541683
Si Si3 0.328525 0.306940 0.376760
Si Si4 0.461045 0.199958 0.062602
Si Si5 0.400596 0.698914 0.721331
Si Si6 0.587522 0.199108 0.156085
Si Si7 0.983460 0.796772 0.596753
Si Si8 0.690582 0.804001 0.740374
O O1 0.308976 0.259009 0.859219
O O2 0.163363 0.264003 0.806180
O O3 0.141006 0.248541 0.917412
O O4 0.208719 0.000000 0.858076
O O5 0.750000 0.250000 0.500000
O O6 0.759668 0.201767 0.602800
O O7 0.915983 0.264517 0.552489
O O8 0.839547 0.000000 0.524973
O O9 0.308566 0.500000 0.388210
O O10 0.411715 0.252469 0.410731
O O11 0.355939 0.284394 0.309508
O O12 0.523225 0.261013 0.110465
O O13 0.464075 0.000000 0.062411
O O14 0.500000 0.257967 0.000000
O O15 0.402719 0.500000 0.720206
O O16 0.441887 0.755538 0.778225
O O17 0.445537 0.758882 0.660380
O O18 0.295659 0.750758 0.730007
O O19 0.588822 0.000000 0.152760
O O20 0.981032 0.000000 0.596221
O O21 0.683996 0.000000 0.731915
#
# Coordination Sequence:
#
# PCOD9187488 Si02
#       8
#     8   8   8   8   8   8   8   8
#     4  10  21  37  57  84 116 149 191 243 290 340
#     4  11  23  44  65  85 117 158 199 242 287 342
#     4  11  22  37  60  91 119 153 196 240 289 342
#     4  10  22  40  59  81 114 155 196 236 288 352
#     4   9  17  34  58  83 113 153 191 229 283 349
#     4   9  20  37  55  82 115 149 188 239 289 336
#     4   9  20  38  59  84 118 156 193 231 286 350
#     4  10  19  35  59  86 119 155 191 235 290 349
#
# _framework density 22.636161999999999
#
# number of rings (size 3 to 8) (size 9 to 14) (size 15 to 20)
#    0.000    2.125    1.250    1.500    1.750    2.750 
#    0.000    5.625    0.000    0.000    0.000    0.000 
#    0.000    0.000    0.000    0.000    0.000    0.000 
#
# Total GULP energy -178793.855792 kJ/mol
# GULP energy per Si atom -5587.307993 kJ/mol
# Density = 2.258464 g / cm^3
# Si number density = 22.636162 Si / 1000 Ang^3
#
#
#
# Elastic Constant Matrix: (Units=GPa)
#
#
# Indices 1 2 3 4 5 6 
#
# 1 86.0321 2.2728 20.5337 0.0000 8.5036 0.0000
# 2 2.2728 18.6148 2.6473 0.0000 4.7816 0.0000
# 3 20.5337 2.6473 85.4887 0.0000 1.9006 0.0000
# 4 0.0000 0.0000 0.0000 30.0074 0.0000 -1.9922
# 5 8.5036 4.7816 1.9006 0.0000 41.6758 0.0000
# 6 0.0000 0.0000 0.0000 -1.9922 0.0000 16.1724
#
#
#
# Elastic Compliance Matrix: (Units=1/GPa)
#
#
# Indices 1 2 3 4 5 6 
#
# 1 0.012576 -0.000506 -0.002952 0.000000 -0.002373 0.000000
# 2 -0.000506 0.055585 -0.001462 0.000000 -0.006208 0.000000
# 3 -0.002952 -0.001462 0.012447 0.000000 0.000202 0.000000
# 4 0.000000 0.000000 0.000000 0.033600 0.000000 0.004139
# 5 -0.002373 -0.006208 0.000202 0.000000 0.025182 0.000000
# 6 0.000000 0.000000 0.000000 0.004139 0.000000 0.062344
#
#
# Mechanical properties :
#
#
# Convention : Reuss Voigt Hill
#
# Bulk Modulus (GPa) = 14.13060 26.78259 20.45659
# Shear Modulus (GPa) = 21.26179 28.54989 24.90584
#
# Velocity S-wave (km/s) = 3.06810 3.55526 3.32063
# Velocity P-wave (km/s) = 4.33671 5.35823 4.87430
#
# Compressibility (1/GPa) = 0.07076841
#
# Stress axis : x y z
#
# Youngs Moduli (GPa) = 79.51556 17.99049 80.33850
#
# Poissons Ratio (x) = 0.00910 0.23718
# Poissons Ratio (y) = 0.04024 0.11743
# Poissons Ratio (z) = 0.23475 0.02630
#
# Static dielectric constant tensor:
#      x y z
#    x 1.864870 0.000000 0.006900 
#    y 0.000000 1.800670 0.000000 
#    z 0.006900 0.000000 1.869590 
# 
# From -- ./inp_files/338850.got.cif
#   From: 2010.05.17/outbox.cif.g08.bks.cpg/sg12_170_cif.got.tgz:338850.got - 2010.06.03 13:09:07.
