data_PCOD9187051
_publ_section_title
;
Structure prediction by ZEFSAII (Michael W. Deem and Ramdas Pophale) SiO2 
 PCOD9187051
Probable space group: C 2/M
;
_chemical_formula_sum "Si O2"
_cell_formula_units_Z 64
_cell_length_a 15.886823
_cell_length_b 14.749269
_cell_length_c 17.760701
_cell_angle_alpha 90.000000
_cell_angle_beta 44.161054
_cell_angle_gamma 90.000000
_cell_volume 2899.342511
_symmetry_space_group_name_H-M "C 2/M"
_symmetry_group_IT_number 12
_symmetry_cell_setting 'monoclinic'
loop_
_space_group_symop_operation_xyz
x,y,z
-x,y,-z
-x,-y,-z
x,-y,z
1/2+x,1/2+y,z
1/2-x,1/2+y,-z
1/2-x,1/2-y,-z
1/2+x,1/2-y,z
loop_
_atom_site_type_symbol
_atom_site_label
_atom_site_fract_x
_atom_site_fract_y
_atom_site_fract_z
Si Si1 0.411147 0.609033 0.236431
Si Si2 0.865128 0.105358 0.579664
Si Si3 0.331262 0.611178 0.986426
Si Si4 0.003277 0.606515 0.583148
Si Si5 0.766469 0.144647 0.478652
Si Si6 0.248716 0.610993 0.200930
Si Si7 0.847100 0.610911 0.178332
Si Si8 0.882790 0.610511 0.982996
O O1 0.414337 0.500000 0.228824
O O2 0.360660 0.629190 0.351073
O O3 0.318699 0.639946 0.231042
O O4 0.545045 0.642142 0.131282
O O5 0.815465 0.107705 0.526385
O O6 0.763401 0.145205 0.700375
O O7 0.000000 0.144991 0.500000
O O8 0.876702 0.000000 0.595188
O O9 0.332503 0.500000 0.984825
O O10 0.316570 0.640619 0.082019
O O11 0.214565 0.640804 0.014741
O O12 0.976586 0.500000 0.592161
O O13 0.890490 0.642323 0.704082
O O14 0.000000 0.644079 0.500000
O O15 0.134324 0.611802 0.536856
O O16 0.750000 0.250000 0.500000
O O17 0.251239 0.500000 0.196752
O O18 0.846261 0.500000 0.182443
O O19 0.979989 0.640051 0.120638
O O20 0.842473 0.635409 0.093353
O O21 0.884818 0.500000 0.980422
#
# Coordination Sequence:
#
# PCOD9187051 Si02
#       8
#     8   8   8   8   8   8   8   8
#     4  10  19  35  57  83 118 151 188 237 293 348
#     4  10  22  38  59  85 112 145 193 247 294 339
#     4   9  17  26  49  86 119 144 175 229 294 356
#     4  10  19  36  63  90 114 146 193 246 298 348
#     4  12  26  40  56  82 116 160 201 238 289 354
#     4   9  17  30  53  89 119 142 179 234 299 352
#     4   8  15  28  46  72 107 140 176 224 276 326
#     4   8  14  25  43  73 110 144 171 212 276 333
#
# _framework density 22.073969999999999
#
# number of rings (size 3 to 8) (size 9 to 14) (size 15 to 20)
#    0.000    2.500    1.250    2.250    3.500    2.000 
#    0.000    0.000    0.000    0.750    6.500    0.000 
#    0.000    0.000    0.000    0.000    0.000    0.000 
#
# Total GULP energy -178735.299220 kJ/mol
# GULP energy per Si atom -5585.478101 kJ/mol
# Density = 2.202373 g / cm^3
# Si number density = 22.073970 Si / 1000 Ang^3
#
#
#
# Elastic Constant Matrix: (Units=GPa)
#
#
# Indices 1 2 3 4 5 6 
#
# 1 85.9649 4.7032 57.3477 0.0000 -6.9788 0.0000
# 2 4.7032 45.4970 9.3912 0.0000 -4.7017 0.0000
# 3 57.3477 9.3912 188.8108 0.0000 -14.9693 0.0000
# 4 0.0000 0.0000 0.0000 -21.9967 0.0000 -3.2885
# 5 -6.9788 -4.7017 -14.9693 0.0000 20.9005 0.0000
# 6 0.0000 0.0000 0.0000 -3.2885 0.0000 53.0894
#
#
#
# Elastic Compliance Matrix: (Units=1/GPa)
#
#
# Indices 1 2 3 4 5 6 
#
# 1 0.014662 -0.000452 -0.004295 0.000000 0.001718 0.000000
# 2 -0.000452 0.022620 -0.000632 0.000000 0.004485 0.000000
# 3 -0.004295 -0.000632 0.006899 0.000000 0.003365 0.000000
# 4 0.000000 0.000000 0.000000 -0.045044 0.000000 -0.002790
# 5 0.001718 0.004485 0.003365 0.000000 0.051838 0.000000
# 6 0.000000 0.000000 0.000000 -0.002790 0.000000 0.018663
#
#
# Mechanical properties :
#
#
# Convention : Reuss Voigt Hill
#
# Bulk Modulus (GPa) = 29.91883 51.46188 40.69036
# Shear Modulus (GPa) = 54.62289 26.98734 40.80511
#
# Velocity S-wave (km/s) = 4.97987 3.50034 4.30416
# Velocity P-wave (km/s) = 6.82999 6.30084 6.57074
#
# Compressibility (1/GPa) = 0.03342377
#
# Stress axis : x y z
#
# Youngs Moduli (GPa) = 68.20456 44.20841 144.95012
#
# Poissons Ratio (x) = 0.01997 0.62250
# Poissons Ratio (y) = 0.03080 0.09166
# Poissons Ratio (z) = 0.29291 0.02796
#
# Static dielectric constant tensor:
#      x y z
#    x 1.841690 0.000000 0.004660 
#    y 0.000000 1.841490 0.000000 
#    z 0.004660 0.000000 1.736860 
# 
# From -- ./inp_files/271695.got.cif
#   From: 2010.05.17/outbox.cif.g08.bks.cpg/sg12_136_cif.got.tgz:271695.got - 2010.06.03 13:09:07.
