data_PCOD9187000
_publ_section_title
;
Structure prediction by ZEFSAII (Michael W. Deem and Ramdas Pophale) SiO2 
 PCOD9187000
Probable space group: C 2/M
;
_chemical_formula_sum "Si O2"
_cell_formula_units_Z 56
_cell_length_a 31.193586
_cell_length_b 7.591547
_cell_length_c 11.630532
_cell_angle_alpha 90.000000
_cell_angle_beta 115.235938
_cell_angle_gamma 90.000000
_cell_volume 2491.336883
_symmetry_space_group_name_H-M "C 2/M"
_symmetry_group_IT_number 12
_symmetry_cell_setting 'monoclinic'
loop_
_space_group_symop_operation_xyz
x,y,z
-x,y,-z
-x,-y,-z
x,-y,z
1/2+x,1/2+y,z
1/2-x,1/2+y,-z
1/2-x,1/2-y,-z
1/2+x,1/2-y,z
loop_
_atom_site_type_symbol
_atom_site_label
_atom_site_fract_x
_atom_site_fract_y
_atom_site_fract_z
Si Si1 0.950990 0.212227 0.804305
Si Si2 0.278900 0.287618 0.150690
Si Si3 0.946400 0.286324 0.419234
Si Si4 0.624968 0.203354 0.462966
Si Si5 0.731145 0.694882 0.605068
Si Si6 0.625644 0.699981 0.848189
Si Si7 0.554360 0.284749 0.934196
O O1 0.905409 0.283202 0.687252
O O2 0.003469 0.273505 0.823357
O O3 0.950248 0.000000 0.792857
O O4 0.947658 0.257753 0.934187
O O5 0.280890 0.500000 0.166751
O O6 0.261777 0.220171 0.257690
O O7 0.331790 0.221139 0.177806
O O8 0.250000 0.250000 0.000000
O O9 0.945496 0.500000 0.406791
O O10 0.912705 0.235268 0.485787
O O11 0.921449 0.201621 0.282185
O O12 0.000000 0.231263 0.500000
O O13 0.674214 0.303674 0.525670
O O14 0.637103 0.000000 0.498789
O O15 0.751278 0.500000 0.640679
O O16 0.750000 0.750000 0.500000
O O17 0.640800 0.500000 0.892421
O O18 0.603485 0.783651 0.936788
O O19 0.555276 0.500000 0.927008
#
# Coordination Sequence:
#
# PCOD9187000 Si02
#       7
#     8   8   8   8   8   8   8
#     4   9  17  32  53  80 115 156 197 238 287 353
#     4  10  23  41  63  90 121 155 203 260 315 376
#     4  10  21  35  53  82 120 157 191 232 287 348
#     4  11  22  36  56  84 118 154 195 243 298 359
#     4  11  24  44  66  91 121 157 205 261 316 377
#     4  10  19  35  57  82 110 145 192 242 290 348
#     4   8  16  31  53  80 113 152 196 242 292 351
#
# _framework density 22.477889000000001
#
# number of rings (size 3 to 8) (size 9 to 14) (size 15 to 20)
#    0.000    2.143    1.429    2.571    0.000    3.714 
#    0.000    3.571    0.000    0.000    0.000    0.000 
#    0.000    0.000    0.000    0.000    0.000    0.000 
#
# Total GULP energy -156035.190021 kJ/mol
# GULP energy per Si atom -5572.685358 kJ/mol
# Density = 2.242673 g / cm^3
# Si number density = 22.477889 Si / 1000 Ang^3
#
#
#
# Elastic Constant Matrix: (Units=GPa)
#
#
# Indices 1 2 3 4 5 6 
#
# 1 124.1984 13.3557 47.1221 0.0000 -30.3494 0.0000
# 2 13.3557 47.0138 -2.2140 0.0000 -10.0006 0.0000
# 3 47.1221 -2.2140 108.1589 0.0000 -16.1989 0.0000
# 4 0.0000 0.0000 0.0000 26.1328 0.0000 10.2205
# 5 -30.3494 -10.0006 -16.1989 0.0000 37.7129 0.0000
# 6 0.0000 0.0000 0.0000 10.2205 0.0000 8.4751
#
#
#
# Elastic Compliance Matrix: (Units=1/GPa)
#
#
# Indices 1 2 3 4 5 6 
#
# 1 0.011492 -0.001962 -0.003997 0.000000 0.007012 0.000000
# 2 -0.001962 0.023092 0.002146 0.000000 0.005467 0.000000
# 3 -0.003997 0.002146 0.011366 0.000000 0.002234 0.000000
# 4 0.000000 0.000000 0.000000 0.072424 0.000000 -0.087339
# 5 0.007012 0.005467 0.002234 0.000000 0.034568 0.000000
# 6 0.000000 0.000000 0.000000 -0.087339 0.000000 0.223318
#
#
# Mechanical properties :
#
#
# Convention : Reuss Voigt Hill
#
# Bulk Modulus (GPa) = 26.09299 43.98875 35.04087
# Shear Modulus (GPa) = 12.60528 29.20464 20.90496
#
# Velocity S-wave (km/s) = 2.37066 3.60844 3.05294
# Velocity P-wave (km/s) = 4.37343 6.08057 5.29624
#
# Compressibility (1/GPa) = 0.03832447
#
# Stress axis : x y z
#
# Youngs Moduli (GPa) = 87.01389 43.30598 87.98461
#
# Poissons Ratio (x) = 0.08495 0.35167
# Poissons Ratio (y) = 0.17068 -0.18882
# Poissons Ratio (z) = 0.34779 -0.09293
#
# Static dielectric constant tensor:
#      x y z
#    x 1.876690 0.000000 -0.081250 
#    y 0.000000 1.881580 0.000000 
#    z -0.081250 0.000000 1.905750 
# 
# From -- ./inp_files/186826.got.cif
#   From: 2010.05.17/outbox.cif.g08.bks.cpg/sg12_94_cif.got.tgz:186826.got - 2010.06.03 13:09:07.
