data_PCOD9187482
_publ_section_title
;
Structure prediction by ZEFSAII (Michael W. Deem and Ramdas Pophale) SiO2 
 PCOD9187482
Probable space group: C 2/M
;
_chemical_formula_sum "Si O2"
_cell_formula_units_Z 56
_cell_length_a 11.347478
_cell_length_b 23.035409
_cell_length_c 10.710835
_cell_angle_alpha 90.000000
_cell_angle_beta 90.394876
_cell_angle_gamma 90.000000
_cell_volume 2799.679337
_symmetry_space_group_name_H-M "C 2/M"
_symmetry_group_IT_number 12
_symmetry_cell_setting 'monoclinic'
loop_
_space_group_symop_operation_xyz
x,y,z
-x,y,-z
-x,-y,-z
x,-y,z
1/2+x,1/2+y,z
1/2-x,1/2+y,-z
1/2-x,1/2-y,-z
1/2+x,1/2-y,z
loop_
_atom_site_type_symbol
_atom_site_label
_atom_site_fract_x
_atom_site_fract_y
_atom_site_fract_z
Si Si1 0.628639 0.326180 0.477073
Si Si2 0.467780 0.433493 0.681990
Si Si3 0.279863 0.566302 0.196686
Si Si4 0.660921 0.809808 0.896075
Si Si5 0.916220 0.336171 0.827652
Si Si6 0.380648 0.611603 0.941389
Si Si7 0.253018 0.764227 0.691717
O O1 0.500000 0.297898 0.500000
O O2 0.593382 0.387549 0.412251
O O3 0.718927 0.293566 0.385245
O O4 0.691187 0.313504 0.609359
O O5 0.452462 0.500000 0.640957
O O6 0.607558 0.423074 0.711151
O O7 0.411763 0.424787 0.818939
O O8 0.243051 0.500000 0.216011
O O9 0.168895 0.609642 0.200889
O O10 0.328197 0.574570 0.055458
O O11 0.554937 0.846878 0.833706
O O12 0.786107 0.841083 0.899911
O O13 0.677701 0.752091 0.813984
O O14 0.622122 0.807836 0.039854
O O15 0.881025 0.287872 0.728757
O O16 0.500000 0.638357 0.000000
#
# Coordination Sequence:
#
# PCOD9187482 Si02
#       7
#     8   8   8   8   8   8   8
#     4  11  23  37  57  83 111 152 200 239 291 343
#     4  10  19  35  59  86 117 150 194 246 293 345
#     4   9  18  33  56  87 122 155 187 236 294 346
#     4  10  20  38  58  87 117 150 193 238 292 348
#     4  10  21  36  58  86 118 151 194 239 286 351
#     4   9  17  33  57  86 120 151 190 236 293 349
#     4  11  22  39  57  79 117 157 194 243 288 345
#
# _framework density 20.002291
#
# number of rings (size 3 to 8) (size 9 to 14) (size 15 to 20)
#    0.000    2.000    1.429    2.571    0.000    2.000 
#    5.143    7.143    0.000    0.000    0.000    1.000 
#    0.000    0.000    0.000    0.000    0.000    0.000 
#
# Total GULP energy -155995.616486 kJ/mol
# GULP energy per Si atom -5571.272017 kJ/mol
# Density = 1.995677 g / cm^3
# Si number density = 20.002291 Si / 1000 Ang^3
#
#
#
# Elastic Constant Matrix: (Units=GPa)
#
#
# Indices 1 2 3 4 5 6 
#
# 1 100.1553 39.3327 31.0867 0.0000 26.4756 0.0000
# 2 39.3327 110.4687 68.2155 0.0000 17.5596 0.0000
# 3 31.0867 68.2155 67.7444 0.0000 26.7247 0.0000
# 4 0.0000 0.0000 0.0000 6.5614 0.0000 5.3345
# 5 26.4756 17.5596 26.7247 0.0000 32.7211 0.0000
# 6 0.0000 0.0000 0.0000 5.3345 0.0000 16.9515
#
#
#
# Elastic Compliance Matrix: (Units=1/GPa)
#
#
# Indices 1 2 3 4 5 6 
#
# 1 0.013969 -0.005177 0.003195 0.000000 -0.011134 0.000000
# 2 -0.005177 0.028348 -0.032194 0.000000 0.015270 0.000000
# 3 0.003195 -0.032194 0.058892 0.000000 -0.033409 0.000000
# 4 0.000000 0.000000 0.000000 0.204807 0.000000 -0.064452
# 5 -0.011134 0.015270 -0.033409 0.000000 0.058662 0.000000
# 6 0.000000 0.000000 0.000000 -0.064452 0.000000 0.079275
#
#
# Mechanical properties :
#
#
# Convention : Reuss Voigt Hill
#
# Bulk Modulus (GPa) = 30.43334 61.73759 46.08546
# Shear Modulus (GPa) = 9.55552 20.56234 15.05893
#
# Velocity S-wave (km/s) = 2.18806 3.20972 2.74681
# Velocity P-wave (km/s) = 4.65096 6.68346 5.75761
#
# Compressibility (1/GPa) = 0.03285870
#
# Stress axis : x y z
#
# Youngs Moduli (GPa) = 71.58633 35.27542 16.98016
#
# Poissons Ratio (x) = 0.18262 -0.05425
# Poissons Ratio (y) = 0.37060 0.54666
# Poissons Ratio (z) = -0.22873 1.13565
#
# Static dielectric constant tensor:
#      x y z
#    x 1.710180 0.000000 -0.001880 
#    y 0.000000 1.703340 0.000000 
#    z -0.001880 0.000000 1.760450 
# 
# From -- ./inp_files/133162.got.cif
#   From: 2010.05.17/outbox.cif.g08.bks.cpg/sg12_67_cif.got.tgz:133162.got - 2010.06.03 13:09:07.
