data_PCOD9187675
_publ_section_title
;
Structure prediction by ZEFSAII (Michael W. Deem and Ramdas Pophale) SiO2 
 PCOD9187675
Probable space group: C 2/M
;
_chemical_formula_sum "Si O2"
_cell_formula_units_Z 56
_cell_length_a 21.696219
_cell_length_b 15.046229
_cell_length_c 13.921498
_cell_angle_alpha 90.000000
_cell_angle_beta 39.351005
_cell_angle_gamma 90.000000
_cell_volume 2881.605701
_symmetry_space_group_name_H-M "C 2/M"
_symmetry_group_IT_number 12
_symmetry_cell_setting 'monoclinic'
loop_
_space_group_symop_operation_xyz
x,y,z
-x,y,-z
-x,-y,-z
x,-y,z
1/2+x,1/2+y,z
1/2-x,1/2+y,-z
1/2-x,1/2-y,-z
1/2+x,1/2-y,z
loop_
_atom_site_type_symbol
_atom_site_label
_atom_site_fract_x
_atom_site_fract_y
_atom_site_fract_z
Si Si1 0.000000 0.204059 0.000000
Si Si2 0.000000 0.328111 0.500000
Si Si3 0.141635 0.758615 0.993460
Si Si4 0.288437 0.102220 0.723531
Si Si5 0.170553 0.896003 0.467432
Si Si6 0.958321 0.827725 0.695429
Si Si7 0.829035 0.106034 0.320147
Si Si8 0.272536 0.395390 0.808834
O O1 0.932741 0.255347 0.005186
O O2 0.924771 0.146571 0.154761
O O3 0.901748 0.382991 0.604906
O O4 0.986261 0.262173 0.606336
O O5 0.224453 0.828734 0.861475
O O6 0.194294 0.666551 0.955108
O O7 0.085590 0.801291 0.149629
O O8 0.258895 0.119558 0.648281
O O9 0.260917 0.000000 0.778434
O O10 0.191639 0.858171 0.547849
O O11 0.221407 0.861122 0.309370
O O12 0.055588 0.884362 0.590206
O O13 0.195661 0.000000 0.439084
O O14 0.876910 0.877665 0.731083
O O15 0.845192 0.000000 0.309368
O O16 0.250985 0.500000 0.837602
#
# Coordination Sequence:
#
# PCOD9187675 Si02
#       8
#     4   4   8   8   8   8   8   8
#     4  10  19  36  59  84 120 148 192 244 300 352
#     4  12  23  40  59  86 122 156 197 238 287 354
#     4  11  23  41  60  91 116 155 197 245 295 350
#     4  10  22  40  62  88 121 156 194 240 294 354
#     4  10  19  35  60  89 117 149 195 247 301 346
#     4  12  21  38  60  85 120 152 197 248 291 351
#     4   9  18  34  58  89 118 150 192 242 298 348
#     4  11  23  40  60  84 120 158 199 245 290 345
#
# _framework density 19.433610000000002
#
# number of rings (size 3 to 8) (size 9 to 14) (size 15 to 20)
#    0.000    1.429    4.286    1.286    0.000    2.857 
#    2.571    3.214    0.000    0.000    0.000    0.000 
#    0.000    0.000    0.000    0.000    0.000    0.000 
#
# Total GULP energy -156342.077309 kJ/mol
# GULP energy per Si atom -5583.645618 kJ/mol
# Density = 1.938938 g / cm^3
# Si number density = 19.433610 Si / 1000 Ang^3
#
#
#
# Elastic Constant Matrix: (Units=GPa)
#
#
# Indices 1 2 3 4 5 6 
#
# 1 44.0526 5.5363 19.5820 0.0000 3.4541 0.0000
# 2 5.5363 57.3247 1.1752 0.0000 -2.2649 0.0000
# 3 19.5820 1.1752 40.6031 0.0000 -0.4408 0.0000
# 4 0.0000 0.0000 0.0000 76.3786 0.0000 54.4258
# 5 3.4541 -2.2649 -0.4408 0.0000 31.8348 0.0000
# 6 0.0000 0.0000 0.0000 54.4258 0.0000 75.5938
#
#
#
# Elastic Compliance Matrix: (Units=1/GPa)
#
#
# Indices 1 2 3 4 5 6 
#
# 1 0.029667 -0.002715 -0.014268 0.000000 -0.003610 0.000000
# 2 -0.002715 0.017752 0.000813 0.000000 0.001569 0.000000
# 3 -0.014268 0.000813 0.031509 0.000000 0.002042 0.000000
# 4 0.000000 0.000000 0.000000 0.026887 0.000000 -0.019358
# 5 -0.003610 0.001569 0.002042 0.000000 0.031944 0.000000
# 6 0.000000 0.000000 0.000000 -0.019358 0.000000 0.027166
#
#
# Mechanical properties :
#
#
# Convention : Reuss Voigt Hill
#
# Bulk Modulus (GPa) = 21.46574 21.61860 21.54217
# Shear Modulus (GPa) = 23.49692 44.47390 33.98541
#
# Velocity S-wave (km/s) = 3.48096 4.78902 4.18640
# Velocity P-wave (km/s) = 5.21784 6.45973 5.87171
#
# Compressibility (1/GPa) = 0.04658587
#
# Stress axis : x y z
#
# Youngs Moduli (GPa) = 33.70762 56.33153 31.73733
#
# Poissons Ratio (x) = 0.15296 0.45284
# Poissons Ratio (y) = 0.09153 -0.02579
# Poissons Ratio (z) = 0.48095 -0.04578
#
# Static dielectric constant tensor:
#      x y z
#    x 1.698410 0.000000 0.031060 
#    y 0.000000 1.661400 0.000000 
#    z 0.031060 0.000000 1.673070 
# 
# From -- ./inp_files/240431.got.cif
#   From: 2010.05.17/outbox.cif.g08.bks.cpg/sg12_121_cif.got.tgz:240431.got - 2010.06.03 13:09:07.
