data_PCOD9187682
_publ_section_title
;
Structure prediction by ZEFSAII (Michael W. Deem and Ramdas Pophale) SiO2 
 PCOD9187682
Probable space group: C 2/M
;
_chemical_formula_sum "Si O2"
_cell_formula_units_Z 56
_cell_length_a 27.572443
_cell_length_b 7.922437
_cell_length_c 13.008664
_cell_angle_alpha 90.000000
_cell_angle_beta 67.618864
_cell_angle_gamma 90.000000
_cell_volume 2627.569339
_symmetry_space_group_name_H-M "C 2/M"
_symmetry_group_IT_number 12
_symmetry_cell_setting 'monoclinic'
loop_
_space_group_symop_operation_xyz
x,y,z
-x,y,-z
-x,-y,-z
x,-y,z
1/2+x,1/2+y,z
1/2-x,1/2+y,-z
1/2-x,1/2-y,-z
1/2+x,1/2-y,z
loop_
_atom_site_type_symbol
_atom_site_label
_atom_site_fract_x
_atom_site_fract_y
_atom_site_fract_z
Si Si1 0.962508 0.706627 0.623857
Si Si2 0.500035 0.798658 0.815880
Si Si3 0.196531 0.201255 0.099059
Si Si4 0.152845 0.701844 0.343085
Si Si5 0.615601 0.204445 0.781379
Si Si6 0.310426 0.796221 0.464367
Si Si7 0.390967 0.700183 0.986989
O O1 0.961649 0.500000 0.628206
O O2 0.984201 0.766732 0.715726
O O3 0.903768 0.766611 0.648366
O O4 0.000000 0.754800 0.500000
O O5 0.556153 0.733382 0.808183
O O6 0.450035 0.767790 0.928270
O O7 0.506298 0.000000 0.801914
O O8 0.192990 0.262478 0.218848
O O9 0.147121 0.268678 0.071998
O O10 0.192863 0.000000 0.103438
O O11 0.250000 0.250000 0.000000
O O12 0.148059 0.500000 0.356795
O O13 0.169065 0.767505 0.441752
O O14 0.654105 0.263456 0.659718
O O15 0.615423 0.000000 0.780223
O O16 0.631356 0.258513 0.882853
O O17 0.250000 0.750000 0.500000
O O18 0.314418 0.000000 0.462119
O O19 0.393888 0.500000 0.973096
#
# Coordination Sequence:
#
# PCOD9187682 Si02
#       7
#     8   8   8   8   8   8   8
#     4   9  16  29  56  89 117 149 190 236 285 340
#     4  10  19  35  60  89 119 154 197 241 290 348
#     4  11  25  42  62  88 119 155 199 248 300 354
#     4  10  20  38  63  90 120 152 192 243 296 350
#     4  10  22  39  60  88 121 158 201 244 288 347
#     4  10  23  41  61  88 120 155 198 246 295 351
#     4  11  24  40  59  87 122 157 195 243 298 354
#
# _framework density 21.312472
#
# number of rings (size 3 to 8) (size 9 to 14) (size 15 to 20)
#    0.000    1.857    1.429    2.143    2.000    8.571 
#    0.000    0.000    0.000    3.429    0.000    0.000 
#    0.000    0.000    0.000    0.000    0.000    0.000 
#
# Total GULP energy -156486.978683 kJ/mol
# GULP energy per Si atom -5588.820667 kJ/mol
# Density = 2.126396 g / cm^3
# Si number density = 21.312472 Si / 1000 Ang^3
#
#
#
# Elastic Constant Matrix: (Units=GPa)
#
#
# Indices 1 2 3 4 5 6 
#
# 1 60.3262 -3.1701 22.1414 0.0000 -1.4937 0.0000
# 2 -3.1701 15.7760 -14.4508 0.0000 5.5212 0.0000
# 3 22.1414 -14.4508 138.4988 0.0000 4.4303 0.0000
# 4 0.0000 0.0000 0.0000 16.4534 0.0000 2.2276
# 5 -1.4937 5.5212 4.4303 0.0000 40.0241 0.0000
# 6 0.0000 0.0000 0.0000 2.2276 0.0000 17.9819
#
#
#
# Elastic Compliance Matrix: (Units=1/GPa)
#
#
# Indices 1 2 3 4 5 6 
#
# 1 0.017654 0.000699 -0.002777 0.000000 0.000870 0.000000
# 2 0.000699 0.074819 0.008053 0.000000 -0.011186 0.000000
# 3 -0.002777 0.008053 0.008574 0.000000 -0.002164 0.000000
# 4 0.000000 0.000000 0.000000 0.061814 0.000000 -0.007657
# 5 0.000870 -0.011186 -0.002164 0.000000 0.026800 0.000000
# 6 0.000000 0.000000 0.000000 -0.007657 0.000000 0.056560
#
#
# Mechanical properties :
#
#
# Convention : Reuss Voigt Hill
#
# Bulk Modulus (GPa) = 8.84985 24.84911 16.84948
# Shear Modulus (GPa) = 18.38656 28.89725 23.64190
#
# Velocity S-wave (km/s) = 2.94039 3.68623 3.33423
# Velocity P-wave (km/s) = 3.96097 5.45916 4.76926
#
# Compressibility (1/GPa) = 0.11299632
#
# Stress axis : x y z
#
# Youngs Moduli (GPa) = 56.64400 13.36554 116.63634
#
# Poissons Ratio (x) = -0.00935 0.32392
# Poissons Ratio (y) = -0.03961 -0.93922
# Poissons Ratio (z) = 0.15731 -0.10763
#
# Static dielectric constant tensor:
#      x y z
#    x 1.759550 0.000000 0.014550 
#    y 0.000000 1.773190 0.000000 
#    z 0.014550 0.000000 1.751450 
# 
# From -- ./inp_files/180697.got.cif
#   From: 2010.05.17/outbox.cif.g08.bks.cpg/sg12_91_cif.got.tgz:180697.got - 2010.06.03 13:09:07.
