data_PCOD9187986
_publ_section_title
;
Structure prediction by ZEFSAII (Michael W. Deem and Ramdas Pophale) SiO2 
 PCOD9187986
Probable space group: C 2/M
;
_chemical_formula_sum "Si O2"
_cell_formula_units_Z 56
_cell_length_a 9.684540
_cell_length_b 15.593369
_cell_length_c 19.559202
_cell_angle_alpha 90.000000
_cell_angle_beta 92.048402
_cell_angle_gamma 90.000000
_cell_volume 2951.837715
_symmetry_space_group_name_H-M "C 2/M"
_symmetry_group_IT_number 12
_symmetry_cell_setting 'monoclinic'
loop_
_space_group_symop_operation_xyz
x,y,z
-x,y,-z
-x,-y,-z
x,-y,z
1/2+x,1/2+y,z
1/2-x,1/2+y,-z
1/2-x,1/2-y,-z
1/2+x,1/2-y,z
loop_
_atom_site_type_symbol
_atom_site_label
_atom_site_fract_x
_atom_site_fract_y
_atom_site_fract_z
Si Si1 0.092404 0.901923 0.569347
Si Si2 0.836336 0.336614 0.994529
Si Si3 0.345903 0.097410 0.843588
Si Si4 0.703617 0.736812 0.237734
Si Si5 0.960638 0.746329 0.331106
Si Si6 0.580217 0.099830 0.430339
Si Si7 0.177589 0.404357 0.857864
O O1 0.255265 0.889940 0.556616
O O2 0.000000 0.893328 0.500000
O O3 0.047418 0.829421 0.621339
O O4 0.075240 0.000000 0.594591
O O5 0.809575 0.382325 0.921825
O O6 0.750000 0.250000 0.000000
O O7 0.804917 0.393281 0.060525
O O8 0.000000 0.316832 0.000000
O O9 0.279424 0.168883 0.794401
O O10 0.513101 0.105891 0.840979
O O11 0.308861 0.000000 0.825342
O O12 0.551763 0.732717 0.266349
O O13 0.737901 0.667371 0.180753
O O14 0.808909 0.723454 0.301830
O O15 0.027251 0.666865 0.373157
O O16 0.500000 0.115533 0.500000
O O17 0.555175 0.000000 0.410076
O O18 0.217748 0.500000 0.837223
#
# Coordination Sequence:
#
# PCOD9187986 Si02
#       7
#     8   8   8   8   8   8   8
#     4  10  23  43  66  93 124 156 198 252 301 350
#     4  10  19  35  65  89 117 154 202 259 308 355
#     4  10  21  39  63  88 118 162 208 250 305 366
#     4  12  24  39  60  89 122 165 205 247 298 359
#     4  12  25  40  63  90 124 165 204 241 301 362
#     4  10  23  43  67  93 121 158 202 247 297 357
#     4  10  21  39  62  89 120 158 208 255 301 361
#
# _framework density 18.971232000000001
#
# number of rings (size 3 to 8) (size 9 to 14) (size 15 to 20)
#    0.000    1.429    4.286    0.857    2.000    5.143 
#    0.000    0.000    0.000    0.857    0.000    0.000 
#    0.000    0.000    0.000    0.000    0.000    0.000 
#
# Total GULP energy -156408.872528 kJ/mol
# GULP energy per Si atom -5586.031162 kJ/mol
# Density = 1.892805 g / cm^3
# Si number density = 18.971232 Si / 1000 Ang^3
#
#
#
# Elastic Constant Matrix: (Units=GPa)
#
#
# Indices 1 2 3 4 5 6 
#
# 1 28.1614 38.7181 13.7029 0.0000 2.2304 0.0000
# 2 38.7181 130.6327 50.5621 0.0000 -17.2226 0.0000
# 3 13.7029 50.5621 62.8313 0.0000 -10.1152 0.0000
# 4 0.0000 0.0000 0.0000 -10.4998 0.0000 9.8172
# 5 2.2304 -17.2226 -10.1152 0.0000 31.7651 0.0000
# 6 0.0000 0.0000 0.0000 9.8172 0.0000 25.1945
#
#
#
# Elastic Compliance Matrix: (Units=1/GPa)
#
#
# Indices 1 2 3 4 5 6 
#
# 1 0.067306 -0.022404 0.000668 0.000000 -0.016660 0.000000
# 2 -0.022404 0.018924 -0.008894 0.000000 0.009002 0.000000
# 3 0.000668 -0.008894 0.023340 0.000000 0.002563 0.000000
# 4 0.000000 0.000000 0.000000 -0.069807 0.000000 0.027201
# 5 -0.016660 0.009002 0.002563 0.000000 0.038348 0.000000
# 6 0.000000 0.000000 0.000000 0.027201 0.000000 0.029092
#
#
# Mechanical properties :
#
#
# Convention : Reuss Voigt Hill
#
# Bulk Modulus (GPa) = 20.69920 47.51019 34.10469
# Shear Modulus (GPa) = 27.09062 17.20146 22.14604
#
# Velocity S-wave (km/s) = 3.78297 3.01443 3.42035
# Velocity P-wave (km/s) = 5.47865 6.10028 5.79780
#
# Compressibility (1/GPa) = 0.04831104
#
# Stress axis : x y z
#
# Youngs Moduli (GPa) = 14.85748 52.84171 42.84543
#
# Poissons Ratio (x) = 1.18386 -0.02862
# Poissons Ratio (y) = 0.33286 0.38106
# Poissons Ratio (z) = -0.00992 0.46996
#
# Static dielectric constant tensor:
#      x y z
#    x 1.630690 0.000000 0.002230 
#    y 0.000000 1.641040 0.000000 
#    z 0.002230 0.000000 1.647190 
# 
# From -- ./inp_files/300163.got.cif
#   From: 2010.05.17/outbox.cif.g08.bks.cpg/sg12_151_cif.got.tgz:300163.got - 2010.06.03 13:09:07.
