data_PCOD9187751
_publ_section_title
;
Structure prediction by ZEFSAII (Michael W. Deem and Ramdas Pophale) SiO2 
 PCOD9187751
Probable space group: C 2/M
;
_chemical_formula_sum "Si O2"
_cell_formula_units_Z 50
_cell_length_a 14.045695
_cell_length_b 12.853460
_cell_length_c 22.145588
_cell_angle_alpha 90.000000
_cell_angle_beta 39.231085
_cell_angle_gamma 90.000000
_cell_volume 2528.578569
_symmetry_space_group_name_H-M "C 2/M"
_symmetry_group_IT_number 12
_symmetry_cell_setting 'monoclinic'
loop_
_space_group_symop_operation_xyz
x,y,z
-x,y,-z
-x,-y,-z
x,-y,z
1/2+x,1/2+y,z
1/2-x,1/2+y,-z
1/2-x,1/2-y,-z
1/2+x,1/2-y,z
loop_
_atom_site_type_symbol
_atom_site_label
_atom_site_fract_x
_atom_site_fract_y
_atom_site_fract_z
Si Si1 0.235712 0.843331 0.092142
Si Si2 0.832372 0.880450 0.195288
Si Si3 0.911261 0.803182 0.283270
Si Si4 0.000000 0.500000 0.000000
Si Si5 0.382296 0.123726 0.507825
Si Si6 0.006499 0.377605 0.676695
Si Si7 0.841038 0.883410 0.010503
O O1 0.369510 0.909446 0.054181
O O2 0.211818 0.877784 0.033913
O O3 0.074797 0.857272 0.203597
O O4 0.272546 0.720011 0.072958
O O5 0.858105 0.807807 0.240177
O O6 0.671959 0.862025 0.244536
O O7 0.977556 0.873291 0.081364
O O8 0.829760 0.000000 0.220077
O O9 0.784252 0.855481 0.386557
O O10 0.933558 0.687654 0.297067
O O11 0.500000 0.165756 0.500000
O O12 0.417585 0.161537 0.423058
O O13 0.407952 0.000000 0.492090
O O14 0.034612 0.500000 0.670255
O O15 0.801989 0.000000 0.053172
#
# Coordination Sequence:
#
# PCOD9187751 Si02
#       7
#     8   8   8   2   8   8   8
#     4  10  23  36  59  84 120 158 190 240 295 343
#     4   9  18  35  60  85 113 145 194 242 278 333
#     4  11  21  35  60  88 114 149 195 234 288 346
#     4  12  24  40  50  88 126 150 190 250 292 348
#     4  10  19  35  61  87 110 142 190 243 287 337
#     4  10  21  36  56  87 117 149 183 240 293 340
#     4   9  18  39  60  83 111 158 200 239 284 345
#
# _framework density 19.773955000000001
#
# number of rings (size 3 to 8) (size 9 to 14) (size 15 to 20)
#    0.000    2.080    2.400    0.960    4.480    0.640 
#    0.000    0.400    0.000    2.400    0.000    0.000 
#    0.000    0.000    0.000    0.000    0.000    0.000 
#
# Total GULP energy -139388.353546 kJ/mol
# GULP energy per Si atom -5575.534142 kJ/mol
# Density = 1.972895 g / cm^3
# Si number density = 19.773955 Si / 1000 Ang^3
#
#
#
# Elastic Constant Matrix: (Units=GPa)
#
#
# Indices 1 2 3 4 5 6 
#
# 1 62.5248 41.2862 38.9841 0.0000 4.0436 0.0000
# 2 41.2862 84.6107 32.7379 0.0000 11.8271 0.0000
# 3 38.9841 32.7379 105.1710 0.0000 -10.0926 0.0000
# 4 0.0000 0.0000 0.0000 19.6739 0.0000 -3.5616
# 5 4.0436 11.8271 -10.0926 0.0000 26.4089 0.0000
# 6 0.0000 0.0000 0.0000 -3.5616 0.0000 32.2345
#
#
#
# Elastic Compliance Matrix: (Units=1/GPa)
#
#
# Indices 1 2 3 4 5 6 
#
# 1 0.027404 -0.010262 -0.007189 0.000000 -0.002347 0.000000
# 2 -0.010262 0.019084 -0.002913 0.000000 -0.008089 0.000000
# 3 -0.007189 -0.002913 0.013817 0.000000 0.007686 0.000000
# 4 0.000000 0.000000 0.000000 0.051866 0.000000 0.005731
# 5 -0.002347 -0.008089 0.007686 0.000000 0.044785 0.000000
# 6 0.000000 0.000000 0.000000 0.005731 0.000000 0.031656
#
#
# Mechanical properties :
#
#
# Convention : Reuss Voigt Hill
#
# Bulk Modulus (GPa) = 51.07861 53.14700 52.11280
# Shear Modulus (GPa) = 21.19846 24.94999 23.07422
#
# Velocity S-wave (km/s) = 3.27775 3.55598 3.41970
# Velocity P-wave (km/s) = 6.34131 6.61783 6.48104
#
# Compressibility (1/GPa) = 0.01957767
#
# Stress axis : x y z
#
# Youngs Moduli (GPa) = 36.49099 52.39976 72.37333
#
# Poissons Ratio (x) = 0.53774 0.52027
# Poissons Ratio (y) = 0.37448 0.21081
# Poissons Ratio (z) = 0.26232 0.15263
#
# Static dielectric constant tensor:
#      x y z
#    x 1.710610 0.000000 0.028630 
#    y 0.000000 1.687560 0.000000 
#    z 0.028630 0.000000 1.720640 
# 
# From -- ./inp_files/339515.got.cif
#   From: 2010.05.17/outbox.cif.g08.bks.cpg/sg12_170_cif.got.tgz:339515.got - 2010.06.03 13:09:07.
