data_PCOD9187324
_publ_section_title
;
Structure prediction by ZEFSAII (Michael W. Deem and Ramdas Pophale) SiO2 
 PCOD9187324
Probable space group: C 2/M
;
_chemical_formula_sum "Si O2"
_cell_formula_units_Z 52
_cell_length_a 18.961963
_cell_length_b 12.730955
_cell_length_c 12.027418
_cell_angle_alpha 90.000000
_cell_angle_beta 65.063727
_cell_angle_gamma 90.000000
_cell_volume 2632.796630
_symmetry_space_group_name_H-M "C 2/M"
_symmetry_group_IT_number 12
_symmetry_cell_setting 'monoclinic'
loop_
_space_group_symop_operation_xyz
x,y,z
-x,y,-z
-x,-y,-z
x,-y,z
1/2+x,1/2+y,z
1/2-x,1/2+y,-z
1/2-x,1/2-y,-z
1/2+x,1/2-y,z
loop_
_atom_site_type_symbol
_atom_site_label
_atom_site_fract_x
_atom_site_fract_y
_atom_site_fract_z
Si Si1 0.093797 0.500000 0.935341
Si Si2 0.585475 0.234794 0.885477
Si Si3 0.408701 0.000000 0.582295
Si Si4 0.594732 0.766700 0.452769
Si Si5 0.834042 0.500000 0.861279
Si Si6 0.890610 0.887893 0.744854
Si Si7 0.425345 0.623504 0.327578
Si Si8 0.297062 0.340501 0.024586
O O1 0.112929 0.612047 0.864437
O O2 0.130139 0.500000 0.037181
O O3 0.000000 0.500000 0.000000
O O4 0.583816 0.300863 0.773030
O O5 0.500000 0.234872 0.000000
O O6 0.643259 0.297816 0.926213
O O7 0.500000 0.000000 0.500000
O O8 0.378435 0.887949 0.555837
O O9 0.397469 0.000000 0.723140
O O10 0.500000 0.769624 0.500000
O O11 0.628520 0.709781 0.321079
O O12 0.610301 0.688830 0.545448
O O13 0.773270 0.407607 0.882061
O O14 0.845231 0.888947 0.890582
O O15 0.982121 0.881901 0.710330
O O16 0.876113 0.000000 0.695901
O O17 0.399924 0.500000 0.332278
O O18 0.250000 0.250000 0.000000
#
# Coordination Sequence:
#
# PCOD9187324 Si02
#       8
#     4   8   4   8   4   8   8   8
#     4  10  24  40  62  91 133 171 218 275 317 390
#     4  11  23  39  61  95 133 179 222 265 328 385
#     4  10  22  38  66  91 125 167 218 275 317 385
#     4   9  19  34  58  92 121 164 215 271 314 368
#     4  12  24  42  61 102 131 164 221 265 334 388
#     4  10  19  35  58  89 127 170 210 261 324 381
#     4  10  21  36  60  92 130 160 220 270 313 381
#     4  12  23  37  62  92 133 172 211 271 327 393
#
# _framework density 19.750861
#
# number of rings (size 3 to 8) (size 9 to 14) (size 15 to 20)
#    0.000    1.538    3.846    1.385    1.077    6.462 
#    0.000    0.000    0.000    3.692    0.000    0.000 
#    0.000    0.000    0.000    0.000    0.000    0.000 
#
# Total GULP energy -144823.946578 kJ/mol
# GULP energy per Si atom -5570.151791 kJ/mol
# Density = 1.970591 g / cm^3
# Si number density = 19.750861 Si / 1000 Ang^3
#
#
#
# Elastic Constant Matrix: (Units=GPa)
#
#
# Indices 1 2 3 4 5 6 
#
# 1 55.0266 34.8932 15.1013 0.0000 11.6012 0.0000
# 2 34.8932 202.9837 78.8407 0.0000 17.4142 0.0000
# 3 15.1013 78.8407 94.3211 0.0000 14.8803 0.0000
# 4 0.0000 0.0000 0.0000 29.5115 0.0000 5.3857
# 5 11.6012 17.4142 14.8803 0.0000 20.7419 0.0000
# 6 0.0000 0.0000 0.0000 5.3857 0.0000 2.3723
#
#
#
# Elastic Compliance Matrix: (Units=1/GPa)
#
#
# Indices 1 2 3 4 5 6 
#
# 1 0.022169 -0.003230 0.000765 0.000000 -0.010237 0.000000
# 2 -0.003230 0.007838 -0.005955 0.000000 -0.000501 0.000000
# 3 0.000765 -0.005955 0.016617 0.000000 -0.007349 0.000000
# 4 0.000000 0.000000 0.000000 0.057856 0.000000 -0.131348
# 5 -0.010237 -0.000501 -0.007349 0.000000 0.059631 0.000000
# 6 0.000000 0.000000 0.000000 -0.131348 0.000000 0.719726
#
#
# Mechanical properties :
#
#
# Convention : Reuss Voigt Hill
#
# Bulk Modulus (GPa) = 33.57447 67.77796 50.67622
# Shear Modulus (GPa) = 5.49086 25.42489 15.45788
#
# Velocity S-wave (km/s) = 1.66916 3.59176 2.80061
# Velocity P-wave (km/s) = 4.55529 7.18275 6.01426
#
# Compressibility (1/GPa) = 0.02978453
#
# Stress axis : x y z
#
# Youngs Moduli (GPa) = 45.10716 127.58659 60.18022
#
# Poissons Ratio (x) = 0.41211 -0.04607
# Poissons Ratio (y) = 0.14570 0.35838
# Poissons Ratio (z) = -0.03453 0.75980
#
# Static dielectric constant tensor:
#      x y z
#    x 1.606830 0.000000 0.028040 
#    y 0.000000 1.739630 0.000000 
#    z 0.028040 0.000000 1.633190 
# 
# From -- ./inp_files/164818.got.cif
#   From: 2010.05.17/outbox.cif.g08.bks.cpg/sg12_83_cif.got.tgz:164818.got - 2010.06.03 13:09:07.
