data_PCOD9187152
_publ_section_title
;
Structure prediction by ZEFSAII (Michael W. Deem and Ramdas Pophale) SiO2 
 PCOD9187152
Probable space group: C 2/M
;
_chemical_formula_sum "Si O2"
_cell_formula_units_Z 64
_cell_length_a 21.019781
_cell_length_b 8.636659
_cell_length_c 22.242070
_cell_angle_alpha 90.000000
_cell_angle_beta 118.101318
_cell_angle_gamma 90.000000
_cell_volume 3561.843861
_symmetry_space_group_name_H-M "C 2/M"
_symmetry_group_IT_number 12
_symmetry_cell_setting 'monoclinic'
loop_
_space_group_symop_operation_xyz
x,y,z
-x,y,-z
-x,-y,-z
x,-y,z
1/2+x,1/2+y,z
1/2-x,1/2+y,-z
1/2-x,1/2-y,-z
1/2+x,1/2-y,z
loop_
_atom_site_type_symbol
_atom_site_label
_atom_site_fract_x
_atom_site_fract_y
_atom_site_fract_z
Si Si1 0.653586 0.814957 0.704941
Si Si2 0.300406 0.314927 0.702820
Si Si3 0.170134 0.185530 0.841762
Si Si4 0.584409 0.187326 0.917063
Si Si5 0.225788 0.814546 0.553397
Si Si6 0.663679 0.811421 0.074277
Si Si7 0.579911 0.687106 0.555507
Si Si8 0.417429 0.812832 0.840506
O O1 0.734119 0.771395 0.717827
O O2 0.641701 0.745141 0.765154
O O3 0.600553 0.752144 0.629998
O O4 0.649218 0.000000 0.705535
O O5 0.302097 0.500000 0.698576
O O6 0.279649 0.243734 0.629431
O O7 0.373271 0.253345 0.764784
O O8 0.124608 0.248744 0.876887
O O9 0.253291 0.238388 0.886113
O O10 0.169165 0.000000 0.841539
O O11 0.500755 0.233709 0.879160
O O12 0.586993 0.000000 0.917125
O O13 0.624015 0.239355 0.995811
O O14 0.250000 0.750000 0.500000
O O15 0.145049 0.765701 0.539296
O O16 0.226709 0.000000 0.551839
O O17 0.621619 0.761591 0.115343
O O18 0.662934 0.000000 0.073880
O O19 0.500000 0.736488 0.500000
O O20 0.580737 0.500000 0.558621
O O21 0.414163 0.000000 0.836719
#
# Coordination Sequence:
#
# PCOD9187152 Si02
#       8
#     8   8   8   8   8   8   8   8
#     4  10  20  35  57  83 110 144 186 229 270 319
#     4  10  20  35  57  83 111 144 185 230 273 322
#     4  11  21  35  56  80 110 146 184 228 275 328
#     4  10  21  36  54  80 113 144 179 229 281 330
#     4  10  20  36  59  85 114 146 182 223 270 325
#     4   9  18  34  58  82 104 141 188 227 272 331
#     4   9  19  37  60  85 112 143 180 222 271 323
#     4  10  19  35  58  81 108 143 185 228 275 329
#
# _framework density 17.968222000000001
#
# number of rings (size 3 to 8) (size 9 to 14) (size 15 to 20)
#    0.000    2.125    1.250    2.250    0.000    3.750 
#    2.250    1.250    0.000    1.500    0.000    0.000 
#    0.000    0.000    0.000    0.000    0.000    0.000 
#
# Total GULP energy -178651.294014 kJ/mol
# GULP energy per Si atom -5582.852938 kJ/mol
# Density = 1.792733 g / cm^3
# Si number density = 17.968222 Si / 1000 Ang^3
#
#
#
# Elastic Constant Matrix: (Units=GPa)
#
#
# Indices 1 2 3 4 5 6 
#
# 1 137.4514 29.2499 99.5733 0.0000 -2.9678 0.0000
# 2 29.2499 19.0597 32.5285 0.0000 -0.5147 0.0000
# 3 99.5733 32.5285 171.8750 0.0000 -2.8099 0.0000
# 4 0.0000 0.0000 0.0000 22.1824 0.0000 -5.2360
# 5 -2.9678 -0.5147 -2.8099 0.0000 34.0044 0.0000
# 6 0.0000 0.0000 0.0000 -5.2360 0.0000 23.7424
#
#
#
# Elastic Compliance Matrix: (Units=1/GPa)
#
#
# Indices 1 2 3 4 5 6 
#
# 1 0.014021 -0.011307 -0.005974 0.000000 0.000559 0.000000
# 2 -0.011307 0.086617 -0.009850 0.000000 -0.000490 0.000000
# 3 -0.005974 -0.009850 0.011147 0.000000 0.000251 0.000000
# 4 0.000000 0.000000 0.000000 0.047556 0.000000 0.010488
# 5 0.000559 -0.000490 0.000251 0.000000 0.029470 0.000000
# 6 0.000000 0.000000 0.000000 0.010488 0.000000 0.044432
#
#
# Mechanical properties :
#
#
# Convention : Reuss Voigt Hill
#
# Bulk Modulus (GPa) = 17.38436 72.34328 44.86382
# Shear Modulus (GPa) = 16.30365 27.12145 21.71255
#
# Velocity S-wave (km/s) = 3.01551 3.88933 3.47996
# Velocity P-wave (km/s) = 4.67124 7.77936 6.41634
#
# Compressibility (1/GPa) = 0.05752296
#
# Stress axis : x y z
#
# Youngs Moduli (GPa) = 71.32074 11.54512 89.70701
#
# Poissons Ratio (x) = 0.13054 0.53590
# Poissons Ratio (y) = 0.80642 0.88364
# Poissons Ratio (z) = 0.42606 0.11372
#
# Static dielectric constant tensor:
#      x y z
#    x 1.602940 0.000000 0.010050 
#    y 0.000000 1.604600 0.000000 
#    z 0.010050 0.000000 1.585410 
# 
# From -- ./inp_files/319767.got.cif
#   From: 2010.05.17/outbox.cif.g08.bks.cpg/sg12_160_cif.got.tgz:319767.got - 2010.06.03 13:09:07.
