data_PCOD9187264
_publ_section_title
;
Structure prediction by ZEFSAII (Michael W. Deem and Ramdas Pophale) SiO2 
 PCOD9187264
Probable space group: C 2/M
;
_chemical_formula_sum "Si O2"
_cell_formula_units_Z 64
_cell_length_a 21.038356
_cell_length_b 8.589275
_cell_length_c 22.488310
_cell_angle_alpha 90.000000
_cell_angle_beta 62.223398
_cell_angle_gamma 90.000000
_cell_volume 3595.474254
_symmetry_space_group_name_H-M "C 2/M"
_symmetry_group_IT_number 12
_symmetry_cell_setting 'monoclinic'
loop_
_space_group_symop_operation_xyz
x,y,z
-x,y,-z
-x,-y,-z
x,-y,z
1/2+x,1/2+y,z
1/2-x,1/2+y,-z
1/2-x,1/2-y,-z
1/2+x,1/2-y,z
loop_
_atom_site_type_symbol
_atom_site_label
_atom_site_fract_x
_atom_site_fract_y
_atom_site_fract_z
Si Si1 0.048725 0.688713 0.675254
Si Si2 0.399621 0.813114 0.676562
Si Si3 0.671967 0.314249 0.177294
Si Si4 0.830371 0.313369 0.465223
Si Si5 0.969903 0.311524 0.825014
Si Si6 0.916043 0.186423 0.540771
Si Si7 0.950360 0.688319 0.966876
Si Si8 0.210756 0.814410 0.958295
O O1 0.050979 0.500000 0.674646
O O2 0.121156 0.743186 0.611843
O O3 0.979423 0.732679 0.665509
O O4 0.029856 0.738247 0.750704
O O5 0.344990 0.750656 0.749891
O O6 0.388180 0.743073 0.616744
O O7 0.396897 0.000000 0.675733
O O8 0.673193 0.500000 0.177270
O O9 0.605644 0.256196 0.165153
O O10 0.744390 0.248729 0.117176
O O11 0.828083 0.500000 0.464395
O O12 0.750000 0.250000 0.500000
O O13 0.871869 0.260477 0.506308
O O14 0.964394 0.500000 0.824317
O O15 0.981387 0.267780 0.888424
O O16 0.000000 0.232815 0.500000
O O17 0.911746 0.000000 0.538617
O O18 0.945355 0.500000 0.970491
O O19 0.870758 0.756221 0.006870
O O20 0.000000 0.738523 0.000000
O O21 0.213335 0.000000 0.958485
O O22 0.250000 0.750000 0.000000
#
# Coordination Sequence:
#
# PCOD9187264 Si02
#       8
#     8   8   8   8   8   8   8   8
#     4   8  16  31  54  80 106 144 190 235 286 347
#     4  10  19  35  58  85 115 150 191 236 292 348
#     4  11  21  34  55  86 118 149 189 240 294 344
#     4  11  22  38  57  81 115 155 199 243 295 350
#     4   9  17  33  56  81 110 147 191 236 286 349
#     4  11  22  36  57  87 118 148 190 241 290 341
#     4  10  21  37  58  85 118 154 194 240 293 353
#     4  12  23  37  58  84 115 152 194 242 290 341
#
# _framework density 17.800155
#
# number of rings (size 3 to 8) (size 9 to 14) (size 15 to 20)
#    0.000    1.750    2.500    4.125    0.000    0.750 
#    0.000    1.875    0.000    3.000    0.000    0.000 
#    0.000    0.000    0.000    0.000    0.000    0.000 
#
# Total GULP energy -178666.959757 kJ/mol
# GULP energy per Si atom -5583.342492 kJ/mol
# Density = 1.775964 g / cm^3
# Si number density = 17.800155 Si / 1000 Ang^3
#
#
#
# Elastic Constant Matrix: (Units=GPa)
#
#
# Indices 1 2 3 4 5 6 
#
# 1 112.0945 36.1253 83.7141 0.0000 -3.9364 0.0000
# 2 36.1253 49.4813 38.8082 0.0000 0.2623 -0.0007
# 3 83.7141 38.8082 182.9056 -0.0001 -5.9869 0.0000
# 4 0.0000 0.0000 -0.0001 24.7135 0.0000 -3.2380
# 5 -3.9364 0.2623 -5.9869 0.0000 27.6408 0.0000
# 6 0.0000 -0.0007 0.0000 -3.2380 0.0000 24.5699
#
#
#
# Elastic Compliance Matrix: (Units=1/GPa)
#
#
# Indices 1 2 3 4 5 6 
#
# 1 0.015273 -0.006838 -0.005505 0.000000 0.001048 0.000000
# 2 -0.006838 0.027356 -0.002734 0.000000 -0.001826 0.000001
# 3 -0.005505 -0.002734 0.008603 0.000000 0.001105 0.000000
# 4 0.000000 0.000000 0.000000 0.041175 0.000000 0.005426
# 5 0.001048 -0.001826 0.001105 0.000000 0.036584 0.000000
# 6 0.000000 0.000001 0.000000 0.005426 0.000000 0.041415
#
#
# Mechanical properties :
#
#
# Convention : Reuss Voigt Hill
#
# Bulk Modulus (GPa) = 47.44472 73.53072 60.48772
# Shear Modulus (GPa) = 24.08615 27.77375 25.92995
#
# Velocity S-wave (km/s) = 3.68250 3.95436 3.82085
# Velocity P-wave (km/s) = 6.69276 7.88974 7.31577
#
# Compressibility (1/GPa) = 0.02107716
#
# Stress axis : x y z
#
# Youngs Moduli (GPa) = 65.47531 36.55449 116.23542
#
# Poissons Ratio (x) = 0.24997 0.63988
# Poissons Ratio (y) = 0.44775 0.31782
# Poissons Ratio (z) = 0.36044 0.09995
#
# Static dielectric constant tensor:
#      x y z
#    x 1.569490 0.000000 -0.003340 
#    y 0.000000 1.596790 0.000000 
#    z -0.003340 0.000000 1.637010 
# 
# From -- ./inp_files/319831.got.cif
#   From: 2010.05.17/outbox.cif.g08.bks.cpg/sg12_160_cif.got.tgz:319831.got - 2010.06.03 13:09:07.
