data_PCOD9187277
_publ_section_title
;
Structure prediction by ZEFSAII (Michael W. Deem and Ramdas Pophale) SiO2 
 PCOD9187277
Probable space group: C 2/M
;
_chemical_formula_sum "Si O2"
_cell_formula_units_Z 64
_cell_length_a 15.028919
_cell_length_b 8.470295
_cell_length_c 23.548149
_cell_angle_alpha 90.000000
_cell_angle_beta 94.948148
_cell_angle_gamma 90.000000
_cell_volume 2986.492906
_symmetry_space_group_name_H-M "C 2/M"
_symmetry_group_IT_number 12
_symmetry_cell_setting 'monoclinic'
loop_
_space_group_symop_operation_xyz
x,y,z
-x,y,-z
-x,-y,-z
x,-y,z
1/2+x,1/2+y,z
1/2-x,1/2+y,-z
1/2-x,1/2-y,-z
1/2+x,1/2-y,z
loop_
_atom_site_type_symbol
_atom_site_label
_atom_site_fract_x
_atom_site_fract_y
_atom_site_fract_z
Si Si1 0.469300 0.685574 0.401458
Si Si2 0.197112 0.312776 0.551033
Si Si3 0.913530 0.308052 0.154145
Si Si4 0.292754 0.311371 0.868248
Si Si5 0.300508 0.814412 0.748438
Si Si6 0.852539 0.809279 0.638776
Si Si7 0.896398 0.312942 0.279492
Si Si8 0.545460 0.809007 0.061636
O O1 0.469196 0.500000 0.411749
O O2 0.403650 0.759940 0.443756
O O3 0.571537 0.740154 0.401838
O O4 0.431441 0.722579 0.336367
O O5 0.199471 0.500000 0.549362
O O6 0.250000 0.250000 0.500000
O O7 0.256883 0.261369 0.608437
O O8 0.915115 0.500000 0.154845
O O9 0.811315 0.262131 0.133562
O O10 0.933674 0.259314 0.220141
O O11 0.982452 0.254738 0.110246
O O12 0.294808 0.500000 0.862277
O O13 0.330956 0.232292 0.812895
O O14 0.355986 0.258273 0.922741
O O15 0.365486 0.768433 0.700674
O O16 0.209763 0.716145 0.732668
O O17 0.281652 0.000000 0.745338
O O18 0.855912 0.000000 0.644583
O O19 0.912619 0.500000 0.288335
O O20 0.550235 0.000000 0.063206
O O21 0.500000 0.762653 0.000000
#
# Coordination Sequence:
#
# PCOD9187277 Si02
#       8
#     8   8   8   8   8   8   8   8
#     4  11  23  39  61  92 123 157 204 248 297 361
#     4  11  24  44  67  88 122 167 207 255 305 354
#     4   8  18  36  56  80 115 157 193 236 299 360
#     4  10  21  38  58  82 116 156 197 244 302 362
#     4  11  21  35  60  90 121 156 200 248 301 362
#     4  10  23  41  61  89 126 163 198 244 306 361
#     4  10  19  35  58  85 122 160 196 242 305 361
#     4  10  21  38  59  85 117 155 202 251 298 357
#
# _framework density 21.429818999999998
#
# number of rings (size 3 to 8) (size 9 to 14) (size 15 to 20)
#    0.000    1.875    1.250    3.375    1.750    2.750 
#    0.000    5.625    0.000    0.000    0.000    0.000 
#    0.000    0.000    0.000    0.000    0.000    0.000 
#
# Total GULP energy -178820.206687 kJ/mol
# GULP energy per Si atom -5588.131459 kJ/mol
# Density = 2.138104 g / cm^3
# Si number density = 21.429819 Si / 1000 Ang^3
#
#
#
# Elastic Constant Matrix: (Units=GPa)
#
#
# Indices 1 2 3 4 5 6 
#
# 1 62.5053 7.9655 0.5263 0.0000 -13.8109 0.0000
# 2 7.9655 23.3936 -1.9845 0.0000 -5.4191 0.0000
# 3 0.5263 -1.9845 45.8925 0.0000 -12.9712 0.0000
# 4 0.0000 0.0000 0.0000 26.9980 0.0000 2.3856
# 5 -13.8109 -5.4191 -12.9712 0.0000 32.3013 0.0000
# 6 0.0000 0.0000 0.0000 2.3856 0.0000 17.6996
#
#
#
# Elastic Compliance Matrix: (Units=1/GPa)
#
#
# Indices 1 2 3 4 5 6 
#
# 1 0.018253 -0.004249 0.001818 0.000000 0.007821 0.000000
# 2 -0.004249 0.046322 0.004213 0.000000 0.007646 0.000000
# 3 0.001818 0.004213 0.025235 0.000000 0.011618 0.000000
# 4 0.000000 0.000000 0.000000 0.037486 0.000000 -0.005053
# 5 0.007821 0.007646 0.011618 0.000000 0.040251 0.000000
# 6 0.000000 0.000000 0.000000 -0.005053 0.000000 0.057179
#
#
# Mechanical properties :
#
#
# Convention : Reuss Voigt Hill
#
# Bulk Modulus (GPa) = 10.70969 16.08956 13.39962
# Shear Modulus (GPa) = 19.81861 23.75206 21.78533
#
# Velocity S-wave (km/s) = 3.04438 3.33282 3.19186
# Velocity P-wave (km/s) = 4.16726 4.72595 4.45537
#
# Compressibility (1/GPa) = 0.09337336
#
# Stress axis : x y z
#
# Youngs Moduli (GPa) = 54.78549 21.58786 39.62746
#
# Poissons Ratio (x) = 0.09173 -0.07203
# Poissons Ratio (y) = 0.23279 -0.16695
# Poissons Ratio (z) = -0.09958 -0.09095
#
# Static dielectric constant tensor:
#      x y z
#    x 1.514920 0.000000 0.262930 
#    y 0.000000 1.717510 0.000000 
#    z 0.262930 0.000000 1.546080 
# 
# From -- ./inp_files/338754.got.cif
#   From: 2010.05.17/outbox.cif.g08.bks.cpg/sg12_170_cif.got.tgz:338754.got - 2010.06.03 13:09:07.
