data_PCOD9187500
_publ_section_title
;
Structure prediction by ZEFSAII (Michael W. Deem and Ramdas Pophale) SiO2 
 PCOD9187500
Probable space group: C 2/M
;
_chemical_formula_sum "Si O2"
_cell_formula_units_Z 40
_cell_length_a 26.023130
_cell_length_b 12.775589
_cell_length_c 16.848166
_cell_angle_alpha 90.000000
_cell_angle_beta 18.558973
_cell_angle_gamma 90.000000
_cell_volume 1782.802465
_symmetry_space_group_name_H-M "C 2/M"
_symmetry_group_IT_number 12
_symmetry_cell_setting 'monoclinic'
loop_
_space_group_symop_operation_xyz
x,y,z
-x,y,-z
-x,-y,-z
x,-y,z
1/2+x,1/2+y,z
1/2-x,1/2+y,-z
1/2-x,1/2-y,-z
1/2+x,1/2-y,z
loop_
_atom_site_type_symbol
_atom_site_label
_atom_site_fract_x
_atom_site_fract_y
_atom_site_fract_z
Si Si1 0.288479 0.118291 0.510974
Si Si2 0.648979 0.163403 0.038809
Si Si3 0.407936 0.613272 0.529889
Si Si4 0.318708 0.164863 0.285143
Si Si5 0.887448 0.323195 0.732177
O O1 0.474282 0.149292 0.256760
O O2 0.267164 0.125820 0.447428
O O3 0.186445 0.208755 0.702139
O O4 0.258413 0.000000 0.582081
O O5 0.637250 0.123878 0.146789
O O6 0.778704 0.112491 0.790713
O O7 0.717336 0.282886 0.946071
O O8 0.490767 0.500000 0.406268
O O9 0.305099 0.629340 0.600781
O O10 0.518630 0.714317 0.382851
O O11 0.500000 0.129819 0.000000
O O12 0.000000 0.373520 0.500000
#
# Coordination Sequence:
#
# PCOD9187500 Si02
#       5
#     8   8   8   8   8
#     4  11  23  38  61  88 114 150 196 236 280 344
#     4  10  19  35  59  87 114 148 189 234 284 339
#     4  11  21  35  59  89 117 148 190 235 285 341
#     4  11  23  39  58  85 120 152 188 236 292 332
#     4   9  20  36  57  86 118 153 186 232 292 340
#
# _framework density 22.436585000000001
#
# number of rings (size 3 to 8) (size 9 to 14) (size 15 to 20)
#    0.000    1.600    4.000    1.200    0.000    5.600 
#    0.000    0.000    0.000    3.600    0.000    0.000 
#    0.000    0.000    0.000    0.000    0.000    0.000 
#
# Total GULP energy -111740.273652 kJ/mol
# GULP energy per Si atom -5587.013683 kJ/mol
# Density = 2.238552 g / cm^3
# Si number density = 22.436585 Si / 1000 Ang^3
#
#
#
# Elastic Constant Matrix: (Units=GPa)
#
#
# Indices 1 2 3 4 5 6 
#
# 1 147.3230 22.9751 15.1545 -0.0002 3.6857 0.0000
# 2 22.9751 105.6188 16.3187 -0.0004 -2.9557 0.0001
# 3 15.1545 16.3187 62.5998 -0.0006 12.2469 0.0001
# 4 -0.0002 -0.0004 -0.0006 1.7248 0.0001 -0.8833
# 5 3.6857 -2.9557 12.2469 0.0001 44.7662 0.0000
# 6 0.0000 0.0001 0.0001 -0.8833 0.0000 -13.2791
#
#
#
# Elastic Compliance Matrix: (Units=1/GPa)
#
#
# Indices 1 2 3 4 5 6 
#
# 1 0.007143 -0.001360 -0.001312 0.000000 -0.000319 0.000000
# 2 -0.001360 0.010212 -0.002627 0.000001 0.001505 0.000000
# 3 -0.001312 -0.002627 0.017951 0.000005 -0.004976 0.000000
# 4 0.000000 0.000001 0.000005 0.560688 -0.000003 -0.037294
# 5 -0.000319 0.001505 -0.004976 -0.000003 0.023825 0.000000
# 6 0.000000 0.000000 0.000000 -0.037294 0.000000 -0.072826
#
#
# Mechanical properties :
#
#
# Convention : Reuss Voigt Hill
#
# Bulk Modulus (GPa) = 40.47541 47.15979 43.81760
# Shear Modulus (GPa) = 8.83661 24.04859 16.44260
#
# Velocity S-wave (km/s) = 1.98671 3.27746 2.71005
# Velocity P-wave (km/s) = 4.83133 5.94871 5.41890
#
# Compressibility (1/GPa) = 0.02470636
#
# Stress axis : x y z
#
# Youngs Moduli (GPa) = 140.00003 97.92514 55.70841
#
# Poissons Ratio (x) = 0.13317 0.07311
# Poissons Ratio (y) = 0.19039 0.14636
# Poissons Ratio (z) = 0.18372 0.25728
#
# Static dielectric constant tensor:
#      x y z
#    x 1.823390 0.000000 0.009080 
#    y 0.000000 1.861330 0.000000 
#    z 0.009080 0.000000 1.837600 
# 
# From -- ./inp_files/129148.got.cif
#   From: 2010.05.17/outbox.cif.g08.bks.cpg/sg12_65_cif.got.tgz:129148.got - 2010.06.03 13:09:07.
