data_PCOD9187459
_publ_section_title
;
Structure prediction by ZEFSAII (Michael W. Deem and Ramdas Pophale) SiO2 
 PCOD9187459
Probable space group: C 2/M
;
_chemical_formula_sum "Si O2"
_cell_formula_units_Z 64
_cell_length_a 27.998269
_cell_length_b 17.130689
_cell_length_c 7.743058
_cell_angle_alpha 90.000000
_cell_angle_beta 129.283178
_cell_angle_gamma 90.000000
_cell_volume 2874.578352
_symmetry_space_group_name_H-M "C 2/M"
_symmetry_group_IT_number 12
_symmetry_cell_setting 'monoclinic'
loop_
_space_group_symop_operation_xyz
x,y,z
-x,y,-z
-x,-y,-z
x,-y,z
1/2+x,1/2+y,z
1/2-x,1/2+y,-z
1/2-x,1/2-y,-z
1/2+x,1/2-y,z
loop_
_atom_site_type_symbol
_atom_site_label
_atom_site_fract_x
_atom_site_fract_y
_atom_site_fract_z
Si Si1 0.765953 0.588969 0.246206
Si Si2 0.812561 0.088208 0.387515
Si Si3 0.843064 0.737811 0.319555
Si Si4 0.099658 0.279113 0.925411
Si Si5 0.364393 0.614727 0.885308
Si Si6 0.321352 0.084807 0.756439
Si Si7 0.529410 0.750749 0.258963
Si Si8 0.001703 0.919122 0.212815
O O1 0.777463 0.500000 0.200900
O O2 0.791849 0.668534 0.217156
O O3 0.693128 0.596069 0.123444
O O4 0.798257 0.591358 0.507689
O O5 0.824841 0.172478 0.325464
O O6 0.848583 0.088308 0.654606
O O7 0.740350 0.092022 0.270736
O O8 0.823304 0.000000 0.335737
O O9 0.870823 0.735972 0.192248
O O10 0.902666 0.714918 0.573361
O O11 0.025944 0.284845 0.753890
O O12 0.122512 0.206475 0.092395
O O13 0.129159 0.353548 0.076998
O O14 0.430061 0.583883 0.101454
O O15 0.348363 0.000000 0.845219
O O16 0.534724 0.660601 0.334608
O O17 0.500000 0.751959 0.000000
O O18 0.030116 0.000000 0.339903
O O19 0.000000 0.920049 0.000000
#
# Coordination Sequence:
#
# PCOD9187459 Si02
#       8
#     8   8   8   8   8   8   8   8
#     4  10  21  38  62  88 115 151 200 250 289 339
#     4  10  20  36  60  87 116 154 199 241 280 335
#     4  12  24  38  57  85 123 157 188 236 300 361
#     4  11  23  38  57  85 120 155 188 235 301 358
#     4  10  19  35  59  85 116 153 198 241 282 336
#     4   9  19  37  60  86 113 147 197 248 287 334
#     4  10  21  38  60  81 106 148 200 245 283 338
#     4   9  16  28  52  83 109 137 180 233 283 328
#
# _framework density 22.264133999999999
#
# number of rings (size 3 to 8) (size 9 to 14) (size 15 to 20)
#    0.000    1.875    0.000    6.750    0.000    6.000 
#    0.000    5.625    0.000    7.500    0.000    0.000 
#    0.000    0.000    0.000    0.000    0.000    0.000 
#
# Total GULP energy -178690.372579 kJ/mol
# GULP energy per Si atom -5584.074143 kJ/mol
# Density = 2.221346 g / cm^3
# Si number density = 22.264134 Si / 1000 Ang^3
#
#
#
# Elastic Constant Matrix: (Units=GPa)
#
#
# Indices 1 2 3 4 5 6 
#
# 1 103.4543 51.1786 15.9544 0.0000 9.6906 0.0000
# 2 51.1786 134.4595 26.0240 0.0000 7.8678 0.0000
# 3 15.9544 26.0240 59.5845 0.0000 3.6904 0.0000
# 4 0.0000 0.0000 0.0000 10.2564 0.0000 3.2503
# 5 9.6906 7.8678 3.6904 0.0000 29.1478 0.0000
# 6 0.0000 0.0000 0.0000 3.2503 0.0000 -24.1542
#
#
#
# Elastic Compliance Matrix: (Units=1/GPa)
#
#
# Indices 1 2 3 4 5 6 
#
# 1 0.012218 -0.004248 -0.001245 0.000000 -0.002758 0.000000
# 2 -0.004248 0.009691 -0.003045 0.000000 -0.000818 0.000000
# 3 -0.001245 -0.003045 0.018515 0.000000 -0.001108 0.000000
# 4 0.000000 0.000000 0.000000 0.093512 0.000000 0.012584
# 5 -0.002758 -0.000818 -0.001108 0.000000 0.035586 0.000000
# 6 0.000000 0.000000 0.000000 0.012584 0.000000 -0.039707
#
#
# Mechanical properties :
#
#
# Convention : Reuss Voigt Hill
#
# Bulk Modulus (GPa) = 42.83024 53.75694 48.29359
# Shear Modulus (GPa) = 32.32625 16.67277 24.49951
#
# Velocity S-wave (km/s) = 3.81457 2.73950 3.32083
# Velocity P-wave (km/s) = 6.21935 5.84842 6.03674
#
# Compressibility (1/GPa) = 0.02334799
#
# Stress axis : x y z
#
# Youngs Moduli (GPa) = 81.84660 103.18599 54.01105
#
# Poissons Ratio (x) = 0.43834 0.06726
# Poissons Ratio (y) = 0.34769 0.16444
# Poissons Ratio (z) = 0.10193 0.31416
#
# Static dielectric constant tensor:
#      x y z
#    x 1.849720 0.000000 -0.033480 
#    y 0.000000 1.884540 0.000000 
#    z -0.033480 0.000000 1.817540 
# 
# From -- ./inp_files/112004.got.cif
#   From: 2010.05.17/outbox.cif.g08.bks.cpg/sg12_57_cif.got.tgz:112004.got - 2010.06.03 13:09:07.
