data_PCOD9187473
_publ_section_title
;
Structure prediction by ZEFSAII (Michael W. Deem and Ramdas Pophale) SiO2 
 PCOD9187473
Probable space group: C 2/M
;
_chemical_formula_sum "Si O2"
_cell_formula_units_Z 56
_cell_length_a 25.802321
_cell_length_b 7.515465
_cell_length_c 12.425819
_cell_angle_alpha 90.000000
_cell_angle_beta 85.784185
_cell_angle_gamma 90.000000
_cell_volume 2403.050831
_symmetry_space_group_name_H-M "C 2/M"
_symmetry_group_IT_number 12
_symmetry_cell_setting 'monoclinic'
loop_
_space_group_symop_operation_xyz
x,y,z
-x,y,-z
-x,-y,-z
x,-y,z
1/2+x,1/2+y,z
1/2-x,1/2+y,-z
1/2-x,1/2-y,-z
1/2+x,1/2-y,z
loop_
_atom_site_type_symbol
_atom_site_label
_atom_site_fract_x
_atom_site_fract_y
_atom_site_fract_z
Si Si1 0.416440 0.703830 0.517066
Si Si2 0.655865 0.794518 0.056971
Si Si3 0.196505 0.711023 0.447496
Si Si4 0.453722 0.718148 0.287398
Si Si5 0.431247 0.284204 0.756766
Si Si6 0.263505 0.781605 0.786664
Si Si7 0.147588 0.796454 0.817795
O O1 0.433999 0.500000 0.525703
O O2 0.355463 0.707152 0.495339
O O3 0.448214 0.779429 0.412072
O O4 0.420019 0.780332 0.636470
O O5 0.609523 0.784206 0.150376
O O6 0.706652 0.722168 0.110959
O O7 0.665472 0.000000 0.028603
O O8 0.642360 0.703101 0.947389
O O9 0.188674 0.500000 0.448575
O O10 0.250000 0.750000 0.500000
O O11 0.204478 0.773118 0.323510
O O12 0.452997 0.500000 0.288738
O O13 0.509152 0.767188 0.229879
O O14 0.403426 0.781776 0.229706
O O15 0.426950 0.500000 0.759386
O O16 0.204410 0.717873 0.785809
O O17 0.263267 0.000000 0.788846
O O18 0.150536 0.000000 0.778454
#
# Coordination Sequence:
#
# PCOD9187473 Si02
#       7
#     8   8   8   8   8   8   8
#     4  10  19  35  59  86 114 146 188 234 282 335
#     4  11  22  38  57  81 114 149 186 234 289 337
#     4  11  21  35  55  83 118 153 187 225 280 338
#     4   9  19  36  59  85 115 148 187 237 288 333
#     4  10  20  36  60  87 112 147 194 235 275 339
#     4   9  19  36  57  79 110 147 183 228 284 338
#     4  10  20  37  59  81 107 146 192 234 280 336
#
# _framework density 23.303711
#
# number of rings (size 3 to 8) (size 9 to 14) (size 15 to 20)
#    0.000    2.000    1.429    2.571    0.000    4.571 
#    0.000    8.571    0.000    1.714    0.000    0.000 
#    0.000    0.000    0.000    0.000    0.000    0.000 
#
# Total GULP energy -156550.246481 kJ/mol
# GULP energy per Si atom -5591.080231 kJ/mol
# Density = 2.325067 g / cm^3
# Si number density = 23.303711 Si / 1000 Ang^3
#
#
#
# Elastic Constant Matrix: (Units=GPa)
#
#
# Indices 1 2 3 4 5 6 
#
# 1 116.2509 -3.4926 1.9819 0.0000 -8.5573 0.0000
# 2 -3.4926 70.2595 -7.5230 0.0000 3.0007 0.0000
# 3 1.9819 -7.5230 42.8918 0.0000 2.0371 0.0000
# 4 0.0000 0.0000 0.0000 3.4803 0.0000 -2.9343
# 5 -8.5573 3.0007 2.0371 0.0000 34.3420 0.0000
# 6 0.0000 0.0000 0.0000 -2.9343 0.0000 10.9175
#
#
#
# Elastic Compliance Matrix: (Units=1/GPa)
#
#
# Indices 1 2 3 4 5 6 
#
# 1 0.008780 0.000294 -0.000458 0.000000 0.002189 0.000000
# 2 0.000294 0.014585 0.002609 0.000000 -0.001356 0.000000
# 3 -0.000458 0.002609 0.023877 0.000000 -0.001758 0.000000
# 4 0.000000 0.000000 0.000000 0.371520 0.000000 0.099855
# 5 0.002189 -0.001356 -0.001758 0.000000 0.029887 0.000000
# 6 0.000000 0.000000 0.000000 0.099855 0.000000 0.118435
#
#
# Mechanical properties :
#
#
# Convention : Reuss Voigt Hill
#
# Bulk Modulus (GPa) = 19.18251 23.48164 21.33208
# Shear Modulus (GPa) = 8.62707 25.64369 17.13538
#
# Velocity S-wave (km/s) = 1.92615 3.32084 2.71460
# Velocity P-wave (km/s) = 3.63265 4.98018 4.35881
#
# Compressibility (1/GPa) = 0.05213082
#
# Stress axis : x y z
#
# Youngs Moduli (GPa) = 113.89679 68.56448 41.88174
#
# Poissons Ratio (x) = -0.02015 0.01919
# Poissons Ratio (y) = -0.03347 -0.10927
# Poissons Ratio (z) = 0.05218 -0.17888
#
# Static dielectric constant tensor:
#      x y z
#    x 1.877760 0.000000 0.019680 
#    y 0.000000 1.903020 0.000000 
#    z 0.019680 0.000000 1.841450 
# 
# From -- ./inp_files/180874.got.cif
#   From: 2010.05.17/outbox.cif.g08.bks.cpg/sg12_91_cif.got.tgz:180874.got - 2010.06.03 13:09:07.
