data_PCOD9187195
_publ_section_title
;
Structure prediction by ZEFSAII (Michael W. Deem and Ramdas Pophale) SiO2 
 PCOD9187195
Probable space group: C 2/M
;
_chemical_formula_sum "Si O2"
_cell_formula_units_Z 56
_cell_length_a 13.389395
_cell_length_b 17.880930
_cell_length_c 11.251004
_cell_angle_alpha 90.000000
_cell_angle_beta 115.608333
_cell_angle_gamma 90.000000
_cell_volume 2429.058435
_symmetry_space_group_name_H-M "C 2/M"
_symmetry_group_IT_number 12
_symmetry_cell_setting 'monoclinic'
loop_
_space_group_symop_operation_xyz
x,y,z
-x,y,-z
-x,-y,-z
x,-y,z
1/2+x,1/2+y,z
1/2-x,1/2+y,-z
1/2-x,1/2-y,-z
1/2+x,1/2-y,z
loop_
_atom_site_type_symbol
_atom_site_label
_atom_site_fract_x
_atom_site_fract_y
_atom_site_fract_z
Si Si1 0.084724 0.842698 0.151561
Si Si2 0.824312 0.673086 0.323477
Si Si3 0.534535 0.203318 0.811361
Si Si4 0.479084 0.416747 0.657867
Si Si5 0.262621 0.087620 0.523922
Si Si6 0.810609 0.184114 0.205816
Si Si7 0.615149 0.911830 0.159244
O O1 0.214618 0.852718 0.193238
O O2 0.060729 0.765889 0.214804
O O3 0.053080 0.910648 0.220224
O O4 0.000000 0.838050 0.000000
O O5 0.818712 0.634291 0.447032
O O6 0.800229 0.761335 0.313566
O O7 0.936267 0.668091 0.303163
O O8 0.642398 0.259022 0.872214
O O9 0.498221 0.134319 0.875372
O O10 0.505338 0.500000 0.634491
O O11 0.367174 0.390316 0.536248
O O12 0.588319 0.368674 0.708966
O O13 0.325259 0.091803 0.680442
O O14 0.261277 0.000000 0.487395
O O15 0.701754 0.136353 0.124972
O O16 0.605202 0.000000 0.123282
#
# Coordination Sequence:
#
# PCOD9187195 Si02
#       7
#     8   8   8   8   8   8   8
#     4  10  19  35  58  83 104 138 184 228 277 332
#     4   9  19  36  53  76 110 141 178 222 276 321
#     4   9  19  37  51  79 111 141 180 224 279 318
#     4   9  18  36  54  77 111 141 176 230 279 319
#     4   9  20  35  53  78 112 145 181 228 271 316
#     4   9  19  35  53  77 108 145 183 220 273 320
#     4  11  21  36  57  82 111 152 192 223 268 330
#
# _framework density 23.054199000000001
#
# number of rings (size 3 to 8) (size 9 to 14) (size 15 to 20)
#    0.857    1.714    1.429    0.429    0.000    3.143 
#    2.571    3.571    0.000    0.429    0.000    0.000 
#    0.000    0.000    0.000    0.000    0.000    0.000 
#
# Total GULP energy -155869.859676 kJ/mol
# GULP energy per Si atom -5566.780703 kJ/mol
# Density = 2.300173 g / cm^3
# Si number density = 23.054199 Si / 1000 Ang^3
#
#
#
# Elastic Constant Matrix: (Units=GPa)
#
#
# Indices 1 2 3 4 5 6 
#
# 1 126.5362 55.3717 48.1475 0.0000 15.2581 0.0000
# 2 55.3717 121.6150 14.6339 0.0000 -2.4762 0.0000
# 3 48.1475 14.6339 61.0872 0.0000 26.7308 0.0000
# 4 0.0000 0.0000 0.0000 -6.3540 0.0000 -9.9869
# 5 15.2581 -2.4762 26.7308 0.0000 17.7340 0.0000
# 6 0.0000 0.0000 0.0000 -9.9869 0.0000 26.1736
#
#
#
# Elastic Compliance Matrix: (Units=1/GPa)
#
#
# Indices 1 2 3 4 5 6 
#
# 1 0.014057 -0.004722 -0.012829 0.000000 0.006583 0.000000
# 2 -0.004722 0.011106 -0.004098 0.000000 0.011791 0.000000
# 3 -0.012829 -0.004098 0.067222 0.000000 -0.090860 0.000000
# 4 0.000000 0.000000 0.000000 -0.098380 0.000000 -0.037538
# 5 0.006583 0.011791 -0.090860 0.000000 0.189326 0.000000
# 6 0.000000 0.000000 0.000000 -0.037538 0.000000 0.023883
#
#
# Mechanical properties :
#
#
# Convention : Reuss Voigt Hill
#
# Bulk Modulus (GPa) = 20.37216 60.61607 40.49412
# Shear Modulus (GPa) = 18.73539 20.24971 19.49255
#
# Velocity S-wave (km/s) = 2.85382 2.96692 2.91092
# Velocity P-wave (km/s) = 4.44015 6.17144 5.37595
#
# Compressibility (1/GPa) = 0.04908660
#
# Stress axis : x y z
#
# Youngs Moduli (GPa) = 71.13892 90.04155 14.87611
#
# Poissons Ratio (x) = 0.42522 0.19084
# Poissons Ratio (y) = 0.33595 0.06096
# Poissons Ratio (z) = 0.91263 0.36897
#
# Static dielectric constant tensor:
#      x y z
#    x 1.922710 0.000000 -0.001060 
#    y 0.000000 1.894320 0.000000 
#    z -0.001060 0.000000 1.897870 
# 
# From -- ./inp_files/133284.got.cif
#   From: 2010.05.17/outbox.cif.g08.bks.cpg/sg12_67_cif.got.tgz:133284.got - 2010.06.03 13:09:07.
