data_PCOD9187266
_publ_section_title
;
Structure prediction by ZEFSAII (Michael W. Deem and Ramdas Pophale) SiO2 
 PCOD9187266
Probable space group: C 2/M
;
_chemical_formula_sum "Si O2"
_cell_formula_units_Z 56
_cell_length_a 29.059246
_cell_length_b 8.649161
_cell_length_c 17.967722
_cell_angle_alpha 90.000000
_cell_angle_beta 137.061158
_cell_angle_gamma 90.000000
_cell_volume 3076.359058
_symmetry_space_group_name_H-M "C 2/M"
_symmetry_group_IT_number 12
_symmetry_cell_setting 'monoclinic'
loop_
_space_group_symop_operation_xyz
x,y,z
-x,y,-z
-x,-y,-z
x,-y,z
1/2+x,1/2+y,z
1/2-x,1/2+y,-z
1/2-x,1/2-y,-z
1/2+x,1/2-y,z
loop_
_atom_site_type_symbol
_atom_site_label
_atom_site_fract_x
_atom_site_fract_y
_atom_site_fract_z
Si Si1 0.941320 0.316213 0.159375
Si Si2 0.912181 0.185885 0.660370
Si Si3 0.871534 0.185741 0.934433
Si Si4 0.820314 0.184697 0.114685
Si Si5 0.278804 0.315164 0.229047
Si Si6 0.851772 0.812499 0.745222
Si Si7 0.803612 0.314164 0.416339
O O1 0.944019 0.500000 0.163426
O O2 0.882293 0.258503 0.144156
O O3 0.013067 0.246107 0.266885
O O4 0.921560 0.258075 0.053429
O O5 0.889979 0.240031 0.716825
O O6 0.858231 0.248306 0.537534
O O7 0.911536 0.000000 0.658502
O O8 0.795218 0.237538 0.864043
O O9 0.881885 0.235317 0.860763
O O10 0.875869 0.000000 0.943676
O O11 0.819708 0.217470 0.202204
O O12 0.821604 0.000000 0.105479
O O13 0.750000 0.250000 0.000000
O O14 0.269763 0.500000 0.224140
O O15 0.312495 0.250376 0.343575
O O16 0.772739 0.767279 0.650249
O O17 0.853114 0.000000 0.746802
O O18 0.806269 0.500000 0.418287
#
# Coordination Sequence:
#
# PCOD9187266 Si02
#       7
#     8   8   8   8   8   8   8
#     4  12  25  39  55  82 119 155 194 235 286 347
#     4  11  22  39  59  81 114 155 196 239 288 337
#     4  10  19  35  58  85 116 149 189 236 289 341
#     4  11  22  37  61  89 117 148 188 234 285 341
#     4  10  20  35  58  89 117 145 186 235 284 337
#     4   8  18  35  59  87 113 148 192 237 285 341
#     4  10  20  37  60  87 117 150 191 235 283 339
#
# _framework density 18.203337000000001
#
# number of rings (size 3 to 8) (size 9 to 14) (size 15 to 20)
#    0.000    1.714    1.429    4.714    0.000    2.286 
#    0.000   11.429    0.000    4.286    0.000    0.000 
#    0.000    0.000    0.000    0.000    0.000    0.000 
#
# Total GULP energy -156418.979084 kJ/mol
# GULP energy per Si atom -5586.392110 kJ/mol
# Density = 1.816191 g / cm^3
# Si number density = 18.203337 Si / 1000 Ang^3
#
#
#
# Elastic Constant Matrix: (Units=GPa)
#
#
# Indices 1 2 3 4 5 6 
#
# 1 96.9574 30.9600 26.3930 0.0000 -4.4637 0.0000
# 2 30.9600 69.4561 10.0287 0.0000 -7.3060 0.0000
# 3 26.3930 10.0287 5.0833 0.0000 0.0896 0.0000
# 4 0.0000 0.0000 0.0000 34.5191 0.0000 -1.6442
# 5 -4.4637 -7.3060 0.0896 0.0000 18.7690 0.0000
# 6 0.0000 0.0000 0.0000 -1.6442 0.0000 20.4838
#
#
#
# Elastic Compliance Matrix: (Units=1/GPa)
#
#
# Indices 1 2 3 4 5 6 
#
# 1 -0.018948 -0.009365 0.117007 0.000000 -0.008710 0.000000
# 2 -0.009365 0.016791 0.015423 0.000000 0.004235 0.000000
# 3 0.117007 0.015423 -0.441850 0.000000 0.035939 0.000000
# 4 0.000000 0.000000 0.000000 0.029081 0.000000 0.002334
# 5 -0.008710 0.004235 0.035939 0.000000 0.052685 0.000000
# 6 0.000000 0.000000 0.000000 0.002334 0.000000 0.049006
#
#
# Mechanical properties :
#
#
# Convention : Reuss Voigt Hill
#
# Bulk Modulus (GPa) = -5.05364 34.02891 14.48763
# Shear Modulus (GPa) = -7.99585 21.69538 6.84976
#
# Velocity S-wave (km/s) = -2.09811 3.45604 1.94193
# Velocity P-wave (km/s) = 2.94137 5.88727 3.60613
#
# Compressibility (1/GPa) = -0.19787719
#
# Stress axis : x y z
#
# Youngs Moduli (GPa) = -52.77688 59.55737 -2.26321
#
# Poissons Ratio (x) = 0.55774 0.26481
# Poissons Ratio (y) = -0.49424 0.03490
# Poissons Ratio (z) = 6.17527 -0.91853
#
# Static dielectric constant tensor:
#      x y z
#    x 1.624230 0.000000 -0.021100 
#    y 0.000000 1.610860 0.000000 
#    z -0.021100 0.000000 1.600180 
# 
# From -- ./inp_files/292381.got.cif
#   From: 2010.05.17/outbox.cif.g08.bks.cpg/sg12_147_cif.got.tgz:292381.got - 2010.06.03 13:09:07.
