data_PCOD9187049
_publ_section_title
;
Structure prediction by ZEFSAII (Michael W. Deem and Ramdas Pophale) SiO2 
 PCOD9187049
Probable space group: C 2/M
;
_chemical_formula_sum "Si O2"
_cell_formula_units_Z 56
_cell_length_a 30.041810
_cell_length_b 7.503591
_cell_length_c 13.102990
_cell_angle_alpha 90.000000
_cell_angle_beta 56.591026
_cell_angle_gamma 90.000000
_cell_volume 2465.631324
_symmetry_space_group_name_H-M "C 2/M"
_symmetry_group_IT_number 12
_symmetry_cell_setting 'monoclinic'
loop_
_space_group_symop_operation_xyz
x,y,z
-x,y,-z
-x,-y,-z
x,-y,z
1/2+x,1/2+y,z
1/2-x,1/2+y,-z
1/2-x,1/2-y,-z
1/2+x,1/2-y,z
loop_
_atom_site_type_symbol
_atom_site_label
_atom_site_fract_x
_atom_site_fract_y
_atom_site_fract_z
Si Si1 0.407583 0.707625 0.345743
Si Si2 0.126416 0.202860 0.025347
Si Si3 0.713272 0.789131 0.448847
Si Si4 0.447428 0.718118 0.505968
Si Si5 0.562288 0.282892 0.913762
Si Si6 0.645447 0.718574 0.224266
Si Si7 0.744160 0.794293 0.826617
O O1 0.422900 0.500000 0.318599
O O2 0.345915 0.717842 0.455874
O O3 0.441852 0.781878 0.396685
O O4 0.415732 0.783623 0.222597
O O5 0.093800 0.284787 0.973050
O O6 0.188453 0.199515 0.915787
O O7 0.106278 0.000000 0.062339
O O8 0.124818 0.281667 0.140628
O O9 0.750000 0.750000 0.500000
O O10 0.738560 0.713890 0.313463
O O11 0.709450 0.000000 0.440294
O O12 0.500000 0.774706 0.500000
O O13 0.447858 0.500000 0.503261
O O14 0.395030 0.770957 0.635542
O O15 0.568626 0.500000 0.906445
O O16 0.500000 0.242978 0.000000
O O17 0.646969 0.500000 0.221199
O O18 0.705533 0.777018 0.172987
O O19 0.735651 0.000000 0.865862
#
# Coordination Sequence:
#
# PCOD9187049 Si02
#       7
#     8   8   8   8   8   8   8
#     4  10  19  35  57  83 117 150 189 238 288 340
#     4  10  20  34  54  81 114 150 192 236 285 342
#     4  12  24  38  59  85 115 151 189 232 286 345
#     4   9  17  29  52  84 112 146 194 245 292 334
#     4   9  19  33  53  83 113 143 182 233 283 330
#     4   9  18  32  52  81 114 148 188 237 285 336
#     4  11  21  37  57  82 115 148 188 236 288 345
#
# _framework density 22.712235
#
# number of rings (size 3 to 8) (size 9 to 14) (size 15 to 20)
#    0.000    2.000    1.429    3.000    2.000    1.143 
#    0.000    0.714    0.000    2.143    0.000    0.000 
#    0.000    0.000    0.000    0.000    0.000    0.000 
#
# Total GULP energy -156534.808449 kJ/mol
# GULP energy per Si atom -5590.528873 kJ/mol
# Density = 2.266054 g / cm^3
# Si number density = 22.712235 Si / 1000 Ang^3
#
#
#
# Elastic Constant Matrix: (Units=GPa)
#
#
# Indices 1 2 3 4 5 6 
#
# 1 150.7725 -1.0408 27.8420 0.0000 44.5325 0.0000
# 2 -1.0408 68.4241 -1.0518 0.0000 7.5907 0.0000
# 3 27.8420 -1.0518 82.2466 0.0000 35.6872 0.0000
# 4 0.0000 0.0000 0.0000 -4.3917 0.0000 0.2888
# 5 44.5325 7.5907 35.6872 0.0000 41.3206 0.0000
# 6 0.0000 0.0000 0.0000 0.2888 0.0000 -22.7336
#
#
#
# Elastic Compliance Matrix: (Units=1/GPa)
#
#
# Indices 1 2 3 4 5 6 
#
# 1 0.010120 0.001657 0.002335 0.000000 -0.013227 0.000000
# 2 0.001657 0.015445 0.002627 0.000000 -0.006892 0.000000
# 3 0.002335 0.002627 0.020317 0.000000 -0.020546 0.000000
# 4 0.000000 0.000000 0.000000 -0.227894 0.000000 -0.002895
# 5 -0.013227 -0.006892 -0.020546 0.000000 0.057467 0.000000
# 6 0.000000 0.000000 0.000000 -0.002895 0.000000 -0.044025
#
#
# Mechanical properties :
#
#
# Convention : Reuss Voigt Hill
#
# Bulk Modulus (GPa) = 16.91486 39.21577 28.06532
# Shear Modulus (GPa) = -30.84483 21.21866 -4.81309
#
# Velocity S-wave (km/s) = -3.68920 3.05985 -1.45731
# Velocity P-wave (km/s) = 3.26853 5.45778 3.09064
#
# Compressibility (1/GPa) = 0.05911962
#
# Stress axis : x y z
#
# Youngs Moduli (GPa) = 98.81803 64.74621 49.22056
#
# Poissons Ratio (x) = -0.10730 -0.11492
# Poissons Ratio (y) = -0.16376 -0.12931
# Poissons Ratio (z) = -0.23073 -0.17009
#
# Static dielectric constant tensor:
#      x y z
#    x 1.806210 0.000000 0.038990 
#    y 0.000000 1.867160 0.000000 
#    z 0.038990 0.000000 1.800610 
# 
# From -- ./inp_files/187204.got.cif
#   From: 2010.05.17/outbox.cif.g08.bks.cpg/sg12_94_cif.got.tgz:187204.got - 2010.06.03 13:09:07.
