data_PCOD9187622
_publ_section_title
;
Structure prediction by ZEFSAII (Michael W. Deem and Ramdas Pophale) SiO2 
 PCOD9187622
Probable space group: C 2/M
;
_chemical_formula_sum "Si O2"
_cell_formula_units_Z 56
_cell_length_a 24.409731
_cell_length_b 9.175349
_cell_length_c 17.121860
_cell_angle_alpha 90.000000
_cell_angle_beta 48.976473
_cell_angle_gamma 90.000000
_cell_volume 2893.085741
_symmetry_space_group_name_H-M "C 2/M"
_symmetry_group_IT_number 12
_symmetry_cell_setting 'monoclinic'
loop_
_space_group_symop_operation_xyz
x,y,z
-x,y,-z
-x,-y,-z
x,-y,z
1/2+x,1/2+y,z
1/2-x,1/2+y,-z
1/2-x,1/2-y,-z
1/2+x,1/2-y,z
loop_
_atom_site_type_symbol
_atom_site_label
_atom_site_fract_x
_atom_site_fract_y
_atom_site_fract_z
Si Si1 0.050437 0.827176 0.314388
Si Si2 0.313795 0.672081 0.698269
Si Si3 0.912212 0.173407 0.189212
Si Si4 0.564656 0.677207 0.121344
Si Si5 0.095480 0.330396 0.516607
Si Si6 0.168085 0.826019 0.892176
Si Si7 0.820599 0.669246 0.402506
O O1 0.123351 0.808067 0.295622
O O2 0.061810 0.777544 0.214191
O O3 0.982947 0.743890 0.415702
O O4 0.032855 0.000000 0.329768
O O5 0.304046 0.500000 0.693696
O O6 0.345247 0.749134 0.591745
O O7 0.239788 0.743507 0.797715
O O8 0.893964 0.195471 0.115706
O O9 0.852263 0.254852 0.296552
O O10 0.991222 0.221554 0.144994
O O11 0.906591 0.000000 0.209574
O O12 0.565991 0.500000 0.119363
O O13 0.634460 0.723937 0.005995
O O14 0.092656 0.500000 0.497077
O O15 0.120338 0.320199 0.583420
O O16 0.182968 0.000000 0.881338
O O17 0.804823 0.500000 0.402817
O O18 0.750000 0.750000 0.500000
#
# Coordination Sequence:
#
# PCOD9187622 Si02
#       7
#     8   8   8   8   8   8   8
#     4  10  21  39  62  86 113 151 195 234 283 344
#     4  11  24  39  57  84 117 154 194 235 285 343
#     4  10  19  35  60  86 113 148 191 234 281 338
#     4   9  18  36  62  87 114 149 191 238 284 335
#     4  11  23  39  59  85 115 148 191 239 288 341
#     4  10  21  37  59  88 117 150 194 237 281 337
#     4  11  23  36  54  83 117 151 188 230 282 342
#
# _framework density 19.356494999999999
#
# number of rings (size 3 to 8) (size 9 to 14) (size 15 to 20)
#    0.000    1.714    1.429    3.000    0.000   10.857 
#    0.000    1.429    0.000    1.714    0.000    0.000 
#    0.000    0.000    0.000    0.000    0.000    0.000 
#
# Total GULP energy -156463.583270 kJ/mol
# GULP energy per Si atom -5587.985117 kJ/mol
# Density = 1.931244 g / cm^3
# Si number density = 19.356495 Si / 1000 Ang^3
#
#
#
# Elastic Constant Matrix: (Units=GPa)
#
#
# Indices 1 2 3 4 5 6 
#
# 1 29.3411 20.3834 -2.7284 -0.0002 -2.7127 0.0000
# 2 20.3834 43.0004 22.0672 -0.0006 1.2130 0.0001
# 3 -2.7284 22.0672 104.7657 -0.0004 1.5750 0.0001
# 4 -0.0002 -0.0006 -0.0004 28.0481 0.0001 -4.2602
# 5 -2.7127 1.2130 1.5750 0.0001 20.8957 0.0000
# 6 0.0000 0.0001 0.0001 -4.2602 0.0000 23.9402
#
#
#
# Elastic Compliance Matrix: (Units=1/GPa)
#
#
# Indices 1 2 3 4 5 6 
#
# 1 0.057669 -0.031714 0.008051 0.000000 0.008721 0.000000
# 2 -0.031714 0.043540 -0.009908 0.000001 -0.005898 0.000000
# 3 0.008051 -0.009908 0.011831 0.000000 0.000729 0.000000
# 4 0.000000 0.000001 0.000000 0.036643 0.000000 0.006521
# 5 0.008721 -0.005898 0.000729 0.000000 0.049276 0.000000
# 6 0.000000 0.000000 0.000000 0.006521 0.000000 0.042931
#
#
# Mechanical properties :
#
#
# Convention : Reuss Voigt Hill
#
# Bulk Modulus (GPa) = 21.78816 28.50574 25.14695
# Shear Modulus (GPa) = 15.41624 23.73580 19.57602
#
# Velocity S-wave (km/s) = 2.82518 3.50558 3.18361
# Velocity P-wave (km/s) = 4.68219 5.58069 5.15107
#
# Compressibility (1/GPa) = 0.04589649
#
# Stress axis : x y z
#
# Youngs Moduli (GPa) = 17.34038 22.96723 84.52469
#
# Poissons Ratio (x) = 0.72839 -0.68050
# Poissons Ratio (y) = 0.54994 0.83750
# Poissons Ratio (z) = -0.13961 0.22757
#
# Static dielectric constant tensor:
#      x y z
#    x 1.688770 0.000000 0.013380 
#    y 0.000000 1.649930 0.000000 
#    z 0.013380 0.000000 1.644560 
# 
# From -- ./inp_files/288380.got.cif
#   From: 2010.05.17/outbox.cif.g08.bks.cpg/sg12_145_cif.got.tgz:288380.got - 2010.06.03 13:09:07.
