data_PCOD9187544
_publ_section_title
;
Structure prediction by ZEFSAII (Michael W. Deem and Ramdas Pophale) SiO2 
 PCOD9187544
Probable space group: C 2/M
;
_chemical_formula_sum "Si O2"
_cell_formula_units_Z 48
_cell_length_a 16.892480
_cell_length_b 22.892242
_cell_length_c 7.245372
_cell_angle_alpha 90.000000
_cell_angle_beta 47.118397
_cell_angle_gamma 90.000000
_cell_volume 2053.076033
_symmetry_space_group_name_H-M "C 2/M"
_symmetry_group_IT_number 12
_symmetry_cell_setting 'monoclinic'
loop_
_space_group_symop_operation_xyz
x,y,z
-x,y,-z
-x,-y,-z
x,-y,z
1/2+x,1/2+y,z
1/2-x,1/2+y,-z
1/2-x,1/2-y,-z
1/2+x,1/2-y,z
loop_
_atom_site_type_symbol
_atom_site_label
_atom_site_fract_x
_atom_site_fract_y
_atom_site_fract_z
Si Si1 0.665538 0.620780 0.205636
Si Si2 0.912257 0.000000 0.840341
Si Si3 0.777371 0.395141 0.493861
Si Si4 0.399714 0.687496 0.021588
Si Si5 0.376316 0.932381 0.702210
Si Si6 0.151444 0.000000 0.622453
Si Si7 0.781737 0.705059 0.284518
O O1 0.619663 0.555675 0.232525
O O2 0.686441 0.668069 0.337332
O O3 0.585752 0.655481 0.193691
O O4 0.791006 0.609475 0.940510
O O5 0.035303 0.000000 0.714493
O O6 0.857999 0.000000 0.134955
O O7 0.685035 0.356662 0.742694
O O8 0.841608 0.429714 0.544248
O O9 0.716486 0.442273 0.465232
O O10 0.846979 0.347825 0.274803
O O11 0.348963 0.750551 0.055144
O O12 0.500000 0.693335 0.000000
O O13 0.500000 0.913064 0.500000
O O14 0.369496 0.000000 0.779740
O O15 0.750000 0.750000 0.500000
#
# Coordination Sequence:
#
# PCOD9187544 Si02
#       7
#     8   4   8   8   8   4   8
#     4  11  20  39  63  93 126 166 210 266 321 383
#     4  11  20  33  65 103 120 158 207 258 327 404
#     4  10  19  37  57  87 123 164 197 264 322 380
#     4  10  20  38  63  88 117 162 214 266 315 376
#     4  10  19  35  59  89 121 159 208 257 320 385
#     4  11  18  35  63  95 130 156 197 252 341 392
#     4  10  24  40  56  81 125 171 220 257 310 362
#
# _framework density 23.379553000000001
#
# number of rings (size 3 to 8) (size 9 to 14) (size 15 to 20)
#    0.000    1.667    5.000    1.500    0.000    2.000 
#    0.000    8.333    0.000    4.000    0.000    0.000 
#    0.000    0.000    0.000    0.000    0.000    0.000 
#
# Total GULP energy -133638.787957 kJ/mol
# GULP energy per Si atom -5568.282832 kJ/mol
# Density = 2.332634 g / cm^3
# Si number density = 23.379553 Si / 1000 Ang^3
#
#
#
# Elastic Constant Matrix: (Units=GPa)
#
#
# Indices 1 2 3 4 5 6 
#
# 1 152.8884 58.6750 28.8827 0.0000 -6.9202 0.0000
# 2 58.6750 182.4498 29.0289 0.0000 3.5537 0.0000
# 3 28.8827 29.0289 34.3782 0.0000 0.3299 0.0000
# 4 0.0000 0.0000 0.0000 3.2377 0.0000 0.6150
# 5 -6.9202 3.5537 0.3299 0.0000 39.2328 0.0000
# 6 0.0000 0.0000 0.0000 0.6150 0.0000 17.6029
#
#
#
# Elastic Compliance Matrix: (Units=1/GPa)
#
#
# Indices 1 2 3 4 5 6 
#
# 1 0.008362 -0.001850 -0.005479 0.000000 0.001689 0.000000
# 2 -0.001850 0.006752 -0.004138 0.000000 -0.000903 0.000000
# 3 -0.005479 -0.004138 0.037195 0.000000 -0.000904 0.000000
# 4 0.000000 0.000000 0.000000 0.310925 0.000000 -0.010862
# 5 0.001689 -0.000903 -0.000904 0.000000 0.025876 0.000000
# 6 0.000000 0.000000 0.000000 -0.010862 0.000000 0.057188
#
#
# Mechanical properties :
#
#
# Convention : Reuss Voigt Hill
#
# Bulk Modulus (GPa) = 34.04466 66.98774 50.51620
# Shear Modulus (GPa) = 10.43785 28.89000 19.66393
#
# Velocity S-wave (km/s) = 2.11523 3.51906 2.90327
# Velocity P-wave (km/s) = 4.53420 6.72504 5.73520
#
# Compressibility (1/GPa) = 0.02937318
#
# Stress axis : x y z
#
# Youngs Moduli (GPa) = 119.58249 148.10343 26.88568
#
# Poissons Ratio (x) = 0.27405 0.14732
# Poissons Ratio (y) = 0.22128 0.11126
# Poissons Ratio (z) = 0.65524 0.61287
#
# Static dielectric constant tensor:
#      x y z
#    x 1.914780 0.000000 0.085010 
#    y 0.000000 1.877370 0.000000 
#    z 0.085010 0.000000 2.057120 
# 
# From -- ./inp_files/78667.got.cif
#   From: 2010.05.17/outbox.cif.g08.bks.cpg/sg12_40_cif.got.tgz:78667.got - 2010.06.03 13:09:07.
