data_PCOD9187657
_publ_section_title
;
Structure prediction by ZEFSAII (Michael W. Deem and Ramdas Pophale) SiO2 
 PCOD9187657
Probable space group: C 2/M
;
_chemical_formula_sum "Si O2"
_cell_formula_units_Z 40
_cell_length_a 19.209097
_cell_length_b 11.766372
_cell_length_c 12.119011
_cell_angle_alpha 90.000000
_cell_angle_beta 43.806674
_cell_angle_gamma 90.000000
_cell_volume 1896.118129
_symmetry_space_group_name_H-M "C 2/M"
_symmetry_group_IT_number 12
_symmetry_cell_setting 'monoclinic'
loop_
_space_group_symop_operation_xyz
x,y,z
-x,y,-z
-x,-y,-z
x,-y,z
1/2+x,1/2+y,z
1/2-x,1/2+y,-z
1/2-x,1/2-y,-z
1/2+x,1/2-y,z
loop_
_atom_site_type_symbol
_atom_site_label
_atom_site_fract_x
_atom_site_fract_y
_atom_site_fract_z
Si Si1 0.941919 0.788662 0.960479
Si Si2 0.884662 0.307706 0.598180
Si Si3 0.101250 0.627443 0.666250
Si Si4 0.275631 0.131163 0.265894
Si Si5 0.739339 0.375734 0.955595
O O1 0.019903 0.721324 0.794296
O O2 0.864485 0.696965 0.101184
O O3 0.871327 0.870960 0.971853
O O4 0.000000 0.838980 0.000000
O O5 0.875694 0.364751 0.488756
O O6 0.828936 0.187469 0.647240
O O7 0.822321 0.371472 0.763929
O O8 0.000000 0.299300 0.500000
O O9 0.062203 0.500000 0.736265
O O10 0.197608 0.644009 0.635072
O O11 0.278205 0.000000 0.236217
O O12 0.751045 0.500000 0.999923
O O13 0.750000 0.250000 0.000000
#
# Coordination Sequence:
#
# PCOD9187657 Si02
#       5
#     8   8   8   8   8
#     4   9  19  37  62  90 117 149 194 242 291 350
#     4  11  23  37  56  84 117 153 197 247 295 347
#     4  10  19  35  60  87 117 154 197 244 292 348
#     4   9  19  36  58  85 119 158 197 239 291 350
#     4  11  25  43  63  87 118 158 200 245 298 355
#
# _framework density 21.095732000000002
#
# number of rings (size 3 to 8) (size 9 to 14) (size 15 to 20)
#    0.000    2.000    0.000    3.000    0.000   10.400 
#    0.000    3.000    0.000    0.000    0.000    0.000 
#    0.000    0.000    0.000    0.000    0.000    0.000 
#
# Total GULP energy -111634.036440 kJ/mol
# GULP energy per Si atom -5581.701822 kJ/mol
# Density = 2.104772 g / cm^3
# Si number density = 21.095732 Si / 1000 Ang^3
#
#
#
# Elastic Constant Matrix: (Units=GPa)
#
#
# Indices 1 2 3 4 5 6 
#
# 1 87.1867 46.5456 15.8028 0.0000 2.0810 0.0000
# 2 46.5456 124.0717 17.3078 0.0000 5.5231 0.0000
# 3 15.8028 17.3078 61.5823 0.0000 17.6967 0.0000
# 4 0.0000 0.0000 0.0000 22.7319 0.0000 -33.2110
# 5 2.0810 5.5231 17.6967 0.0000 33.9692 0.0000
# 6 0.0000 0.0000 0.0000 -33.2110 0.0000 88.0976
#
#
#
# Elastic Compliance Matrix: (Units=1/GPa)
#
#
# Indices 1 2 3 4 5 6 
#
# 1 0.014702 -0.005199 -0.002700 0.000000 0.001351 0.000000
# 2 -0.005199 0.010228 -0.001357 0.000000 -0.000637 0.000000
# 3 -0.002700 -0.001357 0.020230 0.000000 -0.010153 0.000000
# 4 0.000000 0.000000 0.000000 0.097923 0.000000 0.036915
# 5 0.001351 -0.000637 -0.010153 0.000000 0.034749 0.000000
# 6 0.000000 0.000000 0.000000 0.036915 0.000000 0.025267
#
#
# Mechanical properties :
#
#
# Convention : Reuss Voigt Hill
#
# Bulk Modulus (GPa) = 37.52588 48.01699 42.77144
# Shear Modulus (GPa) = 21.69242 41.83872 31.76557
#
# Velocity S-wave (km/s) = 3.21017 4.45823 3.88465
# Velocity P-wave (km/s) = 5.61847 7.02225 6.35922
#
# Compressibility (1/GPa) = 0.02664828
#
# Stress axis : x y z
#
# Youngs Moduli (GPa) = 68.01638 97.77066 49.43050
#
# Poissons Ratio (x) = 0.50832 0.13346
# Poissons Ratio (y) = 0.35362 0.06709
# Poissons Ratio (z) = 0.18363 0.13270
#
# Static dielectric constant tensor:
#      x y z
#    x 1.801110 0.000000 0.041900 
#    y 0.000000 1.773580 0.000000 
#    z 0.041900 0.000000 1.739050 
# 
# From -- ./inp_files/165377.got.cif
#   From: 2010.05.17/outbox.cif.g08.bks.cpg/sg12_83_cif.got.tgz:165377.got - 2010.06.03 13:09:07.
