data_PCOD9187888
_publ_section_title
;
Structure prediction by ZEFSAII (Michael W. Deem and Ramdas Pophale) SiO2 
 PCOD9187888
Probable space group: C 2/M
;
_chemical_formula_sum "Si O2"
_cell_formula_units_Z 64
_cell_length_a 14.676932
_cell_length_b 23.635112
_cell_length_c 10.422293
_cell_angle_alpha 90.000000
_cell_angle_beta 69.089422
_cell_angle_gamma 90.000000
_cell_volume 3377.283683
_symmetry_space_group_name_H-M "C 2/M"
_symmetry_group_IT_number 12
_symmetry_cell_setting 'monoclinic'
loop_
_space_group_symop_operation_xyz
x,y,z
-x,y,-z
-x,-y,-z
x,-y,z
1/2+x,1/2+y,z
1/2-x,1/2+y,-z
1/2-x,1/2-y,-z
1/2+x,1/2-y,z
loop_
_atom_site_type_symbol
_atom_site_label
_atom_site_fract_x
_atom_site_fract_y
_atom_site_fract_z
Si Si1 0.569820 0.354954 0.092131
Si Si2 0.257514 0.434001 0.083271
Si Si3 0.442471 0.363132 0.408776
Si Si4 0.026036 0.266201 0.133605
Si Si5 0.366096 0.759017 0.425574
Si Si6 0.773582 0.935585 0.378227
Si Si7 0.422146 0.889686 0.429035
Si Si8 0.547708 0.108891 0.118551
O O1 0.508272 0.370061 0.248894
O O2 0.592724 0.288976 0.109328
O O3 0.500000 0.357982 0.000000
O O4 0.663495 0.393599 0.023543
O O5 0.284063 0.500000 0.054234
O O6 0.262065 0.420537 0.233445
O O7 0.148057 0.424719 0.085745
O O8 0.500000 0.387727 0.500000
O O9 0.414153 0.298040 0.459005
O O10 0.344521 0.394476 0.418764
O O11 0.923142 0.258108 0.259719
O O12 0.073448 0.325786 0.143434
O O13 0.000000 0.271511 0.000000
O O14 0.250000 0.750000 0.500000
O O15 0.391952 0.822792 0.457594
O O16 0.669775 0.928111 0.495832
O O17 0.808942 0.000000 0.366552
O O18 0.500000 0.900647 0.500000
O O19 0.467708 0.904086 0.267774
O O20 0.500000 0.104309 0.000000
#
# Coordination Sequence:
#
# PCOD9187888 Si02
#       8
#     8   8   8   8   8   8   8   8
#     4  10  20  39  64  88 120 161 206 249 300 367
#     4  11  24  41  64  91 118 165 219 253 297 364
#     4  11  23  41  61  94 130 157 199 263 317 361
#     4   8  18  35  58  90 124 158 196 245 313 370
#     4  10  19  35  62  90 125 162 202 249 310 380
#     4  11  24  41  64  92 120 164 217 257 305 366
#     4  11  21  38  64  92 122 164 207 254 309 371
#     4  10  22  41  61  90 128 157 199 258 314 364
#
# _framework density 18.950139
#
# number of rings (size 3 to 8) (size 9 to 14) (size 15 to 20)
#    0.000    1.750    3.750    0.375    0.000    3.500 
#    2.250    1.250    0.000    0.000    0.000    0.000 
#    0.000    0.000    0.000    0.000    0.000    0.000 
#
# Total GULP energy -178246.211666 kJ/mol
# GULP energy per Si atom -5570.194115 kJ/mol
# Density = 1.890701 g / cm^3
# Si number density = 18.950139 Si / 1000 Ang^3
#
#
#
# Elastic Constant Matrix: (Units=GPa)
#
#
# Indices 1 2 3 4 5 6 
#
# 1 79.9644 16.9640 33.8427 0.0000 6.1549 0.0000
# 2 16.9640 40.8376 23.9088 0.0000 -9.0339 0.0000
# 3 33.8427 23.9088 81.7998 0.0000 0.3180 0.0000
# 4 0.0000 0.0000 0.0000 16.2684 0.0000 6.3045
# 5 6.1549 -9.0339 0.3180 0.0000 30.3584 0.0000
# 6 0.0000 0.0000 0.0000 6.3045 0.0000 -30.2167
#
#
#
# Elastic Compliance Matrix: (Units=1/GPa)
#
#
# Indices 1 2 3 4 5 6 
#
# 1 0.016069 -0.004589 -0.005289 0.000000 -0.004568 0.000000
# 2 -0.004589 0.033459 -0.007924 0.000000 0.010970 0.000000
# 3 -0.005289 -0.007924 0.016735 0.000000 -0.001461 0.000000
# 4 0.000000 0.000000 0.000000 0.056871 0.000000 0.011866
# 5 -0.004568 0.010970 -0.001461 0.000000 0.037146 0.000000
# 6 0.000000 0.000000 0.000000 0.011866 0.000000 -0.030619
#
#
# Mechanical properties :
#
#
# Convention : Reuss Voigt Hill
#
# Bulk Modulus (GPa) = 32.61626 39.11476 35.86551
# Shear Modulus (GPa) = 28.49250 11.80778 20.15014
#
# Velocity S-wave (km/s) = 3.88177 2.49890 3.26440
# Velocity P-wave (km/s) = 6.11063 5.38625 5.75984
#
# Compressibility (1/GPa) = 0.03065955
#
# Stress axis : x y z
#
# Youngs Moduli (GPa) = 62.23083 29.88703 59.75546
#
# Poissons Ratio (x) = 0.13715 0.31606
# Poissons Ratio (y) = 0.28558 0.47348
# Poissons Ratio (z) = 0.32915 0.23681
#
# Static dielectric constant tensor:
#      x y z
#    x 1.788340 0.000000 0.012960 
#    y 0.000000 1.720610 0.000000 
#    z 0.012960 0.000000 1.631620 
# 
# From -- ./inp_files/135938.got.cif
#   From: 2010.05.17/outbox.cif.g08.bks.cpg/sg12_68_cif.got.tgz:135938.got - 2010.06.03 13:09:07.
