data_PCOD9187497
_publ_section_title
;
Structure prediction by ZEFSAII (Michael W. Deem and Ramdas Pophale) SiO2 
 PCOD9187497
Probable space group: C 2/M
;
_chemical_formula_sum "Si O2"
_cell_formula_units_Z 64
_cell_length_a 12.394934
_cell_length_b 30.885524
_cell_length_c 18.569335
_cell_angle_alpha 90.000000
_cell_angle_beta 151.704148
_cell_angle_gamma 90.000000
_cell_volume 3369.739277
_symmetry_space_group_name_H-M "C 2/M"
_symmetry_group_IT_number 12
_symmetry_cell_setting 'monoclinic'
loop_
_space_group_symop_operation_xyz
x,y,z
-x,y,-z
-x,-y,-z
x,-y,z
1/2+x,1/2+y,z
1/2-x,1/2+y,-z
1/2-x,1/2-y,-z
1/2+x,1/2-y,z
loop_
_atom_site_type_symbol
_atom_site_label
_atom_site_fract_x
_atom_site_fract_y
_atom_site_fract_z
Si Si1 0.059109 0.633083 0.318051
Si Si2 0.552756 0.950744 0.653987
Si Si3 0.205038 0.201293 0.911251
Si Si4 0.465516 0.354618 0.662347
Si Si5 0.646984 0.433089 0.307366
Si Si6 0.372294 0.954137 0.001556
Si Si7 0.688914 0.701532 0.054809
Si Si8 0.400825 0.866739 0.823190
O O1 0.249097 0.650719 0.484322
O O2 0.161544 0.634279 0.297593
O O3 0.983479 0.586188 0.306255
O O4 0.847002 0.665336 0.183285
O O5 0.326662 0.951695 0.470793
O O6 0.747686 0.937476 0.710466
O O7 0.594252 0.000000 0.704788
O O8 0.196644 0.253082 0.899053
O O9 0.072478 0.186333 0.763380
O O10 0.093857 0.186459 0.921583
O O11 0.449514 0.175256 0.062420
O O12 0.392055 0.385092 0.685232
O O13 0.676971 0.373192 0.740098
O O14 0.398760 0.453720 0.165623
O O15 0.438832 0.000000 0.076793
O O16 0.500000 0.953459 0.000000
O O17 0.442236 0.909220 0.078570
O O18 0.500000 0.713338 0.000000
#
# Coordination Sequence:
#
# PCOD9187497 Si02
#       8
#     8   8   8   8   8   8   8   8
#     4  10  25  37  58  87 121 157 200 250 303 348
#     4  10  21  38  58  80 119 165 200 238 303 367
#     4  10  21  38  65  88 115 160 200 233 304 368
#     4  11  20  37  62  88 116 156 202 248 293 363
#     4  10  19  35  59  87 112 151 202 255 287 351
#     4  11  20  31  54  88 116 144 196 254 293 338
#     4  10  22  40  60  90 122 153 192 251 302 358
#     4  11  20  39  57  86 121 160 195 245 304 361
#
# _framework density 18.992567000000001
#
# number of rings (size 3 to 8) (size 9 to 14) (size 15 to 20)
#    0.000    1.625    2.500    3.000    1.750    1.000 
#    0.000    0.000    0.000    4.125    0.000    0.000 
#    0.000    0.000    0.000    0.000    0.000    0.000 
#
# Total GULP energy -178157.013868 kJ/mol
# GULP energy per Si atom -5567.406683 kJ/mol
# Density = 1.894934 g / cm^3
# Si number density = 18.992567 Si / 1000 Ang^3
#
#
#
# Elastic Constant Matrix: (Units=GPa)
#
#
# Indices 1 2 3 4 5 6 
#
# 1 28.9264 -22.5369 -39.1508 -0.0001 -32.1818 0.0004
# 2 -22.5369 56.2761 -34.9273 0.0000 -45.8412 0.0001
# 3 -39.1508 -34.9273 -49.3917 -0.0003 -59.5509 0.0002
# 4 -0.0001 0.0000 -0.0003 4.1682 -0.0001 -4.4982
# 5 -32.1818 -45.8412 -59.5509 -0.0001 8.7005 0.0001
# 6 0.0004 0.0001 0.0002 -4.4982 0.0001 24.8112
#
#
#
# Elastic Compliance Matrix: (Units=1/GPa)
#
#
# Indices 1 2 3 4 5 6 
#
# 1 0.017626 -0.001275 -0.009033 -0.000001 -0.003348 0.000000
# 2 -0.001275 0.012468 -0.008790 -0.000001 0.000816 0.000000
# 3 -0.009033 -0.008790 0.009646 0.000000 -0.013699 0.000000
# 4 -0.000001 -0.000001 0.000000 0.298269 -0.000001 0.054076
# 5 -0.003348 0.000816 -0.013699 -0.000001 0.013085 0.000000
# 6 0.000000 0.000000 0.000000 0.054076 0.000000 0.050108
#
#
# Mechanical properties :
#
#
# Convention : Reuss Voigt Hill
#
# Bulk Modulus (GPa) = 647.14085 -17.49103 314.82491
# Shear Modulus (GPa) = 11.36588 16.36436 13.86512
#
# Velocity S-wave (km/s) = 2.44895 2.93852 2.70484
# Velocity P-wave (km/s) = 18.69412 1.51122 13.26186
#
# Compressibility (1/GPa) = 0.00154526
#
# Stress axis : x y z
#
# Youngs Moduli (GPa) = 56.73372 80.20449 103.66814
#
# Poissons Ratio (x) = 0.10225 0.93644
# Poissons Ratio (y) = 0.07233 0.91120
# Poissons Ratio (z) = 0.51248 0.70496
#
# Static dielectric constant tensor:
#      x y z
#    x 1.692010 0.000000 -0.006670 
#    y 0.000000 1.729210 0.000000 
#    z -0.006670 0.000000 1.657730 
# 
# From -- ./inp_files/266327.got.cif
#   From: 2010.05.17/outbox.cif.g08.bks.cpg/sg12_134_cif.got.tgz:266327.got - 2010.06.03 13:09:07.
