data_PCOD9187797
_publ_section_title
;
Structure prediction by ZEFSAII (Michael W. Deem and Ramdas Pophale) SiO2 
 PCOD9187797
Probable space group: C 2/M
;
_chemical_formula_sum "Si O2"
_cell_formula_units_Z 56
_cell_length_a 24.013936
_cell_length_b 12.905722
_cell_length_c 14.906759
_cell_angle_alpha 90.000000
_cell_angle_beta 144.236166
_cell_angle_gamma 90.000000
_cell_volume 2700.057295
_symmetry_space_group_name_H-M "C 2/M"
_symmetry_group_IT_number 12
_symmetry_cell_setting 'monoclinic'
loop_
_space_group_symop_operation_xyz
x,y,z
-x,y,-z
-x,-y,-z
x,-y,z
1/2+x,1/2+y,z
1/2-x,1/2+y,-z
1/2-x,1/2-y,-z
1/2+x,1/2-y,z
loop_
_atom_site_type_symbol
_atom_site_label
_atom_site_fract_x
_atom_site_fract_y
_atom_site_fract_z
Si Si1 0.917491 0.118091 0.551097
Si Si2 0.871915 0.624567 0.946560
Si Si3 0.787158 0.375341 0.643657
Si Si4 0.869720 0.118369 0.161761
Si Si5 0.935662 0.375868 0.697632
Si Si6 0.426420 0.820306 0.477319
Si Si7 0.273100 0.217125 0.156669
O O1 0.823204 0.151320 0.481989
O O2 0.925935 0.195156 0.479493
O O3 0.021631 0.123700 0.732802
O O4 0.902248 0.000000 0.502561
O O5 0.859856 0.500000 0.940883
O O6 0.851606 0.649426 0.815544
O O7 0.794377 0.690464 0.898438
O O8 0.973349 0.653623 0.122464
O O9 0.786271 0.500000 0.636848
O O10 0.840948 0.337656 0.625237
O O11 0.851499 0.219799 0.200294
O O12 0.859957 0.000000 0.186626
O O13 0.788724 0.137994 0.982254
O O14 0.933665 0.500000 0.697110
O O15 0.943573 0.348724 0.602975
O O16 0.500000 0.861491 0.500000
O O17 0.322407 0.843231 0.302541
#
# Coordination Sequence:
#
# PCOD9187797 Si02
#       7
#     8   8   8   8   8   8   8
#     4  10  20  37  61  88 115 146 194 250 300 342
#     4  10  19  35  61  90 119 150 192 244 298 348
#     4   9  18  36  63  92 116 148 196 248 299 344
#     4  10  22  38  59  84 116 159 200 245 294 341
#     4  10  23  40  60  86 121 160 196 240 292 351
#     4  12  24  39  57  86 123 158 197 240 290 357
#     4  11  22  37  57  84 121 155 197 244 289 357
#
# _framework density 20.740300999999999
#
# number of rings (size 3 to 8) (size 9 to 14) (size 15 to 20)
#    0.000    1.714    2.857    1.714    2.000    4.000 
#    0.000    0.000    0.000    0.000    0.000    4.000 
#    0.000    0.000    0.000    0.000    0.000    0.000 
#
# Total GULP energy -156034.157977 kJ/mol
# GULP energy per Si atom -5572.648499 kJ/mol
# Density = 2.069310 g / cm^3
# Si number density = 20.740301 Si / 1000 Ang^3
#
#
#
# Elastic Constant Matrix: (Units=GPa)
#
#
# Indices 1 2 3 4 5 6 
#
# 1 145.2293 14.9835 63.7118 0.0000 13.6060 0.0000
# 2 14.9835 27.2528 25.9739 0.0000 -1.2027 0.0000
# 3 63.7118 25.9739 120.0473 0.0000 13.8535 0.0000
# 4 0.0000 0.0000 0.0000 19.1067 0.0000 -3.0661
# 5 13.6060 -1.2027 13.8535 0.0000 28.4697 0.0000
# 6 0.0000 0.0000 0.0000 -3.0661 0.0000 19.0008
#
#
#
# Elastic Compliance Matrix: (Units=1/GPa)
#
#
# Indices 1 2 3 4 5 6 
#
# 1 0.009113 -0.000945 -0.004370 0.000000 -0.002269 0.000000
# 2 -0.000945 0.047771 -0.010721 0.000000 0.007687 0.000000
# 3 -0.004370 -0.010721 0.013541 0.000000 -0.004953 0.000000
# 4 0.000000 0.000000 0.000000 0.053729 0.000000 0.008670
# 5 -0.002269 0.007687 -0.004953 0.000000 0.038944 0.000000
# 6 0.000000 0.000000 0.000000 0.008670 0.000000 0.054029
#
#
# Mechanical properties :
#
#
# Convention : Reuss Voigt Hill
#
# Bulk Modulus (GPa) = 26.07501 55.76308 40.91904
# Shear Modulus (GPa) = 19.08522 25.83943 22.46232
#
# Velocity S-wave (km/s) = 3.03677 3.53350 3.29451
# Velocity P-wave (km/s) = 4.98953 6.60244 5.85182
#
# Compressibility (1/GPa) = 0.03835090
#
# Stress axis : x y z
#
# Youngs Moduli (GPa) = 109.73489 20.93338 73.85177
#
# Poissons Ratio (x) = 0.01979 0.32274
# Poissons Ratio (y) = 0.10374 0.79178
# Poissons Ratio (z) = 0.47955 0.22443
#
# Static dielectric constant tensor:
#      x y z
#    x 1.773980 0.000000 0.016180 
#    y 0.000000 1.767870 0.000000 
#    z 0.016180 0.000000 1.811550 
# 
# From -- ./inp_files/246571.got.cif
#   From: 2010.05.17/outbox.cif.g08.bks.cpg/sg12_124_cif.got.tgz:246571.got - 2010.06.03 13:09:07.
