data_PCOD9187064
_publ_section_title
;
Structure prediction by ZEFSAII (Michael W. Deem and Ramdas Pophale) SiO2 
 PCOD9187064
Probable space group: C 2/M
;
_chemical_formula_sum "Si O2"
_cell_formula_units_Z 64
_cell_length_a 22.448131
_cell_length_b 18.020405
_cell_length_c 10.257807
_cell_angle_alpha 90.000000
_cell_angle_beta 123.256665
_cell_angle_gamma 90.000000
_cell_volume 3469.932606
_symmetry_space_group_name_H-M "C 2/M"
_symmetry_group_IT_number 12
_symmetry_cell_setting 'monoclinic'
loop_
_space_group_symop_operation_xyz
x,y,z
-x,y,-z
-x,-y,-z
x,-y,z
1/2+x,1/2+y,z
1/2-x,1/2+y,-z
1/2-x,1/2-y,-z
1/2+x,1/2-y,z
loop_
_atom_site_type_symbol
_atom_site_label
_atom_site_fract_x
_atom_site_fract_y
_atom_site_fract_z
Si Si1 0.051900 0.824827 0.439708
Si Si2 0.789237 0.410716 0.935960
Si Si3 0.025010 0.910727 0.882715
Si Si4 0.574411 0.150329 0.449864
Si Si5 0.266921 0.156163 0.397940
Si Si6 0.927112 0.587310 0.262807
Si Si7 0.785672 0.832029 0.383951
Si Si8 0.310326 0.589123 0.943915
O O1 0.055356 0.736884 0.413551
O O2 0.133679 0.846655 0.565535
O O3 0.000000 0.837182 0.500000
O O4 0.022553 0.869382 0.280869
O O5 0.785567 0.500000 0.917180
O O6 0.768845 0.371628 0.777842
O O7 0.866947 0.391854 0.086832
O O8 0.731964 0.387074 0.977518
O O9 0.020159 0.000000 0.858783
O O10 0.107359 0.887448 0.962125
O O11 0.000000 0.894328 0.000000
O O12 0.651017 0.133149 0.481631
O O13 0.507796 0.103813 0.317228
O O14 0.582370 0.131622 0.613429
O O15 0.223555 0.142822 0.477835
O O16 0.270690 0.243875 0.369689
O O17 0.231572 0.116499 0.233123
O O18 0.918699 0.500000 0.281995
O O19 0.309440 0.500000 0.941908
#
# Coordination Sequence:
#
# PCOD9187064 Si02
#       8
#     8   8   8   8   8   8   8   8
#     4  11  21  36  58  84 112 146 192 234 279 334
#     4  10  21  37  56  84 113 142 185 235 281 329
#     4  10  22  38  55  79 111 147 188 233 281 334
#     4  10  19  35  57  84 113 143 188 231 277 333
#     4  10  21  38  56  81 114 151 188 225 277 342
#     4  10  19  35  59  86 114 144 184 233 281 333
#     4  10  23  38  54  81 118 149 184 230 284 336
#     4  10  20  35  57  82 106 141 190 230 272 330
#
# _framework density 18.444161999999999
#
# number of rings (size 3 to 8) (size 9 to 14) (size 15 to 20)
#    0.000    1.875    2.500    2.250    0.000    3.250 
#    0.000    0.625    0.000    1.500    0.000    0.000 
#    0.000    0.000    0.000    0.000    0.000    0.000 
#
# Total GULP energy -178639.260711 kJ/mol
# GULP energy per Si atom -5582.476897 kJ/mol
# Density = 1.840218 g / cm^3
# Si number density = 18.444162 Si / 1000 Ang^3
#
#
#
# Elastic Constant Matrix: (Units=GPa)
#
#
# Indices 1 2 3 4 5 6 
#
# 1 63.5860 13.7628 31.6139 0.0000 15.9325 0.0000
# 2 13.7628 24.9185 34.3109 0.0000 4.8691 0.0000
# 3 31.6139 34.3109 114.0069 0.0000 12.4125 0.0000
# 4 0.0000 0.0000 0.0000 37.4970 0.0000 8.3538
# 5 15.9325 4.8691 12.4125 0.0000 29.5136 0.0000
# 6 0.0000 0.0000 0.0000 8.3538 0.0000 19.6483
#
#
#
# Elastic Compliance Matrix: (Units=1/GPa)
#
#
# Indices 1 2 3 4 5 6 
#
# 1 0.020697 -0.005329 -0.003159 0.000000 -0.008965 0.000000
# 2 -0.005329 0.070116 -0.019574 0.000000 -0.000458 0.000000
# 3 -0.003159 -0.019574 0.015721 0.000000 -0.001677 0.000000
# 4 0.000000 0.000000 0.000000 0.029459 0.000000 -0.012525
# 5 -0.008965 -0.000458 -0.001677 0.000000 0.039503 0.000000
# 6 0.000000 0.000000 0.000000 -0.012525 0.000000 0.056220
#
#
# Mechanical properties :
#
#
# Convention : Reuss Voigt Hill
#
# Bulk Modulus (GPa) = 19.83790 40.20962 30.02376
# Shear Modulus (GPa) = 16.41257 25.52005 20.96631
#
# Velocity S-wave (km/s) = 2.98627 3.72376 3.37522
# Velocity P-wave (km/s) = 4.76124 6.35111 5.61276
#
# Compressibility (1/GPa) = 0.05040857
#
# Stress axis : x y z
#
# Youngs Moduli (GPa) = 48.31526 14.26218 63.60965
#
# Poissons Ratio (x) = 0.07601 0.20096
# Poissons Ratio (y) = 0.25749 1.24508
# Poissons Ratio (z) = 0.15264 0.27917
#
# Static dielectric constant tensor:
#      x y z
#    x 1.666710 0.000000 0.015440 
#    y 0.000000 1.624860 0.000000 
#    z 0.015440 0.000000 1.590000 
# 
# From -- ./inp_files/99107.got.cif
#   From: 2010.05.17/outbox.cif.g08.bks.cpg/sg12_50_cif.got.tgz:99107.got - 2010.06.03 13:09:07.
