data_PCOD9187653
_publ_section_title
;
Structure prediction by ZEFSAII (Michael W. Deem and Ramdas Pophale) SiO2 
 PCOD9187653
Probable space group: C 2/M
;
_chemical_formula_sum "Si O2"
_cell_formula_units_Z 64
_cell_length_a 20.333221
_cell_length_b 7.695918
_cell_length_c 18.861358
_cell_angle_alpha 90.000000
_cell_angle_beta 95.385442
_cell_angle_gamma 90.000000
_cell_volume 2938.449855
_symmetry_space_group_name_H-M "C 2/M"
_symmetry_group_IT_number 12
_symmetry_cell_setting 'monoclinic'
loop_
_space_group_symop_operation_xyz
x,y,z
-x,y,-z
-x,-y,-z
x,-y,z
1/2+x,1/2+y,z
1/2-x,1/2+y,-z
1/2-x,1/2-y,-z
1/2+x,1/2-y,z
loop_
_atom_site_type_symbol
_atom_site_label
_atom_site_fract_x
_atom_site_fract_y
_atom_site_fract_z
Si Si1 0.989744 0.200847 0.787418
Si Si2 0.138097 0.209543 0.588201
Si Si3 0.001721 0.212894 0.370325
Si Si4 0.043020 0.795349 0.939056
Si Si5 0.177865 0.292817 0.021535
Si Si6 0.647516 0.287787 0.433275
Si Si7 0.761153 0.204869 0.686373
Si Si8 0.652106 0.202251 0.178329
O O1 0.911273 0.206198 0.793815
O O2 0.003201 0.276008 0.711341
O O3 0.023927 0.279843 0.860569
O O4 0.011546 0.000000 0.784997
O O5 0.062972 0.267123 0.593341
O O6 0.164479 0.271439 0.514443
O O7 0.186102 0.264319 0.656224
O O8 0.137660 0.000000 0.586561
O O9 0.072179 0.264277 0.409170
O O10 0.002543 0.000000 0.370233
O O11 0.025493 0.000000 0.933285
O O12 0.119280 0.778512 0.966792
O O13 0.000000 0.720851 0.000000
O O14 0.171121 0.500000 0.021753
O O15 0.167440 0.229289 0.101285
O O16 0.250000 0.250000 0.000000
O O17 0.650265 0.500000 0.433065
O O18 0.694689 0.226119 0.374913
O O19 0.786384 0.282823 0.762361
O O20 0.773071 0.000000 0.693254
O O21 0.634065 0.000000 0.170256
#
# Coordination Sequence:
#
# PCOD9187653 Si02
#       8
#     8   8   8   8   8   8   8   8
#     4  10  19  35  60  87 115 150 192 236 284 342
#     4  10  20  34  55  84 117 149 191 243 289 336
#     4   9  17  32  56  84 112 147 191 236 281 334
#     4  10  20  35  60  90 119 155 195 236 286 342
#     4  11  25  42  62  88 121 156 193 240 293 349
#     4   9  17  32  57  84 109 149 197 238 282 341
#     4  11  22  37  58  82 114 153 193 235 289 351
#     4  11  23  39  60  86 114 148 192 240 285 337
#
# _framework density 21.780190999999999
#
# number of rings (size 3 to 8) (size 9 to 14) (size 15 to 20)
#    0.000    1.875    2.500    1.875    0.000    4.750 
#    0.000    3.750    0.000    0.750    0.000    0.000 
#    0.000    0.000    0.000    0.000    0.000    0.000 
#
# Total GULP energy -178813.330307 kJ/mol
# GULP energy per Si atom -5587.916572 kJ/mol
# Density = 2.173062 g / cm^3
# Si number density = 21.780191 Si / 1000 Ang^3
#
#
#
# Elastic Constant Matrix: (Units=GPa)
#
#
# Indices 1 2 3 4 5 6 
#
# 1 61.1044 -16.1490 -9.2153 0.0000 11.1530 0.0000
# 2 -16.1490 38.6171 0.2917 0.0000 -3.8671 0.0000
# 3 -9.2153 0.2917 85.0431 0.0000 17.7497 0.0000
# 4 0.0000 0.0000 0.0000 2.3980 0.0000 5.4934
# 5 11.1530 -3.8671 17.7497 0.0000 39.9386 0.0000
# 6 0.0000 0.0000 0.0000 5.4934 0.0000 20.3300
#
#
#
# Elastic Compliance Matrix: (Units=1/GPa)
#
#
# Indices 1 2 3 4 5 6 
#
# 1 0.020109 0.007740 0.003492 0.000000 -0.006418 0.000000
# 2 0.007740 0.029164 0.000662 0.000000 0.000368 0.000000
# 3 0.003492 0.000662 0.013585 0.000000 -0.006949 0.000000
# 4 0.000000 0.000000 0.000000 1.094517 0.000000 -0.295753
# 5 -0.006418 0.000368 -0.006949 0.000000 0.029954 0.000000
# 6 0.000000 0.000000 0.000000 -0.295753 0.000000 0.129105
#
#
# Mechanical properties :
#
#
# Convention : Reuss Voigt Hill
#
# Bulk Modulus (GPa) = 11.54115 14.95771 13.24943
# Shear Modulus (GPa) = 3.78350 26.52248 15.15299
#
# Velocity S-wave (km/s) = 1.31943 3.49339 2.64052
# Velocity P-wave (km/s) = 2.76254 4.81188 3.92338
#
# Compressibility (1/GPa) = 0.08664650
#
# Stress axis : x y z
#
# Youngs Moduli (GPa) = 49.72865 34.28887 73.60978
#
# Poissons Ratio (x) = -0.26540 -0.25705
# Poissons Ratio (y) = -0.38491 -0.04872
# Poissons Ratio (z) = -0.17365 -0.02269
#
# Static dielectric constant tensor:
#      x y z
#    x 1.760480 0.000000 0.007670 
#    y 0.000000 1.820850 0.000000 
#    z 0.007670 0.000000 1.807600 
# 
# From -- ./inp_files/281356.got.cif
#   From: 2010.05.17/outbox.cif.g08.bks.cpg/sg12_141_cif.got.tgz:281356.got - 2010.06.03 13:09:07.
