data_PCOD9187298
_publ_section_title
;
Structure prediction by ZEFSAII (Michael W. Deem and Ramdas Pophale) SiO2 
 PCOD9187298
Probable space group: C 2/M
;
_chemical_formula_sum "Si O2"
_cell_formula_units_Z 44
_cell_length_a 14.555737
_cell_length_b 14.772579
_cell_length_c 20.015092
_cell_angle_alpha 90.000000
_cell_angle_beta 148.053043
_cell_angle_gamma 90.000000
_cell_volume 2277.265818
_symmetry_space_group_name_H-M "C 2/M"
_symmetry_group_IT_number 12
_symmetry_cell_setting 'monoclinic'
loop_
_space_group_symop_operation_xyz
x,y,z
-x,y,-z
-x,-y,-z
x,-y,z
1/2+x,1/2+y,z
1/2-x,1/2+y,-z
1/2-x,1/2-y,-z
1/2+x,1/2-y,z
loop_
_atom_site_type_symbol
_atom_site_label
_atom_site_fract_x
_atom_site_fract_y
_atom_site_fract_z
Si Si1 0.142389 0.857979 0.234576
Si Si2 0.379358 0.244158 0.017592
Si Si3 0.223529 0.397304 0.825710
Si Si4 0.955313 0.750323 0.619420
Si Si5 0.500000 0.202857 0.500000
Si Si6 0.865719 0.102573 0.176912
O O1 0.186549 0.903873 0.191505
O O2 0.320550 0.853466 0.385890
O O3 0.987153 0.895372 0.184700
O O4 0.070278 0.759956 0.164730
O O5 0.330532 0.328530 0.939155
O O6 0.321276 0.150293 0.949201
O O7 0.250000 0.250000 0.000000
O O8 0.205664 0.500000 0.841090
O O9 0.044310 0.342711 0.701220
O O10 0.750000 0.750000 0.500000
O O11 0.998794 0.757019 0.568084
O O12 0.036207 0.831719 0.711378
O O13 0.850569 0.000000 0.189647
#
# Coordination Sequence:
#
# PCOD9187298 Si02
#       6
#     8   8   8   8   4   8
#     4  10  19  35  58  87 117 147 180 242 302 353
#     4   9  20  35  55  80 116 153 189 224 287 344
#     4  10  21  35  58  90 114 141 188 243 301 351
#     4  10  20  38  57  84 119 157 190 233 290 345
#     4  10  20  36  62  82 116 152 194 232 292 348
#     4  10  20  36  59  84 116 154 195 239 284 339
#
# _framework density 19.321414999999998
#
# number of rings (size 3 to 8) (size 9 to 14) (size 15 to 20)
#    0.000    2.182    1.818    1.091    0.000    5.091 
#    0.000    2.727    0.000   19.636    0.000    0.000 
#    0.000    0.000    0.000    0.000    0.000    0.000 
#
# Total GULP energy -122557.468763 kJ/mol
# GULP energy per Si atom -5570.794035 kJ/mol
# Density = 1.927744 g / cm^3
# Si number density = 19.321415 Si / 1000 Ang^3
#
#
#
# Elastic Constant Matrix: (Units=GPa)
#
#
# Indices 1 2 3 4 5 6 
#
# 1 60.3118 19.3667 -0.7715 0.0003 -10.6914 0.0000
# 2 19.3667 133.0450 28.3983 0.0008 4.0272 0.0003
# 3 -0.7715 28.3983 93.9768 0.0020 16.5997 0.0006
# 4 0.0003 0.0008 0.0020 -3.2571 0.0006 -0.7927
# 5 -10.6914 4.0272 16.5997 0.0006 33.8102 0.0001
# 6 0.0000 0.0003 0.0006 -0.7927 0.0001 15.6300
#
#
#
# Elastic Compliance Matrix: (Units=1/GPa)
#
#
# Indices 1 2 3 4 5 6 
#
# 1 0.018617 -0.002882 -0.000084 0.000002 0.006271 0.000000
# 2 -0.002882 0.008483 -0.002461 0.000000 -0.000713 0.000000
# 3 -0.000084 -0.002461 0.012413 0.000006 -0.005828 0.000000
# 4 0.000002 0.000000 0.000006 -0.303275 0.000003 -0.015382
# 5 0.006271 -0.000713 -0.005828 0.000003 0.034506 0.000000
# 6 0.000000 0.000000 0.000000 -0.015382 0.000000 0.063200
#
#
# Mechanical properties :
#
#
# Convention : Reuss Voigt Hill
#
# Bulk Modulus (GPa) = 34.89331 42.36895 38.63113
# Shear Modulus (GPa) = -34.32890 25.25927 -4.53482
#
# Velocity S-wave (km/s) = -4.21970 3.61961 -1.53367
# Velocity P-wave (km/s) = 2.37540 6.28051 4.11110
#
# Compressibility (1/GPa) = 0.02865879
#
# Stress axis : x y z
#
# Youngs Moduli (GPa) = 53.71563 117.88796 80.55848
#
# Poissons Ratio (x) = 0.33973 0.00678
# Poissons Ratio (y) = 0.15480 0.19825
# Poissons Ratio (z) = 0.00452 0.29012
#
# Static dielectric constant tensor:
#      x y z
#    x 1.706850 0.000000 -0.006180 
#    y 0.000000 1.687760 0.000000 
#    z -0.006180 0.000000 1.717640 
# 
# From -- ./inp_files/153804.got.cif
#   From: 2010.05.17/outbox.cif.g08.bks.cpg/sg12_77_cif.got.tgz:153804.got - 2010.06.03 13:09:07.
