data_PCOD9187036
_publ_section_title
;
Structure prediction by ZEFSAII (Michael W. Deem and Ramdas Pophale) SiO2 
 PCOD9187036
Probable space group: C 2/M
;
_chemical_formula_sum "Si O2"
_cell_formula_units_Z 64
_cell_length_a 25.461657
_cell_length_b 9.305965
_cell_length_c 15.479260
_cell_angle_alpha 90.000000
_cell_angle_beta 109.783278
_cell_angle_gamma 90.000000
_cell_volume 3451.266351
_symmetry_space_group_name_H-M "C 2/M"
_symmetry_group_IT_number 12
_symmetry_cell_setting 'monoclinic'
loop_
_space_group_symop_operation_xyz
x,y,z
-x,y,-z
-x,-y,-z
x,-y,z
1/2+x,1/2+y,z
1/2-x,1/2+y,-z
1/2-x,1/2-y,-z
1/2+x,1/2-y,z
loop_
_atom_site_type_symbol
_atom_site_label
_atom_site_fract_x
_atom_site_fract_y
_atom_site_fract_z
Si Si1 0.347134 0.669048 0.794526
Si Si2 0.415515 0.325685 0.507525
Si Si3 0.791773 0.159574 0.469040
Si Si4 0.604979 0.325278 0.696938
Si Si5 0.234938 0.160249 0.745482
Si Si6 0.452887 0.828189 0.174504
Si Si7 0.936575 0.832157 0.996574
Si Si8 0.561815 0.326001 0.288956
O O1 0.335236 0.500000 0.781076
O O2 0.289964 0.746073 0.789823
O O3 0.378124 0.710231 0.721200
O O4 0.393668 0.690756 0.894480
O O5 0.416380 0.500000 0.504542
O O6 0.352977 0.276311 0.494493
O O7 0.423581 0.283575 0.411740
O O8 0.446582 0.289183 0.613909
O O9 0.750000 0.250000 0.500000
O O10 0.768970 0.148773 0.360053
O O11 0.798038 0.000000 0.510171
O O12 0.599426 0.500000 0.701896
O O13 0.671727 0.292476 0.734086
O O14 0.577600 0.242186 0.760347
O O15 0.242831 0.000000 0.786649
O O16 0.425495 0.770854 0.071052
O O17 0.514783 0.759890 0.211741
O O18 0.453930 0.000000 0.179362
O O19 0.932220 0.000000 0.021259
O O20 0.000000 0.809750 0.000000
O O21 0.554944 0.500000 0.275738
#
# Coordination Sequence:
#
# PCOD9187036 Si02
#       8
#     8   8   8   8   8   8   8   8
#     4  10  20  34  59  89 114 142 179 226 277 332
#     4   8  16  31  54  78 103 143 195 233 260 310
#     4   9  16  28  46  72 105 142 184 226 268 317
#     4   9  19  39  60  78 107 154 199 229 264 322
#     4   9  19  34  54  80 112 147 182 226 278 325
#     4  12  25  38  56  84 113 145 182 233 289 332
#     4  10  20  40  64  85 109 142 184 224 272 336
#     4  10  19  35  57  83 113 148 189 231 274 330
#
# _framework density 18.543918000000001
#
# number of rings (size 3 to 8) (size 9 to 14) (size 15 to 20)
#    0.000    2.375    1.250    3.375    0.000    3.750 
#    0.000    6.250    0.000    0.000    0.000    0.000 
#    0.000    0.000    0.000    0.000    0.000    0.000 
#
# Total GULP energy -178236.320563 kJ/mol
# GULP energy per Si atom -5569.885018 kJ/mol
# Density = 1.850171 g / cm^3
# Si number density = 18.543918 Si / 1000 Ang^3
#
#
#
# Elastic Constant Matrix: (Units=GPa)
#
#
# Indices 1 2 3 4 5 6 
#
# 1 28.6683 29.3661 22.9806 0.0000 -6.6898 0.0000
# 2 29.3661 46.6399 36.7123 0.0000 -7.7106 0.0000
# 3 22.9806 36.7123 72.6979 0.0000 -8.5926 0.0000
# 4 0.0000 0.0000 0.0000 14.1070 0.0000 -1.3791
# 5 -6.6898 -7.7106 -8.5926 0.0000 30.4858 0.0000
# 6 0.0000 0.0000 0.0000 -1.3791 0.0000 26.5053
#
#
#
# Elastic Compliance Matrix: (Units=1/GPa)
#
#
# Indices 1 2 3 4 5 6 
#
# 1 0.099392 -0.062065 0.000669 0.000000 0.006301 0.000000
# 2 -0.062065 0.074839 -0.018151 0.000000 0.000193 0.000000
# 3 0.000669 -0.018151 0.022950 0.000000 0.002024 0.000000
# 4 0.000000 0.000000 0.000000 0.071249 0.000000 0.003707
# 5 0.006301 0.000193 0.002024 0.000000 0.034804 0.000000
# 6 0.000000 0.000000 0.000000 0.003707 0.000000 0.037921
#
#
# Mechanical properties :
#
#
# Convention : Reuss Voigt Hill
#
# Bulk Modulus (GPa) = 26.25698 36.23603 31.24651
# Shear Modulus (GPa) = 9.74762 18.14943 13.94853
#
# Velocity S-wave (km/s) = 2.29519 3.13186 2.74558
# Velocity P-wave (km/s) = 4.60586 5.71499 5.19014
#
# Compressibility (1/GPa) = 0.03808511
#
# Stress axis : x y z
#
# Youngs Moduli (GPa) = 10.06118 13.36204 43.57352
#
# Poissons Ratio (x) = 0.82932 -0.02914
# Poissons Ratio (y) = 0.62445 0.79091
# Poissons Ratio (z) = -0.00673 0.24254
#
# Static dielectric constant tensor:
#      x y z
#    x 1.678080 0.000000 0.014430 
#    y 0.000000 1.584710 0.000000 
#    z 0.014430 0.000000 1.678080 
# 
# From -- ./inp_files/244208.got.cif
#   From: 2010.05.17/outbox.cif.g08.bks.cpg/sg12_123_cif.got.tgz:244208.got - 2010.06.03 13:09:07.
