data_PCOD9187775
_publ_section_title
;
Structure prediction by ZEFSAII (Michael W. Deem and Ramdas Pophale) SiO2 
 PCOD9187775
Probable space group: C 2/M
;
_chemical_formula_sum "Si O2"
_cell_formula_units_Z 48
_cell_length_a 17.582869
_cell_length_b 14.436550
_cell_length_c 12.805678
_cell_angle_alpha 90.000000
_cell_angle_beta 146.662819
_cell_angle_gamma 90.000000
_cell_volume 1786.384201
_symmetry_space_group_name_H-M "C 2/M"
_symmetry_group_IT_number 12
_symmetry_cell_setting 'monoclinic'
loop_
_space_group_symop_operation_xyz
x,y,z
-x,y,-z
-x,-y,-z
x,-y,z
1/2+x,1/2+y,z
1/2-x,1/2+y,-z
1/2-x,1/2-y,-z
1/2+x,1/2-y,z
loop_
_atom_site_type_symbol
_atom_site_label
_atom_site_fract_x
_atom_site_fract_y
_atom_site_fract_z
Si Si1 0.604651 0.113953 0.212101
Si Si2 0.985244 0.606768 0.665575
Si Si3 0.354543 0.391347 0.369703
Si Si4 0.723423 0.644535 0.946166
Si Si5 0.496513 0.610490 0.155690
Si Si6 0.725534 0.612541 0.265726
O O1 0.551726 0.148991 0.263506
O O2 0.757748 0.144662 0.351591
O O3 0.606026 0.000000 0.215388
O O4 0.500000 0.140898 0.000000
O O5 0.941533 0.500000 0.623744
O O6 0.883034 0.644890 0.459622
O O7 0.149762 0.602416 0.842188
O O8 0.500000 0.348473 0.500000
O O9 0.379363 0.500000 0.421738
O O10 0.264414 0.385900 0.159351
O O11 0.567408 0.624732 0.804293
O O12 0.750000 0.750000 0.000000
O O13 0.501388 0.500000 0.148886
O O14 0.374371 0.648480 0.939999
O O15 0.643783 0.638908 0.278793
O O16 0.723804 0.500000 0.249860
#
# Coordination Sequence:
#
# PCOD9187775 Si02
#       6
#     8   8   8   8   8   8
#     4   9  16  30  55  85 112 136 174 234 290 334
#     4  10  19  35  61  89 113 143 189 242 291 343
#     4  10  21  38  62  89 113 146 194 244 293 341
#     4  12  25  39  52  81 120 159 194 232 287 345
#     4   9  18  37  61  83 111 144 186 239 285 338
#     4   8  17  34  61  91 108 133 185 241 292 339
#
# _framework density 26.869918999999999
#
# number of rings (size 3 to 8) (size 9 to 14) (size 15 to 20)
#    0.000    2.333    1.667    2.500    2.333    0.667 
#    3.000    6.667    0.000    0.000    0.000    0.000 
#    0.000    0.000    0.000    0.000    0.000    0.000 
#
# Total GULP energy -134109.914463 kJ/mol
# GULP energy per Si atom -5587.913103 kJ/mol
# Density = 2.680876 g / cm^3
# Si number density = 26.869919 Si / 1000 Ang^3
#
#
#
# Elastic Constant Matrix: (Units=GPa)
#
#
# Indices 1 2 3 4 5 6 
#
# 1 104.1954 0.9089 4.6411 0.0000 27.4778 0.0000
# 2 0.9089 60.6428 1.8440 0.0000 1.9288 0.0000
# 3 4.6411 1.8440 104.5673 0.0000 22.5003 0.0000
# 4 0.0000 0.0000 0.0000 -3.8288 0.0000 21.1702
# 5 27.4778 1.9288 22.5003 0.0000 43.6169 0.0000
# 6 0.0000 0.0000 0.0000 21.1702 0.0000 6.7250
#
#
#
# Elastic Compliance Matrix: (Units=1/GPa)
#
#
# Indices 1 2 3 4 5 6 
#
# 1 0.011641 0.000042 0.001193 0.000000 -0.007951 0.000000
# 2 0.000042 0.016515 -0.000147 0.000000 -0.000681 0.000000
# 3 0.001193 -0.000147 0.010881 0.000000 -0.006358 0.000000
# 4 0.000000 0.000000 0.000000 -0.014190 0.000000 0.044670
# 5 -0.007951 -0.000681 -0.006358 0.000000 0.031246 0.000000
# 6 0.000000 0.000000 0.000000 0.044670 0.000000 0.008079
#
#
# Mechanical properties :
#
#
# Convention : Reuss Voigt Hill
#
# Bulk Modulus (GPa) = 24.26291 31.57707 27.91999
# Shear Modulus (GPa) = 66.02192 26.77004 46.39598
#
# Velocity S-wave (km/s) = 4.96229 3.15982 4.15985
# Velocity P-wave (km/s) = 6.47161 5.00899 5.78670
#
# Compressibility (1/GPa) = 0.04121517
#
# Stress axis : x y z
#
# Youngs Moduli (GPa) = 85.90645 60.54921 91.90323
#
# Poissons Ratio (x) = -0.00255 -0.10968
# Poissons Ratio (y) = -0.00362 0.01346
# Poissons Ratio (z) = -0.10252 0.00887
#
# Static dielectric constant tensor:
#      x y z
#    x 2.174000 0.000000 0.014680 
#    y 0.000000 1.860350 0.000000 
#    z 0.014680 0.000000 2.154150 
# 
# From -- ./inp_files/75052.got.cif
#   From: 2010.05.17/outbox.cif.g08.bks.cpg/sg12_38_cif.got.tgz:75052.got - 2010.06.03 13:09:07.
