data_PCOD9187785
_publ_section_title
;
Structure prediction by ZEFSAII (Michael W. Deem and Ramdas Pophale) SiO2 
 PCOD9187785
Probable space group: C 2/M
;
_chemical_formula_sum "Si O2"
_cell_formula_units_Z 64
_cell_length_a 20.770026
_cell_length_b 28.610930
_cell_length_c 9.498461
_cell_angle_alpha 90.000000
_cell_angle_beta 33.178124
_cell_angle_gamma 90.000000
_cell_volume 3088.894174
_symmetry_space_group_name_H-M "C 2/M"
_symmetry_group_IT_number 12
_symmetry_cell_setting 'monoclinic'
loop_
_space_group_symop_operation_xyz
x,y,z
-x,y,-z
-x,-y,-z
x,-y,z
1/2+x,1/2+y,z
1/2-x,1/2+y,-z
1/2-x,1/2-y,-z
1/2+x,1/2-y,z
loop_
_atom_site_type_symbol
_atom_site_label
_atom_site_fract_x
_atom_site_fract_y
_atom_site_fract_z
Si Si1 0.028353 0.156634 0.102617
Si Si2 0.230676 0.052717 0.329098
Si Si3 0.453803 0.551838 0.884894
Si Si4 0.422176 0.875797 0.509579
Si Si5 0.912585 0.375674 0.034846
Si Si6 0.719069 0.308819 0.402966
Si Si7 0.738057 0.200523 0.339634
Si Si8 0.259431 0.553735 0.017495
O O1 0.072003 0.102954 0.003481
O O2 0.902144 0.163374 0.408513
O O3 0.137203 0.186500 0.959421
O O4 0.000000 0.176108 0.000000
O O5 0.313310 0.087403 0.263701
O O6 0.094431 0.052145 0.620055
O O7 0.275482 0.000000 0.260617
O O8 0.234790 0.066536 0.156833
O O9 0.418652 0.500000 0.009045
O O10 0.387840 0.554408 0.855518
O O11 0.500000 0.861405 0.500000
O O12 0.359203 0.832415 0.550298
O O13 0.674148 0.912548 0.259832
O O14 0.509681 0.896807 0.232472
O O15 0.834189 0.332402 0.125211
O O16 0.000000 0.362736 0.000000
O O17 0.708394 0.254892 0.381687
O O18 0.746950 0.310353 0.520546
O O19 0.217648 0.500000 0.102904
#
# Coordination Sequence:
#
# PCOD9187785 Si02
#       8
#     8   8   8   8   8   8   8   8
#     4  10  20  35  61  90 119 156 205 251 310 369
#     4  10  21  39  62  90 123 161 204 254 309 366
#     4  10  19  35  61  89 119 155 205 258 307 363
#     4  12  24  40  63  92 126 166 203 255 307 367
#     4  12  24  39  64  90 125 165 208 252 309 369
#     4  10  22  40  65  91 118 160 205 260 309 369
#     4  10  22  40  65  91 121 157 209 255 307 373
#     4  10  21  39  63  90 120 164 209 249 303 372
#
# _framework density 20.719389
#
# number of rings (size 3 to 8) (size 9 to 14) (size 15 to 20)
#    0.000    1.500    5.000    0.375    1.750    3.250 
#    0.000    0.625    2.750    0.000    0.000    0.000 
#    0.000    0.000    0.000    0.000    0.000    0.000 
#
# Total GULP energy -178478.666746 kJ/mol
# GULP energy per Si atom -5577.458336 kJ/mol
# Density = 2.067223 g / cm^3
# Si number density = 20.719389 Si / 1000 Ang^3
#
#
#
# Elastic Constant Matrix: (Units=GPa)
#
#
# Indices 1 2 3 4 5 6 
#
# 1 37.0407 14.9411 8.1297 0.0000 -19.8420 0.0000
# 2 14.9411 96.0707 14.4187 0.0000 -18.6655 0.0000
# 3 8.1297 14.4187 61.9411 0.0000 -21.0551 0.0000
# 4 0.0000 0.0000 0.0000 23.3690 0.0000 3.3467
# 5 -19.8420 -18.6655 -21.0551 0.0000 32.9405 0.0000
# 6 0.0000 0.0000 0.0000 3.3467 0.0000 19.0693
#
#
#
# Elastic Compliance Matrix: (Units=1/GPa)
#
#
# Indices 1 2 3 4 5 6 
#
# 1 0.040849 -0.001881 0.003933 0.000000 0.026054 0.000000
# 2 -0.001881 0.011801 -0.000782 0.000000 0.005054 0.000000
# 3 0.003933 -0.000782 0.021035 0.000000 0.015371 0.000000
# 4 0.000000 0.000000 0.000000 0.043895 0.000000 -0.007704
# 5 0.026054 0.005054 0.015371 0.000000 0.058740 0.000000
# 6 0.000000 0.000000 0.000000 -0.007704 0.000000 0.053792
#
#
# Mechanical properties :
#
#
# Convention : Reuss Voigt Hill
#
# Bulk Modulus (GPa) = 13.11928 30.00352 21.56140
# Shear Modulus (GPa) = 19.76423 25.57997 22.67210
#
# Velocity S-wave (km/s) = 3.09188 3.51749 3.31153
# Velocity P-wave (km/s) = 4.36943 5.56860 5.00506
#
# Compressibility (1/GPa) = 0.07622372
#
# Stress axis : x y z
#
# Youngs Moduli (GPa) = 24.48014 84.73968 47.53935
#
# Poissons Ratio (x) = 0.15942 -0.18696
# Poissons Ratio (y) = 0.04605 0.03719
# Poissons Ratio (z) = -0.09627 0.06629
#
# Static dielectric constant tensor:
#      x y z
#    x 1.728470 0.000000 0.019090 
#    y 0.000000 1.755610 0.000000 
#    z 0.019090 0.000000 1.802360 
# 
# From -- ./inp_files/170593.got.cif
#   From: 2010.05.17/outbox.cif.g08.bks.cpg/sg12_86_cif.got.tgz:170593.got - 2010.06.03 13:09:07.
