data_PCOD9187462
_publ_section_title
;
Structure prediction by ZEFSAII (Michael W. Deem and Ramdas Pophale) SiO2 
 PCOD9187462
Probable space group: C 2/M
;
_chemical_formula_sum "Si O2"
_cell_formula_units_Z 40
_cell_length_a 31.083845
_cell_length_b 7.770658
_cell_length_c 15.411731
_cell_angle_alpha 90.000000
_cell_angle_beta 30.386072
_cell_angle_gamma 90.000000
_cell_volume 1882.970220
_symmetry_space_group_name_H-M "C 2/M"
_symmetry_group_IT_number 12
_symmetry_cell_setting 'monoclinic'
loop_
_space_group_symop_operation_xyz
x,y,z
-x,y,-z
-x,-y,-z
x,-y,z
1/2+x,1/2+y,z
1/2-x,1/2+y,-z
1/2-x,1/2-y,-z
1/2+x,1/2-y,z
loop_
_atom_site_type_symbol
_atom_site_label
_atom_site_fract_x
_atom_site_fract_y
_atom_site_fract_z
Si Si1 0.146122 0.294635 0.427193
Si Si2 0.734994 0.706415 0.626223
Si Si3 0.963448 0.711656 0.784552
Si Si4 0.721339 0.204419 0.953371
Si Si5 0.046600 0.299488 0.002538
O O1 0.139779 0.500000 0.446790
O O2 0.190453 0.232340 0.439047
O O3 0.209084 0.260310 0.238253
O O4 0.049240 0.232103 0.586538
O O5 0.728112 0.500000 0.646129
O O6 0.750000 0.750000 0.500000
O O7 0.646799 0.786619 0.811600
O O8 0.960356 0.500000 0.789444
O O9 0.873168 0.772672 0.904376
O O10 0.971957 0.770257 0.869759
O O11 0.716335 0.000000 0.955819
O O12 0.750000 0.250000 0.000000
O O13 0.019902 0.500000 0.052737
O O14 0.000000 0.220577 0.000000
#
# Coordination Sequence:
#
# PCOD9187462 Si02
#       5
#     8   8   8   8   8
#     4  10  21  40  63  88 118 157 202 247 295 355
#     4  11  22  35  56  86 123 160 201 249 298 356
#     4   9  19  37  61  86 117 158 199 238 295 362
#     4  11  23  41  64  89 119 156 200 251 303 359
#     4  10  19  35  59  85 118 159 203 245 292 358
#
# _framework density 21.243033
#
# number of rings (size 3 to 8) (size 9 to 14) (size 15 to 20)
#    0.000    1.800    2.000    2.400    0.000    5.200 
#    0.000    7.000    0.000    0.000    0.000    0.000 
#    0.000    0.000    0.000    0.000    0.000    0.000 
#
# Total GULP energy -111713.947054 kJ/mol
# GULP energy per Si atom -5585.697353 kJ/mol
# Density = 2.119468 g / cm^3
# Si number density = 21.243033 Si / 1000 Ang^3
#
#
#
# Elastic Constant Matrix: (Units=GPa)
#
#
# Indices 1 2 3 4 5 6 
#
# 1 167.1237 1.5241 100.2817 0.0000 -9.3731 0.0000
# 2 1.5241 20.1373 -7.5526 -0.0001 -4.7408 -0.0001
# 3 100.2817 -7.5526 181.3036 0.0000 -18.1021 0.0000
# 4 0.0000 -0.0001 0.0000 25.0058 0.0000 -2.8032
# 5 -9.3731 -4.7408 -18.1021 0.0000 33.8347 0.0000
# 6 0.0000 -0.0001 0.0000 -2.8032 0.0000 8.8818
#
#
#
# Elastic Compliance Matrix: (Units=1/GPa)
#
#
# Indices 1 2 3 4 5 6 
#
# 1 0.009103 -0.002802 -0.005218 0.000000 -0.000662 0.000000
# 2 -0.002802 0.053829 0.004720 0.000000 0.009291 0.000000
# 3 -0.005218 0.004720 0.009001 0.000000 0.004031 0.000000
# 4 0.000000 0.000000 0.000000 0.041458 0.000000 0.013084
# 5 -0.000662 0.009291 0.004031 0.000000 0.032831 0.000000
# 6 0.000000 0.000000 0.000000 0.013084 0.000000 0.116719
#
#
# Mechanical properties :
#
#
# Convention : Reuss Voigt Hill
#
# Bulk Modulus (GPa) = 15.30627 61.89679 38.60153
# Shear Modulus (GPa) = 17.16340 31.83188 24.49764
#
# Velocity S-wave (km/s) = 2.84554 3.87520 3.39958
# Velocity P-wave (km/s) = 4.24465 7.01595 5.79830
#
# Compressibility (1/GPa) = 0.06533271
#
# Stress axis : x y z
#
# Youngs Moduli (GPa) = 109.85491 18.57741 111.10132
#
# Poissons Ratio (x) = 0.05205 0.57971
# Poissons Ratio (y) = 0.30780 -0.52438
# Poissons Ratio (z) = 0.57320 -0.08768
#
# Static dielectric constant tensor:
#      x y z
#    x 1.755420 0.000000 -0.034690 
#    y 0.000000 1.810160 0.000000 
#    z -0.034690 0.000000 1.745030 
# 
# From -- ./inp_files/211161.got.cif
#   From: 2010.05.17/outbox.cif.g08.bks.cpg/sg12_106_cif.got.tgz:211161.got - 2010.06.03 13:09:07.
