data_PCOD9187430
_publ_section_title
;
Structure prediction by ZEFSAII (Michael W. Deem and Ramdas Pophale) SiO2 
 PCOD9187430
Probable space group: C 2/M
;
_chemical_formula_sum "Si O2"
_cell_formula_units_Z 60
_cell_length_a 22.405551
_cell_length_b 23.510747
_cell_length_c 12.878413
_cell_angle_alpha 90.000000
_cell_angle_beta 28.314801
_cell_angle_gamma 90.000000
_cell_volume 3217.746700
_symmetry_space_group_name_H-M "C 2/M"
_symmetry_group_IT_number 12
_symmetry_cell_setting 'monoclinic'
loop_
_space_group_symop_operation_xyz
x,y,z
-x,y,-z
-x,-y,-z
x,-y,z
1/2+x,1/2+y,z
1/2-x,1/2+y,-z
1/2-x,1/2-y,-z
1/2+x,1/2-y,z
loop_
_atom_site_type_symbol
_atom_site_label
_atom_site_fract_x
_atom_site_fract_y
_atom_site_fract_z
Si Si1 0.782505 0.567332 0.616712
Si Si2 0.500000 0.352175 0.500000
Si Si3 0.311990 0.432604 0.462618
Si Si4 0.116395 0.680486 0.248925
Si Si5 0.604734 0.281620 0.140405
Si Si6 0.952413 0.141762 0.958960
Si Si7 0.282659 0.433629 0.742188
Si Si8 0.428913 0.064058 0.765744
O O1 0.749873 0.500000 0.681294
O O2 0.773931 0.579768 0.506093
O O3 0.680108 0.608410 0.826609
O O4 0.924085 0.575188 0.439487
O O5 0.547341 0.314466 0.329299
O O6 0.385472 0.392299 0.636770
O O7 0.331310 0.500000 0.432515
O O8 0.263708 0.417337 0.650909
O O9 0.444613 0.402555 0.240370
O O10 0.089718 0.714505 0.183031
O O11 0.125155 0.613159 0.223458
O O12 0.000000 0.693289 0.500000
O O13 0.246765 0.705165 0.089583
O O14 0.551532 0.307201 0.116517
O O15 0.000000 0.159506 0.000000
O O16 0.326292 0.500000 0.679775
O O17 0.152738 0.431839 0.004341
O O18 0.413713 0.000000 0.747655
#
# Coordination Sequence:
#
# PCOD9187430 Si02
#       8
#     8   4   8   8   8   8   8   8
#     4   9  18  33  54  82 115 153 192 231 280 339
#     4  12  19  38  58  84 113 148 190 240 280 342
#     4   9  17  30  53  82 113 151 191 232 282 337
#     4  11  23  40  60  83 113 148 189 231 280 341
#     4  11  23  38  62  87 109 151 191 231 283 340
#     4  10  19  35  59  84 116 145 188 238 288 330
#     4  10  20  33  53  82 117 149 186 240 286 330
#     4  10  21  37  56  81 115 149 188 232 281 339
#
# _framework density 18.646588000000001
#
# number of rings (size 3 to 8) (size 9 to 14) (size 15 to 20)
#    0.000    1.867    3.333    1.400    0.000    2.400 
#    0.000    4.000    2.933    2.400    0.000    0.000 
#    0.000    0.000    0.000    0.000    0.000    0.000 
#
# Total GULP energy -167364.143965 kJ/mol
# GULP energy per Si atom -5578.804799 kJ/mol
# Density = 1.860415 g / cm^3
# Si number density = 18.646588 Si / 1000 Ang^3
#
#
#
# Elastic Constant Matrix: (Units=GPa)
#
#
# Indices 1 2 3 4 5 6 
#
# 1 32.4306 17.0290 13.1556 -0.0033 14.5395 -0.0017
# 2 17.0290 59.8553 17.0436 -0.0075 2.6992 -0.0038
# 3 13.1556 17.0436 84.7756 0.0201 8.1715 0.0124
# 4 -0.0033 -0.0075 0.0201 575.7958 -0.0066 301.5545
# 5 14.5395 2.6992 8.1715 -0.0066 23.9030 -0.0041
# 6 -0.0017 -0.0038 0.0124 301.5545 -0.0041 185.6014
#
#
#
# Elastic Compliance Matrix: (Units=1/GPa)
#
#
# Indices 1 2 3 4 5 6 
#
# 1 0.051539 -0.012595 -0.002669 0.000000 -0.029015 0.000000
# 2 -0.012595 0.020814 -0.002835 0.000000 0.006280 0.000000
# 3 -0.002669 -0.002835 0.013022 0.000000 -0.002508 -0.000001
# 4 0.000000 0.000000 0.000000 0.011649 0.000000 -0.018926
# 5 -0.029015 0.006280 -0.002508 0.000000 0.059633 0.000001
# 6 0.000000 0.000000 -0.000001 -0.018926 0.000001 0.036138
#
#
# Mechanical properties :
#
#
# Convention : Reuss Voigt Hill
#
# Bulk Modulus (GPa) = 20.33465 30.16866 25.25165
# Shear Modulus (GPa) = 20.37609 165.71560 93.04585
#
# Velocity S-wave (km/s) = 3.30927 9.43741 7.07163
# Velocity P-wave (km/s) = 5.05278 11.61754 8.95818
#
# Compressibility (1/GPa) = 0.04917714
#
# Stress axis : x y z
#
# Youngs Moduli (GPa) = 19.40265 48.04377 76.79412
#
# Poissons Ratio (x) = 0.60509 0.20497
# Poissons Ratio (y) = 0.24437 0.21775
# Poissons Ratio (z) = 0.05179 0.13623
#
# Static dielectric constant tensor:
#      x y z
#    x 1.666400 0.000000 0.026580 
#    y 0.000000 1.655830 0.000000 
#    z 0.026580 0.000000 1.631120 
# 
# From -- ./inp_files/170366.got.cif
#   From: 2010.05.17/outbox.cif.g08.bks.cpg/sg12_86_cif.got.tgz:170366.got - 2010.06.03 13:09:07.
