data_PCOD9187597
_publ_section_title
;
Structure prediction by ZEFSAII (Michael W. Deem and Ramdas Pophale) SiO2 
 PCOD9187597
Probable space group: C 2/M
;
_chemical_formula_sum "Si O2"
_cell_formula_units_Z 56
_cell_length_a 26.598232
_cell_length_b 9.156088
_cell_length_c 18.815125
_cell_angle_alpha 90.000000
_cell_angle_beta 142.418538
_cell_angle_gamma 90.000000
_cell_volume 2794.605342
_symmetry_space_group_name_H-M "C 2/M"
_symmetry_group_IT_number 12
_symmetry_cell_setting 'monoclinic'
loop_
_space_group_symop_operation_xyz
x,y,z
-x,y,-z
-x,-y,-z
x,-y,z
1/2+x,1/2+y,z
1/2-x,1/2+y,-z
1/2-x,1/2-y,-z
1/2+x,1/2-y,z
loop_
_atom_site_type_symbol
_atom_site_label
_atom_site_fract_x
_atom_site_fract_y
_atom_site_fract_z
Si Si1 0.831100 0.827721 0.559073
Si Si2 0.881507 0.835216 0.000540
Si Si3 0.535018 0.169834 0.197916
Si Si4 0.788206 0.671992 0.112477
Si Si5 0.309977 0.831763 0.395129
Si Si6 0.411960 0.824070 0.368827
Si Si7 0.886190 0.164385 0.837170
O O1 0.750000 0.750000 0.500000
O O2 0.908215 0.767211 0.688448
O O3 0.841479 0.778177 0.489648
O O4 0.822049 0.000000 0.556338
O O5 0.940711 0.716959 0.101828
O O6 0.905899 0.000000 0.049779
O O7 0.786648 0.818269 0.914788
O O8 0.893794 0.823842 0.929973
O O9 0.565050 0.216262 0.152762
O O10 0.548128 0.000000 0.225208
O O11 0.800878 0.500000 0.110046
O O12 0.870068 0.727225 0.247129
O O13 0.750000 0.750000 0.000000
O O14 0.346423 0.799300 0.358680
O O15 0.211130 0.824191 0.286437
O O16 0.333465 0.000000 0.438920
O O17 0.500000 0.771369 0.500000
O O18 0.420308 0.000000 0.369387
O O19 0.913425 0.000000 0.846353
#
# Coordination Sequence:
#
# PCOD9187597 Si02
#       7
#     8   8   8   8   8   8   8
#     4  12  24  39  58  84 119 160 199 244 298 357
#     4  10  21  39  60  84 118 162 206 247 301 366
#     4  12  25  38  56  87 122 158 202 252 301 355
#     4  10  21  39  63  92 124 163 206 252 312 372
#     4  10  19  35  61  89 116 156 202 242 291 357
#     4   9  18  36  64  95 123 155 202 255 304 366
#     4  10  19  35  60  84 114 159 203 241 291 357
#
# _framework density 20.038608
#
# number of rings (size 3 to 8) (size 9 to 14) (size 15 to 20)
#    0.000    1.571    2.857    3.000    0.000    4.000 
#    0.000    2.143    0.000    0.857    0.000    0.000 
#    0.000    0.000    0.000    0.000    0.000    0.000 
#
# Total GULP energy -156283.848956 kJ/mol
# GULP energy per Si atom -5581.566034 kJ/mol
# Density = 1.999300 g / cm^3
# Si number density = 20.038608 Si / 1000 Ang^3
#
#
#
# Elastic Constant Matrix: (Units=GPa)
#
#
# Indices 1 2 3 4 5 6 
#
# 1 31.8758 21.6836 35.1934 0.0000 -6.4706 0.0000
# 2 21.6836 97.6896 42.3052 0.0000 -13.4599 0.0000
# 3 35.1934 42.3052 120.7556 0.0000 -15.5065 0.0000
# 4 0.0000 0.0000 0.0000 27.5401 0.0000 -4.8343
# 5 -6.4706 -13.4599 -15.5065 0.0000 27.0352 0.0000
# 6 0.0000 0.0000 0.0000 -4.8343 0.0000 18.4260
#
#
#
# Elastic Compliance Matrix: (Units=1/GPa)
#
#
# Indices 1 2 3 4 5 6 
#
# 1 0.048738 -0.005298 -0.012079 0.000000 0.002099 0.000000
# 2 -0.005298 0.013030 -0.002537 0.000000 0.003764 0.000000
# 3 -0.012079 -0.002537 0.013124 0.000000 0.003373 0.000000
# 4 0.000000 0.000000 0.000000 0.038064 0.000000 0.009987
# 5 0.002099 0.003764 0.003373 0.000000 0.041300 0.000000
# 6 0.000000 0.000000 0.000000 0.009987 0.000000 0.056891
#
#
# Mechanical properties :
#
#
# Convention : Reuss Voigt Hill
#
# Bulk Modulus (GPa) = 28.52019 49.85392 39.18706
# Shear Modulus (GPa) = 19.03588 24.67616 21.85602
#
# Velocity S-wave (km/s) = 3.08549 3.51298 3.30615
# Velocity P-wave (km/s) = 5.19203 6.43332 5.84572
#
# Compressibility (1/GPa) = 0.03506288
#
# Stress axis : x y z
#
# Youngs Moduli (GPa) = 20.51800 76.74639 76.19909
#
# Poissons Ratio (x) = 0.40661 0.92038
# Poissons Ratio (y) = 0.10871 0.19335
# Poissons Ratio (z) = 0.24783 0.19474
#
# Static dielectric constant tensor:
#      x y z
#    x 1.720500 0.000000 -0.011930 
#    y 0.000000 1.684350 0.000000 
#    z -0.011930 0.000000 1.767420 
# 
# From -- ./inp_files/329722.got.cif
#   From: 2010.05.17/outbox.cif.g08.bks.cpg/sg12_165_cif.got.tgz:329722.got - 2010.06.03 13:09:07.
