data_PCOD9187711
_publ_section_title
;
Structure prediction by ZEFSAII (Michael W. Deem and Ramdas Pophale) SiO2 
 PCOD9187711
Probable space group: C 2/M
;
_chemical_formula_sum "Si O2"
_cell_formula_units_Z 52
_cell_length_a 17.068719
_cell_length_b 20.672599
_cell_length_c 7.951203
_cell_angle_alpha 90.000000
_cell_angle_beta 123.950261
_cell_angle_gamma 90.000000
_cell_volume 2327.325489
_symmetry_space_group_name_H-M "C 2/M"
_symmetry_group_IT_number 12
_symmetry_cell_setting 'monoclinic'
loop_
_space_group_symop_operation_xyz
x,y,z
-x,y,-z
-x,-y,-z
x,-y,z
1/2+x,1/2+y,z
1/2-x,1/2+y,-z
1/2-x,1/2-y,-z
1/2+x,1/2-y,z
loop_
_atom_site_type_symbol
_atom_site_label
_atom_site_fract_x
_atom_site_fract_y
_atom_site_fract_z
Si Si1 0.041062 0.000000 0.358251
Si Si2 0.255115 0.500000 0.555975
Si Si3 0.942744 0.612236 0.187318
Si Si4 0.307562 0.258643 0.345855
Si Si5 0.390896 0.000000 0.912419
Si Si6 0.855790 0.614664 0.454596
Si Si7 0.610511 0.748002 0.940297
Si Si8 0.534590 0.352104 0.346232
O O1 0.018547 0.073414 0.270482
O O2 0.000000 0.000000 0.500000
O O3 0.150535 0.000000 0.437941
O O4 0.177110 0.500000 0.321010
O O5 0.231413 0.565503 0.630331
O O6 0.895841 0.612560 0.313965
O O7 0.941591 0.683900 0.116619
O O8 0.052128 0.592254 0.330646
O O9 0.878613 0.564482 0.004905
O O10 0.334222 0.189843 0.461565
O O11 0.347144 0.258605 0.200045
O O12 0.361075 0.317508 0.508130
O O13 0.195350 0.253961 0.175821
O O14 0.500000 0.000000 0.000000
O O15 0.533305 0.691720 0.849882
O O16 0.500000 0.349853 0.500000
#
# Coordination Sequence:
#
# PCOD9187711 Si02
#       8
#     4   4   8   8   4   8   8   8
#     4  10  24  43  62  83 115 169 219 269 319 369
#     4  12  25  40  62  89 130 168 213 264 324 380
#     4  10  19  35  60  91 130 170 200 243 324 394
#     4   9  17  31  57  94 120 154 210 258 310 372
#     4  12  23  35  53  92 137 163 193 257 311 381
#     4  10  19  37  61  89 126 171 206 247 314 399
#     4   9  17  31  59  89 121 157 207 264 304 371
#     4   9  17  35  59  86 119 158 208 262 312 372
#
# _framework density 22.343243999999999
#
# number of rings (size 3 to 8) (size 9 to 14) (size 15 to 20)
#    0.000    2.154    3.077    0.462    2.154    1.231 
#    2.769    1.538    3.385    0.923    0.000    0.000 
#    0.000    0.000    0.000    0.000    0.000    0.000 
#
# Total GULP energy -144864.689833 kJ/mol
# GULP energy per Si atom -5571.718840 kJ/mol
# Density = 2.229239 g / cm^3
# Si number density = 22.343244 Si / 1000 Ang^3
#
#
#
# Elastic Constant Matrix: (Units=GPa)
#
#
# Indices 1 2 3 4 5 6 
#
# 1 79.9845 28.6980 27.4258 0.0000 11.7839 0.0000
# 2 28.6980 179.1198 41.6798 0.0000 8.7575 0.0000
# 3 27.4258 41.6798 59.0323 0.0000 16.7619 0.0000
# 4 0.0000 0.0000 0.0000 120.2117 0.0000 -39.1310
# 5 11.7839 8.7575 16.7619 0.0000 22.0940 0.0000
# 6 0.0000 0.0000 0.0000 -39.1310 0.0000 18.7330
#
#
#
# Elastic Compliance Matrix: (Units=1/GPa)
#
#
# Indices 1 2 3 4 5 6 
#
# 1 0.015233 -0.001026 -0.005304 0.000000 -0.003694 0.000000
# 2 -0.001026 0.006774 -0.004715 0.000000 0.001439 0.000000
# 3 -0.005304 -0.004715 0.027275 0.000000 -0.015994 0.000000
# 4 0.000000 0.000000 0.000000 0.025993 0.000000 0.054297
# 5 -0.003694 0.001439 -0.015994 0.000000 0.058796 0.000000
# 6 0.000000 0.000000 0.000000 0.054297 0.000000 0.166801
#
#
# Mechanical properties :
#
#
# Convention : Reuss Voigt Hill
#
# Bulk Modulus (GPa) = 36.77476 57.08265 46.92871
# Shear Modulus (GPa) = 15.05912 46.89660 30.97786
#
# Velocity S-wave (km/s) = 2.59895 4.58636 3.72755
# Velocity P-wave (km/s) = 5.04983 7.32460 6.29089
#
# Compressibility (1/GPa) = 0.02719256
#
# Stress axis : x y z
#
# Youngs Moduli (GPa) = 65.64499 147.62452 36.66422
#
# Poissons Ratio (x) = 0.15144 0.19447
# Poissons Ratio (y) = 0.06734 0.17286
# Poissons Ratio (z) = 0.34819 0.69601
#
# Static dielectric constant tensor:
#      x y z
#    x 1.903260 0.000000 -0.014210 
#    y 0.000000 1.946600 0.000000 
#    z -0.014210 0.000000 1.834710 
# 
# From -- ./inp_files/78142.got.cif
#   From: 2010.05.17/outbox.cif.g08.bks.cpg/sg12_40_cif.got.tgz:78142.got - 2010.06.03 13:09:07.
