data_PCOD9187420
_publ_section_title
;
Structure prediction by ZEFSAII (Michael W. Deem and Ramdas Pophale) SiO2 
 PCOD9187420
Probable space group: C 2/M
;
_chemical_formula_sum "Si O2"
_cell_formula_units_Z 48
_cell_length_a 8.917107
_cell_length_b 15.629574
_cell_length_c 26.730424
_cell_angle_alpha 90.000000
_cell_angle_beta 146.257258
_cell_angle_gamma 90.000000
_cell_volume 2069.348271
_symmetry_space_group_name_H-M "C 2/M"
_symmetry_group_IT_number 12
_symmetry_cell_setting 'monoclinic'
loop_
_space_group_symop_operation_xyz
x,y,z
-x,y,-z
-x,-y,-z
x,-y,z
1/2+x,1/2+y,z
1/2-x,1/2+y,-z
1/2-x,1/2-y,-z
1/2+x,1/2-y,z
loop_
_atom_site_type_symbol
_atom_site_label
_atom_site_fract_x
_atom_site_fract_y
_atom_site_fract_z
Si Si1 0.184437 0.334690 0.760619
Si Si2 0.004472 0.400531 0.440749
Si Si3 0.812241 0.092569 0.147363
Si Si4 0.075408 0.853760 0.714835
Si Si5 0.593966 0.401686 0.605888
Si Si6 0.952174 0.774622 0.934620
O O1 0.380219 0.399108 0.786473
O O2 0.285419 0.325250 0.846191
O O3 0.209425 0.238586 0.746699
O O4 0.872557 0.358853 0.668107
O O5 0.970632 0.500000 0.414904
O O6 0.300188 0.367182 0.506990
O O7 0.000000 0.402979 0.500000
O O8 0.739128 0.346495 0.355138
O O9 0.792275 0.098362 0.201919
O O10 0.688643 0.182455 0.094994
O O11 0.704263 0.000000 0.101339
O O12 0.087772 0.898507 0.664866
O O13 0.600328 0.500000 0.591596
O O14 0.000000 0.822617 0.000000
O O15 0.250000 0.750000 0.000000
#
# Coordination Sequence:
#
# PCOD9187420 Si02
#       6
#     8   8   8   8   8   8
#     4  11  23  38  59  85 120 150 184 238 294 342
#     4   8  15  30  53  81 114 152 195 241 281 324
#     4  11  23  39  61  89 119 151 187 233 292 347
#     4  10  19  35  59  84 113 155 200 235 278 337
#     4  10  20  36  58  83 114 155 199 239 280 333
#     4  11  23  44  65  86 114 152 187 233 288 351
#
# _framework density 23.195709999999998
#
# number of rings (size 3 to 8) (size 9 to 14) (size 15 to 20)
#    0.000    1.833    1.667    5.000    2.333    1.000 
#    0.000    2.500    0.000    5.500    0.000    0.000 
#    0.000    0.000    0.000    0.000    0.000    0.000 
#
# Total GULP energy -134019.384415 kJ/mol
# GULP energy per Si atom -5584.141017 kJ/mol
# Density = 2.314292 g / cm^3
# Si number density = 23.195710 Si / 1000 Ang^3
#
#
#
# Elastic Constant Matrix: (Units=GPa)
#
#
# Indices 1 2 3 4 5 6 
#
# 1 51.1473 3.2811 8.8170 0.0004 5.5311 0.0000
# 2 3.2811 78.6849 8.7603 0.0012 2.0230 0.0001
# 3 8.8170 8.7603 66.2213 0.0059 10.0130 0.0007
# 4 0.0004 0.0012 0.0059 -200.3514 -0.0010 -6.1109
# 5 5.5311 2.0230 10.0130 -0.0010 50.3893 -0.0001
# 6 0.0000 0.0001 0.0007 -6.1109 -0.0001 11.0447
#
#
#
# Elastic Compliance Matrix: (Units=1/GPa)
#
#
# Indices 1 2 3 4 5 6 
#
# 1 0.020178 -0.000535 -0.002355 0.000000 -0.001725 0.000000
# 2 -0.000535 0.012915 -0.001616 0.000000 -0.000139 0.000000
# 3 -0.002355 -0.001616 0.016062 0.000000 -0.002868 -0.000001
# 4 0.000000 0.000000 0.000000 -0.004908 0.000000 -0.002716
# 5 -0.001725 -0.000139 -0.002868 0.000000 0.020610 0.000000
# 6 0.000000 0.000000 -0.000001 -0.002716 0.000000 0.089039
#
#
# Mechanical properties :
#
#
# Convention : Reuss Voigt Hill
#
# Bulk Modulus (GPa) = 24.91113 26.41891 25.66502
# Shear Modulus (GPa) = 28.36258 -16.10380 6.12939
#
# Velocity S-wave (km/s) = 3.50058 -2.63774 1.62733
# Velocity P-wave (km/s) = 5.20592 1.46199 3.82355
#
# Compressibility (1/GPa) = 0.04014269
#
# Stress axis : x y z
#
# Youngs Moduli (GPa) = 49.55838 77.43097 62.25889
#
# Poissons Ratio (x) = 0.04142 0.14662
# Poissons Ratio (y) = 0.02651 0.10063
# Poissons Ratio (z) = 0.11671 0.12515
#
# Static dielectric constant tensor:
#      x y z
#    x 1.899480 0.000000 0.024520 
#    y 0.000000 1.817650 0.000000 
#    z 0.024520 0.000000 1.893620 
# 
# From -- ./inp_files/251407.got.cif
#   From: 2010.05.17/outbox.cif.g08.bks.cpg/sg12_126_cif.got.tgz:251407.got - 2010.06.03 13:09:07.
