data_PCOD9187323
_publ_section_title
;
Structure prediction by ZEFSAII (Michael W. Deem and Ramdas Pophale) SiO2 
 PCOD9187323
Probable space group: C 2/M
;
_chemical_formula_sum "Si O2"
_cell_formula_units_Z 56
_cell_length_a 20.700524
_cell_length_b 8.733097
_cell_length_c 17.888210
_cell_angle_alpha 90.000000
_cell_angle_beta 108.842938
_cell_angle_gamma 90.000000
_cell_volume 3060.516141
_symmetry_space_group_name_H-M "C 2/M"
_symmetry_group_IT_number 12
_symmetry_cell_setting 'monoclinic'
loop_
_space_group_symop_operation_xyz
x,y,z
-x,y,-z
-x,-y,-z
x,-y,z
1/2+x,1/2+y,z
1/2-x,1/2+y,-z
1/2-x,1/2-y,-z
1/2+x,1/2-y,z
loop_
_atom_site_type_symbol
_atom_site_label
_atom_site_fract_x
_atom_site_fract_y
_atom_site_fract_z
Si Si1 0.173011 0.683345 0.657384
Si Si2 0.310443 0.316471 0.927113
Si Si3 0.847345 0.318135 0.095019
Si Si4 0.829349 0.816514 0.764057
Si Si5 0.570185 0.682235 0.741640
Si Si6 0.176276 0.816801 0.495357
Si Si7 0.419976 0.817949 0.668416
O O1 0.164429 0.500000 0.651757
O O2 0.251698 0.714321 0.709017
O O3 0.123304 0.753126 0.700669
O O4 0.159451 0.755362 0.571476
O O5 0.317303 0.500000 0.938877
O O6 0.229483 0.281887 0.904426
O O7 0.334946 0.275142 0.853445
O O8 0.347885 0.232969 0.009061
O O9 0.857261 0.500000 0.105845
O O10 0.900851 0.231380 0.166780
O O11 0.880821 0.729413 0.729510
O O12 0.840285 0.000000 0.760937
O O13 0.565994 0.500000 0.734649
O O14 0.496590 0.755787 0.700344
O O15 0.250000 0.750000 0.500000
O O16 0.121484 0.758791 0.414911
O O17 0.179491 0.000000 0.495948
O O18 0.419381 0.000000 0.659149
#
# Coordination Sequence:
#
# PCOD9187323 Si02
#       7
#     8   8   8   8   8   8   8
#     4  11  22  40  66  94 125 161 204 256 307 361
#     4   9  18  34  58  90 123 159 201 249 303 360
#     4  10  19  35  58  89 125 161 202 252 305 360
#     4  10  20  38  63  91 125 161 203 252 306 366
#     4  12  25  42  63  90 126 166 207 252 310 373
#     4  12  24  41  64  94 126 161 206 254 305 361
#     4  12  26  43  64  90 124 164 207 255 311 369
#
# _framework density 18.297566
#
# number of rings (size 3 to 8) (size 9 to 14) (size 15 to 20)
#    0.000    1.143    2.857    4.714    0.000    2.286 
#    0.000    3.571    0.000    4.286    0.000    0.000 
#    0.000    0.000    0.000    0.000    0.000    0.000 
#
# Total GULP energy -156583.744450 kJ/mol
# GULP energy per Si atom -5592.276587 kJ/mol
# Density = 1.825592 g / cm^3
# Si number density = 18.297566 Si / 1000 Ang^3
#
#
#
# Elastic Constant Matrix: (Units=GPa)
#
#
# Indices 1 2 3 4 5 6 
#
# 1 68.9491 36.6618 30.9515 0.0000 4.0081 0.0000
# 2 36.6618 88.4906 37.4345 0.0000 -5.1292 0.0000
# 3 30.9515 37.4345 109.3198 0.0000 -6.7233 0.0000
# 4 0.0000 0.0000 0.0000 35.8182 0.0000 -3.8024
# 5 4.0081 -5.1292 -6.7233 0.0000 25.2093 0.0000
# 6 0.0000 0.0000 0.0000 -3.8024 0.0000 31.2216
#
#
#
# Elastic Compliance Matrix: (Units=1/GPa)
#
#
# Indices 1 2 3 4 5 6 
#
# 1 0.020288 -0.007199 -0.003627 0.000000 -0.005658 0.000000
# 2 -0.007199 0.015826 -0.003165 0.000000 0.003521 0.000000
# 3 -0.003627 -0.003165 0.011442 0.000000 0.002984 0.000000
# 4 0.000000 0.000000 0.000000 0.028284 0.000000 0.003445
# 5 -0.005658 0.003521 0.002984 0.000000 0.042080 0.000000
# 6 0.000000 0.000000 0.000000 0.003445 0.000000 0.032449
#
#
# Mechanical properties :
#
#
# Convention : Reuss Voigt Hill
#
# Bulk Modulus (GPa) = 51.08629 52.98390 52.03509
# Shear Modulus (GPa) = 27.04532 29.23061 28.13796
#
# Velocity S-wave (km/s) = 3.84876 4.00123 3.92573
# Velocity P-wave (km/s) = 6.90875 7.09691 7.00346
#
# Compressibility (1/GPa) = 0.01957472
#
# Stress axis : x y z
#
# Youngs Moduli (GPa) = 49.28914 63.18714 87.40083
#
# Poissons Ratio (x) = 0.45489 0.31700
# Poissons Ratio (y) = 0.35484 0.27658
# Poissons Ratio (z) = 0.17877 0.19996
#
# Static dielectric constant tensor:
#      x y z
#    x 1.599760 0.000000 -0.008020 
#    y 0.000000 1.610220 0.000000 
#    z -0.008020 0.000000 1.616680 
# 
# From -- ./inp_files/275523.got.cif
#   From: 2010.05.17/outbox.cif.g08.bks.cpg/sg12_138_cif.got.tgz:275523.got - 2010.06.03 13:09:07.
