data_PCOD9187398
_publ_section_title
;
Structure prediction by ZEFSAII (Michael W. Deem and Ramdas Pophale) SiO2 
 PCOD9187398
Probable space group: C 2/M
;
_chemical_formula_sum "Si O2"
_cell_formula_units_Z 56
_cell_length_a 22.210194
_cell_length_b 8.679059
_cell_length_c 19.837849
_cell_angle_alpha 90.000000
_cell_angle_beta 133.699209
_cell_angle_gamma 90.000000
_cell_volume 2764.673593
_symmetry_space_group_name_H-M "C 2/M"
_symmetry_group_IT_number 12
_symmetry_cell_setting 'monoclinic'
loop_
_space_group_symop_operation_xyz
x,y,z
-x,y,-z
-x,-y,-z
x,-y,z
1/2+x,1/2+y,z
1/2-x,1/2+y,-z
1/2-x,1/2-y,-z
1/2+x,1/2-y,z
loop_
_atom_site_type_symbol
_atom_site_label
_atom_site_fract_x
_atom_site_fract_y
_atom_site_fract_z
Si Si1 0.003136 0.683535 0.209959
Si Si2 0.935970 0.821733 0.607482
Si Si3 0.227691 0.315522 0.556296
Si Si4 0.440796 0.822081 0.389798
Si Si5 0.638603 0.313704 0.225817
Si Si6 0.315694 0.812927 0.104145
Si Si7 0.238394 0.315300 0.788260
O O1 0.003285 0.500000 0.206112
O O2 0.057123 0.737177 0.315988
O O3 0.049519 0.750573 0.180402
O O4 0.908705 0.735755 0.153122
O O5 0.865091 0.748099 0.505869
O O6 0.022451 0.792394 0.636854
O O7 0.918317 0.000000 0.605151
O O8 0.225487 0.500000 0.552836
O O9 0.250000 0.250000 0.500000
O O10 0.293982 0.269621 0.664232
O O11 0.500000 0.810465 0.500000
O O12 0.342968 0.792359 0.321914
O O13 0.447894 0.000000 0.369824
O O14 0.634149 0.500000 0.221546
O O15 0.679506 0.258313 0.187083
O O16 0.287204 0.760148 0.157034
O O17 0.315865 0.000000 0.104911
O O18 0.250000 0.750000 0.000000
O O19 0.249033 0.500000 0.802374
#
# Coordination Sequence:
#
# PCOD9187398 Si02
#       7
#     8   8   8   8   8   8   8
#     4  11  22  39  62  86 117 155 197 246 302 362
#     4  12  23  34  52  81 118 160 206 254 296 347
#     4  11  21  33  51  80 118 162 209 252 292 348
#     4  10  19  35  59  83 114 160 205 248 300 358
#     4  10  21  37  60  88 119 158 204 249 299 356
#     4  10  22  42  68  93 117 151 196 250 308 370
#     4   9  18  37  61  88 120 155 198 248 302 361
#
# _framework density 20.255555000000001
#
# number of rings (size 3 to 8) (size 9 to 14) (size 15 to 20)
#    0.000    1.571    2.857    3.000    0.000    4.286 
#    0.000    2.143    0.000    4.286    0.000    0.000 
#    0.000    0.000    0.000    0.000    0.000    0.000 
#
# Total GULP energy -156281.527697 kJ/mol
# GULP energy per Si atom -5581.483132 kJ/mol
# Density = 2.020945 g / cm^3
# Si number density = 20.255555 Si / 1000 Ang^3
#
#
#
# Elastic Constant Matrix: (Units=GPa)
#
#
# Indices 1 2 3 4 5 6 
#
# 1 181.6249 34.0764 52.2005 0.0000 6.3304 0.0000
# 2 34.0764 18.8720 16.7343 0.0000 3.2764 0.0000
# 3 52.2005 16.7343 82.3878 0.0000 1.8071 0.0000
# 4 0.0000 0.0000 0.0000 21.3412 0.0000 4.3860
# 5 6.3304 3.2764 1.8071 0.0000 19.3214 0.0000
# 6 0.0000 0.0000 0.0000 4.3860 0.0000 30.7208
#
#
#
# Elastic Compliance Matrix: (Units=1/GPa)
#
#
# Indices 1 2 3 4 5 6 
#
# 1 0.008857 -0.013368 -0.002888 0.000000 -0.000365 0.000000
# 2 -0.013368 0.086692 -0.008931 0.000000 -0.009486 0.000000
# 3 -0.002888 -0.008931 0.015760 0.000000 0.000987 0.000000
# 4 0.000000 0.000000 0.000000 0.048274 0.000000 -0.006892
# 5 -0.000365 -0.009486 0.000987 0.000000 0.053392 0.000000
# 6 0.000000 0.000000 0.000000 -0.006892 0.000000 0.033535
#
#
# Mechanical properties :
#
#
# Convention : Reuss Voigt Hill
#
# Bulk Modulus (GPa) = 16.41085 54.32302 35.36693
# Shear Modulus (GPa) = 15.76310 26.26824 21.01567
#
# Velocity S-wave (km/s) = 2.79267 3.60508 3.22456
# Velocity P-wave (km/s) = 4.30327 6.64874 5.60018
#
# Compressibility (1/GPa) = 0.06093530
#
# Stress axis : x y z
#
# Youngs Moduli (GPa) = 112.90788 11.53504 63.45121
#
# Poissons Ratio (x) = 0.15420 0.18327
# Poissons Ratio (y) = 1.50933 0.56667
# Poissons Ratio (z) = 0.32612 0.10302
#
# Static dielectric constant tensor:
#      x y z
#    x 1.780320 0.000000 0.005660 
#    y 0.000000 1.688240 0.000000 
#    z 0.005660 0.000000 1.697510 
# 
# From -- ./inp_files/320261.got.cif
#   From: 2010.05.17/outbox.cif.g08.bks.cpg/sg12_161_cif.got.tgz:320261.got - 2010.06.03 13:09:07.
