data_PCOD9187167
_publ_section_title
;
Structure prediction by ZEFSAII (Michael W. Deem and Ramdas Pophale) SiO2 
 PCOD9187167
Probable space group: C 2/M
;
_chemical_formula_sum "Si O2"
_cell_formula_units_Z 56
_cell_length_a 20.363855
_cell_length_b 17.679178
_cell_length_c 8.865006
_cell_angle_alpha 90.000000
_cell_angle_beta 65.368735
_cell_angle_gamma 90.000000
_cell_volume 2901.143393
_symmetry_space_group_name_H-M "C 2/M"
_symmetry_group_IT_number 12
_symmetry_cell_setting 'monoclinic'
loop_
_space_group_symop_operation_xyz
x,y,z
-x,y,-z
-x,-y,-z
x,-y,z
1/2+x,1/2+y,z
1/2-x,1/2+y,-z
1/2-x,1/2-y,-z
1/2+x,1/2-y,z
loop_
_atom_site_type_symbol
_atom_site_label
_atom_site_fract_x
_atom_site_fract_y
_atom_site_fract_z
Si Si1 0.076971 0.351817 0.490797
Si Si2 0.167566 0.289405 0.892014
Si Si3 0.925015 0.589645 0.161976
Si Si4 0.227555 0.589125 0.236238
Si Si5 0.809857 0.186791 0.391318
Si Si6 0.686567 0.675570 0.110438
Si Si7 0.917347 0.169142 0.550842
O O1 0.078428 0.374193 0.667011
O O2 0.143933 0.388546 0.337656
O O3 0.082775 0.261458 0.459813
O O4 0.000000 0.377629 0.500000
O O5 0.134535 0.369550 0.884937
O O6 0.146781 0.232969 0.778109
O O7 0.254041 0.295399 0.826897
O O8 0.148642 0.246679 0.064158
O O9 0.913672 0.500000 0.186772
O O10 0.000000 0.602582 0.000000
O O11 0.234397 0.500000 0.215462
O O12 0.265927 0.621325 0.349337
O O13 0.268481 0.629070 0.056538
O O14 0.750000 0.250000 0.500000
O O15 0.866558 0.152768 0.455239
O O16 0.625816 0.636382 0.264913
O O17 0.000000 0.146696 0.500000
#
# Coordination Sequence:
#
# PCOD9187167 Si02
#       7
#     8   8   8   8   8   8   8
#     4  11  23  39  61  92 131 169 211 251 301 379
#     4  10  19  35  58  81 116 169 207 255 294 347
#     4  11  25  38  53  87 135 176 206 242 303 377
#     4  11  24  41  64  92 128 174 208 250 318 380
#     4  11  18  38  64  91 122 157 209 265 298 362
#     4  10  22  37  62  89 117 154 221 263 307 362
#     4  11  22  38  66  99 120 154 208 270 327 361
#
# _framework density 19.302734000000001
#
# number of rings (size 3 to 8) (size 9 to 14) (size 15 to 20)
#    0.000    1.286    4.286    2.143    6.000    1.714 
#    0.000    2.857    0.000    2.571    0.000    0.000 
#    0.000    0.000    0.000    0.000    0.000    0.000 
#
# Total GULP energy -156090.455281 kJ/mol
# GULP energy per Si atom -5574.659117 kJ/mol
# Density = 1.925880 g / cm^3
# Si number density = 19.302734 Si / 1000 Ang^3
#
#
#
# Elastic Constant Matrix: (Units=GPa)
#
#
# Indices 1 2 3 4 5 6 
#
# 1 132.5769 21.5543 61.2428 0.0000 7.6214 0.0000
# 2 21.5543 59.6670 25.5303 0.0000 0.0144 0.0000
# 3 61.2428 25.5303 117.0672 0.0000 -1.6802 0.0000
# 4 0.0000 0.0000 0.0000 15.1270 0.0000 1.3000
# 5 7.6214 0.0144 -1.6802 0.0000 21.8257 0.0000
# 6 0.0000 0.0000 0.0000 1.3000 0.0000 18.7555
#
#
#
# Elastic Compliance Matrix: (Units=1/GPa)
#
#
# Indices 1 2 3 4 5 6 
#
# 1 0.010414 -0.001550 -0.005168 0.000000 -0.004033 0.000000
# 2 -0.001550 0.018717 -0.003267 0.000000 0.000277 0.000000
# 3 -0.005168 -0.003267 0.011997 0.000000 0.002730 0.000000
# 4 0.000000 0.000000 0.000000 0.066503 0.000000 -0.004609
# 5 -0.004033 0.000277 0.002730 0.000000 0.047436 0.000000
# 6 0.000000 0.000000 0.000000 -0.004609 0.000000 0.053637
#
#
# Mechanical properties :
#
#
# Convention : Reuss Voigt Hill
#
# Bulk Modulus (GPa) = 47.26124 58.44066 52.85095
# Shear Modulus (GPa) = 21.21097 24.54057 22.87577
#
# Velocity S-wave (km/s) = 3.31850 3.56947 3.44627
# Velocity P-wave (km/s) = 6.26264 6.87966 6.57839
#
# Compressibility (1/GPa) = 0.02115899
#
# Stress axis : x y z
#
# Youngs Moduli (GPa) = 96.02609 53.42612 83.35195
#
# Poissons Ratio (x) = 0.08280 0.43075
# Poissons Ratio (y) = 0.14882 0.27233
# Poissons Ratio (z) = 0.49625 0.17456
#
# Static dielectric constant tensor:
#      x y z
#    x 1.699990 0.000000 0.022240 
#    y 0.000000 1.658750 0.000000 
#    z 0.022240 0.000000 1.749960 
# 
# From -- ./inp_files/87840.got.cif
#   From: 2010.05.17/outbox.cif.g08.bks.cpg/sg12_44_cif.got.tgz:87840.got - 2010.06.03 13:09:07.
