data_PCOD9187925
_publ_section_title
;
Structure prediction by ZEFSAII (Michael W. Deem and Ramdas Pophale) SiO2 
 PCOD9187925
Probable space group: C 2/M
;
_chemical_formula_sum "Si O2"
_cell_formula_units_Z 64
_cell_length_a 12.160671
_cell_length_b 16.749689
_cell_length_c 29.243677
_cell_angle_alpha 90.000000
_cell_angle_beta 151.802606
_cell_angle_gamma 90.000000
_cell_volume 2814.543039
_symmetry_space_group_name_H-M "C 2/M"
_symmetry_group_IT_number 12
_symmetry_cell_setting 'monoclinic'
loop_
_space_group_symop_operation_xyz
x,y,z
-x,y,-z
-x,-y,-z
x,-y,z
1/2+x,1/2+y,z
1/2-x,1/2+y,-z
1/2-x,1/2-y,-z
1/2+x,1/2-y,z
loop_
_atom_site_type_symbol
_atom_site_label
_atom_site_fract_x
_atom_site_fract_y
_atom_site_fract_z
Si Si1 0.887869 0.589696 0.074651
Si Si2 0.916047 0.901981 0.272823
Si Si3 0.103892 0.092358 0.633528
Si Si4 0.004843 0.879574 0.864879
Si Si5 0.765734 0.731686 0.093964
Si Si6 0.183578 0.400999 0.420515
Si Si7 0.558316 0.854306 0.757743
Si Si8 0.741915 0.089842 0.676454
O O1 0.898271 0.500000 0.097305
O O2 0.768561 0.648717 0.067076
O O3 0.151864 0.616748 0.161674
O O4 0.736808 0.588583 0.973258
O O5 0.944748 0.870918 0.334887
O O6 0.114597 0.871282 0.311768
O O7 0.926906 0.000000 0.276176
O O8 0.376347 0.097992 0.722619
O O9 0.938519 0.120101 0.531969
O O10 0.039607 0.000000 0.614107
O O11 0.069472 0.789184 0.875019
O O12 0.799945 0.889433 0.827030
O O13 0.910316 0.913547 0.782558
O O14 0.866465 0.717432 0.181544
O O15 0.500000 0.760946 0.000000
O O16 0.168368 0.500000 0.405532
O O17 0.091876 0.351377 0.343772
O O18 0.002074 0.379186 0.394275
O O19 0.687012 0.000000 0.641345
#
# Coordination Sequence:
#
# PCOD9187925 Si02
#       8
#     8   8   8   8   8   8   8   8
#     4  11  23  40  62  94 129 164 210 266 320 375
#     4   9  19  33  55  90 127 166 211 258 316 371
#     4  10  19  35  62  96 129 163 207 268 326 378
#     4  11  25  41  62  91 129 170 217 256 317 384
#     4  12  26  43  62  94 126 172 215 261 316 386
#     4   9  19  35  62  96 129 162 206 267 328 379
#     4  11  22  39  60  90 121 163 207 257 312 373
#     4   9  19  37  59  92 129 170 217 266 318 372
#
# _framework density 22.739035999999999
#
# number of rings (size 3 to 8) (size 9 to 14) (size 15 to 20)
#    0.000    1.750    2.500    1.500    1.750    3.750 
#    0.000    4.375    0.000    6.750    0.000    0.000 
#    0.000    0.000    0.000    0.000    0.000    0.000 
#
# Total GULP energy -178481.628800 kJ/mol
# GULP energy per Si atom -5577.550900 kJ/mol
# Density = 2.268728 g / cm^3
# Si number density = 22.739036 Si / 1000 Ang^3
#
#
#
# Elastic Constant Matrix: (Units=GPa)
#
#
# Indices 1 2 3 4 5 6 
#
# 1 122.5497 11.6795 22.4980 -0.0001 4.2861 0.0000
# 2 11.6795 39.7905 10.0519 -0.0001 -0.4910 0.0000
# 3 22.4980 10.0519 124.4323 0.0055 -2.0091 -0.0016
# 4 -0.0001 -0.0001 0.0055 38.9650 0.0005 -1.4973
# 5 4.2861 -0.4910 -2.0091 0.0005 22.7034 -0.0015
# 6 0.0000 0.0000 -0.0016 -1.4973 -0.0015 -0.8578
#
#
#
# Elastic Compliance Matrix: (Units=1/GPa)
#
#
# Indices 1 2 3 4 5 6 
#
# 1 0.008696 -0.002215 -0.001423 0.000000 -0.001815 0.000005
# 2 -0.002215 0.026223 -0.001704 0.000000 0.000835 0.000003
# 3 -0.001423 -0.001704 0.008447 -0.000002 0.000979 -0.000015
# 4 0.000000 0.000000 -0.000002 0.024051 -0.000003 -0.041982
# 5 -0.001815 0.000835 0.000979 -0.000003 0.044494 -0.000072
# 6 0.000005 0.000003 -0.000015 -0.041982 -0.000072 -1.092495
#
#
# Mechanical properties :
#
#
# Convention : Reuss Voigt Hill
#
# Bulk Modulus (GPa) = 30.59876 41.69238 36.14557
# Shear Modulus (GPa) = -5.21373 28.33165 11.55896
#
# Velocity S-wave (km/s) = -1.51586 3.53363 2.25707
# Velocity P-wave (km/s) = 3.22830 5.91808 4.76684
#
# Compressibility (1/GPa) = 0.03268106
#
# Stress axis : x y z
#
# Youngs Moduli (GPa) = 114.99864 38.13478 118.38248
#
# Poissons Ratio (x) = 0.08449 0.16841
# Poissons Ratio (y) = 0.25477 0.20176
# Poissons Ratio (z) = 0.16359 0.06499
#
# Static dielectric constant tensor:
#      x y z
#    x 1.874600 0.000000 -0.012390 
#    y 0.000000 1.900440 0.000000 
#    z -0.012390 0.000000 1.832760 
# 
# From -- ./inp_files/374493.got.cif
#   From: 2010.05.17/outbox.cif.g08.bks.cpg/sg12_188_cif.got.tgz:374493.got - 2010.06.03 13:09:07.
