data_PCOD9187096
_publ_section_title
;
Structure prediction by ZEFSAII (Michael W. Deem and Ramdas Pophale) SiO2 
 PCOD9187096
Probable space group: C 2/M
;
_chemical_formula_sum "Si O2"
_cell_formula_units_Z 46
_cell_length_a 17.338743
_cell_length_b 18.206366
_cell_length_c 7.784454
_cell_angle_alpha 90.000000
_cell_angle_beta 127.400974
_cell_angle_gamma 90.000000
_cell_volume 1952.138465
_symmetry_space_group_name_H-M "C 2/M"
_symmetry_group_IT_number 12
_symmetry_cell_setting 'monoclinic'
loop_
_space_group_symop_operation_xyz
x,y,z
-x,y,-z
-x,-y,-z
x,-y,z
1/2+x,1/2+y,z
1/2-x,1/2+y,-z
1/2-x,1/2-y,-z
1/2+x,1/2-y,z
loop_
_atom_site_type_symbol
_atom_site_label
_atom_site_fract_x
_atom_site_fract_y
_atom_site_fract_z
Si Si1 0.647199 0.500000 0.706297
Si Si2 0.000000 0.000000 0.000000
Si Si3 0.723162 0.000000 0.429954
Si Si4 0.127573 0.657239 0.300248
Si Si5 0.197476 0.500000 0.779800
Si Si6 0.198397 0.341515 0.752179
Si Si7 0.070782 0.280025 0.872843
Si Si8 0.419314 0.621309 0.156576
O O1 0.682152 0.500000 0.559618
O O2 0.594836 0.575546 0.686888
O O3 0.739713 0.500000 0.962012
O O4 0.035986 0.936174 0.913267
O O5 0.662255 0.073859 0.310481
O O6 0.754712 0.000000 0.673077
O O7 0.191567 0.683359 0.547186
O O8 0.018290 0.663563 0.227011
O O9 0.127998 0.705486 0.128393
O O10 0.146086 0.421883 0.698813
O O11 0.141843 0.292388 0.810139
O O12 0.309325 0.356306 0.952437
O O13 0.026928 0.199021 0.784807
#
# Coordination Sequence:
#
# PCOD9187096 Si02
#       8
#     4   2   4   8   4   8   8   8
#     4   9  18  37  62  83 107 145 192 248 288 330
#     4  10  20  40  66  90 118 154 202 258 300 346
#     4  10  19  35  57  87 115 147 198 237 277 347
#     4  10  22  36  58  87 122 161 191 238 300 344
#     4   8  17  32  54  84 110 142 191 232 279 329
#     4  10  20  37  60  87 118 158 200 241 288 353
#     4  11  22  37  56  91 128 154 194 240 294 363
#     4  10  21  38  63  88 115 156 201 244 301 354
#
# _framework density 23.563901000000001
#
# number of rings (size 3 to 8) (size 9 to 14) (size 15 to 20)
#    0.000    2.087    0.000    4.696    0.000    2.783 
#    0.000    6.087    0.000    8.348    0.000   65.739 
#    0.000    0.000    0.000    0.000    0.000    0.000 
#
# Total GULP energy -128212.050115 kJ/mol
# GULP energy per Si atom -5574.436962 kJ/mol
# Density = 2.351027 g / cm^3
# Si number density = 23.563901 Si / 1000 Ang^3
#
#
#
# Elastic Constant Matrix: (Units=GPa)
#
#
# Indices 1 2 3 4 5 6 
#
# 1 96.3373 57.2027 14.5066 0.0000 -21.9448 0.0000
# 2 57.2027 110.3958 25.7795 0.0000 -20.2423 0.0000
# 3 14.5066 25.7795 74.5732 0.0000 -1.2810 0.0000
# 4 0.0000 0.0000 0.0000 -21.7461 0.0000 52.3925
# 5 -21.9448 -20.2423 -1.2810 0.0000 33.5606 0.0000
# 6 0.0000 0.0000 0.0000 52.3925 0.0000 -63.8788
#
#
#
# Elastic Compliance Matrix: (Units=1/GPa)
#
#
# Indices 1 2 3 4 5 6 
#
# 1 0.016074 -0.007049 -0.000583 0.000000 0.006237 0.000000
# 2 -0.007049 0.014228 -0.003481 0.000000 0.003839 0.000000
# 3 -0.000583 -0.003481 0.014693 0.000000 -0.001920 0.000000
# 4 0.000000 0.000000 0.000000 0.047113 0.000000 0.038642
# 5 0.006237 0.003839 -0.001920 0.000000 0.036117 0.000000
# 6 0.000000 0.000000 0.000000 0.038642 0.000000 0.016039
#
#
# Mechanical properties :
#
#
# Convention : Reuss Voigt Hill
#
# Bulk Modulus (GPa) = 43.91979 52.92044 48.42011
# Shear Modulus (GPa) = 28.72216 1.84166 15.28191
#
# Velocity S-wave (km/s) = 3.49507 0.88502 2.54939
# Velocity P-wave (km/s) = 5.91324 4.85297 5.40915
#
# Compressibility (1/GPa) = 0.02276878
#
# Stress axis : x y z
#
# Youngs Moduli (GPa) = 62.21074 70.28407 68.05733
#
# Poissons Ratio (x) = 0.49546 0.03967
# Poissons Ratio (y) = 0.43855 0.23693
# Poissons Ratio (z) = 0.03626 0.24468
#
# Static dielectric constant tensor:
#      x y z
#    x 1.869780 0.000000 0.059690 
#    y 0.000000 1.926130 0.000000 
#    z 0.059690 0.000000 1.966860 
# 
# From -- ./inp_files/75497.got.cif
#   From: 2010.05.17/outbox.cif.g08.bks.cpg/sg12_38_cif.got.tgz:75497.got - 2010.06.03 13:09:07.
