data_PCOD9187373
_publ_section_title
;
Structure prediction by ZEFSAII (Michael W. Deem and Ramdas Pophale) SiO2 
 PCOD9187373
Probable space group: C 2/M
;
_chemical_formula_sum "Si O2"
_cell_formula_units_Z 64
_cell_length_a 8.997878
_cell_length_b 17.569427
_cell_length_c 23.208993
_cell_angle_alpha 90.000000
_cell_angle_beta 97.302100
_cell_angle_gamma 90.000000
_cell_volume 3639.296279
_symmetry_space_group_name_H-M "C 2/M"
_symmetry_group_IT_number 12
_symmetry_cell_setting 'monoclinic'
loop_
_space_group_symop_operation_xyz
x,y,z
-x,y,-z
-x,-y,-z
x,-y,z
1/2+x,1/2+y,z
1/2-x,1/2+y,-z
1/2-x,1/2-y,-z
1/2+x,1/2-y,z
loop_
_atom_site_type_symbol
_atom_site_label
_atom_site_fract_x
_atom_site_fract_y
_atom_site_fract_z
Si Si1 0.392860 0.227483 0.726618
Si Si2 0.927125 0.910294 0.557544
Si Si3 0.607698 0.692366 0.645909
Si Si4 0.322083 0.810876 0.194375
Si Si5 0.155045 0.302073 0.539232
Si Si6 0.651426 0.859910 0.990415
Si Si7 0.352283 0.412568 0.897852
Si Si8 0.121808 0.209243 0.913069
O O1 0.489934 0.277247 0.686961
O O2 0.267596 0.182257 0.684413
O O3 0.516646 0.179544 0.767627
O O4 0.298899 0.280803 0.765526
O O5 0.765797 0.871661 0.557288
O O6 0.000000 0.885951 0.500000
O O7 0.038926 0.880839 0.612008
O O8 0.913271 0.000000 0.556866
O O9 0.623707 0.755353 0.596069
O O10 0.258980 0.884174 0.158114
O O11 0.343201 0.744472 0.147449
O O12 0.250000 0.250000 0.500000
O O13 0.000000 0.322516 0.500000
O O14 0.762411 0.903574 0.953263
O O15 0.601752 0.782987 0.953350
O O16 0.500000 0.901849 0.000000
O O17 0.740298 0.834980 0.051550
O O18 0.401633 0.500000 0.892919
O O19 0.483392 0.349017 0.905412
#
# Coordination Sequence:
#
# PCOD9187373 Si02
#       8
#     8   8   8   8   8   8   8   8
#     4  10  21  34  64  85 108 143 211 242 279 322
#     4  11  23  38  57  88 126 156 185 236 298 349
#     4  11  19  36  60  90 111 151 194 247 278 338
#     4  10  20  38  59  87 107 148 196 246 276 341
#     4  12  19  34  62  90 117 157 199 236 281 350
#     4  10  20  33  58  86 110 146 187 231 276 338
#     4  11  23  38  57  84 120 149 179 231 295 350
#     4  10  19  35  59  82 111 148 189 229 279 345
#
# _framework density 17.585816999999999
#
# number of rings (size 3 to 8) (size 9 to 14) (size 15 to 20)
#    0.000    1.375    5.000    2.625    1.750    1.500 
#    0.000    1.250    0.000    0.000    0.000    0.000 
#    0.000    0.000    0.000    0.000    0.000    0.000 
#
# Total GULP energy -178582.897847 kJ/mol
# GULP energy per Si atom -5580.715558 kJ/mol
# Density = 1.754579 g / cm^3
# Si number density = 17.585817 Si / 1000 Ang^3
#
#
#
# Elastic Constant Matrix: (Units=GPa)
#
#
# Indices 1 2 3 4 5 6 
#
# 1 115.6015 27.3547 45.7148 0.0000 11.4482 0.0000
# 2 27.3547 69.7996 17.8515 0.0000 3.7778 0.0000
# 3 45.7148 17.8515 95.8191 0.0000 4.9115 0.0000
# 4 0.0000 0.0000 0.0000 5.1213 0.0000 -1.5732
# 5 11.4482 3.7778 4.9115 0.0000 45.5130 0.0000
# 6 0.0000 0.0000 0.0000 -1.5732 0.0000 17.4540
#
#
#
# Elastic Compliance Matrix: (Units=1/GPa)
#
#
# Indices 1 2 3 4 5 6 
#
# 1 0.011504 -0.003169 -0.004790 0.000000 -0.002114 0.000000
# 2 -0.003169 0.015958 -0.001442 0.000000 -0.000372 0.000000
# 3 -0.004790 -0.001442 0.012994 0.000000 -0.000078 0.000000
# 4 0.000000 0.000000 0.000000 0.200823 0.000000 0.018101
# 5 -0.002114 -0.000372 -0.000078 0.000000 0.022543 0.000000
# 6 0.000000 0.000000 0.000000 0.018101 0.000000 0.058925
#
#
# Mechanical properties :
#
#
# Convention : Reuss Voigt Hill
#
# Bulk Modulus (GPa) = 46.18052 51.45136 48.81594
# Shear Modulus (GPa) = 14.33627 26.30427 20.32027
#
# Velocity S-wave (km/s) = 2.85830 3.87171 3.40294
# Velocity P-wave (km/s) = 6.10002 7.02194 6.57716
#
# Compressibility (1/GPa) = 0.02165415
#
# Stress axis : x y z
#
# Youngs Moduli (GPa) = 86.92893 62.66609 76.95820
#
# Poissons Ratio (x) = 0.19859 0.36860
# Poissons Ratio (y) = 0.27548 0.11098
# Poissons Ratio (z) = 0.41635 0.09037
#
# Static dielectric constant tensor:
#      x y z
#    x 1.625760 0.000000 0.009290 
#    y 0.000000 1.571550 0.000000 
#    z 0.009290 0.000000 1.613740 
# 
# From -- ./inp_files/300784.got.cif
#   From: 2010.05.17/outbox.cif.g08.bks.cpg/sg12_151_cif.got.tgz:300784.got - 2010.06.03 13:09:07.
