data_PCOD9187770
_publ_section_title
;
Structure prediction by ZEFSAII (Michael W. Deem and Ramdas Pophale) SiO2 
 PCOD9187770
Probable space group: C 2/M
;
_chemical_formula_sum "Si O2"
_cell_formula_units_Z 64
_cell_length_a 15.288718
_cell_length_b 8.784249
_cell_length_c 29.417440
_cell_angle_alpha 90.000000
_cell_angle_beta 129.363066
_cell_angle_gamma 90.000000
_cell_volume 3054.500303
_symmetry_space_group_name_H-M "C 2/M"
_symmetry_group_IT_number 12
_symmetry_cell_setting 'monoclinic'
loop_
_space_group_symop_operation_xyz
x,y,z
-x,y,-z
-x,-y,-z
x,-y,z
1/2+x,1/2+y,z
1/2-x,1/2+y,-z
1/2-x,1/2-y,-z
1/2+x,1/2-y,z
loop_
_atom_site_type_symbol
_atom_site_label
_atom_site_fract_x
_atom_site_fract_y
_atom_site_fract_z
Si Si1 0.524643 0.816524 0.059817
Si Si2 0.848269 0.818582 0.750172
Si Si3 0.023030 0.323536 0.561169
Si Si4 0.263570 0.179946 0.633371
Si Si5 0.602203 0.319048 0.400917
Si Si6 0.131488 0.817394 0.728538
Si Si7 0.933027 0.816787 0.117490
Si Si8 0.280358 0.684651 0.146774
O O1 0.441793 0.752051 0.070538
O O2 0.652489 0.764886 0.113338
O O3 0.520365 0.000000 0.060348
O O4 0.500000 0.770791 0.000000
O O5 0.845504 0.741954 0.699871
O O6 0.733776 0.767374 0.737431
O O7 0.954481 0.775339 0.816563
O O8 0.851078 0.000000 0.744769
O O9 0.042569 0.500000 0.579793
O O10 0.137448 0.228670 0.606467
O O11 0.000000 0.314603 0.500000
O O12 0.922196 0.258149 0.558749
O O13 0.296719 0.254729 0.596301
O O14 0.271306 0.000000 0.632559
O O15 0.614037 0.500000 0.410007
O O16 0.488014 0.285435 0.334182
O O17 0.140077 0.775721 0.784534
O O18 0.150558 0.000000 0.730978
O O19 0.829367 0.763840 0.114762
O O20 0.929940 0.000000 0.112951
O O21 0.278332 0.500000 0.144231
#
# Coordination Sequence:
#
# PCOD9187770 Si02
#       8
#     8   8   8   8   8   8   8   8
#     4  10  21  37  57  81 111 151 198 248 298 352
#     4  11  21  35  59  89 122 153 194 249 302 360
#     4  11  25  45  67  92 124 162 207 259 307 355
#     4  12  25  41  64  93 126 166 205 246 305 366
#     4  11  23  40  65  95 125 160 205 252 304 367
#     4  10  19  35  61  88 117 158 195 234 300 368
#     4  10  21  37  58  84 113 153 194 238 296 355
#     4   9  18  35  57  80 115 154 189 232 293 360
#
# _framework density 20.952691000000002
#
# number of rings (size 3 to 8) (size 9 to 14) (size 15 to 20)
#    0.000    1.500    2.500    3.000    0.000    5.250 
#    0.000    1.250    0.000    0.000    0.000    0.000 
#    0.000    0.000    0.000    0.000    0.000    0.000 
#
# Total GULP energy -178915.269849 kJ/mol
# GULP energy per Si atom -5591.102183 kJ/mol
# Density = 2.090500 g / cm^3
# Si number density = 20.952691 Si / 1000 Ang^3
#
#
#
# Elastic Constant Matrix: (Units=GPa)
#
#
# Indices 1 2 3 4 5 6 
#
# 1 116.1329 16.5828 1.7939 0.0000 -38.1482 0.0000
# 2 16.5828 36.2438 14.8451 0.0000 -14.5542 0.0000
# 3 1.7939 14.8451 42.5118 0.0000 -26.1728 0.0000
# 4 0.0000 0.0000 0.0000 17.3076 0.0000 -6.3309
# 5 -38.1482 -14.5542 -26.1728 0.0000 35.1667 0.0000
# 6 0.0000 0.0000 0.0000 -6.3309 0.0000 35.4723
#
#
#
# Elastic Compliance Matrix: (Units=1/GPa)
#
#
# Indices 1 2 3 4 5 6 
#
# 1 0.023236 -0.004273 0.027577 0.000000 0.043962 0.000000
# 2 -0.004273 0.034660 -0.010974 0.000000 0.001542 0.000000
# 3 0.027577 -0.010974 0.077174 0.000000 0.082810 0.000000
# 4 0.000000 0.000000 0.000000 0.061814 0.000000 0.011032
# 5 0.043962 0.001542 0.082810 0.000000 0.138395 0.000000
# 6 0.000000 0.000000 0.000000 0.011032 0.000000 0.030160
#
#
# Mechanical properties :
#
#
# Convention : Reuss Voigt Hill
#
# Bulk Modulus (GPa) = 6.26054 29.03690 17.64872
# Shear Modulus (GPa) = 12.68968 28.36709 20.52839
#
# Velocity S-wave (km/s) = 2.46363 3.68348 3.13349
# Velocity P-wave (km/s) = 3.32973 5.65501 4.64038
#
# Compressibility (1/GPa) = 0.15973063
#
# Stress axis : x y z
#
# Youngs Moduli (GPa) = 43.03698 28.85181 12.95770
#
# Poissons Ratio (x) = 0.12329 -0.35733
# Poissons Ratio (y) = 0.18390 0.14219
# Poissons Ratio (z) = -1.18683 0.31661
#
# Static dielectric constant tensor:
#      x y z
#    x 1.744270 0.000000 -0.005160 
#    y 0.000000 1.701300 0.000000 
#    z -0.005160 0.000000 1.771320 
# 
# From -- ./inp_files/375620.got.cif
#   From: 2010.05.17/outbox.cif.g08.bks.cpg/sg12_188_cif.got.tgz:375620.got - 2010.06.03 13:09:07.
