data_PCOD9187332
_publ_section_title
;
Structure prediction by ZEFSAII (Michael W. Deem and Ramdas Pophale) SiO2 
 PCOD9187332
Probable space group: C 2/M
;
_chemical_formula_sum "Si O2"
_cell_formula_units_Z 50
_cell_length_a 22.303031
_cell_length_b 15.795082
_cell_length_c 11.604710
_cell_angle_alpha 90.000000
_cell_angle_beta 39.110623
_cell_angle_gamma 90.000000
_cell_volume 2578.845351
_symmetry_space_group_name_H-M "C 2/M"
_symmetry_group_IT_number 12
_symmetry_cell_setting 'monoclinic'
loop_
_space_group_symop_operation_xyz
x,y,z
-x,y,-z
-x,-y,-z
x,-y,z
1/2+x,1/2+y,z
1/2-x,1/2+y,-z
1/2-x,1/2-y,-z
1/2+x,1/2-y,z
loop_
_atom_site_type_symbol
_atom_site_label
_atom_site_fract_x
_atom_site_fract_y
_atom_site_fract_z
Si Si1 0.811889 0.101250 0.605342
Si Si2 0.920409 0.657677 0.471480
Si Si3 0.185382 0.215642 0.199775
Si Si4 0.230898 0.397785 0.478874
Si Si5 0.500000 0.000000 0.500000
Si Si6 0.525239 0.323291 0.276338
Si Si7 0.591565 0.400047 0.944405
O O1 0.768293 0.150835 0.778766
O O2 0.759505 0.127807 0.565318
O O3 0.923459 0.128855 0.431368
O O4 0.806719 0.000000 0.624135
O O5 0.855096 0.707346 0.662642
O O6 0.861488 0.639547 0.443614
O O7 0.959047 0.574176 0.473630
O O8 0.002146 0.724029 0.317947
O O9 0.097250 0.164109 0.274490
O O10 0.250000 0.250000 0.000000
O O11 0.223923 0.500000 0.489904
O O12 0.317554 0.374850 0.265043
O O13 0.577295 0.349292 0.082180
O O14 0.599639 0.500000 0.961078
O O15 0.500000 0.390043 0.000000
#
# Coordination Sequence:
#
# PCOD9187332 Si02
#       7
#     8   8   8   8   2   8   8
#     4  10  21  39  61  87 123 157 190 244 304 367
#     4  11  22  40  65  86 113 160 204 255 294 348
#     4  11  24  41  56  87 123 152 206 248 298 362
#     4  10  20  36  62  91 118 154 202 239 293 361
#     4  12  20  44  68  84 114 156 216 260 286 350
#     4  11  21  37  59  88 124 153 199 243 298 353
#     4  10  19  35  58  90 127 158 186 237 293 360
#
# _framework density 19.388521000000001
#
# number of rings (size 3 to 8) (size 9 to 14) (size 15 to 20)
#    0.000    1.440    4.000    2.880    0.000    4.480 
#    4.320    0.000    0.000    0.000    0.000    3.920 
#    0.000    0.000    0.000    0.000    0.000    0.000 
#
# Total GULP energy -139353.395434 kJ/mol
# GULP energy per Si atom -5574.135817 kJ/mol
# Density = 1.934439 g / cm^3
# Si number density = 19.388521 Si / 1000 Ang^3
#
#
#
# Elastic Constant Matrix: (Units=GPa)
#
#
# Indices 1 2 3 4 5 6 
#
# 1 150.4488 48.9154 42.1013 0.0000 32.3465 0.0000
# 2 48.9154 97.2610 22.4531 0.0000 27.2047 0.0000
# 3 42.1013 22.4531 54.6937 0.0000 33.5048 0.0000
# 4 0.0000 0.0000 0.0000 16.6318 0.0000 9.2593
# 5 32.3465 27.2047 33.5048 0.0000 31.0937 0.0000
# 6 0.0000 0.0000 0.0000 9.2593 0.0000 33.1707
#
#
#
# Elastic Compliance Matrix: (Units=1/GPa)
#
#
# Indices 1 2 3 4 5 6 
#
# 1 0.009405 -0.003088 -0.004806 0.000000 -0.001904 0.000000
# 2 -0.003088 0.015113 0.006781 0.000000 -0.017317 0.000000
# 3 -0.004806 0.006781 0.058165 0.000000 -0.063609 0.000000
# 4 0.000000 0.000000 0.000000 0.071189 0.000000 -0.019872
# 5 -0.001904 -0.017317 -0.063609 0.000000 0.117834 0.000000
# 6 0.000000 0.000000 0.000000 -0.019872 0.000000 0.035694
#
#
# Mechanical properties :
#
#
# Convention : Reuss Voigt Hill
#
# Bulk Modulus (GPa) = 12.42881 58.81589 35.62235
# Shear Modulus (GPa) = 14.86127 28.77483 21.81805
#
# Velocity S-wave (km/s) = 2.77157 3.85660 3.35820
# Velocity P-wave (km/s) = 4.08246 7.08749 5.78355
#
# Compressibility (1/GPa) = 0.08045822
#
# Stress axis : x y z
#
# Youngs Moduli (GPa) = 106.32742 66.16797 17.19238
#
# Poissons Ratio (x) = 0.20433 0.08262
# Poissons Ratio (y) = 0.32835 -0.11659
# Poissons Ratio (z) = 0.51097 -0.44870
#
# Static dielectric constant tensor:
#      x y z
#    x 1.713550 0.000000 -0.021620 
#    y 0.000000 1.664680 0.000000 
#    z -0.021620 0.000000 1.685900 
# 
# From -- ./inp_files/176404.got.cif
#   From: 2010.05.17/outbox.cif.g08.bks.cpg/sg12_89_cif.got.tgz:176404.got - 2010.06.03 13:09:07.
