data_PCOD9187830
_publ_section_title
;
Structure prediction by ZEFSAII (Michael W. Deem and Ramdas Pophale) SiO2 
 PCOD9187830
Probable space group: C 2/M
;
_chemical_formula_sum "Si O2"
_cell_formula_units_Z 56
_cell_length_a 26.401035
_cell_length_b 28.428016
_cell_length_c 11.968911
_cell_angle_alpha 90.000000
_cell_angle_beta 17.296579
_cell_angle_gamma 90.000000
_cell_volume 2670.810962
_symmetry_space_group_name_H-M "C 2/M"
_symmetry_group_IT_number 12
_symmetry_cell_setting 'monoclinic'
loop_
_space_group_symop_operation_xyz
x,y,z
-x,y,-z
-x,-y,-z
x,-y,z
1/2+x,1/2+y,z
1/2-x,1/2+y,-z
1/2-x,1/2-y,-z
1/2+x,1/2-y,z
loop_
_atom_site_type_symbol
_atom_site_label
_atom_site_fract_x
_atom_site_fract_y
_atom_site_fract_z
Si Si1 0.913923 0.500000 0.804140
Si Si2 0.519688 0.690840 0.326512
Si Si3 0.807730 0.947751 0.354780
Si Si4 0.535512 0.819156 0.053557
Si Si5 0.510604 0.500000 0.609015
Si Si6 0.851396 0.586236 0.086865
Si Si7 0.045570 0.904448 0.156378
Si Si8 0.722183 0.261780 0.325596
O O1 0.000000 0.500000 0.500000
O O2 0.709572 0.500000 0.220922
O O3 0.942925 0.547771 0.814968
O O4 0.500000 0.690743 0.500000
O O5 0.585673 0.640737 0.145023
O O6 0.352161 0.701691 0.607219
O O7 0.636072 0.733504 0.040887
O O8 0.682139 0.935493 0.719558
O O9 0.767903 0.000000 0.394527
O O10 0.000000 0.950491 0.000000
O O11 0.831138 0.908889 0.210186
O O12 0.400919 0.779607 0.373694
O O13 0.500000 0.831252 0.000000
O O14 0.547249 0.865513 0.105869
O O15 0.712334 0.791612 0.706495
O O16 0.500000 0.500000 0.500000
O O17 0.431594 0.452873 0.825277
O O18 0.656380 0.596068 0.453693
#
# Coordination Sequence:
#
# PCOD9187830 Si02
#       8
#     4   8   8   8   4   8   8   8
#     4  10  22  43  64  90 131 179 210 253 314 378
#     4  11  22  41  65  92 124 166 214 263 320 375
#     4   9  16  31  59  88 119 161 201 253 307 369
#     4  11  23  43  65  93 126 167 212 267 330 386
#     4  10  20  37  59  90 123 161 207 266 299 368
#     4  10  20  39  63  91 127 164 211 255 315 381
#     4  10  19  35  61  92 126 155 208 260 316 370
#     4  10  24  44  63  90 126 164 217 268 321 386
#
# _framework density 20.967414999999999
#
# number of rings (size 3 to 8) (size 9 to 14) (size 15 to 20)
#    0.000    1.857    2.857    1.286    2.000    0.000 
#    7.714    1.071    0.000    0.000    0.000    0.000 
#    0.000    0.000    0.000    0.000    0.000    0.000 
#
# Total GULP energy -156248.071546 kJ/mol
# GULP energy per Si atom -5580.288270 kJ/mol
# Density = 2.091969 g / cm^3
# Si number density = 20.967415 Si / 1000 Ang^3
#
#
#
# Elastic Constant Matrix: (Units=GPa)
#
#
# Indices 1 2 3 4 5 6 
#
# 1 111.9943 52.1148 21.1051 -0.0725 16.8529 0.0552
# 2 52.1148 146.5714 24.6066 -0.0116 10.4344 0.0089
# 3 21.1051 24.6066 37.0080 -0.0553 18.1511 0.0301
# 4 -0.0725 -0.0116 -0.0553 16.8791 0.0479 6.9677
# 5 16.8529 10.4344 18.1511 0.0479 29.0247 -0.0384
# 6 0.0552 0.0089 0.0301 6.9677 -0.0384 45.8251
#
#
#
# Elastic Compliance Matrix: (Units=1/GPa)
#
#
# Indices 1 2 3 4 5 6 
#
# 1 0.011574 -0.003436 -0.002345 0.000061 -0.004019 -0.000024
# 2 -0.003436 0.008707 -0.004722 -0.000034 0.001817 0.000012
# 3 -0.002345 -0.004722 0.043270 0.000230 -0.024001 -0.000080
# 4 0.000061 -0.000034 0.000230 0.063215 -0.000284 -0.009612
# 5 -0.004019 0.001817 -0.024001 -0.000284 0.051144 0.000106
# 6 -0.000024 0.000012 -0.000080 -0.009612 0.000106 0.023284
#
#
# Mechanical properties :
#
#
# Convention : Reuss Voigt Hill
#
# Bulk Modulus (GPa) = 23.50333 54.58074 39.04203
# Shear Modulus (GPa) = 21.15222 31.52893 26.34057
#
# Velocity S-wave (km/s) = 3.17963 3.88198 3.54822
# Velocity P-wave (km/s) = 4.97130 6.79564 5.95376
#
# Compressibility (1/GPa) = 0.04254716
#
# Stress axis : x y z
#
# Youngs Moduli (GPa) = 86.39685 114.84371 23.11063
#
# Poissons Ratio (x) = 0.39456 0.05420
# Poissons Ratio (y) = 0.29682 0.10912
# Poissons Ratio (z) = 0.20261 0.54227
#
# Static dielectric constant tensor:
#      x y z
#    x 1.792790 0.000010 -0.086280 
#    y 0.000010 1.733320 0.000030 
#    z -0.086280 0.000030 1.802030 
# 
# From -- ./inp_files/185147.got.cif
#   From: 2010.05.17/outbox.cif.g08.bks.cpg/sg12_93_cif.got.tgz:185147.got - 2010.06.03 13:09:07.
