data_PCOD9187716
_publ_section_title
;
Structure prediction by ZEFSAII (Michael W. Deem and Ramdas Pophale) SiO2 
 PCOD9187716
Probable space group: C 2/M
;
_chemical_formula_sum "Si O2"
_cell_formula_units_Z 64
_cell_length_a 22.435897
_cell_length_b 13.974490
_cell_length_c 10.059367
_cell_angle_alpha 90.000000
_cell_angle_beta 96.482662
_cell_angle_gamma 90.000000
_cell_volume 3133.749604
_symmetry_space_group_name_H-M "C 2/M"
_symmetry_group_IT_number 12
_symmetry_cell_setting 'monoclinic'
loop_
_space_group_symop_operation_xyz
x,y,z
-x,y,-z
-x,-y,-z
x,-y,z
1/2+x,1/2+y,z
1/2-x,1/2+y,-z
1/2-x,1/2-y,-z
1/2+x,1/2-y,z
loop_
_atom_site_type_symbol
_atom_site_label
_atom_site_fract_x
_atom_site_fract_y
_atom_site_fract_z
Si Si1 0.760796 0.838303 0.900809
Si Si2 0.554670 0.714932 0.296956
Si Si3 0.920670 0.793352 0.238771
Si Si4 0.761501 0.616431 0.402332
Si Si5 0.372286 0.894406 0.100535
Si Si6 0.342486 0.706756 0.460898
Si Si7 0.102084 0.109808 0.044207
Si Si8 0.052443 0.388431 0.119264
O O1 0.762036 0.832698 0.740013
O O2 0.698753 0.895082 0.902020
O O3 0.750000 0.750000 0.000000
O O4 0.825638 0.881156 0.948356
O O5 0.486242 0.690947 0.316106
O O6 0.602529 0.699406 0.423372
O O7 0.551737 0.824617 0.247960
O O8 0.576969 0.660474 0.169593
O O9 0.903600 0.683297 0.201242
O O10 0.867916 0.824630 0.324300
O O11 0.921891 0.843461 0.096333
O O12 0.769404 0.500000 0.389990
O O13 0.711688 0.640893 0.500611
O O14 0.819137 0.682602 0.450513
O O15 0.397129 0.000000 0.132782
O O16 0.387781 0.870068 0.951889
O O17 0.084860 0.000000 0.046477
O O18 0.047701 0.500000 0.147535
O O19 0.000000 0.362939 0.000000
#
# Coordination Sequence:
#
# PCOD9187716 Si02
#       8
#     8   8   8   8   8   8   8   8
#     4  12  21  40  71 101 130 162 217 276 336 393
#     4  12  23  42  66  95 132 173 222 276 330 390
#     4  12  24  43  64  95 134 173 222 277 325 388
#     4  11  24  46  70  93 134 182 218 270 340 401
#     4  11  21  36  63  95 129 168 210 263 337 400
#     4  11  26  43  68  97 131 176 225 270 326 406
#     4  12  25  43  69  98 130 172 222 276 333 394
#     4  10  19  35  60  93 132 171 209 265 333 393
#
# _framework density 20.422819
#
# number of rings (size 3 to 8) (size 9 to 14) (size 15 to 20)
#    0.000    0.625    6.250    1.875    0.000    2.000 
#    0.000    0.000    0.000    4.500    0.000    0.000 
#    0.000    0.000    0.000    0.000    0.000    0.000 
#
# Total GULP energy -178585.620844 kJ/mol
# GULP energy per Si atom -5580.800651 kJ/mol
# Density = 2.037634 g / cm^3
# Si number density = 20.422819 Si / 1000 Ang^3
#
#
#
# Elastic Constant Matrix: (Units=GPa)
#
#
# Indices 1 2 3 4 5 6 
#
# 1 93.3793 10.0138 3.8989 0.0000 -4.1987 0.0000
# 2 10.0138 93.0424 30.8976 0.0000 -1.9209 0.0000
# 3 3.8989 30.8976 75.7209 0.0000 -6.9906 0.0000
# 4 0.0000 0.0000 0.0000 8.0354 0.0000 -3.6020
# 5 -4.1987 -1.9209 -6.9906 0.0000 38.7674 0.0000
# 6 0.0000 0.0000 0.0000 -3.6020 0.0000 2.9211
#
#
#
# Elastic Compliance Matrix: (Units=1/GPa)
#
#
# Indices 1 2 3 4 5 6 
#
# 1 0.010883 -0.001153 0.000014 0.000000 0.001124 0.000000
# 2 -0.001153 0.012558 -0.005104 0.000000 -0.000423 0.000000
# 3 0.000014 -0.005104 0.015524 0.000000 0.002548 0.000000
# 4 0.000000 0.000000 0.000000 0.278249 0.000000 0.343100
# 5 0.001124 -0.000423 0.002548 0.000000 0.026355 0.000000
# 6 0.000000 0.000000 0.000000 0.343100 0.000000 0.765398
#
#
# Mechanical properties :
#
#
# Convention : Reuss Voigt Hill
#
# Bulk Modulus (GPa) = 37.76647 39.08481 38.42564
# Shear Modulus (GPa) = 4.42369 24.43360 14.42865
#
# Velocity S-wave (km/s) = 1.47335 3.46264 2.66088
# Velocity P-wave (km/s) = 4.62891 5.93008 5.31943
#
# Compressibility (1/GPa) = 0.02647851
#
# Stress axis : x y z
#
# Youngs Moduli (GPa) = 91.88994 79.63033 64.41827
#
# Poissons Ratio (x) = 0.09178 -0.00088
# Poissons Ratio (y) = 0.10591 0.32879
# Poissons Ratio (z) = -0.00126 0.40643
#
# Static dielectric constant tensor:
#      x y z
#    x 1.768930 0.000000 -0.031180 
#    y 0.000000 1.742790 0.000000 
#    z -0.031180 0.000000 1.741130 
# 
# From -- ./inp_files/96877.got.cif
#   From: 2010.05.17/outbox.cif.g08.bks.cpg/sg12_49_cif.got.tgz:96877.got - 2010.06.03 13:09:07.
