data_PCOD9187246
_publ_section_title
;
Structure prediction by ZEFSAII (Michael W. Deem and Ramdas Pophale) SiO2 
 PCOD9187246
Probable space group: C 2/M
;
_chemical_formula_sum "Si O2"
_cell_formula_units_Z 56
_cell_length_a 23.812123
_cell_length_b 7.485230
_cell_length_c 15.597341
_cell_angle_alpha 90.000000
_cell_angle_beta 125.684542
_cell_angle_gamma 90.000000
_cell_volume 2258.076784
_symmetry_space_group_name_H-M "C 2/M"
_symmetry_group_IT_number 12
_symmetry_cell_setting 'monoclinic'
loop_
_space_group_symop_operation_xyz
x,y,z
-x,y,-z
-x,-y,-z
x,-y,z
1/2+x,1/2+y,z
1/2-x,1/2+y,-z
1/2-x,1/2-y,-z
1/2+x,1/2-y,z
loop_
_atom_site_type_symbol
_atom_site_label
_atom_site_fract_x
_atom_site_fract_y
_atom_site_fract_z
Si Si1 0.109618 0.797141 0.566187
Si Si2 0.642332 0.212227 0.093446
Si Si3 0.883540 0.215372 0.124853
Si Si4 0.750732 0.712535 0.400772
Si Si5 0.402327 0.799513 0.775698
Si Si6 0.523214 0.709427 0.332390
Si Si7 0.297849 0.281032 0.200985
O O1 0.180910 0.798608 0.576359
O O2 0.055629 0.715230 0.449680
O O3 0.139306 0.719360 0.681251
O O4 0.087124 0.000000 0.565747
O O5 0.591956 0.283986 0.123898
O O6 0.721914 0.281881 0.162067
O O7 0.645824 0.000000 0.112244
O O8 0.615612 0.234500 0.973305
O O9 0.817408 0.271982 0.121865
O O10 0.950878 0.283274 0.234931
O O11 0.885474 0.000000 0.128638
O O12 0.751612 0.500000 0.385542
O O13 0.750000 0.750000 0.500000
O O14 0.680718 0.796848 0.304090
O O15 0.428439 0.718580 0.709507
O O16 0.431152 0.000000 0.801585
O O17 0.513998 0.500000 0.342456
O O18 0.296640 0.500000 0.204516
#
# Coordination Sequence:
#
# PCOD9187246 Si02
#       7
#     8   8   8   8   8   8   8
#     4  10  19  35  58  84 117 152 188 235 285 340
#     4  10  21  38  60  85 111 147 195 245 295 343
#     4  10  22  39  58  83 115 154 197 241 286 339
#     4  12  22  33  54  86 120 152 188 232 288 344
#     4  11  22  37  59  85 115 151 192 238 290 344
#     4  10  22  37  56  85 119 155 193 231 284 350
#     4   9  18  36  61  86 114 146 192 245 290 340
#
# _framework density 24.799866999999999
#
# number of rings (size 3 to 8) (size 9 to 14) (size 15 to 20)
#    0.000    1.714    2.857    2.143    0.000    2.857 
#    0.000    6.429    0.000    0.000    0.000    3.000 
#    0.000    0.000    0.000    0.000    0.000    0.000 
#
# Total GULP energy -156351.332936 kJ/mol
# GULP energy per Si atom -5583.976176 kJ/mol
# Density = 2.474342 g / cm^3
# Si number density = 24.799867 Si / 1000 Ang^3
#
#
#
# Elastic Constant Matrix: (Units=GPa)
#
#
# Indices 1 2 3 4 5 6 
#
# 1 43.9958 -1.0723 21.7038 0.0000 -0.7142 0.0000
# 2 -1.0723 92.3228 -7.2866 0.0000 0.5810 0.0000
# 3 21.7038 -7.2866 134.1496 0.0000 -4.8106 0.0000
# 4 0.0000 0.0000 0.0000 15.2059 0.0000 0.0269
# 5 -0.7142 0.5810 -4.8106 0.0000 35.3070 0.0000
# 6 0.0000 0.0000 0.0000 0.0269 0.0000 -0.9380
#
#
#
# Elastic Compliance Matrix: (Units=1/GPa)
#
#
# Indices 1 2 3 4 5 6 
#
# 1 0.024701 -0.000028 -0.003999 0.000000 -0.000045 0.000000
# 2 -0.000028 0.010879 0.000592 0.000000 -0.000099 0.000000
# 3 -0.003999 0.000592 0.008170 0.000000 0.001023 0.000000
# 4 0.000000 0.000000 0.000000 0.065761 0.000000 0.001888
# 5 -0.000045 -0.000099 0.001023 0.000000 0.028463 0.000000
# 6 0.000000 0.000000 0.000000 0.001888 0.000000 -1.066043
#
#
# Mechanical properties :
#
#
# Convention : Reuss Voigt Hill
#
# Bulk Modulus (GPa) = 27.11656 33.01754 30.06705
# Shear Modulus (GPa) = -5.50113 27.05654 10.77771
#
# Velocity S-wave (km/s) = -1.49098 3.30661 2.08694
# Velocity P-wave (km/s) = 2.82734 5.28400 4.23760
#
# Compressibility (1/GPa) = 0.03687784
#
# Stress axis : x y z
#
# Youngs Moduli (GPa) = 40.48412 91.92381 122.39525
#
# Poissons Ratio (x) = 0.00262 0.48952
# Poissons Ratio (y) = 0.00115 -0.07245
# Poissons Ratio (z) = 0.16192 -0.05441
#
# Static dielectric constant tensor:
#      x y z
#    x 1.969820 0.000000 -0.053490 
#    y 0.000000 1.885460 0.000000 
#    z -0.053490 0.000000 2.135900 
# 
# From -- ./inp_files/238298.got.cif
#   From: 2010.05.17/outbox.cif.g08.bks.cpg/sg12_120_cif.got.tgz:238298.got - 2010.06.03 13:09:07.
