data_PCOD9187724
_publ_section_title
;
Structure prediction by ZEFSAII (Michael W. Deem and Ramdas Pophale) SiO2 
 PCOD9187724
Probable space group: C 2/M
;
_chemical_formula_sum "Si O2"
_cell_formula_units_Z 58
_cell_length_a 23.461916
_cell_length_b 26.519765
_cell_length_c 9.103900
_cell_angle_alpha 90.000000
_cell_angle_beta 30.228209
_cell_angle_gamma 90.000000
_cell_volume 2851.760208
_symmetry_space_group_name_H-M "C 2/M"
_symmetry_group_IT_number 12
_symmetry_cell_setting 'monoclinic'
loop_
_space_group_symop_operation_xyz
x,y,z
-x,y,-z
-x,-y,-z
x,-y,z
1/2+x,1/2+y,z
1/2-x,1/2+y,-z
1/2-x,1/2-y,-z
1/2+x,1/2-y,z
loop_
_atom_site_type_symbol
_atom_site_label
_atom_site_fract_x
_atom_site_fract_y
_atom_site_fract_z
Si Si1 0.177249 0.406101 0.641281
Si Si2 0.013388 0.838858 0.145762
Si Si3 0.247647 0.203073 0.609293
Si Si4 0.141991 0.690438 0.337114
Si Si5 0.083301 0.053416 0.953193
Si Si6 0.973580 0.410811 0.317324
Si Si7 0.384291 0.696575 0.681458
Si Si8 0.500000 0.000000 0.500000
O O1 0.219922 0.348495 0.544205
O O2 0.289778 0.439405 0.389427
O O3 0.113600 0.415451 0.627089
O O4 0.094034 0.412588 0.964044
O O5 0.901854 0.820613 0.474775
O O6 0.119242 0.803512 0.951605
O O7 0.048250 0.895595 0.113191
O O8 0.000000 0.837085 0.000000
O O9 0.250000 0.250000 0.500000
O O10 0.335149 0.207621 0.546782
O O11 0.057061 0.643196 0.537903
O O12 0.116088 0.742255 0.309139
O O13 0.266652 0.674605 0.002090
O O14 0.074472 0.000000 0.053756
O O15 0.000000 0.051659 0.000000
O O16 0.969805 0.455371 0.443665
O O17 0.500000 0.678267 0.500000
#
# Coordination Sequence:
#
# PCOD9187724 Si02
#       8
#     8   8   8   8   8   8   8   2
#     4   9  21  40  70  93 128 171 216 272 335 398
#     4  10  20  36  56  89 121 158 211 261 308 376
#     4  10  19  35  60  96 126 160 215 265 316 383
#     4  10  23  41  61  92 130 174 217 266 329 404
#     4   9  19  37  62  97 122 159 210 270 316 381
#     4  10  24  45  63  96 127 171 224 276 343 397
#     4  11  22  39  63  87 127 179 208 257 331 393
#     4  12  28  46  64  96 134 170 228 294 332 404
#
# _framework density 20.338314
#
# number of rings (size 3 to 8) (size 9 to 14) (size 15 to 20)
#    0.000    2.069    1.379    0.828    4.828    0.552 
#    9.931    0.000    0.000    0.414    0.000    0.000 
#    0.000    0.000    0.000    0.000    0.000    0.000 
#
# Total GULP energy -161465.480861 kJ/mol
# GULP energy per Si atom -5567.775202 kJ/mol
# Density = 2.029202 g / cm^3
# Si number density = 20.338314 Si / 1000 Ang^3
#
#
#
# Elastic Constant Matrix: (Units=GPa)
#
#
# Indices 1 2 3 4 5 6 
#
# 1 56.9951 19.5832 20.1321 0.0000 2.5848 0.0001
# 2 19.5832 104.3640 30.1803 0.0000 13.4557 0.0001
# 3 20.1321 30.1803 87.2025 -0.0004 1.1596 0.0005
# 4 0.0000 0.0000 -0.0004 17.0515 0.0001 1.0854
# 5 2.5848 13.4557 1.1596 0.0001 26.2173 -0.0002
# 6 0.0001 0.0001 0.0005 1.0854 -0.0002 27.0866
#
#
#
# Elastic Compliance Matrix: (Units=1/GPa)
#
#
# Indices 1 2 3 4 5 6 
#
# 1 0.019747 -0.002589 -0.003657 0.000000 -0.000456 0.000000
# 2 -0.002589 0.011779 -0.003404 0.000000 -0.005640 0.000000
# 3 -0.003657 -0.003404 0.013470 0.000000 0.001512 0.000000
# 4 0.000000 0.000000 0.000000 0.058796 0.000000 -0.002356
# 5 -0.000456 -0.005640 0.001512 0.000000 0.041015 0.000000
# 6 0.000000 0.000000 0.000000 -0.002356 0.000000 0.037013
#
#
# Mechanical properties :
#
#
# Convention : Reuss Voigt Hill
#
# Bulk Modulus (GPa) = 38.91589 43.15032 41.03310
# Shear Modulus (GPa) = 23.84519 25.98215 24.91367
#
# Velocity S-wave (km/s) = 3.42779 3.57809 3.50374
# Velocity P-wave (km/s) = 5.90272 6.19133 6.04875
#
# Compressibility (1/GPa) = 0.02569644
#
# Stress axis : x y z
#
# Youngs Moduli (GPa) = 50.63965 84.89558 74.24022
#
# Poissons Ratio (x) = 0.21981 0.27149
# Poissons Ratio (y) = 0.13111 0.25271
# Poissons Ratio (z) = 0.18518 0.28898
#
# Static dielectric constant tensor:
#      x y z
#    x 1.790130 0.000000 0.021220 
#    y 0.000000 1.728100 0.000000 
#    z 0.021220 0.000000 1.769250 
# 
# From -- ./inp_files/100182.got.cif
#   From: 2010.05.17/outbox.cif.g08.bks.cpg/sg12_51_cif.got.tgz:100182.got - 2010.06.03 13:09:07.
