data_PCOD9187693
_publ_section_title
;
Structure prediction by ZEFSAII (Michael W. Deem and Ramdas Pophale) SiO2 
 PCOD9187693
Probable space group: C 2/M
;
_chemical_formula_sum "Si O2"
_cell_formula_units_Z 52
_cell_length_a 20.447138
_cell_length_b 12.682903
_cell_length_c 10.737463
_cell_angle_alpha 90.000000
_cell_angle_beta 74.460459
_cell_angle_gamma 90.000000
_cell_volume 2682.749767
_symmetry_space_group_name_H-M "C 2/M"
_symmetry_group_IT_number 12
_symmetry_cell_setting 'monoclinic'
loop_
_space_group_symop_operation_xyz
x,y,z
-x,y,-z
-x,-y,-z
x,-y,z
1/2+x,1/2+y,z
1/2-x,1/2+y,-z
1/2-x,1/2-y,-z
1/2+x,1/2-y,z
loop_
_atom_site_type_symbol
_atom_site_label
_atom_site_fract_x
_atom_site_fract_y
_atom_site_fract_z
Si Si1 0.219146 0.307429 0.893737
Si Si2 0.859886 0.886551 0.173663
Si Si3 0.973640 0.727655 0.743815
Si Si4 0.500000 0.313504 0.000000
Si Si5 0.919534 0.883725 0.415980
Si Si6 0.000939 0.500000 0.790620
Si Si7 0.859409 0.120266 0.717530
Si Si8 0.885748 0.500000 0.060357
O O1 0.185308 0.211885 0.836930
O O2 0.281463 0.360879 0.789766
O O3 0.161317 0.396988 0.937035
O O4 0.250000 0.250000 0.000000
O O5 0.876107 0.882554 0.311904
O O6 0.828455 0.000000 0.158432
O O7 0.931527 0.877714 0.063368
O O8 0.986407 0.604780 0.718198
O O9 0.902147 0.785885 0.759559
O O10 0.990823 0.745522 0.880626
O O11 0.024539 0.795002 0.632367
O O12 0.876062 0.872038 0.562439
O O13 0.952955 0.000000 0.403223
O O14 0.073936 0.500000 0.826535
O O15 0.944111 0.500000 0.927313
O O16 0.878428 0.000000 0.748131
#
# Coordination Sequence:
#
# PCOD9187693 Si02
#       8
#     8   8   8   4   8   4   8   4
#     4  12  25  38  61  91 124 165 204 248 313 376
#     4  10  21  37  59  89 123 156 203 260 308 367
#     4  11  21  37  62  93 122 158 201 258 306 369
#     4  10  19  35  60  90 116 155 203 254 318 346
#     4   9  20  40  66  89 114 156 211 263 307 350
#     4  11  22  38  63  88 126 166 205 245 308 366
#     4  11  23  42  62  88 121 161 207 257 311 367
#     4  11  22  42  60  86 125 169 210 249 290 377
#
# _framework density 19.383096999999999
#
# number of rings (size 3 to 8) (size 9 to 14) (size 15 to 20)
#    0.000    1.385    0.769    6.692    1.077    4.923 
#    1.385    1.538    0.000    0.000    0.000    0.000 
#    0.000    0.000    0.000    0.000    0.000    0.000 
#
# Total GULP energy -145167.663811 kJ/mol
# GULP energy per Si atom -5583.371685 kJ/mol
# Density = 1.933898 g / cm^3
# Si number density = 19.383097 Si / 1000 Ang^3
#
#
#
# Elastic Constant Matrix: (Units=GPa)
#
#
# Indices 1 2 3 4 5 6 
#
# 1 89.4873 58.5114 25.6678 0.0000 -7.2788 0.0000
# 2 58.5114 178.9691 33.1990 0.0000 0.7383 0.0000
# 3 25.6678 33.1990 80.6547 0.0000 -7.8264 0.0000
# 4 0.0000 0.0000 0.0000 -0.5887 0.0000 20.1734
# 5 -7.2788 0.7383 -7.8264 0.0000 26.9441 0.0000
# 6 0.0000 0.0000 0.0000 20.1734 0.0000 -3.6969
#
#
#
# Elastic Compliance Matrix: (Units=1/GPa)
#
#
# Indices 1 2 3 4 5 6 
#
# 1 0.015137 -0.004473 -0.002642 0.000000 0.003444 0.000000
# 2 -0.004473 0.007393 -0.001808 0.000000 -0.001936 0.000000
# 3 -0.002642 -0.001808 0.014323 0.000000 0.003496 0.000000
# 4 0.000000 0.000000 0.000000 0.009133 0.000000 0.049837
# 5 0.003444 -0.001936 0.003496 0.000000 0.039113 0.000000
# 6 0.000000 0.000000 0.000000 0.049837 0.000000 0.001454
#
#
# Mechanical properties :
#
#
# Convention : Reuss Voigt Hill
#
# Bulk Modulus (GPa) = 52.60903 64.87418 58.74161
# Shear Modulus (GPa) = 45.15287 19.98054 32.56670
#
# Velocity S-wave (km/s) = 4.83172 3.21413 4.10342
# Velocity P-wave (km/s) = 7.63728 6.87868 7.26788
#
# Compressibility (1/GPa) = 0.01900814
#
# Stress axis : x y z
#
# Youngs Moduli (GPa) = 66.06117 135.25828 69.81985
#
# Poissons Ratio (x) = 0.60503 0.18446
# Poissons Ratio (y) = 0.29550 0.12620
# Poissons Ratio (z) = 0.17453 0.24448
#
# Static dielectric constant tensor:
#      x y z
#    x 1.708470 0.000000 0.010710 
#    y 0.000000 1.719400 0.000000 
#    z 0.010710 0.000000 1.654100 
# 
# From -- ./inp_files/165582.got.cif
#   From: 2010.05.17/outbox.cif.g08.bks.cpg/sg12_83_cif.got.tgz:165582.got - 2010.06.03 13:09:07.
