data_PCOD9187706
_publ_section_title
;
Structure prediction by ZEFSAII (Michael W. Deem and Ramdas Pophale) SiO2 
 PCOD9187706
Probable space group: C 2/M
;
_chemical_formula_sum "Si O2"
_cell_formula_units_Z 48
_cell_length_a 13.662714
_cell_length_b 19.388347
_cell_length_c 11.310298
_cell_angle_alpha 90.000000
_cell_angle_beta 138.798169
_cell_angle_gamma 90.000000
_cell_volume 1973.551102
_symmetry_space_group_name_H-M "C 2/M"
_symmetry_group_IT_number 12
_symmetry_cell_setting 'monoclinic'
loop_
_space_group_symop_operation_xyz
x,y,z
-x,y,-z
-x,-y,-z
x,-y,z
1/2+x,1/2+y,z
1/2-x,1/2+y,-z
1/2-x,1/2-y,-z
1/2+x,1/2-y,z
loop_
_atom_site_type_symbol
_atom_site_label
_atom_site_fract_x
_atom_site_fract_y
_atom_site_fract_z
Si Si1 0.164472 0.424478 0.203459
Si Si2 0.956879 0.795551 0.729194
Si Si3 0.251450 0.168592 0.113478
Si Si4 0.310204 0.419839 0.730808
Si Si5 0.525403 0.922935 0.329694
Si Si6 0.219872 0.217250 0.665488
O O1 0.224016 0.500000 0.222934
O O2 0.261796 0.358395 0.263120
O O3 0.135037 0.423354 0.317040
O O4 0.000000 0.418000 0.000000
O O5 0.891015 0.868579 0.714061
O O6 0.905545 0.782991 0.549037
O O7 0.871784 0.738981 0.733180
O O8 0.129939 0.800063 0.915275
O O9 0.171597 0.109272 0.120705
O O10 0.398133 0.133102 0.196056
O O11 0.295706 0.225375 0.250024
O O12 0.348949 0.500000 0.754191
O O13 0.134549 0.412249 0.539317
O O14 0.458515 0.000000 0.277031
#
# Coordination Sequence:
#
# PCOD9187706 Si02
#       6
#     8   8   8   8   8   8
#     4  10  20  38  67  91 115 164 219 258 293 359
#     4  10  21  36  60  86 125 171 208 251 302 373
#     4  11  22  36  60  92 130 165 196 261 321 368
#     4  10  19  35  60  90 127 170 208 247 304 375
#     4  10  21  38  62  95 129 161 200 256 316 366
#     4  10  20  39  60  82 126 163 213 252 299 371
#
# _framework density 24.321643000000002
#
# number of rings (size 3 to 8) (size 9 to 14) (size 15 to 20)
#    0.000    1.833    1.667    4.000    0.000    3.333 
#    0.000    3.333    7.333    0.000    0.000    3.500 
#    0.000    1.333    0.000    0.000    0.000    0.167 
#
# Total GULP energy -134481.361360 kJ/mol
# GULP energy per Si atom -5603.390057 kJ/mol
# Density = 2.426629 g / cm^3
# Si number density = 24.321643 Si / 1000 Ang^3
#
#
#
# Elastic Constant Matrix: (Units=GPa)
#
#
# Indices 1 2 3 4 5 6 
#
# 1 40.3451 26.4764 20.8164 0.0000 4.9378 0.0000
# 2 26.4764 175.4668 46.4966 0.0000 11.6810 0.0000
# 3 20.8164 46.4966 128.2934 0.0000 2.3538 0.0000
# 4 0.0000 0.0000 0.0000 30.2879 0.0000 11.9121
# 5 4.9378 11.6810 2.3538 0.0000 32.3386 0.0000
# 6 0.0000 0.0000 0.0000 11.9121 0.0000 35.7561
#
#
#
# Elastic Compliance Matrix: (Units=1/GPa)
#
#
# Indices 1 2 3 4 5 6 
#
# 1 0.029095 -0.003267 -0.003481 0.000000 -0.003009 0.000000
# 2 -0.003267 0.006819 -0.001908 0.000000 -0.001825 0.000000
# 3 -0.003481 -0.001908 0.009041 0.000000 0.000563 0.000000
# 4 0.000000 0.000000 0.000000 0.037995 0.000000 -0.012658
# 5 -0.003009 -0.001825 0.000563 0.000000 0.032001 0.000000
# 6 0.000000 0.000000 0.000000 -0.012658 0.000000 0.032184
#
#
# Mechanical properties :
#
#
# Convention : Reuss Voigt Hill
#
# Bulk Modulus (GPa) = 36.17748 59.07602 47.62675
# Shear Modulus (GPa) = 28.79168 36.36425 32.57797
#
# Velocity S-wave (km/s) = 3.44436 3.87090 3.66384
# Velocity P-wave (km/s) = 5.54301 6.65738 6.12559
#
# Compressibility (1/GPa) = 0.02764151
#
# Stress axis : x y z
#
# Youngs Moduli (GPa) = 34.37035 146.64577 110.61177
#
# Poissons Ratio (x) = 0.47914 0.38509
# Poissons Ratio (y) = 0.11230 0.21102
# Poissons Ratio (z) = 0.11966 0.27977
#
# Static dielectric constant tensor:
#      x y z
#    x 1.981290 0.000000 0.000590 
#    y 0.000000 1.946250 0.000000 
#    z 0.000590 0.000000 1.929820 
# 
# From -- ./inp_files/226744.got.cif
#   From: 2010.05.17/outbox.cif.g08.bks.cpg/sg12_114_cif.got.tgz:226744.got - 2010.06.03 13:09:07.
