data_PCOD9187362
_publ_section_title
;
Structure prediction by ZEFSAII (Michael W. Deem and Ramdas Pophale) SiO2 
 PCOD9187362
Probable space group: C 2/M
;
_chemical_formula_sum "Si O2"
_cell_formula_units_Z 56
_cell_length_a 15.115744
_cell_length_b 7.691359
_cell_length_c 24.056384
_cell_angle_alpha 90.000000
_cell_angle_beta 53.449321
_cell_angle_gamma 90.000000
_cell_volume 2246.762514
_symmetry_space_group_name_H-M "C 2/M"
_symmetry_group_IT_number 12
_symmetry_cell_setting 'monoclinic'
loop_
_space_group_symop_operation_xyz
x,y,z
-x,y,-z
-x,-y,-z
x,-y,z
1/2+x,1/2+y,z
1/2-x,1/2+y,-z
1/2-x,1/2-y,-z
1/2+x,1/2-y,z
loop_
_atom_site_type_symbol
_atom_site_label
_atom_site_fract_x
_atom_site_fract_y
_atom_site_fract_z
Si Si1 0.312528 0.809851 0.420627
Si Si2 0.370208 0.786832 0.879270
Si Si3 0.798832 0.201168 0.142855
Si Si4 0.389260 0.202896 0.571497
Si Si5 0.204523 0.207320 0.287162
Si Si6 0.076483 0.712710 0.726488
Si Si7 0.029105 0.697935 0.048856
O O1 0.250000 0.750000 0.500000
O O2 0.210051 0.812734 0.416222
O O3 0.402902 0.723792 0.345036
O O4 0.356218 0.000000 0.418566
O O5 0.255212 0.735741 0.894279
O O6 0.468365 0.732256 0.800842
O O7 0.393510 0.722713 0.932933
O O8 0.372259 0.000000 0.880175
O O9 0.707682 0.217105 0.224703
O O10 0.906419 0.304238 0.121150
O O11 0.828760 0.000000 0.126680
O O12 0.500000 0.255358 0.500000
O O13 0.391531 0.229726 0.636408
O O14 0.367978 0.000000 0.567158
O O15 0.317908 0.264932 0.275573
O O16 0.203126 0.000000 0.284328
O O17 0.075515 0.500000 0.724358
O O18 0.065033 0.500000 0.025113
O O19 0.000000 0.780474 0.000000
#
# Coordination Sequence:
#
# PCOD9187362 Si02
#       7
#     8   8   8   8   8   8   8
#     4  10  20  33  52  78 108 149 196 246 298 352
#     4   9  18  35  58  85 116 152 194 236 291 357
#     4  11  22  35  58  90 121 154 193 243 297 353
#     4  10  21  36  54  78 112 153 195 243 299 359
#     4  10  19  35  59  81 109 151 197 244 293 352
#     4   8  15  31  55  75  99 144 192 232 283 349
#     4  10  21  40  65  87 115 159 202 241 292 357
#
# _framework density 24.924754
#
# number of rings (size 3 to 8) (size 9 to 14) (size 15 to 20)
#    0.000    2.286    1.429    2.571    0.000    3.143 
#    0.000    4.286    0.000    0.000    0.000    0.000 
#    0.000    0.000    0.000    0.000    0.000    0.000 
#
# Total GULP energy -156328.006943 kJ/mol
# GULP energy per Si atom -5583.143105 kJ/mol
# Density = 2.486802 g / cm^3
# Si number density = 24.924754 Si / 1000 Ang^3
#
#
#
# Elastic Constant Matrix: (Units=GPa)
#
#
# Indices 1 2 3 4 5 6 
#
# 1 79.2564 7.8121 1.3989 0.0000 25.5410 0.0000
# 2 7.8121 58.9756 8.7766 0.0001 -2.6800 0.0001
# 3 1.3989 8.7766 112.0417 0.0000 27.9470 -0.0001
# 4 0.0000 0.0001 0.0000 24.9491 0.0000 -2.8560
# 5 25.5410 -2.6800 27.9470 0.0000 43.3003 0.0000
# 6 0.0000 0.0001 -0.0001 -2.8560 0.0000 9.3010
#
#
#
# Elastic Compliance Matrix: (Units=1/GPa)
#
#
# Indices 1 2 3 4 5 6 
#
# 1 0.016767 -0.003223 0.003051 0.000000 -0.012059 0.000000
# 2 -0.003223 0.017970 -0.002526 0.000000 0.004644 0.000000
# 3 0.003051 -0.002526 0.011410 0.000000 -0.009320 0.000000
# 4 0.000000 0.000000 0.000000 0.041542 0.000000 0.012756
# 5 -0.012059 0.004644 -0.009320 0.000000 0.036510 0.000000
# 6 0.000000 0.000000 0.000000 0.012756 0.000000 0.111433
#
#
# Mechanical properties :
#
#
# Convention : Reuss Voigt Hill
#
# Bulk Modulus (GPa) = 24.53893 31.80543 28.17218
# Shear Modulus (GPa) = 19.63780 30.99582 25.31681
#
# Velocity S-wave (km/s) = 2.80997 3.53026 3.19051
# Velocity P-wave (km/s) = 4.51603 5.42266 4.98998
#
# Compressibility (1/GPa) = 0.04075157
#
# Stress axis : x y z
#
# Youngs Moduli (GPa) = 59.64016 55.64835 87.64433
#
# Poissons Ratio (x) = 0.17936 -0.26741
# Poissons Ratio (y) = 0.19223 0.22136
# Poissons Ratio (z) = -0.18197 0.14055
#
# Static dielectric constant tensor:
#      x y z
#    x 1.971780 0.000000 -0.000340 
#    y 0.000000 1.902280 0.000000 
#    z -0.000340 0.000000 2.117050 
# 
# From -- ./inp_files/338575.got.cif
#   From: 2010.05.17/outbox.cif.g08.bks.cpg/sg12_170_cif.got.tgz:338575.got - 2010.06.03 13:09:07.
