data_PCOD9187012
_publ_section_title
;
Structure prediction by ZEFSAII (Michael W. Deem and Ramdas Pophale) SiO2 
 PCOD9187012
Probable space group: C 2/M
;
_chemical_formula_sum "Si O2"
_cell_formula_units_Z 40
_cell_length_a 18.456775
_cell_length_b 12.217192
_cell_length_c 18.313951
_cell_angle_alpha 90.000000
_cell_angle_beta 32.688132
_cell_angle_gamma 90.000000
_cell_volume 2230.263123
_symmetry_space_group_name_H-M "C 2/M"
_symmetry_group_IT_number 12
_symmetry_cell_setting 'monoclinic'
loop_
_space_group_symop_operation_xyz
x,y,z
-x,y,-z
-x,-y,-z
x,-y,z
1/2+x,1/2+y,z
1/2-x,1/2+y,-z
1/2-x,1/2-y,-z
1/2+x,1/2-y,z
loop_
_atom_site_type_symbol
_atom_site_label
_atom_site_fract_x
_atom_site_fract_y
_atom_site_fract_z
Si Si1 0.315979 0.266768 0.825314
Si Si2 0.844109 0.126450 0.153971
Si Si3 0.102820 0.872301 0.575105
Si Si4 0.594761 0.128185 0.112447
Si Si5 0.664506 0.722089 0.680487
O O1 0.247040 0.207567 0.815879
O O2 0.450825 0.332184 0.692364
O O3 0.354597 0.174949 0.852860
O O4 0.209366 0.344845 0.956226
O O5 0.827027 0.151392 0.253842
O O6 0.810518 0.000000 0.166472
O O7 0.000000 0.142911 0.000000
O O8 0.204146 0.795326 0.444535
O O9 0.138516 0.850284 0.630191
O O10 0.118821 0.000000 0.544623
O O11 0.462225 0.196555 0.205510
O O12 0.567694 0.000000 0.139410
#
# Coordination Sequence:
#
# PCOD9187012 Si02
#       5
#     8   8   8   8   8
#     4  10  21  36  56  87 114 147 196 233 281 342
#     4  11  22  39  61  86 116 148 186 242 296 334
#     4  10  21  39  61  84 117 156 189 234 283 334
#     4  10  19  35  57  82 115 151 191 236 276 332
#     4  10  21  38  60  88 114 148 198 231 278 345
#
# _framework density 17.935103999999999
#
# number of rings (size 3 to 8) (size 9 to 14) (size 15 to 20)
#    0.000    1.800    2.000    2.400    0.000    0.800 
#    0.000   10.000    0.000    0.000    0.000    0.000 
#    0.000    0.000    0.000    0.000    0.000    0.000 
#
# Total GULP energy -111708.995345 kJ/mol
# GULP energy per Si atom -5585.449767 kJ/mol
# Density = 1.789428 g / cm^3
# Si number density = 17.935104 Si / 1000 Ang^3
#
#
#
# Elastic Constant Matrix: (Units=GPa)
#
#
# Indices 1 2 3 4 5 6 
#
# 1 44.9953 -0.8161 7.5248 0.0000 5.9307 0.0000
# 2 -0.8161 60.2273 -1.0488 0.0000 -1.1508 0.0000
# 3 7.5248 -1.0488 92.5670 0.0000 -9.7721 0.0000
# 4 0.0000 0.0000 0.0000 7.1890 0.0000 1.8739
# 5 5.9307 -1.1508 -9.7721 0.0000 21.1434 0.0000
# 6 0.0000 0.0000 0.0000 1.8739 0.0000 10.2658
#
#
#
# Elastic Compliance Matrix: (Units=1/GPa)
#
#
# Indices 1 2 3 4 5 6 
#
# 1 0.023734 0.000122 -0.002765 0.000000 -0.007929 0.000000
# 2 0.000122 0.016630 0.000284 0.000000 0.001002 0.000000
# 3 -0.002765 0.000284 0.011685 0.000000 0.006191 0.000000
# 4 0.000000 0.000000 0.000000 0.146052 0.000000 -0.026661
# 5 -0.007929 0.001002 0.006191 0.000000 0.052436 0.000000
# 6 0.000000 0.000000 0.000000 -0.026661 0.000000 0.102278
#
#
# Mechanical properties :
#
#
# Convention : Reuss Voigt Hill
#
# Bulk Modulus (GPa) = 21.12785 23.23438 22.18111
# Shear Modulus (GPa) = 13.39374 20.52828 16.96101
#
# Velocity S-wave (km/s) = 2.73571 3.38684 3.07854
# Velocity P-wave (km/s) = 4.66739 5.31762 5.00308
#
# Compressibility (1/GPa) = 0.04733090
#
# Stress axis : x y z
#
# Youngs Moduli (GPa) = 42.13325 60.13407 85.58284
#
# Poissons Ratio (x) = -0.00733 0.23664
# Poissons Ratio (y) = -0.00514 -0.02433
# Poissons Ratio (z) = 0.11650 -0.01710
#
# Static dielectric constant tensor:
#      x y z
#    x 1.593700 0.000000 -0.001690 
#    y 0.000000 1.574210 0.000000 
#    z -0.001690 0.000000 1.602630 
# 
# From -- ./inp_files/71193.got.cif
#   From: 2010.05.17/outbox.cif.g08.bks.cpg/sg12_36_cif.got.tgz:71193.got - 2010.06.03 13:09:07.
