data_PCOD9187474
_publ_section_title
;
Structure prediction by ZEFSAII (Michael W. Deem and Ramdas Pophale) SiO2 
 PCOD9187474
Probable space group: C 2/M
;
_chemical_formula_sum "Si O2"
_cell_formula_units_Z 48
_cell_length_a 20.655078
_cell_length_b 18.888967
_cell_length_c 15.785092
_cell_angle_alpha 90.000000
_cell_angle_beta 153.285042
_cell_angle_gamma 90.000000
_cell_volume 2768.613321
_symmetry_space_group_name_H-M "C 2/M"
_symmetry_group_IT_number 12
_symmetry_cell_setting 'monoclinic'
loop_
_space_group_symop_operation_xyz
x,y,z
-x,y,-z
-x,-y,-z
x,-y,z
1/2+x,1/2+y,z
1/2-x,1/2+y,-z
1/2-x,1/2-y,-z
1/2+x,1/2-y,z
loop_
_atom_site_type_symbol
_atom_site_label
_atom_site_fract_x
_atom_site_fract_y
_atom_site_fract_z
Si Si1 0.433654 0.579902 0.674909
Si Si2 0.589171 0.581292 0.680090
Si Si3 0.349949 0.917126 0.564845
Si Si4 0.828076 0.916395 0.817033
Si Si5 0.678974 0.321243 0.031915
Si Si6 0.355847 0.164947 0.066188
O O1 0.461030 0.500000 0.740809
O O2 0.482074 0.580765 0.634761
O O3 0.268414 0.594979 0.500479
O O4 0.537105 0.635046 0.840621
O O5 0.500000 0.615961 0.500000
O O6 0.622734 0.500000 0.696369
O O7 0.736165 0.617998 0.879008
O O8 0.264210 0.904426 0.376437
O O9 0.489056 0.870253 0.743452
O O10 0.391868 0.000000 0.614080
O O11 0.807860 0.000000 0.817865
O O12 0.778773 0.860274 0.831283
O O13 0.000000 0.907243 0.000000
O O14 0.640312 0.238560 0.980910
O O15 0.795281 0.327968 0.091823
#
# Coordination Sequence:
#
# PCOD9187474 Si02
#       6
#     8   8   8   8   8   8
#     4   9  17  33  58  80 105 145 185 221 273 335
#     4   9  18  36  59  78 101 144 194 229 268 330
#     4  10  20  35  58  87 114 141 180 238 285 324
#     4  10  19  35  59  86 114 146 191 229 270 340
#     4  10  20  37  53  77 112 156 184 216 276 338
#     4  10  22  37  52  81 114 145 185 229 282 328
#
# _framework density 17.337198999999998
#
# number of rings (size 3 to 8) (size 9 to 14) (size 15 to 20)
#    0.000    2.333    1.667    1.000    0.000    3.333 
#    9.000    2.500    0.000    4.000    0.000    0.000 
#    0.000    0.000    0.000    0.000    0.000    0.000 
#
# Total GULP energy -133689.290350 kJ/mol
# GULP energy per Si atom -5570.387098 kJ/mol
# Density = 1.729774 g / cm^3
# Si number density = 17.337199 Si / 1000 Ang^3
#
#
#
# Elastic Constant Matrix: (Units=GPa)
#
#
# Indices 1 2 3 4 5 6 
#
# 1 39.6234 51.4497 46.0206 0.0000 5.1640 0.0000
# 2 51.4497 99.4932 67.0408 0.0000 13.5646 0.0000
# 3 46.0206 67.0408 126.0170 0.0000 8.0185 0.0000
# 4 0.0000 0.0000 0.0000 213.9322 0.0000 -303.1082
# 5 5.1640 13.5646 8.0185 0.0000 24.3861 0.0000
# 6 0.0000 0.0000 0.0000 -303.1082 0.0000 454.3751
#
#
#
# Elastic Compliance Matrix: (Units=1/GPa)
#
#
# Indices 1 2 3 4 5 6 
#
# 1 0.088524 -0.038370 -0.012339 0.000000 0.006654 0.000000
# 2 -0.038370 0.033241 -0.003076 0.000000 -0.009353 0.000000
# 3 -0.012339 -0.003076 0.014098 0.000000 -0.000311 0.000000
# 4 0.000000 0.000000 0.000000 0.085235 0.000000 0.056859
# 5 0.006654 -0.009353 -0.000311 0.000000 0.044903 0.000000
# 6 0.000000 0.000000 0.000000 0.056859 0.000000 0.040131
#
#
# Mechanical properties :
#
#
# Convention : Reuss Voigt Hill
#
# Bulk Modulus (GPa) = 35.34603 66.01732 50.68167
# Shear Modulus (GPa) = 11.81660 145.24685 78.53172
#
# Velocity S-wave (km/s) = 2.61353 9.16294 6.73758
# Velocity P-wave (km/s) = 5.43498 12.25182 9.47750
#
# Compressibility (1/GPa) = 0.02829172
#
# Stress axis : x y z
#
# Youngs Moduli (GPa) = 11.29639 30.08329 70.93207
#
# Poissons Ratio (x) = 1.15430 0.87522
# Poissons Ratio (y) = 0.43345 0.21822
# Poissons Ratio (z) = 0.13938 0.09255
#
# Static dielectric constant tensor:
#      x y z
#    x 1.612470 0.000000 -0.016270 
#    y 0.000000 1.616850 0.000000 
#    z -0.016270 0.000000 1.556970 
# 
# From -- ./inp_files/63357.got.cif
#   From: 2010.05.17/outbox.cif.g08.bks.cpg/sg12_32_cif.got.tgz:63357.got - 2010.06.03 13:09:07.
