data_PCOD9187767
_publ_section_title
;
Structure prediction by ZEFSAII (Michael W. Deem and Ramdas Pophale) SiO2 
 PCOD9187767
Probable space group: C 2/M
;
_chemical_formula_sum "Si O2"
_cell_formula_units_Z 48
_cell_length_a 8.852347
_cell_length_b 16.757047
_cell_length_c 17.684103
_cell_angle_alpha 90.000000
_cell_angle_beta 119.177285
_cell_angle_gamma 90.000000
_cell_volume 2290.396186
_symmetry_space_group_name_H-M "C 2/M"
_symmetry_group_IT_number 12
_symmetry_cell_setting 'monoclinic'
loop_
_space_group_symop_operation_xyz
x,y,z
-x,y,-z
-x,-y,-z
x,-y,z
1/2+x,1/2+y,z
1/2-x,1/2+y,-z
1/2-x,1/2-y,-z
1/2+x,1/2-y,z
loop_
_atom_site_type_symbol
_atom_site_label
_atom_site_fract_x
_atom_site_fract_y
_atom_site_fract_z
Si Si1 0.673568 0.246848 0.588171
Si Si2 0.989396 0.847034 0.331378
Si Si3 0.205136 0.814604 0.853835
Si Si4 0.720127 0.912461 0.364533
Si Si5 0.470369 0.853969 0.169660
Si Si6 0.826323 0.910138 0.002436
O O1 0.500000 0.233130 0.500000
O O2 0.812455 0.177419 0.617560
O O3 0.617584 0.270192 0.660169
O O4 0.760384 0.331357 0.581850
O O5 0.930843 0.862204 0.232121
O O6 0.906829 0.911947 0.366787
O O7 0.386820 0.826624 0.856625
O O8 0.137391 0.724493 0.834822
O O9 0.208275 0.848984 0.938469
O O10 0.574454 0.892817 0.265242
O O11 0.690102 0.000000 0.390791
O O12 0.333399 0.909353 0.094310
O O13 0.848547 0.000000 0.038294
O O14 0.000000 0.887689 0.000000
#
# Coordination Sequence:
#
# PCOD9187767 Si02
#       6
#     8   8   8   8   8   8
#     4  10  19  35  61  88 116 151 195 238 284 348
#     4   9  19  35  57  87 114 150 194 233 286 343
#     4  11  20  37  58  85 110 153 193 243 279 350
#     4   9  20  34  58  85 116 149 188 239 289 339
#     4  11  21  37  61  83 116 148 200 237 288 343
#     4  11  25  40  56  81 117 153 193 243 295 342
#
# _framework density 20.957073999999999
#
# number of rings (size 3 to 8) (size 9 to 14) (size 15 to 20)
#    1.000    0.833    1.667    3.000    0.000    4.333 
#    0.000    0.000    0.000    1.500    0.000    0.000 
#    0.000    0.000    0.000    0.000    0.000    0.000 
#
# Total GULP energy -133747.625013 kJ/mol
# GULP energy per Si atom -5572.817709 kJ/mol
# Density = 2.090937 g / cm^3
# Si number density = 20.957074 Si / 1000 Ang^3
#
#
#
# Elastic Constant Matrix: (Units=GPa)
#
#
# Indices 1 2 3 4 5 6 
#
# 1 62.3078 21.0648 41.3730 0.0000 23.4161 0.0000
# 2 21.0648 41.8640 -5.0621 0.0000 14.7828 0.0000
# 3 41.3730 -5.0621 81.4369 0.0000 27.1589 0.0000
# 4 0.0000 0.0000 0.0000 -0.6625 0.0000 -13.1577
# 5 23.4161 14.7828 27.1589 0.0000 31.4219 0.0000
# 6 0.0000 0.0000 0.0000 -13.1577 0.0000 -9.9986
#
#
#
# Elastic Compliance Matrix: (Units=1/GPa)
#
#
# Indices 1 2 3 4 5 6 
#
# 1 0.035921 -0.020212 -0.019318 0.000000 -0.000563 0.000000
# 2 -0.020212 0.045364 0.021331 0.000000 -0.024717 0.000000
# 3 -0.019318 0.021331 0.030861 0.000000 -0.022314 0.000000
# 4 0.000000 0.000000 0.000000 0.060051 0.000000 -0.079025
# 5 -0.000563 -0.024717 -0.022314 0.000000 0.063160 0.000000
# 6 0.000000 0.000000 0.000000 -0.079025 0.000000 0.003979
#
#
# Mechanical properties :
#
#
# Convention : Reuss Voigt Hill
#
# Bulk Modulus (GPa) = 13.20126 33.37336 23.28731
# Shear Modulus (GPa) = 16.61220 12.70103 14.65661
#
# Velocity S-wave (km/s) = 2.81851 2.46448 2.64742
# Velocity P-wave (km/s) = 4.11155 4.90483 4.52561
#
# Compressibility (1/GPa) = 0.07575035
#
# Stress axis : x y z
#
# Youngs Moduli (GPa) = 27.83851 22.04380 32.40310
#
# Poissons Ratio (x) = 0.44554 0.62596
# Poissons Ratio (y) = 0.56266 -0.69120
# Poissons Ratio (z) = 0.53778 -0.47022
#
# Static dielectric constant tensor:
#      x y z
#    x 1.750770 0.000000 -0.017270 
#    y 0.000000 1.758290 0.000000 
#    z -0.017270 0.000000 1.792490 
# 
# From -- ./inp_files/256220.got.cif
#   From: 2010.05.17/outbox.cif.g08.bks.cpg/sg12_129_cif.got.tgz:256220.got - 2010.06.03 13:09:07.
