data_PCOD9187027
_publ_section_title
;
Structure prediction by ZEFSAII (Michael W. Deem and Ramdas Pophale) SiO2 
 PCOD9187027
Probable space group: C 2/M
;
_chemical_formula_sum "Si O2"
_cell_formula_units_Z 40
_cell_length_a 24.514764
_cell_length_b 7.483353
_cell_length_c 9.922083
_cell_angle_alpha 90.000000
_cell_angle_beta 103.568707
_cell_angle_gamma 90.000000
_cell_volume 1769.428260
_symmetry_space_group_name_H-M "C 2/M"
_symmetry_group_IT_number 12
_symmetry_cell_setting 'monoclinic'
loop_
_space_group_symop_operation_xyz
x,y,z
-x,y,-z
-x,-y,-z
x,-y,z
1/2+x,1/2+y,z
1/2-x,1/2+y,-z
1/2-x,1/2-y,-z
1/2+x,1/2-y,z
loop_
_atom_site_type_symbol
_atom_site_label
_atom_site_fract_x
_atom_site_fract_y
_atom_site_fract_z
Si Si1 0.265197 0.211400 0.354088
Si Si2 0.672658 0.718473 0.089724
Si Si3 0.639827 0.710557 0.783799
Si Si4 0.514562 0.281204 0.657926
Si Si5 0.550941 0.717382 0.125362
O O1 0.250000 0.250000 0.500000
O O2 0.220097 0.284742 0.219782
O O3 0.325863 0.268540 0.334104
O O4 0.264078 0.000000 0.341334
O O5 0.675407 0.500000 0.093442
O O6 0.611675 0.773546 0.110226
O O7 0.674019 0.779132 0.934334
O O8 0.633464 0.500000 0.804494
O O9 0.576514 0.781179 0.737669
O O10 0.500000 0.222958 0.500000
O O11 0.515812 0.500000 0.659080
O O12 0.467025 0.227240 0.736016
O O13 0.551835 0.500000 0.121802
O O14 0.500000 0.774489 0.000000
#
# Coordination Sequence:
#
# PCOD9187027 Si02
#       5
#     8   8   8   8   8
#     4  11  24  39  55  78 107 143 183 225 271 318
#     4   9  18  32  53  80 109 141 178 221 267 316
#     4  10  19  35  57  83 111 140 178 221 267 322
#     4   9  17  26  45  80 114 140 169 213 266 314
#     4   9  14  25  45  74 109 136 166 215 267 312
#
# _framework density 22.606171
#
# number of rings (size 3 to 8) (size 9 to 14) (size 15 to 20)
#    0.000    2.400    2.000    1.200    2.800    0.000 
#    0.000    1.000    0.000    0.600    0.000    1.400 
#    0.000    0.000    0.000    0.000    0.000    0.000 
#
# Total GULP energy -111711.875702 kJ/mol
# GULP energy per Si atom -5585.593785 kJ/mol
# Density = 2.255472 g / cm^3
# Si number density = 22.606171 Si / 1000 Ang^3
#
#
#
# Elastic Constant Matrix: (Units=GPa)
#
#
# Indices 1 2 3 4 5 6 
#
# 1 76.6890 -8.5773 16.0285 0.0000 -17.8698 0.0000
# 2 -8.5773 60.7421 -4.1304 0.0000 9.3123 0.0000
# 3 16.0285 -4.1304 126.1010 0.0000 -19.7964 0.0000
# 4 0.0000 0.0000 0.0000 4.1869 0.0000 -2.4553
# 5 -17.8698 9.3123 -19.7964 0.0000 38.7213 0.0000
# 6 0.0000 0.0000 0.0000 -2.4553 0.0000 2.3421
#
#
#
# Elastic Compliance Matrix: (Units=1/GPa)
#
#
# Indices 1 2 3 4 5 6 
#
# 1 0.014768 0.001090 -0.000884 0.000000 0.006102 0.000000
# 2 0.001090 0.017175 -0.000158 0.000000 -0.003708 0.000000
# 3 -0.000884 -0.000158 0.008676 0.000000 0.004066 0.000000
# 4 0.000000 0.000000 0.000000 0.619957 0.000000 0.649905
# 5 0.006102 -0.003708 0.004066 0.000000 0.031612 0.000000
# 6 0.000000 0.000000 0.000000 0.649905 0.000000 1.108260
#
#
# Mechanical properties :
#
#
# Convention : Reuss Voigt Hill
#
# Bulk Modulus (GPa) = 24.56121 30.01928 27.29025
# Shear Modulus (GPa) = 2.75646 26.39748 14.57697
#
# Velocity S-wave (km/s) = 1.10543 3.42089 2.54209
# Velocity P-wave (km/s) = 3.53804 5.37693 4.55132
#
# Compressibility (1/GPa) = 0.04071461
#
# Stress axis : x y z
#
# Youngs Moduli (GPa) = 67.71393 58.22512 115.26652
#
# Poissons Ratio (x) = -0.06346 0.10185
# Poissons Ratio (y) = -0.07380 0.01823
# Poissons Ratio (z) = 0.05983 0.00921
#
# Static dielectric constant tensor:
#      x y z
#    x 1.775890 0.000000 0.030730 
#    y 0.000000 1.886600 0.000000 
#    z 0.030730 0.000000 1.808910 
# 
# From -- ./inp_files/93020.got.cif
#   From: 2010.05.17/outbox.cif.g08.bks.cpg/sg12_47_cif.got.tgz:93020.got - 2010.06.03 13:09:07.
