data_PCOD9187933
_publ_section_title
;
Structure prediction by ZEFSAII (Michael W. Deem and Ramdas Pophale) SiO2 
 PCOD9187933
Probable space group: C 2/M
;
_chemical_formula_sum "Si O2"
_cell_formula_units_Z 48
_cell_length_a 17.885522
_cell_length_b 15.493612
_cell_length_c 10.539831
_cell_angle_alpha 90.000000
_cell_angle_beta 54.914144
_cell_angle_gamma 90.000000
_cell_volume 2389.989848
_symmetry_space_group_name_H-M "C 2/M"
_symmetry_group_IT_number 12
_symmetry_cell_setting 'monoclinic'
loop_
_space_group_symop_operation_xyz
x,y,z
-x,y,-z
-x,-y,-z
x,-y,z
1/2+x,1/2+y,z
1/2-x,1/2+y,-z
1/2-x,1/2-y,-z
1/2+x,1/2-y,z
loop_
_atom_site_type_symbol
_atom_site_label
_atom_site_fract_x
_atom_site_fract_y
_atom_site_fract_z
Si Si1 0.787463 0.394428 0.946797
Si Si2 0.902035 0.100184 0.462899
Si Si3 0.395268 0.895548 0.594020
Si Si4 0.894417 0.395486 0.097380
Si Si5 0.101943 0.105837 0.244153
Si Si6 0.716701 0.153320 0.545358
O O1 0.786690 0.500000 0.942395
O O2 0.835312 0.364017 0.771561
O O3 0.847294 0.370654 0.011257
O O4 0.683973 0.364211 0.074198
O O5 0.881483 0.134012 0.625288
O O6 0.813311 0.104626 0.463018
O O7 0.998244 0.135237 0.316024
O O8 0.921332 0.000000 0.466058
O O9 0.500000 0.864298 0.500000
O O10 0.346104 0.871790 0.511363
O O11 0.398491 0.000000 0.597343
O O12 0.890922 0.500000 0.108301
O O13 0.839064 0.361443 0.271511
O O14 0.000000 0.369154 0.000000
O O15 0.106927 0.000000 0.234001
O O16 0.750000 0.250000 0.500000
#
# Coordination Sequence:
#
# PCOD9187933 Si02
#       6
#     8   8   8   8   8   8
#     4   9  16  30  55  86 109 134 184 247 299 340
#     4   9  16  31  56  80 105 141 188 240 281 333
#     4  10  21  39  61  84 115 154 198 252 309 359
#     4  10  19  35  63  88 108 147 210 270 298 333
#     4   8  14  27  53  85 104 126 176 234 286 333
#     4  12  24  38  53  85 123 159 193 234 307 374
#
# _framework density 20.083767999999999
#
# number of rings (size 3 to 8) (size 9 to 14) (size 15 to 20)
#    0.000    2.333    1.667    3.500    0.000    2.667 
#    3.000    3.333    0.000    4.000    0.000    0.000 
#    0.000    0.000    0.000    0.000    0.000    0.000 
#
# Total GULP energy -133886.681842 kJ/mol
# GULP energy per Si atom -5578.611743 kJ/mol
# Density = 2.003806 g / cm^3
# Si number density = 20.083768 Si / 1000 Ang^3
#
#
#
# Elastic Constant Matrix: (Units=GPa)
#
#
# Indices 1 2 3 4 5 6 
#
# 1 149.6854 2.2865 63.6960 0.0000 -16.4626 0.0000
# 2 2.2865 10.6854 7.7725 0.0000 -5.5226 0.0000
# 3 63.6960 7.7725 115.4521 0.0000 -13.2016 0.0000
# 4 0.0000 0.0000 0.0000 3.6498 0.0000 -1.5528
# 5 -16.4626 -5.5226 -13.2016 0.0000 39.2128 0.0000
# 6 0.0000 0.0000 0.0000 -1.5528 0.0000 -5.3573
#
#
#
# Elastic Compliance Matrix: (Units=1/GPa)
#
#
# Indices 1 2 3 4 5 6 
#
# 1 0.008986 0.002932 -0.004864 0.000000 0.002548 0.000000
# 2 0.002932 0.105203 -0.007140 0.000000 0.013644 0.000000
# 3 -0.004864 -0.007140 0.011937 0.000000 0.000971 0.000000
# 4 0.000000 0.000000 0.000000 0.243913 0.000000 -0.070696
# 5 0.002548 0.013644 0.000971 0.000000 0.028820 0.000000
# 6 0.000000 0.000000 0.000000 -0.070696 0.000000 -0.166170
#
#
# Mechanical properties :
#
#
# Convention : Reuss Voigt Hill
#
# Bulk Modulus (GPa) = 9.26077 47.03699 28.14888
# Shear Modulus (GPa) = 17.43217 20.97223 19.20220
#
# Velocity S-wave (km/s) = 2.94933 3.23497 3.09545
# Velocity P-wave (km/s) = 4.02730 6.11757 5.17899
#
# Compressibility (1/GPa) = 0.10798241
#
# Stress axis : x y z
#
# Youngs Moduli (GPa) = 111.28771 9.50540 83.77601
#
# Poissons Ratio (x) = -0.02787 0.40745
# Poissons Ratio (y) = -0.32627 0.59815
# Poissons Ratio (z) = 0.54125 0.06787
#
# Static dielectric constant tensor:
#      x y z
#    x 1.811410 0.000000 -0.017260 
#    y 0.000000 1.679490 0.000000 
#    z -0.017260 0.000000 1.700250 
# 
# From -- ./inp_files/75076.got.cif
#   From: 2010.05.17/outbox.cif.g08.bks.cpg/sg12_38_cif.got.tgz:75076.got - 2010.06.03 13:09:07.
