data_PCOD9187415
_publ_section_title
;
Structure prediction by ZEFSAII (Michael W. Deem and Ramdas Pophale) SiO2 
 PCOD9187415
Probable space group: C 2/M
;
_chemical_formula_sum "Si O2"
_cell_formula_units_Z 64
_cell_length_a 18.520684
_cell_length_b 14.889379
_cell_length_c 14.340073
_cell_angle_alpha 90.000000
_cell_angle_beta 59.557184
_cell_angle_gamma 90.000000
_cell_volume 3409.262064
_symmetry_space_group_name_H-M "C 2/M"
_symmetry_group_IT_number 12
_symmetry_cell_setting 'monoclinic'
loop_
_space_group_symop_operation_xyz
x,y,z
-x,y,-z
-x,-y,-z
x,-y,z
1/2+x,1/2+y,z
1/2-x,1/2+y,-z
1/2-x,1/2-y,-z
1/2+x,1/2-y,z
loop_
_atom_site_type_symbol
_atom_site_label
_atom_site_fract_x
_atom_site_fract_y
_atom_site_fract_z
Si Si1 0.110761 0.102950 0.235567
Si Si2 0.684767 0.242908 0.728961
Si Si3 0.099142 0.393259 0.929104
Si Si4 0.450120 0.283626 0.339325
Si Si5 0.449584 0.146511 0.616863
Si Si6 0.364996 0.676819 0.581748
Si Si7 0.267891 0.896759 0.800510
Si Si8 0.768673 0.608629 0.011049
O O1 0.123516 0.109722 0.339128
O O2 0.032387 0.162188 0.256418
O O3 0.097063 0.000000 0.218793
O O4 0.194357 0.136583 0.129179
O O5 0.640440 0.170524 0.825056
O O6 0.619160 0.272700 0.693791
O O7 0.767334 0.196609 0.631370
O O8 0.719954 0.328477 0.763707
O O9 0.115769 0.500000 0.899886
O O10 0.143882 0.368728 0.997390
O O11 0.000000 0.380907 0.000000
O O12 0.484610 0.186571 0.351876
O O13 0.411031 0.336822 0.453812
O O14 0.500000 0.099609 0.500000
O O15 0.408846 0.234077 0.594367
O O16 0.367867 0.101455 0.713940
O O17 0.257665 0.860919 0.912675
O O18 0.237397 0.000000 0.812643
O O19 0.766219 0.500000 0.007729
#
# Coordination Sequence:
#
# PCOD9187415 Si02
#       8
#     8   8   8   8   8   8   8   8
#     4  10  19  35  59  84 112 150 198 246 293 343
#     4  11  22  37  58  85 119 157 190 232 295 358
#     4  10  22  39  59  87 120 148 189 249 302 344
#     4  10  21  34  55  84 117 149 190 239 298 343
#     4   8  17  35  56  79 107 146 196 242 282 330
#     4   9  18  36  55  79 112 152 192 242 288 340
#     4  10  22  38  58  83 116 160 199 231 279 348
#     4   9  19  37  58  81 113 151 190 241 292 338
#
# _framework density 18.772389
#
# number of rings (size 3 to 8) (size 9 to 14) (size 15 to 20)
#    0.000    2.375    1.250    1.500    1.750    3.250 
#    0.000    0.000    0.000   10.125    0.000    0.000 
#    0.000    0.000    0.000    0.000    0.000    0.000 
#
# Total GULP energy -178420.056744 kJ/mol
# GULP energy per Si atom -5575.626773 kJ/mol
# Density = 1.872966 g / cm^3
# Si number density = 18.772389 Si / 1000 Ang^3
#
#
#
# Elastic Constant Matrix: (Units=GPa)
#
#
# Indices 1 2 3 4 5 6 
#
# 1 152.2874 21.7385 44.8123 0.0000 -3.4800 0.0000
# 2 21.7385 54.1081 22.6002 0.0000 -8.2610 0.0000
# 3 44.8123 22.6002 71.6247 0.0000 -2.1857 0.0000
# 4 0.0000 0.0000 0.0000 89.0534 0.0000 0.5197
# 5 -3.4800 -8.2610 -2.1857 0.0000 26.3638 0.0000
# 6 0.0000 0.0000 0.0000 0.5197 0.0000 23.7749
#
#
#
# Elastic Compliance Matrix: (Units=1/GPa)
#
#
# Indices 1 2 3 4 5 6 
#
# 1 0.008131 -0.001269 -0.004678 0.000000 0.000288 0.000000
# 2 -0.001269 0.022521 -0.006118 0.000000 0.006382 0.000000
# 3 -0.004678 -0.006118 0.018789 0.000000 -0.000977 0.000000
# 4 0.000000 0.000000 0.000000 0.011231 0.000000 -0.000245
# 5 0.000288 0.006382 -0.000977 0.000000 0.039888 0.000000
# 6 0.000000 0.000000 0.000000 -0.000245 0.000000 0.042066
#
#
# Mechanical properties :
#
#
# Convention : Reuss Voigt Hill
#
# Bulk Modulus (GPa) = 39.50685 50.70246 45.10465
# Shear Modulus (GPa) = 28.54021 40.42970 34.48496
#
# Velocity S-wave (km/s) = 3.90337 4.64581 4.29068
# Velocity P-wave (km/s) = 6.43474 7.47300 6.97322
#
# Compressibility (1/GPa) = 0.02531207
#
# Stress axis : x y z
#
# Youngs Moduli (GPa) = 122.98988 44.40315 53.22277
#
# Poissons Ratio (x) = 0.05634 0.24897
# Poissons Ratio (y) = 0.15604 0.32560
# Poissons Ratio (z) = 0.57534 0.27164
#
# Static dielectric constant tensor:
#      x y z
#    x 1.627030 0.000000 -0.003860 
#    y 0.000000 1.662310 0.000000 
#    z -0.003860 0.000000 1.687200 
# 
# From -- ./inp_files/225253.got.cif
#   From: 2010.05.17/outbox.cif.g08.bks.cpg/sg12_113_cif.got.tgz:225253.got - 2010.06.03 13:09:07.
