data_PCOD9187396
_publ_section_title
;
Structure prediction by ZEFSAII (Michael W. Deem and Ramdas Pophale) SiO2 
 PCOD9187396
Probable space group: C 2/M
;
_chemical_formula_sum "Si O2"
_cell_formula_units_Z 56
_cell_length_a 19.571787
_cell_length_b 8.516623
_cell_length_c 27.707755
_cell_angle_alpha 90.000000
_cell_angle_beta 41.482842
_cell_angle_gamma 90.000000
_cell_volume 3059.262682
_symmetry_space_group_name_H-M "C 2/M"
_symmetry_group_IT_number 12
_symmetry_cell_setting 'monoclinic'
loop_
_space_group_symop_operation_xyz
x,y,z
-x,y,-z
-x,-y,-z
x,-y,z
1/2+x,1/2+y,z
1/2-x,1/2+y,-z
1/2-x,1/2-y,-z
1/2+x,1/2-y,z
loop_
_atom_site_type_symbol
_atom_site_label
_atom_site_fract_x
_atom_site_fract_y
_atom_site_fract_z
Si Si1 0.861767 0.320887 0.445812
Si Si2 0.255737 0.188496 0.740332
Si Si3 0.034892 0.691932 0.427311
Si Si4 0.062651 0.312476 0.788151
Si Si5 0.676391 0.186760 0.080277
Si Si6 0.668008 0.188140 0.192305
Si Si7 0.054752 0.821441 0.690666
O O1 0.849957 0.500000 0.466653
O O2 0.750000 0.250000 0.500000
O O3 0.944394 0.250555 0.439348
O O4 0.907746 0.300569 0.368654
O O5 0.354201 0.239390 0.654683
O O6 0.149511 0.268532 0.780623
O O7 0.276701 0.217883 0.786092
O O8 0.246336 0.000000 0.739397
O O9 0.037459 0.500000 0.425145
O O10 0.000000 0.737820 0.500000
O O11 0.060919 0.500000 0.781151
O O12 0.943954 0.261846 0.861402
O O13 0.094596 0.224963 0.722086
O O14 0.716139 0.220256 0.113962
O O15 0.674543 0.000000 0.076594
O O16 0.750000 0.250000 0.000000
O O17 0.567263 0.295705 0.244730
O O18 0.640917 0.000000 0.206642
O O19 0.082815 0.000000 0.663345
#
# Coordination Sequence:
#
# PCOD9187396 Si02
#       7
#     8   8   8   8   8   8   8
#     4  11  22  37  55  78 111 147 186 240 291 337
#     4  10  19  35  59  83 112 151 191 230 279 339
#     4   9  19  35  55  79 110 148 187 231 281 328
#     4  10  22  38  56  83 117 148 181 232 287 332
#     4   9  19  36  59  83 113 147 184 227 280 335
#     4   9  18  36  58  82 112 148 182 226 282 333
#     4  11  21  35  56  80 105 144 194 237 277 335
#
# _framework density 18.305064999999999
#
# number of rings (size 3 to 8) (size 9 to 14) (size 15 to 20)
#    0.000    2.143    1.429    3.000    2.000    3.429 
#    0.000    0.714    0.000    6.429    0.000    0.000 
#    0.000    0.000    0.000    0.000    0.000    0.000 
#
# Total GULP energy -155961.578783 kJ/mol
# GULP energy per Si atom -5570.056385 kJ/mol
# Density = 1.826340 g / cm^3
# Si number density = 18.305065 Si / 1000 Ang^3
#
#
#
# Elastic Constant Matrix: (Units=GPa)
#
#
# Indices 1 2 3 4 5 6 
#
# 1 126.0140 21.7662 60.0836 0.0001 3.8678 0.0000
# 2 21.7662 8.8375 0.5006 0.0000 -2.9996 -0.0002
# 3 60.0836 0.5006 108.2260 0.0000 14.2618 0.0000
# 4 0.0001 0.0000 0.0000 24.0678 0.0000 -3.4116
# 5 3.8678 -2.9996 14.2618 0.0000 22.1104 0.0000
# 6 0.0000 -0.0002 0.0000 -3.4116 0.0000 26.9160
#
#
#
# Elastic Compliance Matrix: (Units=1/GPa)
#
#
# Indices 1 2 3 4 5 6 
#
# 1 0.025132 -0.062672 -0.013074 0.000000 -0.004466 -0.000001
# 2 -0.062672 0.275753 0.029665 0.000001 0.029238 0.000002
# 3 -0.013074 0.029665 0.016972 0.000000 -0.004636 0.000000
# 4 0.000000 0.000001 0.000000 0.042310 0.000000 0.005363
# 5 -0.004466 0.029238 -0.004636 0.000000 0.052965 0.000000
# 6 -0.000001 0.000002 0.000000 0.005363 0.000000 0.037832
#
#
# Mechanical properties :
#
#
# Convention : Reuss Voigt Hill
#
# Bulk Modulus (GPa) = 4.43076 45.30870 24.86973
# Shear Modulus (GPa) = 8.08594 25.33398 16.70996
#
# Velocity S-wave (km/s) = 2.10402 3.72423 3.02464
# Velocity P-wave (km/s) = 2.88588 6.58020 5.08071
#
# Compressibility (1/GPa) = 0.22569468
#
# Stress axis : x y z
#
# Youngs Moduli (GPa) = 39.79060 3.62643 58.92133
#
# Poissons Ratio (x) = 0.22728 0.77033
# Poissons Ratio (y) = 2.49376 -1.74791
# Poissons Ratio (z) = 0.52022 -0.10758
#
# Static dielectric constant tensor:
#      x y z
#    x 1.640970 0.000000 0.033190 
#    y 0.000000 1.640830 0.000000 
#    z 0.033190 0.000000 1.538050 
# 
# From -- ./inp_files/342329.got.cif
#   From: 2010.05.17/outbox.cif.g08.bks.cpg/sg12_172_cif.got.tgz:342329.got - 2010.06.03 13:09:07.
