data_PCOD9187677
_publ_section_title
;
Structure prediction by ZEFSAII (Michael W. Deem and Ramdas Pophale) SiO2 
 PCOD9187677
Probable space group: C 2/M
;
_chemical_formula_sum "Si O2"
_cell_formula_units_Z 58
_cell_length_a 24.108206
_cell_length_b 9.335331
_cell_length_c 27.198905
_cell_angle_alpha 90.000000
_cell_angle_beta 151.460721
_cell_angle_gamma 90.000000
_cell_volume 2924.535104
_symmetry_space_group_name_H-M "C 2/M"
_symmetry_group_IT_number 12
_symmetry_cell_setting 'monoclinic'
loop_
_space_group_symop_operation_xyz
x,y,z
-x,y,-z
-x,-y,-z
x,-y,z
1/2+x,1/2+y,z
1/2-x,1/2+y,-z
1/2-x,1/2-y,-z
1/2+x,1/2-y,z
loop_
_atom_site_type_symbol
_atom_site_label
_atom_site_fract_x
_atom_site_fract_y
_atom_site_fract_z
Si Si1 0.967953 0.673901 0.626572
Si Si2 0.798598 0.832875 0.763698
Si Si3 0.371134 0.165249 0.094876
Si Si4 0.292167 0.172919 0.408208
Si Si5 0.925032 0.827475 0.690363
Si Si6 0.731223 0.170494 0.818355
Si Si7 0.551667 0.228517 0.953809
Si Si8 0.000000 0.500000 0.000000
O O1 0.959589 0.500000 0.626292
O O2 0.907279 0.712721 0.527711
O O3 0.905801 0.755747 0.622482
O O4 0.102473 0.719805 0.731633
O O5 0.730379 0.768315 0.664002
O O6 0.768582 0.769776 0.793826
O O7 0.935984 0.824389 0.860061
O O8 0.766945 0.000000 0.741630
O O9 0.461032 0.252385 0.198525
O O10 0.422215 0.165558 0.079353
O O11 0.357477 0.000000 0.100878
O O12 0.250000 0.250000 0.000000
O O13 0.181899 0.205684 0.356682
O O14 0.295160 0.000000 0.406373
O O15 0.937583 0.000000 0.696987
O O16 0.723492 0.000000 0.808012
O O17 0.829472 0.200455 0.934840
O O18 0.520404 0.121089 0.973054
#
# Coordination Sequence:
#
# PCOD9187677 Si02
#       8
#     8   8   8   8   8   8   8   2
#     4  10  21  39  59  86 122 159 202 250 305 365
#     4  10  19  35  60  89 117 150 198 252 304 356
#     4  12  26  41  61  92 126 164 203 249 309 369
#     4   9  19  35  60  87 116 154 201 253 301 355
#     4  11  22  39  61  87 118 158 205 252 301 358
#     4  10  21  35  58  88 117 153 194 245 303 359
#     4  12  22  39  61  87 120 158 201 247 302 371
#     4  12  24  40  62  88 118 164 208 244 300 360
#
# _framework density 19.832211999999998
#
# number of rings (size 3 to 8) (size 9 to 14) (size 15 to 20)
#    0.000    1.379    3.448    2.483    0.000    4.414 
#    1.241    3.448    1.517    0.000    0.000    1.931 
#    0.000    0.000    0.000    0.000    0.000    0.000 
#
# Total GULP energy -161552.505013 kJ/mol
# GULP energy per Si atom -5570.776035 kJ/mol
# Density = 1.978707 g / cm^3
# Si number density = 19.832212 Si / 1000 Ang^3
#
#
#
# Elastic Constant Matrix: (Units=GPa)
#
#
# Indices 1 2 3 4 5 6 
#
# 1 53.1013 15.7344 21.6010 0.0000 -17.0629 0.0000
# 2 15.7344 45.9556 0.9763 0.0000 0.0229 0.0000
# 3 21.6010 0.9763 75.9365 0.0000 -19.2288 0.0000
# 4 0.0000 0.0000 0.0000 6.0865 0.0000 -11.1887
# 5 -17.0629 0.0229 -19.2288 0.0000 31.6051 0.0000
# 6 0.0000 0.0000 0.0000 -11.1887 0.0000 22.3306
#
#
#
# Elastic Compliance Matrix: (Units=1/GPa)
#
#
# Indices 1 2 3 4 5 6 
#
# 1 0.027285 -0.009250 -0.004623 0.000003 0.011925 0.000002
# 2 -0.009250 0.024903 0.001232 -0.000002 -0.004262 -0.000001
# 3 -0.004623 0.001232 0.016356 -0.000001 0.007454 0.000000
# 4 0.000003 -0.000002 -0.000001 2.081353 0.000002 1.042852
# 5 0.011925 -0.004262 0.007454 0.000002 0.042616 0.000001
# 6 0.000002 -0.000001 0.000000 1.042852 0.000001 0.567298
#
#
# Mechanical properties :
#
#
# Convention : Reuss Voigt Hill
#
# Bulk Modulus (GPa) = 23.11514 27.95741 25.53628
# Shear Modulus (GPa) = 1.78602 21.11656 11.45129
#
# Velocity S-wave (km/s) = 0.95001 3.26661 2.40554
# Velocity P-wave (km/s) = 3.58943 5.32496 4.54088
#
# Compressibility (1/GPa) = 0.04326168
#
# Stress axis : x y z
#
# Youngs Moduli (GPa) = 36.65020 40.15574 61.14076
#
# Poissons Ratio (x) = 0.37143 0.28266
# Poissons Ratio (y) = 0.33900 -0.07531
# Poissons Ratio (z) = 0.16944 -0.04946
#
# Static dielectric constant tensor:
#      x y z
#    x 1.712810 0.000000 -0.009500 
#    y 0.000000 1.681540 0.000000 
#    z -0.009500 0.000000 1.738490 
# 
# From -- ./inp_files/367609.got.cif
#   From: 2010.05.17/outbox.cif.g08.bks.cpg/sg12_184_cif.got.tgz:367609.got - 2010.06.03 13:09:07.
