data_PCOD9187640
_publ_section_title
;
Structure prediction by ZEFSAII (Michael W. Deem and Ramdas Pophale) SiO2 
 PCOD9187640
Probable space group: C 2/M
;
_chemical_formula_sum "Si O2"
_cell_formula_units_Z 58
_cell_length_a 19.690545
_cell_length_b 7.539896
_cell_length_c 20.339275
_cell_angle_alpha 90.000000
_cell_angle_beta 121.557456
_cell_angle_gamma 90.000000
_cell_volume 2573.102973
_symmetry_space_group_name_H-M "C 2/M"
_symmetry_group_IT_number 12
_symmetry_cell_setting 'monoclinic'
loop_
_space_group_symop_operation_xyz
x,y,z
-x,y,-z
-x,-y,-z
x,-y,z
1/2+x,1/2+y,z
1/2-x,1/2+y,-z
1/2-x,1/2-y,-z
1/2+x,1/2-y,z
loop_
_atom_site_type_symbol
_atom_site_label
_atom_site_fract_x
_atom_site_fract_y
_atom_site_fract_z
Si Si1 0.769516 0.786863 0.086757
Si Si2 0.053859 0.214173 0.792695
Si Si3 0.747323 0.787522 0.343669
Si Si4 0.818046 0.284022 0.828978
Si Si5 0.500000 0.500000 0.000000
Si Si6 0.085084 0.217062 0.510802
Si Si7 0.902254 0.786605 0.634404
Si Si8 0.501010 0.796395 0.910883
O O1 0.855076 0.724876 0.158357
O O2 0.711663 0.722795 0.115288
O O3 0.769498 0.000000 0.089363
O O4 0.750000 0.750000 0.000000
O O5 0.985831 0.277397 0.708186
O O6 0.024465 0.272120 0.848573
O O7 0.055426 0.000000 0.787919
O O8 0.726316 0.721755 0.259658
O O9 0.834495 0.724403 0.410846
O O10 0.674939 0.755334 0.359115
O O11 0.752908 0.000000 0.342040
O O12 0.814491 0.500000 0.826716
O O13 0.909569 0.235968 0.866901
O O14 0.456847 0.656208 0.022182
O O15 0.098282 0.273139 0.441626
O O16 0.000000 0.272113 0.500000
O O17 0.083890 0.000000 0.511041
O O18 0.904899 0.000000 0.634442
O O19 0.512461 0.000000 0.935911
#
# Coordination Sequence:
#
# PCOD9187640 Si02
#       8
#     8   8   8   8   2   8   8   8
#     4  10  23  40  58  80 114 154 201 252 316 383
#     4  10  21  38  59  86 120 161 205 260 317 373
#     4  10  19  35  60  86 118 157 202 253 304 362
#     4   9  20  38  59  86 114 156 206 258 313 370
#     4  12  26  40  64  94 128 160 210 262 328 386
#     4   9  19  33  56  91 125 157 201 251 302 365
#     4  10  20  35  58  88 121 158 204 252 303 366
#     4  11  23  40  64  91 123 161 211 265 319 379
#
# _framework density 22.540877999999999
#
# number of rings (size 3 to 8) (size 9 to 14) (size 15 to 20)
#    0.000    2.069    2.069    0.621    3.862    0.552 
#    0.000    0.000    0.000    1.655    0.000    0.000 
#    0.000    0.000    0.000    0.000    0.000    0.000 
#
# Total GULP energy -161570.483491 kJ/mol
# GULP energy per Si atom -5571.395982 kJ/mol
# Density = 2.248957 g / cm^3
# Si number density = 22.540878 Si / 1000 Ang^3
#
#
#
# Elastic Constant Matrix: (Units=GPa)
#
#
# Indices 1 2 3 4 5 6 
#
# 1 156.5741 6.3296 51.0571 0.0000 12.9604 0.0000
# 2 6.3296 43.3008 24.4849 0.0000 13.6569 0.0000
# 3 51.0571 24.4849 114.6318 0.0000 11.2971 0.0000
# 4 0.0000 0.0000 0.0000 -0.0630 0.0000 -7.7141
# 5 12.9604 13.6569 11.2971 0.0000 39.3337 0.0000
# 6 0.0000 0.0000 0.0000 -7.7141 0.0000 17.2018
#
#
#
# Elastic Compliance Matrix: (Units=1/GPa)
#
#
# Indices 1 2 3 4 5 6 
#
# 1 0.007644 0.001519 -0.003529 0.000000 -0.002033 0.000000
# 2 0.001519 0.029068 -0.006012 0.000000 -0.008867 0.000000
# 3 -0.003529 -0.006012 0.011587 0.000000 -0.000078 0.000000
# 4 0.000000 0.000000 0.000000 -0.283906 0.000000 -0.127316
# 5 -0.002033 -0.008867 -0.000078 0.000000 0.029194 0.000000
# 6 0.000000 0.000000 0.000000 -0.127316 0.000000 0.001039
#
#
# Mechanical properties :
#
#
# Convention : Reuss Voigt Hill
#
# Bulk Modulus (GPa) = 31.00142 53.13888 42.07015
# Shear Modulus (GPa) = -27.99897 26.80352 -0.59773
#
# Velocity S-wave (km/s) = -3.52823 3.45208 -0.51551
# Velocity P-wave (km/s) = 1.67767 6.28608 4.28370
#
# Compressibility (1/GPa) = 0.03225659
#
# Stress axis : x y z
#
# Youngs Moduli (GPa) = 130.81554 34.40210 86.30268
#
# Poissons Ratio (x) = -0.05226 0.30456
# Poissons Ratio (y) = -0.19873 0.51882
# Poissons Ratio (z) = 0.46164 0.20681
#
# Static dielectric constant tensor:
#      x y z
#    x 2.027140 0.000000 0.331770 
#    y 0.000000 1.842880 0.000000 
#    z 0.331770 0.000000 2.380660 
# 
# From -- ./inp_files/314842.got.cif
#   From: 2010.05.17/outbox.cif.g08.bks.cpg/sg12_158_cif.got.tgz:314842.got - 2010.06.03 13:09:07.
