data_PCOD9187857
_publ_section_title
;
Structure prediction by ZEFSAII (Michael W. Deem and Ramdas Pophale) SiO2 
 PCOD9187857
Probable space group: C 2/M
;
_chemical_formula_sum "Si O2"
_cell_formula_units_Z 58
_cell_length_a 21.266384
_cell_length_b 7.430203
_cell_length_c 26.106474
_cell_angle_alpha 90.000000
_cell_angle_beta 139.524083
_cell_angle_gamma 90.000000
_cell_volume 2677.769194
_symmetry_space_group_name_H-M "C 2/M"
_symmetry_group_IT_number 12
_symmetry_cell_setting 'monoclinic'
loop_
_space_group_symop_operation_xyz
x,y,z
-x,y,-z
-x,-y,-z
x,-y,z
1/2+x,1/2+y,z
1/2-x,1/2+y,-z
1/2-x,1/2-y,-z
1/2+x,1/2-y,z
loop_
_atom_site_type_symbol
_atom_site_label
_atom_site_fract_x
_atom_site_fract_y
_atom_site_fract_z
Si Si1 0.209684 0.790431 0.831244
Si Si2 0.646008 0.216563 0.570509
Si Si3 0.580637 0.786754 0.010574
Si Si4 0.305200 0.286308 0.586663
Si Si5 0.039412 0.216199 0.162988
Si Si6 0.000000 0.000000 0.500000
Si Si7 0.753396 0.717046 0.262652
Si Si8 0.992467 0.779142 0.249541
O O1 0.311961 0.711493 0.913917
O O2 0.212583 0.780283 0.771571
O O3 0.110293 0.714823 0.792486
O O4 0.210083 0.000000 0.846819
O O5 0.736839 0.268234 0.591345
O O6 0.555753 0.340160 0.501602
O O7 0.675831 0.267447 0.647123
O O8 0.630068 0.000000 0.557045
O O9 0.587146 0.000000 0.025562
O O10 0.500000 0.712404 0.000000
O O11 0.540245 0.762884 0.928664
O O12 0.312968 0.500000 0.596435
O O13 0.250000 0.250000 0.500000
O O14 0.414484 0.217349 0.660029
O O15 0.144654 0.281172 0.208795
O O16 0.011967 0.276344 0.202929
O O17 0.046540 0.000000 0.169845
O O18 0.750735 0.500000 0.259832
O O19 0.990704 0.000000 0.249495
#
# Coordination Sequence:
#
# PCOD9187857 Si02
#       8
#     8   8   8   8   8   2   8   8
#     4  10  21  36  58  86 122 159 202 255 309 369
#     4  10  23  44  65  94 132 168 209 268 325 383
#     4  10  20  34  51  84 125 159 194 250 311 358
#     4  10  21  40  65  89 124 163 207 264 325 388
#     4  10  19  35  62  84 107 158 208 244 297 373
#     4  12  26  40  68  98 128 162 214 266 318 394
#     4  10  20  37  61  85 118 158 203 252 309 365
#     4   9  19  39  61  84 114 157 203 249 309 372
#
# _framework density 21.65982
#
# number of rings (size 3 to 8) (size 9 to 14) (size 15 to 20)
#    0.000    2.069    2.759    0.207    1.931    2.483 
#    2.483    3.448    0.000    0.000    0.000    0.000 
#    0.000    0.000    0.000    0.000    0.000    0.000 
#
# Total GULP energy -161715.482298 kJ/mol
# GULP energy per Si atom -5576.395941 kJ/mol
# Density = 2.161052 g / cm^3
# Si number density = 21.659820 Si / 1000 Ang^3
#
#
#
# Elastic Constant Matrix: (Units=GPa)
#
#
# Indices 1 2 3 4 5 6 
#
# 1 161.5120 9.8504 75.8731 0.0000 28.1840 0.0000
# 2 9.8504 76.7986 -0.6578 0.0000 16.6837 -0.0005
# 3 75.8731 -0.6578 129.7788 0.0000 5.7723 0.0000
# 4 0.0000 0.0000 0.0000 41.0432 0.0000 -35.2397
# 5 28.1840 16.6837 5.7723 0.0000 31.2603 0.0000
# 6 0.0000 -0.0005 0.0000 -35.2397 0.0000 0.3665
#
#
#
# Elastic Compliance Matrix: (Units=1/GPa)
#
#
# Indices 1 2 3 4 5 6 
#
# 1 0.010293 0.000477 -0.005637 0.000000 -0.008493 0.000000
# 2 0.000477 0.014774 0.000167 0.000000 -0.008346 0.000000
# 3 -0.005637 0.000167 0.010869 0.000000 0.002986 0.000000
# 4 0.000000 0.000000 0.000000 -0.000299 0.000000 -0.028725
# 5 -0.008493 -0.008346 0.002986 0.000000 0.043550 0.000000
# 6 0.000000 0.000000 0.000000 -0.028725 0.000000 -0.033456
#
#
# Mechanical properties :
#
#
# Convention : Reuss Voigt Hill
#
# Bulk Modulus (GPa) = 38.53586 59.80231 49.16909
# Shear Modulus (GPa) = 77.67847 33.40225 55.54036
#
# Velocity S-wave (km/s) = 5.99506 3.93126 5.06930
# Velocity P-wave (km/s) = 8.10870 6.94810 7.55073
#
# Compressibility (1/GPa) = 0.02594985
#
# Stress axis : x y z
#
# Youngs Moduli (GPa) = 97.15603 67.68463 92.00305
#
# Poissons Ratio (x) = -0.03226 0.51865
# Poissons Ratio (y) = -0.04631 -0.01541
# Poissons Ratio (z) = 0.54770 -0.01133
#
# Static dielectric constant tensor:
#      x y z
#    x 1.766410 0.000000 0.053740 
#    y 0.000000 1.794360 0.000000 
#    z 0.053740 0.000000 1.783320 
# 
# From -- ./inp_files/346529.got.cif
#   From: 2010.05.17/outbox.cif.g08.bks.cpg/sg12_174_cif.got.tgz:346529.got - 2010.06.03 13:09:07.
