data_PCOD9187947
_publ_section_title
;
Structure prediction by ZEFSAII (Michael W. Deem and Ramdas Pophale) SiO2 
 PCOD9187947
Probable space group: C 2/M
;
_chemical_formula_sum "Si O2"
_cell_formula_units_Z 56
_cell_length_a 9.301678
_cell_length_b 29.154420
_cell_length_c 12.357787
_cell_angle_alpha 90.000000
_cell_angle_beta 54.087740
_cell_angle_gamma 90.000000
_cell_volume 2714.228913
_symmetry_space_group_name_H-M "C 2/M"
_symmetry_group_IT_number 12
_symmetry_cell_setting 'monoclinic'
loop_
_space_group_symop_operation_xyz
x,y,z
-x,y,-z
-x,-y,-z
x,-y,z
1/2+x,1/2+y,z
1/2-x,1/2+y,-z
1/2-x,1/2-y,-z
1/2+x,1/2-y,z
loop_
_atom_site_type_symbol
_atom_site_label
_atom_site_fract_x
_atom_site_fract_y
_atom_site_fract_z
Si Si1 0.475439 0.174652 0.139857
Si Si2 0.111104 0.335927 0.297856
Si Si3 0.223996 0.633100 0.464380
Si Si4 0.298167 0.052187 0.128441
Si Si5 0.616196 0.644811 0.231494
Si Si6 0.539200 0.281741 0.856967
Si Si7 0.288022 0.551214 0.582954
O O1 0.597521 0.151538 0.177284
O O2 0.273913 0.158357 0.242152
O O3 0.494284 0.228749 0.153580
O O4 0.500000 0.166852 0.000000
O O5 0.178619 0.372503 0.357017
O O6 0.255252 0.295852 0.250233
O O7 0.909014 0.328752 0.427857
O O8 0.430975 0.643680 0.375266
O O9 0.198842 0.587930 0.545453
O O10 0.170808 0.095343 0.156562
O O11 0.291577 0.052446 0.261785
O O12 0.245096 0.000000 0.117900
O O13 0.500000 0.059924 0.000000
O O14 0.586935 0.684575 0.155533
O O15 0.500000 0.288493 0.000000
O O16 0.500000 0.559752 0.500000
O O17 0.268872 0.500000 0.546986
#
# Coordination Sequence:
#
# PCOD9187947 Si02
#       7
#     8   8   8   8   8   8   8
#     4  11  22  38  63  91 119 160 219 273 318 384
#     4  10  22  39  56  83 125 158 193 262 323 364
#     4  10  22  39  56  86 128 164 208 257 313 390
#     4  10  21  36  59  99 134 157 208 274 318 368
#     4  11  21  36  62  89 119 169 211 253 326 380
#     4  10  22  40  60  87 122 163 214 267 322 389
#     4  10  19  35  63  92 122 165 213 263 311 373
#
# _framework density 20.632013000000001
#
# number of rings (size 3 to 8) (size 9 to 14) (size 15 to 20)
#    0.000    1.714    1.429    3.000    0.000    3.429 
#    0.000   14.286    0.000    2.143    0.000    4.000 
#    0.000    0.000    0.000    0.000    0.000    0.000 
#
# Total GULP energy -156145.077223 kJ/mol
# GULP energy per Si atom -5576.609901 kJ/mol
# Density = 2.058505 g / cm^3
# Si number density = 20.632013 Si / 1000 Ang^3
#
#
#
# Elastic Constant Matrix: (Units=GPa)
#
#
# Indices 1 2 3 4 5 6 
#
# 1 77.4755 21.5580 31.8927 0.0000 8.3618 0.0000
# 2 21.5580 104.1112 23.1657 0.0000 8.0354 0.0000
# 3 31.8927 23.1657 100.0289 0.0000 -6.4689 0.0000
# 4 0.0000 0.0000 0.0000 27.4569 0.0000 8.5202
# 5 8.3618 8.0354 -6.4689 0.0000 41.4242 0.0000
# 6 0.0000 0.0000 0.0000 8.5202 0.0000 28.2855
#
#
#
# Elastic Compliance Matrix: (Units=1/GPa)
#
#
# Indices 1 2 3 4 5 6 
#
# 1 0.015816 -0.001925 -0.004828 0.000000 -0.003573 0.000000
# 2 -0.001925 0.010594 -0.001967 0.000000 -0.001974 0.000000
# 3 -0.004828 -0.001967 0.012203 0.000000 0.003262 0.000000
# 4 0.000000 0.000000 0.000000 0.040176 0.000000 -0.012102
# 5 -0.003573 -0.001974 0.003262 0.000000 0.025754 0.000000
# 6 0.000000 0.000000 0.000000 -0.012102 0.000000 0.038999
#
#
# Mechanical properties :
#
#
# Convention : Reuss Voigt Hill
#
# Bulk Modulus (GPa) = 47.23144 48.31648 47.77396
# Shear Modulus (GPa) = 29.75485 33.09994 31.42739
#
# Velocity S-wave (km/s) = 3.80171 4.00972 3.90710
# Velocity P-wave (km/s) = 6.49713 6.70121 6.59996
#
# Compressibility (1/GPa) = 0.02117234
#
# Stress axis : x y z
#
# Youngs Moduli (GPa) = 63.22709 94.39511 81.94713
#
# Poissons Ratio (x) = 0.18170 0.39564
# Poissons Ratio (y) = 0.12171 0.16121
# Poissons Ratio (z) = 0.30526 0.18570
#
# Static dielectric constant tensor:
#      x y z
#    x 1.768330 0.000000 -0.028960 
#    y 0.000000 1.766520 0.000000 
#    z -0.028960 0.000000 1.816700 
# 
# From -- ./inp_files/125579.got.cif
#   From: 2010.05.17/outbox.cif.g08.bks.cpg/sg12_63_cif.got.tgz:125579.got - 2010.06.03 13:09:07.
