data_PCOD9187001
_publ_section_title
;
Structure prediction by ZEFSAII (Michael W. Deem and Ramdas Pophale) SiO2 
 PCOD9187001
Probable space group: C 2/M
;
_chemical_formula_sum "Si O2"
_cell_formula_units_Z 56
_cell_length_a 6.978951
_cell_length_b 14.201378
_cell_length_c 21.143436
_cell_angle_alpha 90.000000
_cell_angle_beta 79.417132
_cell_angle_gamma 90.000000
_cell_volume 2059.896681
_symmetry_space_group_name_H-M "C 2/M"
_symmetry_group_IT_number 12
_symmetry_cell_setting 'monoclinic'
loop_
_space_group_symop_operation_xyz
x,y,z
-x,y,-z
-x,-y,-z
x,-y,z
1/2+x,1/2+y,z
1/2-x,1/2+y,-z
1/2-x,1/2-y,-z
1/2+x,1/2-y,z
loop_
_atom_site_type_symbol
_atom_site_label
_atom_site_fract_x
_atom_site_fract_y
_atom_site_fract_z
Si Si1 0.881578 0.602835 0.872087
Si Si2 0.807627 0.891068 0.650499
Si Si3 0.216702 0.860612 0.010291
Si Si4 0.863043 0.288228 0.554728
Si Si5 0.439308 0.606979 0.846846
Si Si6 0.767058 0.895665 0.315550
Si Si7 0.409001 0.231792 0.234508
O O1 0.932003 0.500000 0.845918
O O2 0.658209 0.622592 0.862979
O O3 0.035146 0.670000 0.829959
O O4 0.865734 0.601747 0.949046
O O5 0.869601 0.813055 0.593025
O O6 0.640965 0.841272 0.704043
O O7 0.005551 0.899093 0.678565
O O8 0.759818 0.000000 0.633982
O O9 0.205066 0.884810 0.084687
O O10 0.250000 0.750000 0.000000
O O11 0.000000 0.887597 0.000000
O O12 0.750000 0.250000 0.500000
O O13 0.825212 0.357751 0.614436
O O14 0.000000 0.349024 0.500000
O O15 0.431189 0.500000 0.823025
O O16 0.422554 0.686900 0.794977
O O17 0.751126 0.813776 0.264527
O O18 0.705490 0.000000 0.299931
#
# Coordination Sequence:
#
# PCOD9187001 Si02
#       7
#     8   8   8   8   8   8   8
#     4  10  20  34  55  81 111 150 198 246 292 351
#     4  10  22  39  60  86 120 161 195 228 283 348
#     4  10  19  35  57  82 110 151 194 244 302 355
#     4  11  22  40  67  94 118 151 191 236 284 335
#     4  10  20  34  55  81 112 151 195 243 299 353
#     4  10  22  39  59  86 122 158 193 234 283 343
#     4  11  20  35  58  82 115 152 197 244 288 333
#
# _framework density 27.185831
#
# number of rings (size 3 to 8) (size 9 to 14) (size 15 to 20)
#    0.000    1.714    2.857    2.143    0.000    2.857 
#    0.000    0.000    0.000    3.429    0.000    0.000 
#    0.000    0.000    0.000    0.000    0.000    0.000 
#
# Total GULP energy -155930.071142 kJ/mol
# GULP energy per Si atom -5568.931112 kJ/mol
# Density = 2.712395 g / cm^3
# Si number density = 27.185831 Si / 1000 Ang^3
#
#
#
# Elastic Constant Matrix: (Units=GPa)
#
#
# Indices 1 2 3 4 5 6 
#
# 1 61.6972 22.2347 47.4168 0.0000 -9.6553 0.0000
# 2 22.2347 264.3987 116.8870 0.0000 -2.0566 0.0000
# 3 47.4168 116.8870 285.7621 0.0000 -22.1710 0.0000
# 4 0.0000 0.0000 0.0000 23.3334 0.0000 15.5334
# 5 -9.6553 -2.0566 -22.1710 0.0000 61.3338 0.0000
# 6 0.0000 0.0000 0.0000 15.5334 0.0000 49.9407
#
#
#
# Elastic Compliance Matrix: (Units=1/GPa)
#
#
# Indices 1 2 3 4 5 6 
#
# 1 0.018807 -0.000309 -0.002845 0.000000 0.001922 0.000000
# 2 -0.000309 0.004640 -0.001891 0.000000 -0.000577 0.000000
# 3 -0.002845 -0.001891 0.004841 0.000000 0.001239 0.000000
# 4 0.000000 0.000000 0.000000 0.054048 0.000000 -0.016811
# 5 0.001922 -0.000577 0.001239 0.000000 0.017035 0.000000
# 6 0.000000 0.000000 0.000000 -0.016811 0.000000 0.025253
#
#
# Mechanical properties :
#
#
# Convention : Reuss Voigt Hill
#
# Bulk Modulus (GPa) = 54.95350 109.43723 82.19537
# Shear Modulus (GPa) = 35.51625 55.27621 45.39623
#
# Velocity S-wave (km/s) = 3.61837 4.51407 4.09081
# Velocity P-wave (km/s) = 6.14123 8.21656 7.25350
#
# Compressibility (1/GPa) = 0.01819720
#
# Stress axis : x y z
#
# Youngs Moduli (GPa) = 53.17197 215.52712 206.55760
#
# Poissons Ratio (x) = 0.06655 0.58771
# Poissons Ratio (y) = 0.01642 0.39067
# Poissons Ratio (z) = 0.15129 0.40764
#
# Static dielectric constant tensor:
#      x y z
#    x 2.624750 0.000000 -0.066710 
#    y 0.000000 2.058290 0.000000 
#    z -0.066710 0.000000 2.019580 
# 
# From -- ./inp_files/304693.got.cif
#   From: 2010.05.17/outbox.cif.g08.bks.cpg/sg12_153_cif.got.tgz:304693.got - 2010.06.03 13:09:07.
