data_PCOD9187030
_publ_section_title
;
Structure prediction by ZEFSAII (Michael W. Deem and Ramdas Pophale) SiO2 
 PCOD9187030
Probable space group: C 2/M
;
_chemical_formula_sum "Si O2"
_cell_formula_units_Z 58
_cell_length_a 14.438042
_cell_length_b 14.078695
_cell_length_c 15.042193
_cell_angle_alpha 90.000000
_cell_angle_beta 70.618481
_cell_angle_gamma 90.000000
_cell_volume 2884.332932
_symmetry_space_group_name_H-M "C 2/M"
_symmetry_group_IT_number 12
_symmetry_cell_setting 'monoclinic'
loop_
_space_group_symop_operation_xyz
x,y,z
-x,y,-z
-x,-y,-z
x,-y,z
1/2+x,1/2+y,z
1/2-x,1/2+y,-z
1/2-x,1/2-y,-z
1/2+x,1/2-y,z
loop_
_atom_site_type_symbol
_atom_site_label
_atom_site_fract_x
_atom_site_fract_y
_atom_site_fract_z
Si Si1 0.139144 0.664566 0.533679
Si Si2 0.892817 0.607341 0.805354
Si Si3 0.227390 0.787231 0.360220
Si Si4 0.189426 0.808958 0.834044
Si Si5 0.514622 0.391258 0.154885
Si Si6 0.000000 0.500000 0.500000
Si Si7 0.476710 0.715434 0.669338
Si Si8 0.899531 0.722068 0.976805
O O1 0.204677 0.695596 0.428874
O O2 0.211210 0.645099 0.593842
O O3 0.067243 0.582336 0.526894
O O4 0.070693 0.755423 0.581657
O O5 0.926870 0.500000 0.779659
O O6 0.781454 0.621503 0.808852
O O7 0.952241 0.686444 0.731025
O O8 0.891703 0.637394 0.909021
O O9 0.295142 0.757821 0.256005
O O10 0.120541 0.813190 0.354799
O O11 0.089679 0.867552 0.857048
O O12 0.183025 0.743235 0.923754
O O13 0.541966 0.500000 0.134124
O O14 0.504907 0.362639 0.261149
O O15 0.588853 0.317857 0.085171
O O16 0.000000 0.708132 0.000000
#
# Coordination Sequence:
#
# PCOD9187030 Si02
#       8
#     8   8   8   8   8   2   8   8
#     4  11  22  39  63  90 121 159 195 251 307 360
#     4  10  21  33  56  87 116 152 197 246 295 360
#     4  10  21  39  62  83 118 161 198 239 304 366
#     4  10  19  35  57  83 112 150 199 245 294 354
#     4  10  20  36  58  83 113 152 196 247 300 352
#     4  12  24  40  68  96 124 158 210 260 306 376
#     4  10  20  39  60  86 121 158 196 244 305 365
#     4   9  20  36  55  78 115 154 195 242 301 358
#
# _framework density 20.108635
#
# number of rings (size 3 to 8) (size 9 to 14) (size 15 to 20)
#    0.000    1.931    2.759    0.828    0.966    3.310 
#    2.483    0.000    1.517    0.828    0.000    0.000 
#    0.000    0.000    0.000    0.000    0.000    0.000 
#
# Total GULP energy -161590.696982 kJ/mol
# GULP energy per Si atom -5572.092999 kJ/mol
# Density = 2.006287 g / cm^3
# Si number density = 20.108635 Si / 1000 Ang^3
#
#
#
# Elastic Constant Matrix: (Units=GPa)
#
#
# Indices 1 2 3 4 5 6 
#
# 1 70.8673 26.4362 5.7009 0.0000 22.8562 0.0000
# 2 26.4362 51.6779 6.6279 0.0000 12.0539 0.0000
# 3 5.7009 6.6279 80.3348 0.0000 -2.7400 0.0000
# 4 0.0000 0.0000 0.0000 5.9592 0.0000 11.0848
# 5 22.8562 12.0539 -2.7400 0.0000 33.6653 0.0000
# 6 0.0000 0.0000 0.0000 11.0848 0.0000 11.1613
#
#
#
# Elastic Compliance Matrix: (Units=1/GPa)
#
#
# Indices 1 2 3 4 5 6 
#
# 1 0.020814 -0.007825 -0.001221 0.000000 -0.011429 0.000000
# 2 -0.007825 0.024383 -0.001577 0.000000 -0.003546 0.000000
# 3 -0.001221 -0.001577 0.012748 0.000000 0.002431 0.000000
# 4 0.000000 0.000000 0.000000 -0.198038 0.000000 0.196680
# 5 -0.011429 -0.003546 0.002431 0.000000 0.038931 0.000000
# 6 0.000000 0.000000 0.000000 0.196680 0.000000 -0.105735
#
#
# Mechanical properties :
#
#
# Convention : Reuss Voigt Hill
#
# Bulk Modulus (GPa) = 27.24998 31.15667 29.20332
# Shear Modulus (GPa) = -28.83220 21.09818 -3.86701
#
# Velocity S-wave (km/s) = -3.79069 3.24266 -1.38825
# Velocity P-wave (km/s) = 2.36185 5.43577 3.46189
#
# Compressibility (1/GPa) = 0.03669728
#
# Stress axis : x y z
#
# Youngs Moduli (GPa) = 48.04387 41.01203 78.44591
#
# Poissons Ratio (x) = 0.32093 0.09580
# Poissons Ratio (y) = 0.37596 0.12373
# Poissons Ratio (z) = 0.05867 0.06469
#
# Static dielectric constant tensor:
#      x y z
#    x 1.755560 0.000000 0.005810 
#    y 0.000000 1.655790 0.000000 
#    z 0.005810 0.000000 1.764740 
# 
# From -- ./inp_files/214771.got.cif
#   From: 2010.05.17/outbox.cif.g08.bks.cpg/sg12_108_cif.got.tgz:214771.got - 2010.06.03 13:09:07.
