data_PCOD9187592
_publ_section_title
;
Structure prediction by ZEFSAII (Michael W. Deem and Ramdas Pophale) SiO2 
 PCOD9187592
Probable space group: C 2/M
;
_chemical_formula_sum "Si O2"
_cell_formula_units_Z 48
_cell_length_a 10.424908
_cell_length_b 14.098300
_cell_length_c 15.074471
_cell_angle_alpha 90.000000
_cell_angle_beta 65.773609
_cell_angle_gamma 90.000000
_cell_volume 2020.426873
_symmetry_space_group_name_H-M "C 2/M"
_symmetry_group_IT_number 12
_symmetry_cell_setting 'monoclinic'
loop_
_space_group_symop_operation_xyz
x,y,z
-x,y,-z
-x,-y,-z
x,-y,z
1/2+x,1/2+y,z
1/2-x,1/2+y,-z
1/2-x,1/2-y,-z
1/2+x,1/2-y,z
loop_
_atom_site_type_symbol
_atom_site_label
_atom_site_fract_x
_atom_site_fract_y
_atom_site_fract_z
Si Si1 0.143506 0.887920 0.716360
Si Si2 0.794260 0.383884 0.845028
Si Si3 0.657803 0.615488 0.253848
Si Si4 0.901281 0.391544 0.307547
Si Si5 0.854522 0.674716 0.510507
Si Si6 0.838853 0.384459 0.029825
O O1 0.182118 0.850806 0.803411
O O2 0.275451 0.874749 0.613991
O O3 0.002589 0.850019 0.709077
O O4 0.120384 0.000000 0.734338
O O5 0.790213 0.500000 0.844488
O O6 0.949883 0.353446 0.768823
O O7 0.778936 0.354486 0.951266
O O8 0.649044 0.500000 0.264889
O O9 0.759647 0.650972 0.303963
O O10 0.738501 0.639508 0.140066
O O11 0.903652 0.500000 0.275059
O O12 0.891591 0.390338 0.415888
O O13 0.750000 0.750000 0.500000
O O14 0.000000 0.719412 0.500000
O O15 0.844398 0.500000 0.026485
O O16 0.000000 0.352390 0.000000
#
# Coordination Sequence:
#
# PCOD9187592 Si02
#       6
#     8   8   8   8   8   8
#     4  10  21  37  57  83 114 147 185 231 276 322
#     4   9  16  28  51  81 111 145 184 221 267 324
#     4   9  18  30  50  84 119 147 179 223 274 323
#     4  10  19  35  60  84 109 147 189 226 268 326
#     4  12  27  42  58  81 109 144 186 232 284 337
#     4   9  14  24  45  78 118 150 176 216 270 326
#
# _framework density 23.757356000000001
#
# number of rings (size 3 to 8) (size 9 to 14) (size 15 to 20)
#    0.000    2.167    3.333    0.500    2.333    1.333 
#    0.000    5.833    0.000    0.000    0.000    7.000 
#    0.000    0.000    0.000    0.000    0.000    0.000 
#
# Total GULP energy -134161.251899 kJ/mol
# GULP energy per Si atom -5590.052162 kJ/mol
# Density = 2.370328 g / cm^3
# Si number density = 23.757356 Si / 1000 Ang^3
#
#
#
# Elastic Constant Matrix: (Units=GPa)
#
#
# Indices 1 2 3 4 5 6 
#
# 1 171.5356 -6.0105 27.4583 0.0000 9.3020 0.0000
# 2 -6.0105 57.9691 -24.2601 0.0000 4.7748 0.0000
# 3 27.4583 -24.2601 92.4474 0.0000 15.8066 0.0000
# 4 0.0000 0.0000 0.0000 17.3610 0.0000 3.0838
# 5 9.3020 4.7748 15.8066 0.0000 44.7276 0.0000
# 6 0.0000 0.0000 0.0000 3.0838 0.0000 7.6418
#
#
#
# Elastic Compliance Matrix: (Units=1/GPa)
#
#
# Indices 1 2 3 4 5 6 
#
# 1 0.006140 -0.000027 -0.001717 0.000000 -0.000667 0.000000
# 2 -0.000027 0.020117 0.006017 0.000000 -0.004268 0.000000
# 3 -0.001717 0.006017 0.013788 0.000000 -0.005158 0.000000
# 4 0.000000 0.000000 0.000000 0.062048 0.000000 -0.025039
# 5 -0.000667 -0.004268 -0.005158 0.000000 0.024775 0.000000
# 6 0.000000 0.000000 0.000000 -0.025039 0.000000 0.140964
#
#
# Mechanical properties :
#
#
# Convention : Reuss Voigt Hill
#
# Bulk Modulus (GPa) = 20.57940 35.14751 27.86345
# Shear Modulus (GPa) = 18.15003 35.59702 26.87352
#
# Velocity S-wave (km/s) = 2.76701 3.87506 3.36693
# Velocity P-wave (km/s) = 4.34621 5.90322 5.18351
#
# Compressibility (1/GPa) = 0.04859228
#
# Stress axis : x y z
#
# Youngs Moduli (GPa) = 162.87400 49.70797 72.52864
#
# Poissons Ratio (x) = 0.00133 0.12450
# Poissons Ratio (y) = 0.00436 -0.43640
# Poissons Ratio (z) = 0.27957 -0.29909
#
# Static dielectric constant tensor:
#      x y z
#    x 1.992800 0.000000 -0.111380 
#    y 0.000000 1.937760 0.000000 
#    z -0.111380 0.000000 2.031490 
# 
# From -- ./inp_files/196891.got.cif
#   From: 2010.05.17/outbox.cif.g08.bks.cpg/sg12_99_cif.got.tgz:196891.got - 2010.06.03 13:09:07.
