data_PCOD9187694
_publ_section_title
;
Structure prediction by ZEFSAII (Michael W. Deem and Ramdas Pophale) SiO2 
 PCOD9187694
Probable space group: C 2/M
;
_chemical_formula_sum "Si O2"
_cell_formula_units_Z 52
_cell_length_a 11.575285
_cell_length_b 29.540333
_cell_length_c 11.366272
_cell_angle_alpha 90.000000
_cell_angle_beta 40.887301
_cell_angle_gamma 90.000000
_cell_volume 2544.036812
_symmetry_space_group_name_H-M "C 2/M"
_symmetry_group_IT_number 12
_symmetry_cell_setting 'monoclinic'
loop_
_space_group_symop_operation_xyz
x,y,z
-x,y,-z
-x,-y,-z
x,-y,z
1/2+x,1/2+y,z
1/2-x,1/2+y,-z
1/2-x,1/2-y,-z
1/2+x,1/2-y,z
loop_
_atom_site_type_symbol
_atom_site_label
_atom_site_fract_x
_atom_site_fract_y
_atom_site_fract_z
Si Si1 0.000000 0.145588 0.500000
Si Si2 0.035573 0.709670 0.110682
Si Si3 0.956146 0.800232 0.773346
Si Si4 0.174277 0.551097 0.088795
Si Si5 0.108408 0.387291 0.792768
Si Si6 0.000777 0.890546 0.140659
Si Si7 0.312640 0.949145 0.643719
O O1 0.006860 0.179376 0.383181
O O2 0.179488 0.115376 0.360145
O O3 0.978665 0.750833 0.238318
O O4 0.942565 0.662665 0.214539
O O5 0.245177 0.701888 0.955907
O O6 0.000000 0.720222 0.000000
O O7 0.027521 0.839197 0.802874
O O8 0.186556 0.500000 0.028820
O O9 0.219210 0.546323 0.192314
O O10 0.983250 0.573340 0.213467
O O11 0.323514 0.587617 0.937269
O O12 0.000000 0.390934 0.000000
O O13 0.838796 0.921953 0.302592
O O14 0.000000 0.892046 0.000000
O O15 0.500000 0.924827 0.500000
O O16 0.329094 0.000000 0.581330
#
# Coordination Sequence:
#
# PCOD9187694 Si02
#       7
#     4   8   8   8   8   8   8
#     4  12  24  40  65  92 118 166 201 244 310 366
#     4  10  20  42  64  84 123 162 193 251 307 351
#     4  11  22  37  65  91 119 160 204 244 303 364
#     4  10  20  36  60  85 116 159 203 248 299 360
#     4  11  22  43  62  87 124 161 200 252 306 356
#     4  10  19  35  60  90 117 158 206 245 299 361
#     4   9  19  34  53  84 123 154 190 249 308 349
#
# _framework density 20.439955000000001
#
# number of rings (size 3 to 8) (size 9 to 14) (size 15 to 20)
#    0.000    1.692    4.615    0.923    2.154    2.769 
#    0.000    0.385    3.385    0.000    0.000    0.000 
#    0.000    0.000    0.000    0.000    0.000    0.000 
#
# Total GULP energy -144908.451060 kJ/mol
# GULP energy per Si atom -5573.401964 kJ/mol
# Density = 2.039343 g / cm^3
# Si number density = 20.439955 Si / 1000 Ang^3
#
#
#
# Elastic Constant Matrix: (Units=GPa)
#
#
# Indices 1 2 3 4 5 6 
#
# 1 67.7906 39.6707 16.5380 0.0000 -13.3483 0.0000
# 2 39.6707 99.4227 14.4016 0.0000 -6.9359 0.0000
# 3 16.5380 14.4016 52.0276 0.0000 -14.3010 0.0000
# 4 0.0000 0.0000 0.0000 13.9397 0.0000 -7.8831
# 5 -13.3483 -6.9359 -14.3010 0.0000 27.8083 0.0000
# 6 0.0000 0.0000 0.0000 -7.8831 0.0000 9.5907
#
#
#
# Elastic Compliance Matrix: (Units=1/GPa)
#
#
# Indices 1 2 3 4 5 6 
#
# 1 0.021217 -0.007587 -0.002754 0.000000 0.006876 0.000000
# 2 -0.007587 0.013232 -0.001566 0.000000 -0.001147 0.000000
# 3 -0.002754 -0.001566 0.023361 0.000000 0.010301 0.000000
# 4 0.000000 0.000000 0.000000 0.134044 0.000000 0.110178
# 5 0.006876 -0.001147 0.010301 0.000000 0.044272 0.000000
# 6 0.000000 0.000000 0.000000 0.110178 0.000000 0.194828
#
#
# Mechanical properties :
#
#
# Convention : Reuss Voigt Hill
#
# Bulk Modulus (GPa) = 29.41602 40.05128 34.73365
# Shear Modulus (GPa) = 10.72725 20.17644 15.45185
#
# Velocity S-wave (km/s) = 2.29338 3.14524 2.75246
# Velocity P-wave (km/s) = 4.62984 5.72950 5.20877
#
# Compressibility (1/GPa) = 0.03399508
#
# Stress axis : x y z
#
# Youngs Moduli (GPa) = 47.13188 75.57254 42.80616
#
# Poissons Ratio (x) = 0.57339 0.11789
# Poissons Ratio (y) = 0.35760 0.06705
# Poissons Ratio (z) = 0.12981 0.11837
#
# Static dielectric constant tensor:
#      x y z
#    x 1.754860 0.000000 0.006710 
#    y 0.000000 1.718150 0.000000 
#    z 0.006710 0.000000 1.829810 
# 
# From -- ./inp_files/137566.got.cif
#   From: 2010.05.17/outbox.cif.g08.bks.cpg/sg12_69_cif.got.tgz:137566.got - 2010.06.03 13:09:07.
