data_PCOD9187570
_publ_section_title
;
Structure prediction by ZEFSAII (Michael W. Deem and Ramdas Pophale) SiO2 
 PCOD9187570
Probable space group: C 2/M
;
_chemical_formula_sum "Si O2"
_cell_formula_units_Z 56
_cell_length_a 9.022963
_cell_length_b 31.127911
_cell_length_c 13.578308
_cell_angle_alpha 90.000000
_cell_angle_beta 46.259411
_cell_angle_gamma 90.000000
_cell_volume 2755.301673
_symmetry_space_group_name_H-M "C 2/M"
_symmetry_group_IT_number 12
_symmetry_cell_setting 'monoclinic'
loop_
_space_group_symop_operation_xyz
x,y,z
-x,y,-z
-x,-y,-z
x,-y,z
1/2+x,1/2+y,z
1/2-x,1/2+y,-z
1/2-x,1/2-y,-z
1/2+x,1/2-y,z
loop_
_atom_site_type_symbol
_atom_site_label
_atom_site_fract_x
_atom_site_fract_y
_atom_site_fract_z
Si Si1 0.068335 0.126075 0.355932
Si Si2 0.439390 0.708282 0.141997
Si Si3 0.048252 0.546375 0.363377
Si Si4 0.634722 0.048291 0.748754
Si Si5 0.127220 0.115408 0.749349
Si Si6 0.279809 0.205824 0.150509
Si Si7 0.846312 0.951070 0.976579
O O1 0.216845 0.084890 0.282319
O O2 0.190167 0.166929 0.255612
O O3 0.000000 0.132533 0.500000
O O4 0.882344 0.118622 0.364397
O O5 0.352122 0.662782 0.216701
O O6 0.302620 0.751079 0.204862
O O7 0.629287 0.715050 0.128269
O O8 0.500000 0.703536 0.000000
O O9 0.147925 0.500000 0.291117
O O10 0.194410 0.586554 0.288590
O O11 0.000000 0.544190 0.500000
O O12 0.864032 0.549930 0.371302
O O13 0.692681 0.000000 0.753565
O O14 0.394325 0.054744 0.886811
O O15 0.923498 0.088801 0.875135
O O16 0.500000 0.195642 0.000000
O O17 0.863202 0.000000 0.926996
O O18 0.000000 0.949830 0.000000
#
# Coordination Sequence:
#
# PCOD9187570 Si02
#       7
#     8   8   8   8   8   8   8
#     4  11  26  43  60  86 125 163 203 250 302 356
#     4  10  21  37  61  95 120 148 195 245 303 365
#     4  10  20  35  55  81 116 163 212 249 291 354
#     4  10  22  37  59  87 120 162 203 246 301 353
#     4  11  22  36  60  88 121 157 202 246 306 356
#     4  10  22  41  65  90 120 155 198 246 305 361
#     4  10  19  35  59  92 125 153 194 255 308 352
#
# _framework density 20.324452999999998
#
# number of rings (size 3 to 8) (size 9 to 14) (size 15 to 20)
#    0.000    1.714    1.429    3.429    4.000    2.571 
#    0.000    5.000    0.000    0.000    0.000    0.000 
#    0.000    0.000    0.000    0.000    0.000    0.000 
#
# Total GULP energy -156236.778284 kJ/mol
# GULP energy per Si atom -5579.884939 kJ/mol
# Density = 2.027819 g / cm^3
# Si number density = 20.324453 Si / 1000 Ang^3
#
#
#
# Elastic Constant Matrix: (Units=GPa)
#
#
# Indices 1 2 3 4 5 6 
#
# 1 90.6789 62.6241 11.8820 0.0000 20.2586 0.0000
# 2 62.6241 160.0487 35.7340 0.0000 6.0175 0.0000
# 3 11.8820 35.7340 54.6157 0.0000 17.0519 0.0000
# 4 0.0000 0.0000 0.0000 17.2234 0.0000 -6.5565
# 5 20.2586 6.0175 17.0519 0.0000 25.9208 0.0000
# 6 0.0000 0.0000 0.0000 -6.5565 0.0000 2.6028
#
#
#
# Elastic Compliance Matrix: (Units=1/GPa)
#
#
# Indices 1 2 3 4 5 6 
#
# 1 0.020365 -0.008872 0.007174 0.000000 -0.018576 0.000000
# 2 -0.008872 0.011251 -0.008533 0.000000 0.009935 0.000000
# 3 0.007174 -0.008533 0.029529 0.000000 -0.023051 0.000000
# 4 0.000000 0.000000 0.000000 1.413098 0.000000 3.559559
# 5 -0.018576 0.009935 -0.023051 0.000000 0.065955 0.000000
# 6 0.000000 0.000000 0.000000 3.559559 0.000000 9.350636
#
#
# Mechanical properties :
#
#
# Convention : Reuss Voigt Hill
#
# Bulk Modulus (GPa) = 24.58032 58.42483 41.50258
# Shear Modulus (GPa) = 0.45767 22.15629 11.30698
#
# Velocity S-wave (km/s) = 0.47505 3.30529 2.36121
# Velocity P-wave (km/s) = 3.52436 6.58598 5.28187
#
# Compressibility (1/GPa) = 0.04068295
#
# Stress axis : x y z
#
# Youngs Moduli (GPa) = 49.10402 88.88021 33.86478
#
# Poissons Ratio (x) = 0.78852 -0.24294
# Poissons Ratio (y) = 0.43564 0.28898
# Poissons Ratio (z) = -0.35226 0.75844
#
# Static dielectric constant tensor:
#      x y z
#    x 1.712200 0.000000 -0.001870 
#    y 0.000000 1.726200 0.000000 
#    z -0.001870 0.000000 1.775740 
# 
# From -- ./inp_files/125625.got.cif
#   From: 2010.05.17/outbox.cif.g08.bks.cpg/sg12_63_cif.got.tgz:125625.got - 2010.06.03 13:09:07.
