data_PCOD9187151
_publ_section_title
;
Structure prediction by ZEFSAII (Michael W. Deem and Ramdas Pophale) SiO2 
 PCOD9187151
Probable space group: C 2/M
;
_chemical_formula_sum "Si O2"
_cell_formula_units_Z 56
_cell_length_a 16.244367
_cell_length_b 8.875013
_cell_length_c 23.501810
_cell_angle_alpha 90.000000
_cell_angle_beta 121.371522
_cell_angle_gamma 90.000000
_cell_volume 2892.904929
_symmetry_space_group_name_H-M "C 2/M"
_symmetry_group_IT_number 12
_symmetry_cell_setting 'monoclinic'
loop_
_space_group_symop_operation_xyz
x,y,z
-x,y,-z
-x,-y,-z
x,-y,z
1/2+x,1/2+y,z
1/2-x,1/2+y,-z
1/2-x,1/2-y,-z
1/2+x,1/2-y,z
loop_
_atom_site_type_symbol
_atom_site_label
_atom_site_fract_x
_atom_site_fract_y
_atom_site_fract_z
Si Si1 0.774973 0.325519 0.568510
Si Si2 0.080587 0.175078 0.571253
Si Si3 0.628301 0.176797 0.707288
Si Si4 0.938648 0.678831 0.712377
Si Si5 0.197213 0.681712 0.926443
Si Si6 0.483846 0.680379 0.846174
Si Si7 0.799926 0.183486 0.845738
O O1 0.797631 0.500000 0.564625
O O2 0.750000 0.250000 0.500000
O O3 0.681589 0.317493 0.574834
O O4 0.864227 0.264851 0.637552
O O5 0.092890 0.249470 0.636630
O O6 0.000000 0.241911 0.500000
O O7 0.054704 0.000000 0.571428
O O8 0.545463 0.191312 0.724928
O O9 0.726899 0.237714 0.770040
O O10 0.641760 0.000000 0.700573
O O11 0.919327 0.500000 0.715911
O O12 0.934838 0.770316 0.769176
O O13 0.196755 0.500000 0.928302
O O14 0.255789 0.728635 0.890532
O O15 0.087553 0.740689 0.885837
O O16 0.250000 0.750000 0.000000
O O17 0.496451 0.500000 0.852423
O O18 0.409029 0.726001 0.869141
O O19 0.796888 0.000000 0.843673
#
# Coordination Sequence:
#
# PCOD9187151 Si02
#       7
#     8   8   8   8   8   8   8
#     4  10  21  35  52  76 108 148 195 245 303 361
#     4  10  21  35  49  73 111 148 185 241 307 354
#     4  10  19  35  58  81 107 149 197 238 292 356
#     4  10  20  36  57  82 115 154 195 248 306 355
#     4  11  23  44  67  91 128 165 199 247 301 358
#     4  11  22  38  63  94 120 156 206 247 295 360
#     4   9  20  39  62  87 122 161 196 242 300 359
#
# _framework density 19.357704999999999
#
# number of rings (size 3 to 8) (size 9 to 14) (size 15 to 20)
#    0.000    1.857    1.429    2.571    0.000    2.571 
#    0.000    6.429    0.000    0.000    0.000    0.000 
#    0.000    0.000    0.000    0.000    0.000    0.000 
#
# Total GULP energy -156325.272723 kJ/mol
# GULP energy per Si atom -5583.045454 kJ/mol
# Density = 1.931365 g / cm^3
# Si number density = 19.357705 Si / 1000 Ang^3
#
#
#
# Elastic Constant Matrix: (Units=GPa)
#
#
# Indices 1 2 3 4 5 6 
#
# 1 104.6222 38.8509 68.6569 0.0000 -5.2687 0.0000
# 2 38.8509 41.2645 33.1512 0.0000 -5.6416 0.0000
# 3 68.6569 33.1512 128.9361 0.0000 -5.6832 0.0000
# 4 0.0000 0.0000 0.0000 36.0057 0.0000 1.8853
# 5 -5.2687 -5.6416 -5.6832 0.0000 27.3222 0.0000
# 6 0.0000 0.0000 0.0000 1.8853 0.0000 14.4640
#
#
#
# Elastic Compliance Matrix: (Units=1/GPa)
#
#
# Indices 1 2 3 4 5 6 
#
# 1 0.018406 -0.011958 -0.006741 0.000000 -0.000322 0.000000
# 2 -0.011958 0.038926 -0.003420 0.000000 0.005020 0.000000
# 3 -0.006741 -0.003420 0.012248 0.000000 0.000542 0.000000
# 4 0.000000 0.000000 0.000000 0.027964 0.000000 -0.003645
# 5 -0.000322 0.005020 0.000542 0.000000 0.037688 0.000000
# 6 0.000000 0.000000 0.000000 -0.003645 0.000000 0.069612
#
#
# Mechanical properties :
#
#
# Convention : Reuss Voigt Hill
#
# Bulk Modulus (GPa) = 39.45741 61.79341 50.62541
# Shear Modulus (GPa) = 19.41527 24.50262 21.95894
#
# Velocity S-wave (km/s) = 3.17041 3.56164 3.37171
# Velocity P-wave (km/s) = 5.81632 6.99320 6.43174
#
# Compressibility (1/GPa) = 0.02534378
#
# Stress axis : x y z
#
# Youngs Moduli (GPa) = 54.33006 25.68955 81.64508
#
# Poissons Ratio (x) = 0.30720 0.55033
# Poissons Ratio (y) = 0.64969 0.27919
# Poissons Ratio (z) = 0.36621 0.08785
#
# Static dielectric constant tensor:
#      x y z
#    x 1.680050 0.000000 0.018630 
#    y 0.000000 1.670770 0.000000 
#    z 0.018630 0.000000 1.675720 
# 
# From -- ./inp_files/339038.got.cif
#   From: 2010.05.17/outbox.cif.g08.bks.cpg/sg12_170_cif.got.tgz:339038.got - 2010.06.03 13:09:07.
