data_PCOD9187433
_publ_section_title
;
Structure prediction by ZEFSAII (Michael W. Deem and Ramdas Pophale) SiO2 
 PCOD9187433
Probable space group: C 2/M
;
_chemical_formula_sum "Si O2"
_cell_formula_units_Z 60
_cell_length_a 21.909150
_cell_length_b 27.240710
_cell_length_c 12.869120
_cell_angle_alpha 90.000000
_cell_angle_beta 26.644796
_cell_angle_gamma 90.000000
_cell_volume 3444.408174
_symmetry_space_group_name_H-M "C 2/M"
_symmetry_group_IT_number 12
_symmetry_cell_setting 'monoclinic'
loop_
_space_group_symop_operation_xyz
x,y,z
-x,y,-z
-x,-y,-z
x,-y,z
1/2+x,1/2+y,z
1/2-x,1/2+y,-z
1/2-x,1/2-y,-z
1/2+x,1/2-y,z
loop_
_atom_site_type_symbol
_atom_site_label
_atom_site_fract_x
_atom_site_fract_y
_atom_site_fract_z
Si Si1 0.301641 0.443131 0.523261
Si Si2 0.000000 0.866692 0.500000
Si Si3 0.150042 0.411635 0.321033
Si Si4 0.622418 0.942719 0.599234
Si Si5 0.764865 0.697793 0.112848
Si Si6 0.417466 0.444315 0.800511
Si Si7 0.342119 0.198229 0.753587
Si Si8 0.908548 0.624871 0.039210
O O1 0.265165 0.500000 0.604313
O O2 0.247349 0.434212 0.489291
O O3 0.462450 0.438384 0.296852
O O4 0.220017 0.406354 0.722818
O O5 0.876515 0.831244 0.656428
O O6 0.946333 0.902831 0.671450
O O7 0.153394 0.429548 0.433920
O O8 0.178518 0.353329 0.271813
O O9 0.000000 0.419858 0.500000
O O10 0.268792 0.437336 0.075002
O O11 0.586703 0.000000 0.660715
O O12 0.497834 0.910356 0.830241
O O13 0.744687 0.755999 0.155407
O O14 0.866298 0.672267 0.038468
O O15 0.810511 0.690421 0.923710
O O16 0.429711 0.500000 0.739913
O O17 0.500000 0.211800 0.500000
O O18 0.000000 0.637067 0.000000
#
# Coordination Sequence:
#
# PCOD9187433 Si02
#       8
#     8   4   8   8   8   8   8   8
#     4   9  19  36  57  81 110 150 194 228 271 335
#     4  12  21  38  58  88 112 144 183 238 286 340
#     4  11  23  39  55  81 115 150 190 233 281 335
#     4  10  21  36  57  82 112 153 192 227 273 336
#     4  11  21  37  61  86 108 147 187 234 288 335
#     4  11  23  37  56  83 117 150 182 232 285 335
#     4  10  21  37  60  82 109 145 191 236 276 336
#     4  10  19  35  59  84 117 144 183 234 285 329
#
# _framework density 17.419539
#
# number of rings (size 3 to 8) (size 9 to 14) (size 15 to 20)
#    0.000    1.600    3.333    2.600    0.000    3.200 
#    0.000    2.000    2.933    2.400    0.000    0.000 
#    0.000    0.000    0.000    0.000    0.000    0.000 
#
# Total GULP energy -167427.412611 kJ/mol
# GULP energy per Si atom -5580.913754 kJ/mol
# Density = 1.737989 g / cm^3
# Si number density = 17.419539 Si / 1000 Ang^3
#
#
#
# Elastic Constant Matrix: (Units=GPa)
#
#
# Indices 1 2 3 4 5 6 
#
# 1 53.6759 35.2498 31.7921 0.0016 0.9464 0.0040
# 2 35.2498 72.3401 21.2565 0.0027 -6.9678 -0.0018
# 3 31.7921 21.2565 86.7838 0.0078 -2.5408 0.0023
# 4 0.0016 0.0027 0.0078 32.1181 -0.0009 0.9117
# 5 0.9464 -6.9678 -2.5408 -0.0009 25.5642 0.0022
# 6 0.0040 -0.0018 0.0023 0.9117 0.0022 33.5266
#
#
#
# Elastic Compliance Matrix: (Units=1/GPa)
#
#
# Indices 1 2 3 4 5 6 
#
# 1 0.033343 -0.014206 -0.008911 0.000002 -0.005992 -0.000004
# 2 -0.014206 0.021307 0.000171 -0.000001 0.006350 0.000002
# 3 -0.008911 0.000171 0.014799 -0.000003 0.001847 0.000000
# 4 0.000002 -0.000001 -0.000003 0.031159 0.000001 -0.000847
# 5 -0.005992 0.006350 0.001847 0.000001 0.041254 -0.000002
# 6 -0.000004 0.000002 0.000000 -0.000847 -0.000002 0.029850
#
#
# Mechanical properties :
#
#
# Convention : Reuss Voigt Hill
#
# Bulk Modulus (GPa) = 42.44738 43.26628 42.85683
# Shear Modulus (GPa) = 22.17717 26.54186 24.35951
#
# Velocity S-wave (km/s) = 3.57195 3.90767 3.74358
# Velocity P-wave (km/s) = 6.43680 6.72693 6.58346
#
# Compressibility (1/GPa) = 0.02355858
#
# Stress axis : x y z
#
# Youngs Moduli (GPa) = 29.99105 46.93212 67.57058
#
# Poissons Ratio (x) = 0.66673 0.60210
# Poissons Ratio (y) = 0.42606 -0.01157
# Poissons Ratio (z) = 0.26724 -0.00804
#
# Static dielectric constant tensor:
#      x y z
#    x 1.579170 0.000000 -0.010710 
#    y 0.000000 1.585790 0.000000 
#    z -0.010710 0.000000 1.583640 
# 
# From -- ./inp_files/170367.got.cif
#   From: 2010.05.17/outbox.cif.g08.bks.cpg/sg12_86_cif.got.tgz:170367.got - 2010.06.03 13:09:07.
