data_PCOD9187586
_publ_section_title
;
Structure prediction by ZEFSAII (Michael W. Deem and Ramdas Pophale) SiO2 
 PCOD9187586
Probable space group: C 2/M
;
_chemical_formula_sum "Si O2"
_cell_formula_units_Z 56
_cell_length_a 8.195395
_cell_length_b 21.725032
_cell_length_c 15.113595
_cell_angle_alpha 90.000000
_cell_angle_beta 74.643222
_cell_angle_gamma 90.000000
_cell_volume 2594.825851
_symmetry_space_group_name_H-M "C 2/M"
_symmetry_group_IT_number 12
_symmetry_cell_setting 'monoclinic'
loop_
_space_group_symop_operation_xyz
x,y,z
-x,y,-z
-x,-y,-z
x,-y,z
1/2+x,1/2+y,z
1/2-x,1/2+y,-z
1/2-x,1/2-y,-z
1/2+x,1/2-y,z
loop_
_atom_site_type_symbol
_atom_site_label
_atom_site_fract_x
_atom_site_fract_y
_atom_site_fract_z
Si Si1 0.199611 0.179790 0.994510
Si Si2 0.566228 0.169615 0.203279
Si Si3 0.071234 0.069686 0.091306
Si Si4 0.748638 0.067711 0.251853
Si Si5 0.230392 0.225930 0.301353
Si Si6 0.091290 0.192925 0.572135
Si Si7 0.704223 0.070008 0.464997
O O1 0.329325 0.159269 0.900223
O O2 0.250000 0.250000 0.000000
O O3 0.202712 0.126077 0.067876
O O4 0.000000 0.183929 0.000000
O O5 0.585512 0.107570 0.254851
O O6 0.377311 0.192466 0.227105
O O7 0.662306 0.220389 0.248422
O O8 0.919391 0.089345 0.178777
O O9 0.127547 0.000000 0.107074
O O10 0.000000 0.064781 0.000000
O O11 0.762552 0.066414 0.354632
O O12 0.722829 0.000000 0.219084
O O13 0.306078 0.259993 0.378974
O O14 0.076555 0.179956 0.345333
O O15 0.197260 0.133401 0.523071
O O16 0.000000 0.223194 0.500000
O O17 0.500000 0.078819 0.500000
O O18 0.738501 0.000000 0.498024
#
# Coordination Sequence:
#
# PCOD9187586 Si02
#       7
#     8   8   8   8   8   8   8
#     4  11  21  33  54  87 121 153 191 246 301 353
#     4  11  20  37  56  83 118 156 197 242 296 355
#     4   9  17  31  53  83 111 145 193 240 279 338
#     4  10  19  35  60  83 111 151 195 243 291 343
#     4  10  24  38  56  83 117 157 200 241 296 360
#     4  11  23  39  60  84 116 155 198 253 304 358
#     4  10  23  41  63  90 118 152 198 249 300 361
#
# _framework density 21.581409000000001
#
# number of rings (size 3 to 8) (size 9 to 14) (size 15 to 20)
#    0.000    1.714    4.286    1.286    2.000    0.857 
#    0.000    0.714    0.000    0.429    0.000    1.000 
#    0.000    0.000    0.000    0.000    0.000    0.000 
#
# Total GULP energy -155882.500609 kJ/mol
# GULP energy per Si atom -5567.232165 kJ/mol
# Density = 2.153229 g / cm^3
# Si number density = 21.581409 Si / 1000 Ang^3
#
#
#
# Elastic Constant Matrix: (Units=GPa)
#
#
# Indices 1 2 3 4 5 6 
#
# 1 64.7302 33.1576 30.0224 0.0000 -33.0719 0.0000
# 2 33.1576 107.6332 10.3983 0.0000 -20.5015 0.0000
# 3 30.0224 10.3983 86.7513 0.0000 -28.7797 0.0000
# 4 0.0000 0.0000 0.0000 49.6644 0.0000 31.1954
# 5 -33.0719 -20.5015 -28.7797 0.0000 31.6640 0.0000
# 6 0.0000 0.0000 0.0000 31.1954 0.0000 116.4054
#
#
#
# Elastic Compliance Matrix: (Units=1/GPa)
#
#
# Indices 1 2 3 4 5 6 
#
# 1 0.034831 -0.004386 -0.000575 0.000000 0.033018 0.000000
# 2 -0.004386 0.011277 0.001530 0.000000 0.004112 0.000000
# 3 -0.000575 0.001530 0.016711 0.000000 0.015579 0.000000
# 4 0.000000 0.000000 0.000000 0.024210 0.000000 -0.006488
# 5 0.033018 0.004112 0.015579 0.000000 0.082890 0.000000
# 6 0.000000 0.000000 0.000000 -0.006488 0.000000 0.010329
#
#
# Mechanical properties :
#
#
# Convention : Reuss Voigt Hill
#
# Bulk Modulus (GPa) = 17.87013 45.14125 31.50569
# Shear Modulus (GPa) = 24.29975 51.91587 38.10781
#
# Velocity S-wave (km/s) = 3.35917 4.91000 4.20667
# Velocity P-wave (km/s) = 4.83153 7.28740 6.18263
#
# Compressibility (1/GPa) = 0.05595932
#
# Stress axis : x y z
#
# Youngs Moduli (GPa) = 28.70975 88.67432 59.84027
#
# Poissons Ratio (x) = 0.38888 0.03440
# Poissons Ratio (y) = 0.12591 -0.09156
# Poissons Ratio (z) = 0.01650 -0.13568
#
# Static dielectric constant tensor:
#      x y z
#    x 1.828520 0.000000 -0.003970 
#    y 0.000000 1.922200 0.000000 
#    z -0.003970 0.000000 1.755160 
# 
# From -- ./inp_files/257999.got.cif
#   From: 2010.05.17/outbox.cif.g08.bks.cpg/sg12_129_cif.got.tgz:257999.got - 2010.06.03 13:09:07.
