data_PCOD9187205
_publ_section_title
;
Structure prediction by ZEFSAII (Michael W. Deem and Ramdas Pophale) SiO2 
 PCOD9187205
Probable space group: C 2/M
;
_chemical_formula_sum "Si O2"
_cell_formula_units_Z 64
_cell_length_a 21.094276
_cell_length_b 8.557724
_cell_length_c 19.912816
_cell_angle_alpha 90.000000
_cell_angle_beta 90.136450
_cell_angle_gamma 90.000000
_cell_volume 3594.631278
_symmetry_space_group_name_H-M "C 2/M"
_symmetry_group_IT_number 12
_symmetry_cell_setting 'monoclinic'
loop_
_space_group_symop_operation_xyz
x,y,z
-x,y,-z
-x,-y,-z
x,-y,z
1/2+x,1/2+y,z
1/2-x,1/2+y,-z
1/2-x,1/2-y,-z
1/2+x,1/2-y,z
loop_
_atom_site_type_symbol
_atom_site_label
_atom_site_fract_x
_atom_site_fract_y
_atom_site_fract_z
Si Si1 0.365994 0.810547 0.675104
Si Si2 0.312825 0.813001 0.965080
Si Si3 0.060821 0.311344 0.545060
Si Si4 0.686986 0.811533 0.465222
Si Si5 0.363882 0.810291 0.824937
Si Si6 0.508663 0.314192 0.679462
Si Si7 0.988159 0.312783 0.174998
Si Si8 0.936454 0.186794 0.039791
O O1 0.323713 0.759860 0.611990
O O2 0.344751 0.759781 0.749727
O O3 0.437845 0.751580 0.665705
O O4 0.368548 0.000000 0.674749
O O5 0.323051 0.755927 0.888190
O O6 0.309731 0.000000 0.963687
O O7 0.250000 0.750000 0.000000
O O8 0.374922 0.761881 0.006280
O O9 0.060168 0.500000 0.550949
O O10 0.124888 0.264064 0.507393
O O11 0.052404 0.238459 0.618158
O O12 0.000000 0.266370 0.500000
O O13 0.750000 0.750000 0.500000
O O14 0.688805 0.000000 0.464998
O O15 0.437766 0.765574 0.835050
O O16 0.362356 0.000000 0.825092
O O17 0.506006 0.500000 0.684258
O O18 0.529661 0.243357 0.750748
O O19 0.985065 0.500000 0.171261
O O20 0.946625 0.238443 0.116376
O O21 0.931319 0.000000 0.035383
O O22 0.000000 0.236640 0.000000
#
# Coordination Sequence:
#
# PCOD9187205 Si02
#       8
#     8   8   8   8   8   8   8   8
#     4   9  17  35  57  79 105 146 189 227 277 341
#     4  11  22  38  57  83 115 154 197 238 287 345
#     4  10  19  36  58  79 107 148 192 227 270 336
#     4  10  21  36  57  81 111 146 187 234 282 336
#     4   8  16  31  56  81 104 138 189 234 275 334
#     4  11  21  32  52  86 118 144 180 238 292 330
#     4  10  19  35  58  83 112 150 191 232 281 345
#     4  11  22  36  57  87 119 147 185 239 289 338
#
# _framework density 17.80433
#
# number of rings (size 3 to 8) (size 9 to 14) (size 15 to 20)
#    0.000    2.000    2.500    3.000    0.000    1.750 
#    0.000    1.875    0.000    4.500    0.000    0.000 
#    0.000    0.000    0.000    0.000    0.000    0.000 
#
# Total GULP energy -178597.166411 kJ/mol
# GULP energy per Si atom -5581.161450 kJ/mol
# Density = 1.776381 g / cm^3
# Si number density = 17.804330 Si / 1000 Ang^3
#
#
#
# Elastic Constant Matrix: (Units=GPa)
#
#
# Indices 1 2 3 4 5 6 
#
# 1 112.6766 25.1684 80.6904 0.0000 -1.7432 0.0000
# 2 25.1684 29.4196 24.8081 0.0000 -3.0919 0.0000
# 3 80.6904 24.8081 172.0893 0.0000 -3.5207 0.0000
# 4 0.0000 0.0000 0.0000 21.7424 0.0000 1.7646
# 5 -1.7432 -3.0919 -3.5207 0.0000 27.7463 0.0000
# 6 0.0000 0.0000 0.0000 1.7646 0.0000 26.6407
#
#
#
# Elastic Compliance Matrix: (Units=1/GPa)
#
#
# Indices 1 2 3 4 5 6 
#
# 1 0.014772 -0.007805 -0.005815 0.000000 -0.000680 0.000000
# 2 -0.007805 0.043184 -0.002483 0.000000 0.004007 0.000000
# 3 -0.005815 -0.002483 0.008906 0.000000 0.000488 0.000000
# 4 0.000000 0.000000 0.000000 0.046242 0.000000 -0.003063
# 5 -0.000680 0.004007 0.000488 0.000000 0.036507 0.000000
# 6 0.000000 0.000000 0.000000 -0.003063 0.000000 0.037739
#
#
# Mechanical properties :
#
#
# Convention : Reuss Voigt Hill
#
# Bulk Modulus (GPa) = 28.85714 63.94658 46.40186
# Shear Modulus (GPa) = 21.63482 27.46046 24.54764
#
# Velocity S-wave (km/s) = 3.48967 3.93153 3.71717
# Velocity P-wave (km/s) = 5.69914 7.52353 6.67397
#
# Compressibility (1/GPa) = 0.03465347
#
# Stress axis : x y z
#
# Youngs Moduli (GPa) = 67.69393 23.15685 112.28858
#
# Poissons Ratio (x) = 0.18075 0.65299
# Poissons Ratio (y) = 0.52838 0.27886
# Poissons Ratio (z) = 0.39366 0.05751
#
# Static dielectric constant tensor:
#      x y z
#    x 1.571910 0.000000 -0.008730 
#    y 0.000000 1.603300 0.000000 
#    z -0.008730 0.000000 1.630430 
# 
# From -- ./inp_files/281246.got.cif
#   From: 2010.05.17/outbox.cif.g08.bks.cpg/sg12_141_cif.got.tgz:281246.got - 2010.06.03 13:09:07.
