data_PCOD9187274
_publ_section_title
;
Structure prediction by ZEFSAII (Michael W. Deem and Ramdas Pophale) SiO2 
 PCOD9187274
Probable space group: C 2/M
;
_chemical_formula_sum "Si O2"
_cell_formula_units_Z 64
_cell_length_a 19.610277
_cell_length_b 15.170123
_cell_length_c 14.456935
_cell_angle_alpha 90.000000
_cell_angle_beta 136.318856
_cell_angle_gamma 90.000000
_cell_volume 2970.322344
_symmetry_space_group_name_H-M "C 2/M"
_symmetry_group_IT_number 12
_symmetry_cell_setting 'monoclinic'
loop_
_space_group_symop_operation_xyz
x,y,z
-x,y,-z
-x,-y,-z
x,-y,z
1/2+x,1/2+y,z
1/2-x,1/2+y,-z
1/2-x,1/2-y,-z
1/2+x,1/2-y,z
loop_
_atom_site_type_symbol
_atom_site_label
_atom_site_fract_x
_atom_site_fract_y
_atom_site_fract_z
Si Si1 0.740808 0.604966 0.552412
Si Si2 0.349690 0.404764 0.209382
Si Si3 0.147699 0.709738 0.496711
Si Si4 0.262725 0.141383 0.086541
Si Si5 0.881698 0.593492 0.375413
Si Si6 0.951175 0.749344 0.232566
Si Si7 0.164022 0.600139 0.158291
Si Si8 0.428949 0.723478 0.008619
O O1 0.711760 0.500000 0.515347
O O2 0.787777 0.647036 0.506125
O O3 0.665168 0.685433 0.502446
O O4 0.817551 0.607787 0.714014
O O5 0.395313 0.500000 0.267529
O O6 0.432272 0.331564 0.280579
O O7 0.269943 0.390070 0.211192
O O8 0.289746 0.403214 0.052741
O O9 0.162317 0.677139 0.614826
O O10 0.035185 0.690341 0.357867
O O11 0.336665 0.092822 0.229013
O O12 0.341476 0.209090 0.118952
O O13 0.173612 0.175819 0.064537
O O14 0.852627 0.500000 0.391984
O O15 0.000000 0.598360 0.500000
O O16 0.983778 0.773271 0.161068
O O17 0.129036 0.500000 0.103080
O O18 0.098475 0.678457 0.053434
O O19 0.500000 0.683062 0.000000
#
# Coordination Sequence:
#
# PCOD9187274 Si02
#       8
#     8   8   8   8   8   8   8   8
#     4  10  23  42  62  89 123 163 208 254 308 374
#     4  10  20  36  60  87 119 155 196 250 312 367
#     4  11  23  40  63  86 123 166 205 256 311 364
#     4  11  20  40  60  86 122 160 201 258 307 361
#     4  11  23  38  62  92 121 159 209 260 307 362
#     4  11  21  37  59  88 118 161 204 253 308 370
#     4  10  19  35  58  85 118 154 194 248 309 364
#     4  11  21  36  59  87 119 158 204 246 308 378
#
# _framework density 21.546482999999998
#
# number of rings (size 3 to 8) (size 9 to 14) (size 15 to 20)
#    0.000    1.375    3.750    3.000    0.000    1.750 
#    0.000    1.250    0.000   13.500    0.000    0.000 
#    0.000    0.000    0.000    0.000    0.000    0.000 
#
# Total GULP energy -178320.406197 kJ/mol
# GULP energy per Si atom -5572.512694 kJ/mol
# Density = 2.149744 g / cm^3
# Si number density = 21.546483 Si / 1000 Ang^3
#
#
#
# Elastic Constant Matrix: (Units=GPa)
#
#
# Indices 1 2 3 4 5 6 
#
# 1 71.5679 26.9403 -7.5124 0.0000 -4.0025 0.0000
# 2 26.9403 87.1231 -10.2186 0.0000 2.7221 0.0000
# 3 -7.5124 -10.2186 36.5807 0.0000 -3.9982 0.0000
# 4 0.0000 0.0000 0.0000 8.5142 0.0000 -4.5070
# 5 -4.0025 2.7221 -3.9982 0.0000 24.1099 0.0000
# 6 0.0000 0.0000 0.0000 -4.5070 0.0000 18.3291
#
#
#
# Elastic Compliance Matrix: (Units=1/GPa)
#
#
# Indices 1 2 3 4 5 6 
#
# 1 0.016256 -0.004862 0.002378 0.000000 0.003642 0.000000
# 2 -0.004862 0.013336 0.002520 0.000000 -0.001895 0.000000
# 3 0.002378 0.002520 0.029068 0.000000 0.004931 0.000000
# 4 0.000000 0.000000 0.000000 0.135026 0.000000 0.033202
# 5 0.003642 -0.001895 0.004931 0.000000 0.043113 0.000000
# 6 0.000000 0.000000 0.000000 0.033202 0.000000 0.062722
#
#
# Mechanical properties :
#
#
# Convention : Reuss Voigt Hill
#
# Bulk Modulus (GPa) = 17.02598 23.74337 20.38468
# Shear Modulus (GPa) = 15.67274 22.59482 19.13378
#
# Velocity S-wave (km/s) = 2.69995 3.24181 2.98321
# Velocity P-wave (km/s) = 4.19985 5.00559 4.62032
#
# Compressibility (1/GPa) = 0.05873377
#
# Stress axis : x y z
#
# Youngs Moduli (GPa) = 61.51528 74.98464 34.40197
#
# Poissons Ratio (x) = 0.36454 -0.08182
# Poissons Ratio (y) = 0.29906 -0.08669
# Poissons Ratio (z) = -0.14631 -0.18895
#
# Static dielectric constant tensor:
#      x y z
#    x 1.787990 0.000000 0.003200 
#    y 0.000000 1.871640 0.000000 
#    z 0.003200 0.000000 1.775360 
# 
# From -- ./inp_files/225729.got.cif
#   From: 2010.05.17/outbox.cif.g08.bks.cpg/sg12_113_cif.got.tgz:225729.got - 2010.06.03 13:09:07.
