data_PCOD9187375
_publ_section_title
;
Structure prediction by ZEFSAII (Michael W. Deem and Ramdas Pophale) SiO2 
 PCOD9187375
Probable space group: C 2/M
;
_chemical_formula_sum "Si O2"
_cell_formula_units_Z 56
_cell_length_a 19.749470
_cell_length_b 7.505636
_cell_length_c 16.430927
_cell_angle_alpha 90.000000
_cell_angle_beta 90.162608
_cell_angle_gamma 90.000000
_cell_volume 2435.584834
_symmetry_space_group_name_H-M "C 2/M"
_symmetry_group_IT_number 12
_symmetry_cell_setting 'monoclinic'
loop_
_space_group_symop_operation_xyz
x,y,z
-x,y,-z
-x,-y,-z
x,-y,z
1/2+x,1/2+y,z
1/2-x,1/2+y,-z
1/2-x,1/2-y,-z
1/2+x,1/2-y,z
loop_
_atom_site_type_symbol
_atom_site_label
_atom_site_fract_x
_atom_site_fract_y
_atom_site_fract_z
Si Si1 0.900361 0.297299 0.311986
Si Si2 0.668949 0.707302 0.134505
Si Si3 0.323820 0.781205 0.152294
Si Si4 0.781620 0.788563 0.412808
Si Si5 0.523371 0.218484 0.410943
Si Si6 0.425041 0.204615 0.012723
Si Si7 0.346444 0.215241 0.682757
O O1 0.915258 0.500000 0.287120
O O2 0.856417 0.220231 0.237992
O O3 0.852895 0.297184 0.391651
O O4 0.970638 0.217696 0.342012
O O5 0.672416 0.500000 0.111942
O O6 0.746419 0.778526 0.136899
O O7 0.618482 0.793527 0.069948
O O8 0.640839 0.724794 0.225732
O O9 0.320036 0.000000 0.153171
O O10 0.375344 0.721342 0.082047
O O11 0.750000 0.750000 0.500000
O O12 0.726932 0.722596 0.346886
O O13 0.790111 0.000000 0.404941
O O14 0.500000 0.277661 0.500000
O O15 0.597614 0.272802 0.382258
O O16 0.521501 0.000000 0.411723
O O17 0.437109 0.000000 0.038623
O O18 0.500000 0.284704 0.000000
O O19 0.345803 0.000000 0.682515
#
# Coordination Sequence:
#
# PCOD9187375 Si02
#       7
#     8   8   8   8   8   8   8
#     4  10  19  35  59  82 114 151 189 235 286 343
#     4  11  22  38  59  84 119 154 186 229 290 349
#     4   9  19  36  58  86 114 150 190 230 287 342
#     4  11  22  36  57  85 117 151 193 240 286 337
#     4   9  18  33  56  84 112 147 191 240 288 333
#     4  10  22  39  63  90 115 146 192 239 279 335
#     4  10  21  37  59  86 113 148 198 241 279 335
#
# _framework density 22.992424
#
# number of rings (size 3 to 8) (size 9 to 14) (size 15 to 20)
#    0.000    2.000    1.429    2.143    2.000    3.143 
#    0.000    2.143    0.000    1.714    0.000    0.000 
#    0.000    0.000    0.000    0.000    0.000    0.000 
#
# Total GULP energy -156455.887343 kJ/mol
# GULP energy per Si atom -5587.710262 kJ/mol
# Density = 2.294009 g / cm^3
# Si number density = 22.992424 Si / 1000 Ang^3
#
#
#
# Elastic Constant Matrix: (Units=GPa)
#
#
# Indices 1 2 3 4 5 6 
#
# 1 111.8291 3.5628 19.0043 0.0000 -3.0078 0.0000
# 2 3.5628 68.0717 -10.6175 0.0000 1.7046 0.0000
# 3 19.0043 -10.6175 97.3065 0.0000 -6.2993 0.0000
# 4 0.0000 0.0000 0.0000 12.4712 0.0000 -2.6558
# 5 -3.0078 1.7046 -6.2993 0.0000 41.2877 0.0000
# 6 0.0000 0.0000 0.0000 -2.6558 0.0000 -4.1090
#
#
#
# Elastic Compliance Matrix: (Units=1/GPa)
#
#
# Indices 1 2 3 4 5 6 
#
# 1 0.009297 -0.000790 -0.001875 0.000000 0.000424 0.000000
# 2 -0.000790 0.015017 0.001766 0.000000 -0.000408 0.000000
# 3 -0.001875 0.001766 0.010930 0.000000 0.001458 0.000000
# 4 0.000000 0.000000 0.000000 0.070483 0.000000 -0.045556
# 5 0.000424 -0.000408 0.001458 0.000000 0.024490 0.000000
# 6 0.000000 0.000000 0.000000 -0.045556 0.000000 -0.213922
#
#
# Mechanical properties :
#
#
# Convention : Reuss Voigt Hill
#
# Bulk Modulus (GPa) = 29.89590 33.45630 31.67610
# Shear Modulus (GPa) = -70.66334 27.61382 -21.52476
#
# Velocity S-wave (km/s) = -5.54978 3.46930 -3.06300
# Velocity P-wave (km/s) = 5.29490 5.53450 1.13901
#
# Compressibility (1/GPa) = 0.03344940
#
# Stress axis : x y z
#
# Youngs Moduli (GPa) = 107.55778 66.58914 91.49097
#
# Poissons Ratio (x) = 0.05258 0.17150
# Poissons Ratio (y) = 0.08493 -0.16161
# Poissons Ratio (z) = 0.20162 -0.11762
#
# Static dielectric constant tensor:
#      x y z
#    x 1.830310 0.000000 0.003330 
#    y 0.000000 1.889890 0.000000 
#    z 0.003330 0.000000 1.833210 
# 
# From -- ./inp_files/230919.got.cif
#   From: 2010.05.17/outbox.cif.g08.bks.cpg/sg12_116_cif.got.tgz:230919.got - 2010.06.03 13:09:07.
