data_PCOD9187082
_publ_section_title
;
Structure prediction by ZEFSAII (Michael W. Deem and Ramdas Pophale) SiO2 
 PCOD9187082
Probable space group: C 2/M
;
_chemical_formula_sum "Si O2"
_cell_formula_units_Z 48
_cell_length_a 14.184501
_cell_length_b 20.335852
_cell_length_c 7.864180
_cell_angle_alpha 90.000000
_cell_angle_beta 75.726614
_cell_angle_gamma 90.000000
_cell_volume 2198.427147
_symmetry_space_group_name_H-M "C 2/M"
_symmetry_group_IT_number 12
_symmetry_cell_setting 'monoclinic'
loop_
_space_group_symop_operation_xyz
x,y,z
-x,y,-z
-x,-y,-z
x,-y,z
1/2+x,1/2+y,z
1/2-x,1/2+y,-z
1/2-x,1/2-y,-z
1/2+x,1/2-y,z
loop_
_atom_site_type_symbol
_atom_site_label
_atom_site_fract_x
_atom_site_fract_y
_atom_site_fract_z
Si Si1 0.726184 0.426657 0.739931
Si Si2 0.221129 0.715020 0.232238
Si Si3 0.910459 0.571334 0.406311
Si Si4 0.944253 0.792806 0.848874
Si Si5 0.611406 0.787382 0.642503
Si Si6 0.493965 0.426306 0.299035
O O1 0.729419 0.500000 0.819560
O O2 0.750352 0.359634 0.830162
O O3 0.808349 0.428737 0.555120
O O4 0.618207 0.417452 0.709838
O O5 0.156398 0.755311 0.128809
O O6 0.311908 0.755922 0.262577
O O7 0.156750 0.709306 0.434394
O O8 0.918582 0.500000 0.315483
O O9 0.914372 0.637795 0.296686
O O10 0.000000 0.575445 0.500000
O O11 0.018805 0.759355 0.684646
O O12 0.940728 0.869979 0.812072
O O13 0.000000 0.783315 0.000000
O O14 0.500000 0.421225 0.500000
O O15 0.523935 0.500000 0.235470
#
# Coordination Sequence:
#
# PCOD9187082 Si02
#       6
#     8   8   8   8   8   8
#     4   9  17  33  58  88 114 142 184 239 298 339
#     4  10  20  35  61  85 110 149 191 246 288 336
#     4   9  17  29  51  84 115 142 178 236 298 341
#     4  12  25  38  55  83 121 159 191 231 288 359
#     4  10  19  35  57  85 109 143 194 244 290 335
#     4  10  21  38  62  88 115 148 195 245 286 337
#
# _framework density 21.833791999999999
#
# number of rings (size 3 to 8) (size 9 to 14) (size 15 to 20)
#    0.000    2.000    1.667    3.500    4.667    1.000 
#    0.000    0.000    0.000    2.000    0.000    0.000 
#    0.000    0.000    0.000    0.000    0.000    0.000 
#
# Total GULP energy -134037.810444 kJ/mol
# GULP energy per Si atom -5584.908769 kJ/mol
# Density = 2.178410 g / cm^3
# Si number density = 21.833792 Si / 1000 Ang^3
#
#
#
# Elastic Constant Matrix: (Units=GPa)
#
#
# Indices 1 2 3 4 5 6 
#
# 1 102.6691 76.0230 24.1958 0.0000 15.9000 0.0000
# 2 76.0230 222.1930 33.7084 0.0000 21.7802 0.0000
# 3 24.1958 33.7084 51.1117 0.0000 10.5301 0.0000
# 4 0.0000 0.0000 0.0000 204.1316 0.0000 -646.6399
# 5 15.9000 21.7802 10.5301 0.0000 30.1573 0.0000
# 6 0.0000 0.0000 0.0000 -646.6399 0.0000 2234.8910
#
#
#
# Elastic Compliance Matrix: (Units=1/GPa)
#
#
# Indices 1 2 3 4 5 6 
#
# 1 0.013962 -0.003945 -0.003317 0.000000 -0.003354 0.000000
# 2 -0.003945 0.006320 -0.001927 0.000000 -0.001812 0.000000
# 3 -0.003317 -0.001927 0.023446 0.000000 -0.005046 0.000000
# 4 0.000000 0.000000 0.000000 0.058707 0.000000 0.016986
# 5 -0.003354 -0.001812 -0.005046 0.000000 0.037998 0.000000
# 6 0.000000 0.000000 0.000000 0.016986 0.000000 0.005362
#
#
# Mechanical properties :
#
#
# Convention : Reuss Voigt Hill
#
# Bulk Modulus (GPa) = 39.44813 71.53645 55.49229
# Shear Modulus (GPa) = 28.96454 509.97241 269.46848
#
# Velocity S-wave (km/s) = 3.64619 15.29959 11.12142
# Velocity P-wave (km/s) = 5.98607 18.57251 13.79803
#
# Compressibility (1/GPa) = 0.02534975
#
# Stress axis : x y z
#
# Youngs Moduli (GPa) = 71.62065 158.21626 42.65142
#
# Poissons Ratio (x) = 0.62421 0.14146
# Poissons Ratio (y) = 0.28256 0.08221
# Poissons Ratio (z) = 0.23755 0.30496
#
# Static dielectric constant tensor:
#      x y z
#    x 1.799430 0.000000 -0.062720 
#    y 0.000000 1.843600 0.000000 
#    z -0.062720 0.000000 1.824770 
# 
# From -- ./inp_files/62799.got.cif
#   From: 2010.05.17/outbox.cif.g08.bks.cpg/sg12_32_cif.got.tgz:62799.got - 2010.06.03 13:09:07.
