data_PCOD9187256
_publ_section_title
;
Structure prediction by ZEFSAII (Michael W. Deem and Ramdas Pophale) SiO2 
 PCOD9187256
Probable space group: C 2/M
;
_chemical_formula_sum "Si O2"
_cell_formula_units_Z 42
_cell_length_a 19.314404
_cell_length_b 12.375203
_cell_length_c 8.447816
_cell_angle_alpha 90.000000
_cell_angle_beta 110.704218
_cell_angle_gamma 90.000000
_cell_volume 1888.790608
_symmetry_space_group_name_H-M "C 2/M"
_symmetry_group_IT_number 12
_symmetry_cell_setting 'monoclinic'
loop_
_space_group_symop_operation_xyz
x,y,z
-x,y,-z
-x,-y,-z
x,-y,z
1/2+x,1/2+y,z
1/2-x,1/2+y,-z
1/2-x,1/2-y,-z
1/2+x,1/2-y,z
loop_
_atom_site_type_symbol
_atom_site_label
_atom_site_fract_x
_atom_site_fract_y
_atom_site_fract_z
Si Si1 0.158084 0.335081 0.076612
Si Si2 0.500000 0.500000 0.500000
Si Si3 0.144004 0.380744 0.413715
Si Si4 0.532807 0.119801 0.751092
Si Si5 0.300184 0.618038 0.012303
Si Si6 0.887773 0.803775 0.388693
O O1 0.177013 0.377217 0.264230
O O2 0.213398 0.374315 0.982239
O O3 0.076529 0.365557 0.951241
O O4 0.170928 0.207069 0.084347
O O5 0.438401 0.402352 0.491254
O O6 0.161866 0.500000 0.497851
O O7 0.157744 0.272450 0.526560
O O8 0.055241 0.374761 0.311765
O O9 0.562986 0.214438 0.664557
O O10 0.551420 0.000000 0.704179
O O11 0.321068 0.500000 0.975858
O O12 0.337312 0.644377 0.211181
#
# Coordination Sequence:
#
# PCOD9187256 Si02
#       6
#     8   2   8   8   8   8
#     4  10  22  37  58  84 114 144 187 231 283 329
#     4  12  20  40  54  82 112 156 186 228 264 340
#     4  11  21  36  58  89 115 140 183 237 284 326
#     4  10  19  35  58  85 111 143 183 229 281 332
#     4  10  21  40  58  79 111 154 190 225 275 337
#     4  11  22  36  60  81 112 152 188 226 276 328
#
# _framework density 22.236450000000001
#
# number of rings (size 3 to 8) (size 9 to 14) (size 15 to 20)
#    0.000    1.524    2.857    2.857    0.000    3.810 
#    1.714    0.952    0.000    4.571    0.000    0.000 
#    0.000    0.000    0.000    0.000    0.000    0.000 
#
# Total GULP energy -116976.632305 kJ/mol
# GULP energy per Si atom -5570.315824 kJ/mol
# Density = 2.218584 g / cm^3
# Si number density = 22.236450 Si / 1000 Ang^3
#
#
#
# Elastic Constant Matrix: (Units=GPa)
#
#
# Indices 1 2 3 4 5 6 
#
# 1 35.0422 7.6333 -8.7425 0.0000 4.8942 0.0000
# 2 7.6333 211.8988 12.1424 0.0000 -9.8153 0.0000
# 3 -8.7425 12.1424 26.8236 0.0000 -8.5711 0.0000
# 4 0.0000 0.0000 0.0000 10.4489 0.0000 -1.3942
# 5 4.8942 -9.8153 -8.5711 0.0000 28.4154 0.0000
# 6 0.0000 0.0000 0.0000 -1.3942 0.0000 6.8286
#
#
#
# Elastic Compliance Matrix: (Units=1/GPa)
#
#
# Indices 1 2 3 4 5 6 
#
# 1 0.031939 -0.001881 0.010287 0.000000 -0.003048 0.000000
# 2 -0.001881 0.004988 -0.002454 0.000000 0.001307 0.000000
# 3 0.010287 -0.002454 0.045271 0.000000 0.011036 0.000000
# 4 0.000000 0.000000 0.000000 0.098384 0.000000 0.020087
# 5 -0.003048 0.001307 0.011036 0.000000 0.039497 0.000000
# 6 0.000000 0.000000 0.000000 0.020087 0.000000 0.150544
#
#
# Mechanical properties :
#
#
# Convention : Reuss Voigt Hill
#
# Bulk Modulus (GPa) = 10.62666 32.87012 21.74839
# Shear Modulus (GPa) = 12.81771 26.65402 19.73587
#
# Velocity S-wave (km/s) = 2.40350 3.46593 2.98240
# Velocity P-wave (km/s) = 3.53436 5.55257 4.65418
#
# Compressibility (1/GPa) = 0.09410296
#
# Stress axis : x y z
#
# Youngs Moduli (GPa) = 31.30967 200.47578 22.08941
#
# Poissons Ratio (x) = 0.37714 -0.22724
# Poissons Ratio (y) = 0.05890 0.05420
# Poissons Ratio (z) = -0.32209 0.49187
#
# Static dielectric constant tensor:
#      x y z
#    x 1.864800 0.000000 0.026950 
#    y 0.000000 1.851090 0.000000 
#    z 0.026950 0.000000 1.871940 
# 
# From -- ./inp_files/84257.got.cif
#   From: 2010.05.17/outbox.cif.g08.bks.cpg/sg12_43_cif.got.tgz:84257.got - 2010.06.03 13:09:07.
