data_PCOD9187231
_publ_section_title
;
Structure prediction by ZEFSAII (Michael W. Deem and Ramdas Pophale) SiO2 
 PCOD9187231
Probable space group: C 2/M
;
_chemical_formula_sum "Si O2"
_cell_formula_units_Z 56
_cell_length_a 29.914182
_cell_length_b 7.392236
_cell_length_c 13.209374
_cell_angle_alpha 90.000000
_cell_angle_beta 53.739175
_cell_angle_gamma 90.000000
_cell_volume 2355.318033
_symmetry_space_group_name_H-M "C 2/M"
_symmetry_group_IT_number 12
_symmetry_cell_setting 'monoclinic'
loop_
_space_group_symop_operation_xyz
x,y,z
-x,y,-z
-x,-y,-z
x,-y,z
1/2+x,1/2+y,z
1/2-x,1/2+y,-z
1/2-x,1/2-y,-z
1/2+x,1/2-y,z
loop_
_atom_site_type_symbol
_atom_site_label
_atom_site_fract_x
_atom_site_fract_y
_atom_site_fract_z
Si Si1 0.415142 0.706315 0.665213
Si Si2 0.813976 0.285709 0.937642
Si Si3 0.173844 0.277940 0.848621
Si Si4 0.014966 0.780275 0.240178
Si Si5 0.102805 0.221162 0.537261
Si Si6 0.056131 0.293757 0.967858
Si Si7 0.274607 0.715660 0.577322
O O1 0.433885 0.500000 0.624301
O O2 0.355398 0.705551 0.799569
O O3 0.457231 0.783176 0.692130
O O4 0.409013 0.784282 0.561721
O O5 0.823518 0.500000 0.922809
O O6 0.750000 0.250000 0.000000
O O7 0.826467 0.219734 0.034263
O O8 0.172974 0.500000 0.849265
O O9 0.229703 0.217227 0.718750
O O10 0.117388 0.216405 0.869000
O O11 0.950377 0.728960 0.324799
O O12 0.047221 0.706368 0.100617
O O13 0.019318 0.000000 0.230919
O O14 0.162916 0.284882 0.492869
O O15 0.104087 0.000000 0.534463
O O16 0.057451 0.500000 0.927270
O O17 0.000000 0.206701 0.000000
O O18 0.277649 0.500000 0.588033
O O19 0.250000 0.750000 0.500000
#
# Coordination Sequence:
#
# PCOD9187231 Si02
#       7
#     8   8   8   8   8   8   8
#     4  10  19  35  58  84 112 146 187 228 278 339
#     4  11  21  35  57  83 114 149 186 229 276 332
#     4   9  19  37  57  78 109 147 183 222 277 334
#     4  10  20  35  58  87 115 145 185 235 282 332
#     4   9  19  36  57  81 114 152 186 222 281 344
#     4  10  21  37  58  82 110 150 191 228 278 342
#     4  10  21  38  58  79 106 144 187 230 275 329
#
# _framework density 23.775983
#
# number of rings (size 3 to 8) (size 9 to 14) (size 15 to 20)
#    0.000    2.143    1.429    1.714    2.000    4.286 
#    0.000    5.000    0.000    1.714    0.000    0.000 
#    0.000    0.000    0.000    0.000    0.000    0.000 
#
# Total GULP energy -156554.577635 kJ/mol
# GULP energy per Si atom -5591.234916 kJ/mol
# Density = 2.372187 g / cm^3
# Si number density = 23.775983 Si / 1000 Ang^3
#
#
#
# Elastic Constant Matrix: (Units=GPa)
#
#
# Indices 1 2 3 4 5 6 
#
# 1 146.4507 -3.6831 5.2732 0.0000 -31.1381 -0.0001
# 2 -3.6831 89.5962 -8.0574 0.0012 -2.7760 -0.0043
# 3 5.2732 -8.0574 63.9696 0.0000 -25.9047 0.0000
# 4 0.0000 0.0012 0.0000 -32.7194 0.0000 173.5815
# 5 -31.1381 -2.7760 -25.9047 0.0000 49.0909 0.0000
# 6 -0.0001 -0.0043 0.0000 173.5815 0.0000 -596.9250
#
#
#
# Elastic Compliance Matrix: (Units=1/GPa)
#
#
# Indices 1 2 3 4 5 6 
#
# 1 0.008092 0.000698 0.001927 0.000000 0.006189 0.000000
# 2 0.000698 0.011471 0.002326 0.000000 0.002319 0.000000
# 3 0.001927 0.002326 0.020749 0.000000 0.012303 0.000000
# 4 0.000000 0.000000 0.000000 0.056316 0.000000 0.016376
# 5 0.006189 0.002319 0.012303 0.000000 0.030919 0.000000
# 6 0.000000 0.000000 0.000000 0.016376 0.000000 0.003087
#
#
# Mechanical properties :
#
#
# Convention : Reuss Voigt Hill
#
# Bulk Modulus (GPa) = 19.91460 31.89800 25.90630
# Shear Modulus (GPa) = 36.37157 -95.67844 -29.65344
#
# Velocity S-wave (km/s) = 3.91546 -6.35051 -3.53540
# Velocity P-wave (km/s) = 5.36984 6.35034 2.39704
#
# Compressibility (1/GPa) = 0.05021441
#
# Stress axis : x y z
#
# Youngs Moduli (GPa) = 123.57336 87.17697 48.19603
#
# Poissons Ratio (x) = -0.06083 -0.09288
# Poissons Ratio (y) = -0.08622 -0.11212
# Poissons Ratio (z) = -0.23815 -0.20280
#
# Static dielectric constant tensor:
#      x y z
#    x 1.985830 0.000000 -0.064000 
#    y 0.000000 1.949090 0.000000 
#    z -0.064000 0.000000 1.889540 
# 
# From -- ./inp_files/187139.got.cif
#   From: 2010.05.17/outbox.cif.g08.bks.cpg/sg12_94_cif.got.tgz:187139.got - 2010.06.03 13:09:07.
