data_PCOD9187613
_publ_section_title
;
Structure prediction by ZEFSAII (Michael W. Deem and Ramdas Pophale) SiO2 
 PCOD9187613
Probable space group: C 2/M
;
_chemical_formula_sum "Si O2"
_cell_formula_units_Z 48
_cell_length_a 24.986225
_cell_length_b 16.341126
_cell_length_c 11.603109
_cell_angle_alpha 90.000000
_cell_angle_beta 149.853652
_cell_angle_gamma 90.000000
_cell_volume 2379.264435
_symmetry_space_group_name_H-M "C 2/M"
_symmetry_group_IT_number 12
_symmetry_cell_setting 'monoclinic'
loop_
_space_group_symop_operation_xyz
x,y,z
-x,y,-z
-x,-y,-z
x,-y,z
1/2+x,1/2+y,z
1/2-x,1/2+y,-z
1/2-x,1/2-y,-z
1/2+x,1/2-y,z
loop_
_atom_site_type_symbol
_atom_site_label
_atom_site_fract_x
_atom_site_fract_y
_atom_site_fract_z
Si Si1 0.663685 0.654162 0.095330
Si Si2 0.806316 0.405071 0.816702
Si Si3 0.302201 0.837102 0.559414
Si Si4 0.834292 0.784190 0.321033
Si Si5 0.494823 0.790211 0.213111
Si Si6 0.380720 0.588943 0.227096
O O1 0.723749 0.621572 0.319514
O O2 0.749623 0.713792 0.192318
O O3 0.568958 0.713742 0.958244
O O4 0.622905 0.596932 0.917466
O O5 0.801826 0.500000 0.834416
O O6 0.820592 0.389121 0.707586
O O7 0.699380 0.357047 0.654204
O O8 0.906391 0.360357 0.065042
O O9 0.250000 0.750000 0.500000
O O10 0.412397 0.819657 0.698716
O O11 0.947764 0.744786 0.565429
O O12 0.829424 0.831326 0.191349
O O13 0.500000 0.588954 0.500000
O O14 0.332248 0.500000 0.167716
#
# Coordination Sequence:
#
# PCOD9187613 Si02
#       6
#     8   8   8   8   8   8
#     4  10  21  36  59  85 112 157 200 239 287 355
#     4  11  23  37  60  93 122 154 198 250 299 343
#     4  11  20  35  58  86 117 160 194 236 290 356
#     4  10  20  39  62  84 113 160 199 240 292 363
#     4  10  19  35  60  85 114 154 201 239 282 359
#     4  11  22  36  58  85 116 150 193 249 299 344
#
# _framework density 20.174302000000001
#
# number of rings (size 3 to 8) (size 9 to 14) (size 15 to 20)
#    0.000    1.500    6.667    1.500    0.000    2.000 
#    0.000    2.500    0.000    1.000    0.000   16.333 
#    0.000    0.000    0.000    0.000    0.000    0.000 
#
# Total GULP energy -133836.515145 kJ/mol
# GULP energy per Si atom -5576.521464 kJ/mol
# Density = 2.012838 g / cm^3
# Si number density = 20.174302 Si / 1000 Ang^3
#
#
#
# Elastic Constant Matrix: (Units=GPa)
#
#
# Indices 1 2 3 4 5 6 
#
# 1 45.3652 4.2811 17.6660 0.0000 -24.5849 0.0000
# 2 4.2811 90.5572 27.4798 0.0000 -14.7427 0.0000
# 3 17.6660 27.4798 97.2442 0.0000 -19.7563 0.0000
# 4 0.0000 0.0000 0.0000 8.0461 0.0000 -2.3216
# 5 -24.5849 -14.7427 -19.7563 0.0000 26.8066 0.0000
# 6 0.0000 0.0000 0.0000 -2.3216 0.0000 16.7466
#
#
#
# Elastic Compliance Matrix: (Units=1/GPa)
#
#
# Indices 1 2 3 4 5 6 
#
# 1 0.045962 0.005315 -0.000816 0.000000 0.044474 0.000000
# 2 0.005315 0.013255 -0.002634 0.000000 0.010223 0.000000
# 3 -0.000816 -0.002634 0.012619 0.000000 0.007103 0.000000
# 4 0.000000 0.000000 0.000000 0.129463 0.000000 0.017947
# 5 0.044474 0.010223 0.007103 0.000000 0.088949 0.000000
# 6 0.000000 0.000000 0.000000 0.017947 0.000000 0.062201
#
#
# Mechanical properties :
#
#
# Convention : Reuss Voigt Hill
#
# Bulk Modulus (GPa) = 13.23364 36.89115 25.06240
# Shear Modulus (GPa) = 13.37225 22.56917 17.97071
#
# Velocity S-wave (km/s) = 2.57735 3.34834 2.98782
# Velocity P-wave (km/s) = 3.92822 5.76840 4.93484
#
# Compressibility (1/GPa) = 0.07556500
#
# Stress axis : x y z
#
# Youngs Moduli (GPa) = 21.75730 75.44216 79.24482
#
# Poissons Ratio (x) = -0.40099 0.06468
# Poissons Ratio (y) = -0.11564 0.20876
# Poissons Ratio (z) = 0.01776 0.19874
#
# Static dielectric constant tensor:
#      x y z
#    x 1.737350 0.000000 -0.008290 
#    y 0.000000 1.720430 0.000000 
#    z -0.008290 0.000000 1.747590 
# 
# From -- ./inp_files/177411.got.cif
#   From: 2010.05.17/outbox.cif.g08.bks.cpg/sg12_89_cif.got.tgz:177411.got - 2010.06.03 13:09:07.
