data_PCOD9187895
_publ_section_title
;
Structure prediction by ZEFSAII (Michael W. Deem and Ramdas Pophale) SiO2 
 PCOD9187895
Probable space group: C 2/M
;
_chemical_formula_sum "Si O2"
_cell_formula_units_Z 58
_cell_length_a 25.333514
_cell_length_b 7.839278
_cell_length_c 13.389098
_cell_angle_alpha 90.000000
_cell_angle_beta 82.818459
_cell_angle_gamma 90.000000
_cell_volume 2638.167457
_symmetry_space_group_name_H-M "C 2/M"
_symmetry_group_IT_number 12
_symmetry_cell_setting 'monoclinic'
loop_
_space_group_symop_operation_xyz
x,y,z
-x,y,-z
-x,-y,-z
x,-y,z
1/2+x,1/2+y,z
1/2-x,1/2+y,-z
1/2-x,1/2-y,-z
1/2+x,1/2-y,z
loop_
_atom_site_type_symbol
_atom_site_label
_atom_site_fract_x
_atom_site_fract_y
_atom_site_fract_z
Si Si1 0.191947 0.297675 0.056998
Si Si2 0.815307 0.704152 0.318302
Si Si3 0.577317 0.193899 0.998005
Si Si4 0.298186 0.300667 0.721784
Si Si5 0.356236 0.805367 0.514595
Si Si6 0.466507 0.694682 0.419852
Si Si7 0.070466 0.198171 0.781118
Si Si8 0.500000 0.500000 0.000000
O O1 0.192587 0.500000 0.067694
O O2 0.139288 0.258338 0.004438
O O3 0.184966 0.220370 0.168536
O O4 0.250000 0.250000 0.000000
O O5 0.821627 0.500000 0.297789
O O6 0.762059 0.764699 0.277672
O O7 0.812891 0.729635 0.438510
O O8 0.868233 0.795505 0.268262
O O9 0.538781 0.346733 0.039901
O O10 0.567740 0.000000 0.038737
O O11 0.568336 0.193814 0.880960
O O12 0.297177 0.500000 0.695713
O O13 0.334898 0.215315 0.630317
O O14 0.406909 0.692697 0.476749
O O15 0.373924 0.000000 0.494215
O O16 0.500000 0.780741 0.500000
O O17 0.486160 0.500000 0.403196
O O18 0.462520 0.761076 0.307419
O O19 0.056105 0.000000 0.811982
#
# Coordination Sequence:
#
# PCOD9187895 Si02
#       8
#     8   8   8   8   8   8   8   2
#     4  11  25  43  67  96 132 170 216 275 338 400
#     4   9  19  34  55  85 121 161 204 255 311 380
#     4  11  25  46  69  99 133 172 223 281 336 399
#     4  11  22  36  57  86 121 162 204 250 317 385
#     4  10  20  35  54  80 120 158 198 250 305 374
#     4   9  19  37  58  84 116 153 199 248 300 363
#     4  10  19  35  62  91 118 158 210 260 315 380
#     4  12  26  48  76  94 134 176 230 278 336 402
#
# _framework density 21.984956
#
# number of rings (size 3 to 8) (size 9 to 14) (size 15 to 20)
#    0.000    1.793    0.690    3.103    1.931    5.793 
#    2.483    0.000    0.000    0.000    0.000    0.000 
#    0.000    0.000    0.000    0.000    0.000    0.000 
#
# Total GULP energy -161605.515165 kJ/mol
# GULP energy per Si atom -5572.603971 kJ/mol
# Density = 2.193492 g / cm^3
# Si number density = 21.984956 Si / 1000 Ang^3
#
#
#
# Elastic Constant Matrix: (Units=GPa)
#
#
# Indices 1 2 3 4 5 6 
#
# 1 83.0876 29.8120 13.1276 0.0000 24.4791 0.0000
# 2 29.8120 81.0437 10.8420 0.0000 1.9256 0.0000
# 3 13.1276 10.8420 83.2108 0.0000 25.2179 0.0000
# 4 0.0000 0.0000 0.0000 -405.6684 0.0000 68.6966
# 5 24.4791 1.9256 25.2179 0.0000 37.0208 0.0000
# 6 0.0000 0.0000 0.0000 68.6966 0.0000 17.9665
#
#
#
# Elastic Compliance Matrix: (Units=1/GPa)
#
#
# Indices 1 2 3 4 5 6 
#
# 1 0.017824 -0.006508 0.001897 0.000000 -0.012739 0.000000
# 2 -0.006508 0.014944 -0.002506 0.000000 0.005233 0.000000
# 3 0.001897 -0.002506 0.015608 0.000000 -0.011755 0.000000
# 4 0.000000 0.000000 0.000000 -0.001496 0.000000 0.005721
# 5 -0.012739 0.005233 -0.011755 0.000000 0.043171 0.000000
# 6 0.000000 0.000000 0.000000 0.005721 0.000000 0.033784
#
#
# Mechanical properties :
#
#
# Convention : Reuss Voigt Hill
#
# Bulk Modulus (GPa) = 29.29046 39.43394 34.36220
# Shear Modulus (GPa) = 33.45625 -57.23219 -11.88797
#
# Velocity S-wave (km/s) = 3.90523 -5.10773 -2.32789
# Velocity P-wave (km/s) = 5.80399 4.09994 2.90489
#
# Compressibility (1/GPa) = 0.03414081
#
# Stress axis : x y z
#
# Youngs Moduli (GPa) = 56.10424 66.91727 64.07130
#
# Poissons Ratio (x) = 0.43547 -0.12152
# Poissons Ratio (y) = 0.36511 0.16059
# Poissons Ratio (z) = -0.10641 0.16772
#
# Static dielectric constant tensor:
#      x y z
#    x 1.929090 0.000000 -0.134530 
#    y 0.000000 1.914950 0.000000 
#    z -0.134530 0.000000 1.994010 
# 
# From -- ./inp_files/180902.got.cif
#   From: 2010.05.17/outbox.cif.g08.bks.cpg/sg12_91_cif.got.tgz:180902.got - 2010.06.03 13:09:07.
