data_PCOD9187095
_publ_section_title
;
Structure prediction by ZEFSAII (Michael W. Deem and Ramdas Pophale) SiO2 
 PCOD9187095
Probable space group: C 2/M
;
_chemical_formula_sum "Si O2"
_cell_formula_units_Z 50
_cell_length_a 14.819813
_cell_length_b 7.476876
_cell_length_c 19.100703
_cell_angle_alpha 90.000000
_cell_angle_beta 75.915949
_cell_angle_gamma 90.000000
_cell_volume 2052.849115
_symmetry_space_group_name_H-M "C 2/M"
_symmetry_group_IT_number 12
_symmetry_cell_setting 'monoclinic'
loop_
_space_group_symop_operation_xyz
x,y,z
-x,y,-z
-x,-y,-z
x,-y,z
1/2+x,1/2+y,z
1/2-x,1/2+y,-z
1/2-x,1/2-y,-z
1/2+x,1/2-y,z
loop_
_atom_site_type_symbol
_atom_site_label
_atom_site_fract_x
_atom_site_fract_y
_atom_site_fract_z
Si Si1 0.000000 0.500000 0.000000
Si Si2 0.012984 0.280021 0.577295
Si Si3 0.840217 0.284386 0.855463
Si Si4 0.658418 0.202536 0.657225
Si Si5 0.341014 0.795307 0.699038
Si Si6 0.647280 0.283598 0.944473
Si Si7 0.554814 0.706105 0.813225
O O1 0.079311 0.657477 0.000909
O O2 0.013432 0.500000 0.577378
O O3 0.926990 0.215609 0.640791
O O4 0.000000 0.223904 0.500000
O O5 0.106338 0.222188 0.599457
O O6 0.836070 0.500000 0.857679
O O7 0.819967 0.219365 0.779607
O O8 0.755781 0.228135 0.921534
O O9 0.945659 0.226555 0.847630
O O10 0.750103 0.294353 0.668585
O O11 0.585895 0.200131 0.735994
O O12 0.685902 0.000000 0.636172
O O13 0.368027 0.000000 0.707625
O O14 0.636763 0.500000 0.957487
O O15 0.609995 0.239348 0.872271
O O16 0.578307 0.500000 0.797011
#
# Coordination Sequence:
#
# PCOD9187095 Si02
#       7
#     2   8   8   8   8   8   8
#     4  12  26  44  76  90 132 174 210 240 316 382
#     4   9  19  36  55  79 119 168 207 250 314 376
#     4  10  20  37  63  92 123 156 206 261 309 357
#     4  11  21  34  57  88 118 156 210 259 306 371
#     4  10  19  35  57  86 118 158 202 256 311 361
#     4  10  24  44  66  95 130 168 207 257 313 377
#     4  11  22  37  63  94 125 155 203 261 312 356
#
# _framework density 24.356394000000002
#
# number of rings (size 3 to 8) (size 9 to 14) (size 15 to 20)
#    0.000    1.760    3.200    1.200    3.360    1.280 
#    0.000    0.800    0.000    3.360    0.000    0.000 
#    0.000    0.000    0.000    0.000    0.000    0.000 
#
# Total GULP energy -139570.685186 kJ/mol
# GULP energy per Si atom -5582.827407 kJ/mol
# Density = 2.430096 g / cm^3
# Si number density = 24.356394 Si / 1000 Ang^3
#
#
#
# Elastic Constant Matrix: (Units=GPa)
#
#
# Indices 1 2 3 4 5 6 
#
# 1 79.9877 -12.6892 -14.3573 0.0000 -5.6004 0.0000
# 2 -12.6892 66.6734 -1.7697 -0.0001 3.0092 -0.0002
# 3 -14.3573 -1.7697 69.7115 0.0000 17.8934 0.0000
# 4 0.0000 -0.0001 0.0000 -77.3483 0.0000 -177.1055
# 5 -5.6004 3.0092 17.8934 0.0000 30.6036 0.0000
# 6 0.0000 -0.0002 0.0000 -177.1055 0.0000 -352.7110
#
#
#
# Elastic Compliance Matrix: (Units=1/GPa)
#
#
# Indices 1 2 3 4 5 6 
#
# 1 0.013438 0.002599 0.002669 0.000000 0.000643 0.000000
# 2 0.002599 0.015616 0.001416 0.000000 -0.001888 0.000000
# 3 0.002669 0.001416 0.017461 0.000000 -0.009860 0.000000
# 4 0.000000 0.000000 0.000000 0.086348 0.000000 -0.043358
# 5 0.000643 -0.001888 -0.009860 0.000000 0.038744 0.000000
# 6 0.000000 0.000000 0.000000 -0.043358 0.000000 0.018936
#
#
# Mechanical properties :
#
#
# Convention : Reuss Voigt Hill
#
# Bulk Modulus (GPa) = 16.69893 17.63781 17.16837
# Shear Modulus (GPa) = 25.36314 -63.54520 -19.09103
#
# Velocity S-wave (km/s) = 3.23047 -5.11335 -2.80272
# Velocity P-wave (km/s) = 4.55912 5.25400 1.84648
#
# Compressibility (1/GPa) = 0.05988407
#
# Stress axis : x y z
#
# Youngs Moduli (GPa) = 74.41415 64.03695 57.26951
#
# Poissons Ratio (x) = -0.16645 -0.15283
# Poissons Ratio (y) = -0.19343 -0.08111
# Poissons Ratio (z) = -0.19858 -0.09070
#
# Static dielectric constant tensor:
#      x y z
#    x 1.927030 0.000000 0.025120 
#    y 0.000000 1.940230 0.000000 
#    z 0.025120 0.000000 2.019310 
# 
# From -- ./inp_files/308426.got.cif
#   From: 2010.05.17/outbox.cif.g08.bks.cpg/sg12_155_cif.got.tgz:308426.got - 2010.06.03 13:09:07.
