data_PCOD9187877
_publ_section_title
;
Structure prediction by ZEFSAII (Michael W. Deem and Ramdas Pophale) SiO2 
 PCOD9187877
Probable space group: C 2/M
;
_chemical_formula_sum "Si O2"
_cell_formula_units_Z 36
_cell_length_a 18.367320
_cell_length_b 9.916947
_cell_length_c 20.693718
_cell_angle_alpha 90.000000
_cell_angle_beta 152.209234
_cell_angle_gamma 90.000000
_cell_volume 1757.420282
_symmetry_space_group_name_H-M "C 2/M"
_symmetry_group_IT_number 12
_symmetry_cell_setting 'monoclinic'
loop_
_space_group_symop_operation_xyz
x,y,z
-x,y,-z
-x,-y,-z
x,-y,z
1/2+x,1/2+y,z
1/2-x,1/2+y,-z
1/2-x,1/2-y,-z
1/2+x,1/2-y,z
loop_
_atom_site_type_symbol
_atom_site_label
_atom_site_fract_x
_atom_site_fract_y
_atom_site_fract_z
Si Si1 0.671401 0.786481 0.714261
Si Si2 0.536125 0.000000 0.930332
Si Si3 0.176720 0.000000 0.406812
Si Si4 0.824516 0.707903 0.435042
Si Si5 0.200188 0.500000 0.365450
Si Si6 0.634948 0.500000 0.752446
Si Si7 0.000000 0.259137 0.000000
O O1 0.687203 0.815578 0.650577
O O2 0.497310 0.837496 0.593860
O O3 0.653906 0.629627 0.721564
O O4 0.838377 0.823209 0.876857
O O5 0.483545 0.864292 0.927075
O O6 0.459075 0.000000 0.800000
O O7 0.721534 0.000000 0.084370
O O8 0.198413 0.871523 0.378100
O O9 0.312010 0.000000 0.567207
O O10 0.020200 0.000000 0.326264
O O11 0.795491 0.866313 0.421510
#
# Coordination Sequence:
#
# PCOD9187877 Si02
#       7
#     8   4   4   8   4   4   4
#     4  10  19  35  62  89 118 153 208 247 300 349
#     4   9  18  31  58  94 119 145 202 264 301 336
#     4  12  26  41  57  87 139 163 190 247 324 358
#     4  11  23  38  62  92 122 161 204 252 300 363
#     4  12  20  38  63  89 116 160 206 253 286 363
#     4  10  20  37  62  94 121 154 205 260 300 354
#     4   9  16  32  56  95 122 143 194 273 302 333
#
# _framework density 20.484570000000001
#
# number of rings (size 3 to 8) (size 9 to 14) (size 15 to 20)
#    0.000    1.556    4.444    2.000    0.000    3.556 
#    0.000    3.333    0.000    1.333    0.000    0.000 
#    0.000    0.000    0.000    0.000    0.000    0.000 
#
# Total GULP energy -100337.339162 kJ/mol
# GULP energy per Si atom -5574.296620 kJ/mol
# Density = 2.043795 g / cm^3
# Si number density = 20.484570 Si / 1000 Ang^3
#
#
#
# Elastic Constant Matrix: (Units=GPa)
#
#
# Indices 1 2 3 4 5 6 
#
# 1 101.3246 18.2007 35.9856 0.0001 -1.0702 -0.0001
# 2 18.2007 59.8318 18.2580 0.0012 -0.5570 -0.0003
# 3 35.9856 18.2580 139.6807 0.0007 8.4615 -0.0003
# 4 0.0001 0.0012 0.0007 -2.1097 0.0000 -2.4961
# 5 -1.0702 -0.5570 8.4615 0.0000 25.7635 -0.0002
# 6 -0.0001 -0.0003 -0.0003 -2.4961 -0.0002 38.0489
#
#
#
# Elastic Compliance Matrix: (Units=1/GPa)
#
#
# Indices 1 2 3 4 5 6 
#
# 1 0.011292 -0.002616 -0.002645 -0.000002 0.001281 0.000000
# 2 -0.002616 0.018047 -0.001737 0.000008 0.000852 0.000001
# 3 -0.002645 -0.001737 0.008240 0.000002 -0.002854 0.000000
# 4 -0.000002 0.000008 0.000002 -0.439854 -0.000001 -0.028856
# 5 0.001281 0.000852 -0.002854 -0.000001 0.039824 0.000000
# 6 0.000000 0.000001 0.000000 -0.028856 0.000000 0.024389
#
#
# Mechanical properties :
#
#
# Convention : Reuss Voigt Hill
#
# Bulk Modulus (GPa) = 42.40030 49.52508 45.96269
# Shear Modulus (GPa) = -15.81251 27.56672 5.87710
#
# Velocity S-wave (km/s) = -2.78136 3.67240 1.69566
# Velocity P-wave (km/s) = 3.22939 6.49702 5.13031
#
# Compressibility (1/GPa) = 0.02358474
#
# Stress axis : x y z
#
# Youngs Moduli (GPa) = 88.55817 55.41035 121.35281
#
# Poissons Ratio (x) = 0.14495 0.32095
# Poissons Ratio (y) = 0.23167 0.21075
# Poissons Ratio (z) = 0.23422 0.09623
#
# Static dielectric constant tensor:
#      x y z
#    x 1.677140 0.000000 0.023450 
#    y 0.000000 1.751470 0.000000 
#    z 0.023450 0.000000 1.792740 
# 
# From -- ./inp_files/315492.got.cif
#   From: 2010.05.17/outbox.cif.g08.bks.cpg/sg12_158_cif.got.tgz:315492.got - 2010.06.03 13:09:07.
