data_PCOD9187662
_publ_section_title
;
Structure prediction by ZEFSAII (Michael W. Deem and Ramdas Pophale) SiO2 
 PCOD9187662
Probable space group: C 2/M
;
_chemical_formula_sum "Si O2"
_cell_formula_units_Z 64
_cell_length_a 14.795758
_cell_length_b 8.371084
_cell_length_c 28.432392
_cell_angle_alpha 90.000000
_cell_angle_beta 51.417861
_cell_angle_gamma 90.000000
_cell_volume 2752.838399
_symmetry_space_group_name_H-M "C 2/M"
_symmetry_group_IT_number 12
_symmetry_cell_setting 'monoclinic'
loop_
_space_group_symop_operation_xyz
x,y,z
-x,y,-z
-x,-y,-z
x,-y,z
1/2+x,1/2+y,z
1/2-x,1/2+y,-z
1/2-x,1/2-y,-z
1/2+x,1/2-y,z
loop_
_atom_site_type_symbol
_atom_site_label
_atom_site_fract_x
_atom_site_fract_y
_atom_site_fract_z
Si Si1 0.657572 0.818511 0.631514
Si Si2 0.371253 0.307707 0.889589
Si Si3 0.600458 0.809303 0.850829
Si Si4 0.121042 0.816142 0.547211
Si Si5 0.473910 0.687954 0.754247
Si Si6 0.627923 0.804653 0.945801
Si Si7 0.700967 0.690288 0.276719
Si Si8 0.616272 0.816465 0.402921
O O1 0.603854 0.705786 0.608917
O O2 0.586837 0.785590 0.702080
O O3 0.792673 0.784192 0.596035
O O4 0.640696 0.000000 0.621452
O O5 0.373865 0.500000 0.892449
O O6 0.466755 0.234831 0.892301
O O7 0.416306 0.266254 0.822318
O O8 0.239603 0.251906 0.938701
O O9 0.649968 0.756886 0.884688
O O10 0.675063 0.749337 0.782636
O O11 0.612434 0.000000 0.845374
O O12 0.250000 0.750000 0.500000
O O13 0.018703 0.728488 0.552717
O O14 0.116458 0.000000 0.535897
O O15 0.503941 0.500000 0.747135
O O16 0.381994 0.707054 0.741707
O O17 0.626009 0.000000 0.948296
O O18 0.500000 0.748379 0.000000
O O19 0.704682 0.500000 0.287755
O O20 0.655273 0.784307 0.336403
O O21 0.632105 0.000000 0.410617
#
# Coordination Sequence:
#
# PCOD9187662 Si02
#       8
#     8   8   8   8   8   8   8   8
#     4  12  25  42  65  96 128 164 206 250 304 365
#     4  10  20  35  56  84 114 151 194 241 296 357
#     4  10  20  35  56  84 114 151 194 241 296 357
#     4  12  26  47  70  95 127 165 209 258 305 356
#     4  10  19  35  60  87 120 158 196 243 302 364
#     4   9  18  35  57  78 106 150 200 243 292 359
#     4  10  19  35  60  87 120 158 196 243 302 364
#     4  12  25  42  65  96 128 164 206 250 304 365
#
# _framework density 23.248729999999998
#
# number of rings (size 3 to 8) (size 9 to 14) (size 15 to 20)
#    0.000    1.375    2.500    4.125    0.000    4.000 
#    0.000    3.125    0.000    0.750    0.000    0.000 
#    0.000    0.000    0.000    0.000    0.000    0.000 
#
# Total GULP energy -179034.576803 kJ/mol
# GULP energy per Si atom -5594.830525 kJ/mol
# Density = 2.319582 g / cm^3
# Si number density = 23.248730 Si / 1000 Ang^3
#
#
#
# Elastic Constant Matrix: (Units=GPa)
#
#
# Indices 1 2 3 4 5 6 
#
# 1 88.5879 -4.0086 5.6497 0.0000 -21.7161 -0.0002
# 2 -4.0086 37.4919 4.1230 -0.0001 -5.9600 -0.0003
# 3 5.6497 4.1230 64.7807 0.0000 -30.1660 0.0000
# 4 0.0000 -0.0001 0.0000 16.6517 0.0000 -7.1459
# 5 -21.7161 -5.9600 -30.1660 0.0000 38.3605 0.0000
# 6 -0.0002 -0.0003 0.0000 -7.1459 0.0000 26.5441
#
#
#
# Elastic Compliance Matrix: (Units=1/GPa)
#
#
# Indices 1 2 3 4 5 6 
#
# 1 0.013975 0.002882 0.003929 0.000000 0.011448 0.000000
# 2 0.002882 0.027948 0.001186 0.000000 0.006906 0.000000
# 3 0.003929 0.001186 0.025465 0.000000 0.022434 0.000000
# 4 0.000000 0.000000 0.000000 0.067898 0.000000 0.018279
# 5 0.011448 0.006906 0.022434 0.000000 0.051264 0.000000
# 6 0.000000 0.000000 0.000000 0.018279 0.000000 0.042594
#
#
# Mechanical properties :
#
#
# Convention : Reuss Voigt Hill
#
# Bulk Modulus (GPa) = 11.99307 22.48763 17.24035
# Shear Modulus (GPa) = 20.75172 28.65102 24.70137
#
# Velocity S-wave (km/s) = 2.99088 3.51432 3.26311
# Velocity P-wave (km/s) = 4.13484 5.11477 4.65069
#
# Compressibility (1/GPa) = 0.08338151
#
# Stress axis : x y z
#
# Youngs Moduli (GPa) = 71.55891 35.78072 39.26929
#
# Poissons Ratio (x) = -0.10312 -0.15429
# Poissons Ratio (y) = -0.20623 -0.04657
# Poissons Ratio (z) = -0.28115 -0.04243
#
# Static dielectric constant tensor:
#      x y z
#    x 1.902980 0.000000 0.001460 
#    y 0.000000 1.799200 0.000000 
#    z 0.001460 0.000000 1.945840 
# 
# From -- ./inp_files/375369.got.cif
#   From: 2010.05.17/outbox.cif.g08.bks.cpg/sg12_188_cif.got.tgz:375369.got - 2010.06.03 13:09:07.
