data_PCOD9187955
_publ_section_title
;
Structure prediction by ZEFSAII (Michael W. Deem and Ramdas Pophale) SiO2 
 PCOD9187955
Probable space group: C 2/M
;
_chemical_formula_sum "Si O2"
_cell_formula_units_Z 56
_cell_length_a 30.443661
_cell_length_b 13.586771
_cell_length_c 13.535404
_cell_angle_alpha 90.000000
_cell_angle_beta 25.348540
_cell_angle_gamma 90.000000
_cell_volume 2396.920104
_symmetry_space_group_name_H-M "C 2/M"
_symmetry_group_IT_number 12
_symmetry_cell_setting 'monoclinic'
loop_
_space_group_symop_operation_xyz
x,y,z
-x,y,-z
-x,-y,-z
x,-y,z
1/2+x,1/2+y,z
1/2-x,1/2+y,-z
1/2-x,1/2-y,-z
1/2+x,1/2-y,z
loop_
_atom_site_type_symbol
_atom_site_label
_atom_site_fract_x
_atom_site_fract_y
_atom_site_fract_z
Si Si1 0.928672 0.385761 0.466882
Si Si2 0.098416 0.198113 0.352170
Si Si3 0.946267 0.890133 0.922225
Si Si4 0.449335 0.882854 0.207284
Si Si5 0.236943 0.222148 0.638063
Si Si6 0.190670 0.109188 0.991841
Si Si7 0.177530 0.885783 0.396683
O O1 0.957336 0.500000 0.431842
O O2 0.943445 0.301561 0.519060
O O3 0.981329 0.354694 0.255748
O O4 0.803654 0.385094 0.714762
O O5 0.151517 0.144129 0.336911
O O6 0.000000 0.146620 0.500000
O O7 0.175132 0.193159 0.103694
O O8 0.877462 0.817145 0.122004
O O9 0.896391 0.884539 0.914337
O O10 0.926293 0.000000 0.000014
O O11 0.066764 0.875514 0.674846
O O12 0.329141 0.856528 0.458269
O O13 0.462656 0.000000 0.179111
O O14 0.500000 0.847359 0.000000
O O15 0.250000 0.250000 0.500000
O O16 0.252455 0.308691 0.686969
O O17 0.184668 0.000000 0.050771
O O18 0.210754 0.000000 0.334546
#
# Coordination Sequence:
#
# PCOD9187955 Si02
#       7
#     8   8   8   8   8   8   8
#     4  10  21  39  62  91 127 170 219 277 334 400
#     4  12  22  36  65  96 132 175 216 267 335 408
#     4  10  21  42  70  97 132 179 229 277 334 412
#     4  10  21  40  67  92 121 167 224 277 331 399
#     4  12  26  41  68  96 132 173 226 279 349 412
#     4  10  19  35  63  93 124 168 222 269 327 403
#     4  11  25  44  66 100 142 176 224 288 339 398
#
# _framework density 23.363313999999999
#
# number of rings (size 3 to 8) (size 9 to 14) (size 15 to 20)
#    0.000    1.286    4.286    1.286    2.000    2.000 
#    0.000    1.429    0.000    0.857    0.000    0.000 
#    0.000    0.000    0.000    0.000    0.000    0.000 
#
# Total GULP energy -156255.622964 kJ/mol
# GULP energy per Si atom -5580.557963 kJ/mol
# Density = 2.331014 g / cm^3
# Si number density = 23.363314 Si / 1000 Ang^3
#
#
#
# Elastic Constant Matrix: (Units=GPa)
#
#
# Indices 1 2 3 4 5 6 
#
# 1 55.2824 18.0633 16.4159 0.0000 25.0995 0.0000
# 2 18.0633 84.1504 39.4423 0.0000 22.4205 0.0000
# 3 16.4159 39.4423 85.5711 0.0000 31.6600 0.0000
# 4 0.0000 0.0000 0.0000 37.8745 0.0000 5.7786
# 5 25.0995 22.4205 31.6600 0.0000 43.0961 0.0000
# 6 0.0000 0.0000 0.0000 5.7786 0.0000 7.6088
#
#
#
# Elastic Compliance Matrix: (Units=1/GPa)
#
#
# Indices 1 2 3 4 5 6 
#
# 1 0.024949 -0.002241 0.001636 0.000000 -0.014566 0.000000
# 2 -0.002241 0.015822 -0.005906 0.000000 -0.002587 0.000000
# 3 0.001636 -0.005906 0.018278 0.000000 -0.011309 0.000000
# 4 0.000000 0.000000 0.000000 0.029863 0.000000 -0.022680
# 5 -0.014566 -0.002587 -0.011309 0.000000 0.041341 0.000000
# 6 0.000000 0.000000 0.000000 -0.022680 0.000000 0.148652
#
#
# Mechanical properties :
#
#
# Convention : Reuss Voigt Hill
#
# Bulk Modulus (GPa) = 21.72591 41.42743 31.57667
# Shear Modulus (GPa) = 16.27235 27.78805 22.03020
#
# Velocity S-wave (km/s) = 2.64198 3.45249 3.07406
# Velocity P-wave (km/s) = 4.31579 5.80201 5.11319
#
# Compressibility (1/GPa) = 0.04602799
#
# Stress axis : x y z
#
# Youngs Moduli (GPa) = 40.08195 63.20324 54.70968
#
# Poissons Ratio (x) = 0.14166 -0.08952
# Poissons Ratio (y) = 0.08984 0.32309
# Poissons Ratio (z) = -0.06558 0.37325
#
# Static dielectric constant tensor:
#      x y z
#    x 1.883900 0.000000 -0.065710 
#    y 0.000000 1.975970 0.000000 
#    z -0.065710 0.000000 1.944950 
# 
# From -- ./inp_files/189583.got.cif
#   From: 2010.05.17/outbox.cif.g08.bks.cpg/sg12_95_cif.got.tgz:189583.got - 2010.06.03 13:09:07.
