data_PCOD9187203
_publ_section_title
;
Structure prediction by ZEFSAII (Michael W. Deem and Ramdas Pophale) SiO2 
 PCOD9187203
Probable space group: C 2/M
;
_chemical_formula_sum "Si O2"
_cell_formula_units_Z 56
_cell_length_a 28.324347
_cell_length_b 10.818153
_cell_length_c 11.596028
_cell_angle_alpha 90.000000
_cell_angle_beta 114.134953
_cell_angle_gamma 90.000000
_cell_volume 3242.616311
_symmetry_space_group_name_H-M "C 2/M"
_symmetry_group_IT_number 12
_symmetry_cell_setting 'monoclinic'
loop_
_space_group_symop_operation_xyz
x,y,z
-x,y,-z
-x,-y,-z
x,-y,z
1/2+x,1/2+y,z
1/2-x,1/2+y,-z
1/2-x,1/2-y,-z
1/2+x,1/2-y,z
loop_
_atom_site_type_symbol
_atom_site_label
_atom_site_fract_x
_atom_site_fract_y
_atom_site_fract_z
Si Si1 0.249937 0.749999 0.702645
Si Si2 0.942447 0.354588 0.935809
Si Si3 0.614039 0.140055 0.364127
Si Si4 0.693656 0.366579 0.443632
Si Si5 0.839938 0.649616 0.956541
Si Si6 0.840019 0.649619 0.223073
Si Si7 0.442442 0.145366 0.448613
O O1 0.271528 0.647435 0.635769
O O2 0.228359 0.852556 0.592637
O O3 0.296360 0.797227 0.828906
O O4 0.203515 0.702759 0.736172
O O5 0.947425 0.500000 0.972416
O O6 0.920695 0.348454 0.784532
O O7 0.896648 0.305717 0.971671
O O8 0.000000 0.299856 0.000000
O O9 0.655955 0.248396 0.405884
O O10 0.579498 0.151351 0.443897
O O11 0.636780 0.000000 0.386624
O O12 0.667143 0.500000 0.417090
O O13 0.839014 0.500000 0.945832
O O14 0.830646 0.682069 0.080502
O O15 0.839110 0.500000 0.231957
O O16 0.896748 0.694293 0.321118
O O17 0.500000 0.200161 0.500000
O O18 0.447507 0.000000 0.421909
#
# Coordination Sequence:
#
# PCOD9187203 Si02
#       7
#     8   8   8   8   8   8   8
#     4  11  21  36  52  74 107 145 186 228 272 325
#     4   9  18  31  51  80 109 137 173 221 274 324
#     4  10  19  35  58  83 112 143 179 228 278 328
#     4  11  23  35  56  82 110 146 185 228 274 330
#     4  10  20  33  51  77 108 140 177 224 274 326
#     4  10  20  33  51  77 108 140 177 224 274 326
#     4   9  18  31  51  80 109 137 173 221 274 324
#
# _framework density 17.270005000000001
#
# number of rings (size 3 to 8) (size 9 to 14) (size 15 to 20)
#    0.000    2.000    2.857    1.286    2.000    2.286 
#    0.000    0.000    0.000    0.857    0.000    0.000 
#    0.000    0.000    0.000    0.000    0.000    0.000 
#
# Total GULP energy -156070.427129 kJ/mol
# GULP energy per Si atom -5573.943826 kJ/mol
# Density = 1.723070 g / cm^3
# Si number density = 17.270005 Si / 1000 Ang^3
#
#
#
# Elastic Constant Matrix: (Units=GPa)
#
#
# Indices 1 2 3 4 5 6 
#
# 1 114.7328 36.3630 86.6769 0.0000 19.9256 0.0000
# 2 36.3630 63.5155 31.1017 0.0000 4.4003 0.0000
# 3 86.6769 31.1017 105.6380 0.0000 -11.4525 0.0000
# 4 0.0000 0.0000 0.0000 4.0027 0.0000 8.8810
# 5 19.9256 4.4003 -11.4525 0.0000 25.2305 0.0000
# 6 0.0000 0.0000 0.0000 8.8810 0.0000 15.7152
#
#
#
# Elastic Compliance Matrix: (Units=1/GPa)
#
#
# Indices 1 2 3 4 5 6 
#
# 1 0.129251 -0.003350 -0.122075 0.000000 -0.156902 0.000000
# 2 -0.003350 0.019377 -0.003193 0.000000 -0.002183 0.000000
# 3 -0.122075 -0.003193 0.127349 0.000000 0.154770 0.000000
# 4 0.000000 0.000000 0.000000 -0.984095 0.000000 0.556136
# 5 -0.156902 -0.002183 0.154770 0.000000 0.234180 0.000000
# 6 0.000000 0.000000 0.000000 0.556136 0.000000 -0.250653
#
#
# Mechanical properties :
#
#
# Convention : Reuss Voigt Hill
#
# Bulk Modulus (GPa) = 53.36022 65.79662 59.57842
# Shear Modulus (GPa) = -10.84342 17.63933 3.39795
#
# Velocity S-wave (km/s) = -2.50846 3.19938 1.40421
# Velocity P-wave (km/s) = 4.75130 7.19927 6.09936
#
# Compressibility (1/GPa) = 0.01874055
#
# Stress axis : x y z
#
# Youngs Moduli (GPa) = 7.73690 51.60820 7.85243
#
# Poissons Ratio (x) = 0.17289 0.95859
# Poissons Ratio (y) = 0.02592 0.02507
# Poissons Ratio (z) = 0.94448 0.16477
#
# Static dielectric constant tensor:
#      x y z
#    x 1.604180 0.000000 0.011210 
#    y 0.000000 1.584450 0.000000 
#    z 0.011210 0.000000 1.589640 
# 
# From -- ./inp_files/182191.got.cif
#   From: 2010.05.17/outbox.cif.g08.bks.cpg/sg12_92_cif.got.tgz:182191.got - 2010.06.03 13:09:07.
