data_PCOD9187452
_publ_section_title
;
Structure prediction by ZEFSAII (Michael W. Deem and Ramdas Pophale) SiO2 
 PCOD9187452
Probable space group: C 2/M
;
_chemical_formula_sum "Si O2"
_cell_formula_units_Z 64
_cell_length_a 34.438434
_cell_length_b 8.930696
_cell_length_c 16.916705
_cell_angle_alpha 90.000000
_cell_angle_beta 42.918568
_cell_angle_gamma 90.000000
_cell_volume 3542.949405
_symmetry_space_group_name_H-M "C 2/M"
_symmetry_group_IT_number 12
_symmetry_cell_setting 'monoclinic'
loop_
_space_group_symop_operation_xyz
x,y,z
-x,y,-z
-x,-y,-z
x,-y,z
1/2+x,1/2+y,z
1/2-x,1/2+y,-z
1/2-x,1/2-y,-z
1/2+x,1/2-y,z
loop_
_atom_site_type_symbol
_atom_site_label
_atom_site_fract_x
_atom_site_fract_y
_atom_site_fract_z
Si Si1 0.381551 0.678507 0.022798
Si Si2 0.661549 0.674221 0.442195
Si Si3 0.598152 0.821276 0.673049
Si Si4 0.046417 0.176447 0.361638
Si Si5 0.648199 0.178389 0.302391
Si Si6 0.477623 0.179071 0.768940
Si Si7 0.759599 0.324527 0.183870
Si Si8 0.432151 0.820146 0.103698
O O1 0.381845 0.500000 0.018724
O O2 0.319223 0.742124 0.095813
O O3 0.400456 0.735426 0.081004
O O4 0.427231 0.746708 0.894165
O O5 0.645224 0.500000 0.459936
O O6 0.645506 0.738089 0.550726
O O7 0.631176 0.767447 0.416871
O O8 0.727775 0.685738 0.317056
O O9 0.537597 0.787171 0.721891
O O10 0.592490 0.780943 0.773429
O O11 0.607155 0.000000 0.654787
O O12 0.104573 0.251171 0.305815
O O13 0.024715 0.256253 0.315322
O O14 0.055068 0.000000 0.334357
O O15 0.500000 0.306544 0.500000
O O16 0.711835 0.246981 0.199779
O O17 0.648734 0.000000 0.297528
O O18 0.470590 0.000000 0.778943
O O19 0.765794 0.500000 0.155821
O O20 0.426244 0.000000 0.100982
O O21 0.500000 0.787864 0.000000
#
# Coordination Sequence:
#
# PCOD9187452 Si02
#       8
#     8   8   8   8   8   8   8   8
#     4  12  24  39  61  90 119 155 199 248 296 349
#     4   9  19  34  57  85 116 154 193 238 292 347
#     4  10  20  35  59  87 116 154 197 243 295 354
#     4  11  23  38  57  88 125 158 195 244 295 346
#     4  10  19  35  59  85 115 152 196 238 285 347
#     4  11  23  39  59  86 120 159 199 242 293 353
#     4   9  20  39  62  85 114 160 201 241 294 352
#     4  10  20  39  61  84 117 158 198 242 297 357
#
# _framework density 18.064046999999999
#
# number of rings (size 3 to 8) (size 9 to 14) (size 15 to 20)
#    0.750    1.000    1.250    4.125    0.000    4.750 
#    0.000    1.250    0.000    0.000    0.000    0.000 
#    0.000    0.000    0.000    0.000    0.000    0.000 
#
# Total GULP energy -178557.432062 kJ/mol
# GULP energy per Si atom -5579.919752 kJ/mol
# Density = 1.802293 g / cm^3
# Si number density = 18.064047 Si / 1000 Ang^3
#
#
#
# Elastic Constant Matrix: (Units=GPa)
#
#
# Indices 1 2 3 4 5 6 
#
# 1 53.9526 26.2261 2.0821 0.0000 1.4848 0.0002
# 2 26.2261 83.8228 22.4000 0.0015 -3.0388 0.0009
# 3 2.0821 22.4000 32.8036 0.0003 1.3725 0.0004
# 4 0.0000 0.0015 0.0003 21.7279 0.0001 11.7885
# 5 1.4848 -3.0388 1.3725 0.0001 28.9940 -0.0001
# 6 0.0002 0.0009 0.0004 11.7885 -0.0001 20.0469
#
#
#
# Elastic Compliance Matrix: (Units=1/GPa)
#
#
# Indices 1 2 3 4 5 6 
#
# 1 0.022441 -0.008251 0.004303 0.000001 -0.002218 0.000000
# 2 -0.008251 0.017744 -0.011711 -0.000001 0.002837 0.000000
# 3 0.004303 -0.011711 0.038345 0.000001 -0.003263 -0.000001
# 4 0.000001 -0.000001 0.000001 0.067587 0.000000 -0.039745
# 5 -0.002218 0.002837 -0.003263 0.000000 0.035055 0.000000
# 6 0.000000 0.000000 -0.000001 -0.039745 0.000000 0.073255
#
#
# Mechanical properties :
#
#
# Convention : Reuss Voigt Hill
#
# Bulk Modulus (GPa) = 21.18203 30.22172 25.70188
# Shear Modulus (GPa) = 16.58465 22.14516 19.36490
#
# Velocity S-wave (km/s) = 3.03331 3.50512 3.27771
# Velocity P-wave (km/s) = 4.90097 5.75741 5.34637
#
# Compressibility (1/GPa) = 0.04720983
#
# Stress axis : x y z
#
# Youngs Moduli (GPa) = 44.56183 56.35681 26.07902
#
# Poissons Ratio (x) = 0.46502 -0.11222
# Poissons Ratio (y) = 0.36770 0.30542
# Poissons Ratio (z) = -0.19175 0.66002
#
# Static dielectric constant tensor:
#      x y z
#    x 1.598750 0.000000 0.008150 
#    y 0.000000 1.599040 0.000000 
#    z 0.008150 0.000000 1.622950 
# 
# From -- ./inp_files/295609.got.cif
#   From: 2010.05.17/outbox.cif.g08.bks.cpg/sg12_148_cif.got.tgz:295609.got - 2010.06.03 13:09:07.
