data_PCOD9187984
_publ_section_title
;
Structure prediction by ZEFSAII (Michael W. Deem and Ramdas Pophale) SiO2 
 PCOD9187984
Probable space group: C 2/M
;
_chemical_formula_sum "Si O2"
_cell_formula_units_Z 56
_cell_length_a 9.949540
_cell_length_b 15.727732
_cell_length_c 26.236717
_cell_angle_alpha 90.000000
_cell_angle_beta 47.516992
_cell_angle_gamma 90.000000
_cell_volume 3027.801943
_symmetry_space_group_name_H-M "C 2/M"
_symmetry_group_IT_number 12
_symmetry_cell_setting 'monoclinic'
loop_
_space_group_symop_operation_xyz
x,y,z
-x,y,-z
-x,-y,-z
x,-y,z
1/2+x,1/2+y,z
1/2-x,1/2+y,-z
1/2-x,1/2-y,-z
1/2+x,1/2-y,z
loop_
_atom_site_type_symbol
_atom_site_label
_atom_site_fract_x
_atom_site_fract_y
_atom_site_fract_z
Si Si1 0.577777 0.904895 0.856031
Si Si2 0.157142 0.259706 0.757691
Si Si3 0.806959 0.831467 0.519981
Si Si4 0.718604 0.905488 0.440609
Si Si5 0.333006 0.833193 0.004854
Si Si6 0.914565 0.256324 0.340820
Si Si7 0.078073 0.902990 0.156894
O O1 0.571547 0.831581 0.815734
O O2 0.768104 0.896978 0.838271
O O3 0.566864 0.000000 0.837404
O O4 0.420966 0.890593 0.938174
O O5 0.123133 0.278128 0.707490
O O6 0.372846 0.258868 0.708651
O O7 0.070951 0.168791 0.794307
O O8 0.750000 0.750000 0.500000
O O9 0.797308 0.901381 0.478276
O O10 0.656602 0.829490 0.602807
O O11 0.000000 0.825328 0.500000
O O12 0.500000 0.892418 0.500000
O O13 0.807414 0.830015 0.384818
O O14 0.752101 0.000000 0.410780
O O15 0.183491 0.880575 0.077522
O O16 0.500000 0.810017 0.000000
O O17 0.250000 0.750000 0.000000
O O18 0.010365 0.000000 0.173107
#
# Coordination Sequence:
#
# PCOD9187984 Si02
#       7
#     8   8   8   8   8   8   8
#     4  10  21  39  61  87 120 160 206 250 301 360
#     4  12  22  37  59  87 124 168 199 243 298 367
#     4  10  19  37  60  84 112 146 193 246 292 351
#     4  10  21  39  63  89 116 153 202 256 303 352
#     4  10  19  35  65  89 113 151 205 260 302 348
#     4  11  22  36  59  85 120 157 197 237 299 362
#     4  10  21  39  62  88 118 159 209 253 298 356
#
# _framework density 18.495266000000001
#
# number of rings (size 3 to 8) (size 9 to 14) (size 15 to 20)
#    0.000    1.571    2.857    4.714    0.000    3.143 
#    0.000    2.143    0.000    0.857    0.000    0.000 
#    0.000    0.000    0.000    0.000    0.000    0.000 
#
# Total GULP energy -156220.683161 kJ/mol
# GULP energy per Si atom -5579.310113 kJ/mol
# Density = 1.845317 g / cm^3
# Si number density = 18.495266 Si / 1000 Ang^3
#
#
#
# Elastic Constant Matrix: (Units=GPa)
#
#
# Indices 1 2 3 4 5 6 
#
# 1 80.2129 6.1452 20.1006 0.0000 13.8196 0.0000
# 2 6.1452 105.7221 20.9289 -0.0002 8.9154 0.0001
# 3 20.1006 20.9289 88.6628 -0.0005 16.6794 0.0002
# 4 0.0000 -0.0002 -0.0005 13.6239 0.0001 -2.2629
# 5 13.8196 8.9154 16.6794 0.0001 36.1007 -0.0001
# 6 0.0000 0.0001 0.0002 -2.2629 -0.0001 16.1421
#
#
#
# Elastic Compliance Matrix: (Units=1/GPa)
#
#
# Indices 1 2 3 4 5 6 
#
# 1 0.013774 0.000016 -0.002337 0.000000 -0.004197 0.000000
# 2 0.000016 0.009997 -0.002078 0.000000 -0.001515 0.000000
# 3 -0.002337 -0.002078 0.013180 0.000001 -0.004681 0.000000
# 4 0.000000 0.000000 0.000001 0.075150 -0.000001 0.010535
# 5 -0.004197 -0.001515 -0.004681 -0.000001 0.031844 0.000000
# 6 0.000000 0.000000 0.000000 0.010535 0.000000 0.063427
#
#
# Mechanical properties :
#
#
# Convention : Reuss Voigt Hill
#
# Bulk Modulus (GPa) = 35.52126 40.99413 38.25770
# Shear Modulus (GPa) = 22.16753 28.33488 25.25120
#
# Velocity S-wave (km/s) = 3.46577 3.91833 3.69898
# Velocity P-wave (km/s) = 5.93824 6.53329 6.24286
#
# Compressibility (1/GPa) = 0.02815215
#
# Stress axis : x y z
#
# Youngs Moduli (GPa) = 72.59884 100.02981 75.87358
#
# Poissons Ratio (x) = -0.00159 0.17731
# Poissons Ratio (y) = -0.00116 0.15770
# Poissons Ratio (z) = 0.16966 0.20791
#
# Static dielectric constant tensor:
#      x y z
#    x 1.621650 0.000000 0.005680 
#    y 0.000000 1.649490 0.000000 
#    z 0.005680 0.000000 1.636240 
# 
# From -- ./inp_files/333302.got.cif
#   From: 2010.05.17/outbox.cif.g08.bks.cpg/sg12_167_cif.got.tgz:333302.got - 2010.06.03 13:09:07.
