data_PCOD9187062
_publ_section_title
;
Structure prediction by ZEFSAII (Michael W. Deem and Ramdas Pophale) SiO2 
 PCOD9187062
Probable space group: C 2/M
;
_chemical_formula_sum "Si O2"
_cell_formula_units_Z 56
_cell_length_a 15.721737
_cell_length_b 8.357511
_cell_length_c 24.658115
_cell_angle_alpha 90.000000
_cell_angle_beta 63.161131
_cell_angle_gamma 90.000000
_cell_volume 2890.935420
_symmetry_space_group_name_H-M "C 2/M"
_symmetry_group_IT_number 12
_symmetry_cell_setting 'monoclinic'
loop_
_space_group_symop_operation_xyz
x,y,z
-x,y,-z
-x,-y,-z
x,-y,z
1/2+x,1/2+y,z
1/2-x,1/2+y,-z
1/2-x,1/2-y,-z
1/2+x,1/2-y,z
loop_
_atom_site_type_symbol
_atom_site_label
_atom_site_fract_x
_atom_site_fract_y
_atom_site_fract_z
Si Si1 0.482703 0.304453 0.347753
Si Si2 0.183147 0.306386 0.862966
Si Si3 0.509519 0.309346 0.122140
Si Si4 0.657638 0.190856 0.994069
Si Si5 0.731817 0.308383 0.566478
Si Si6 0.077953 0.193337 0.432808
Si Si7 0.899851 0.804545 0.790659
O O1 0.482330 0.500000 0.347704
O O2 0.372853 0.252388 0.384362
O O3 0.541315 0.254540 0.384335
O O4 0.534940 0.251252 0.278016
O O5 0.179422 0.500000 0.863146
O O6 0.100093 0.240481 0.849192
O O7 0.289776 0.256334 0.816623
O O8 0.162354 0.251674 0.930721
O O9 0.517908 0.500000 0.118373
O O10 0.565036 0.242667 0.054005
O O11 0.559720 0.251238 0.162848
O O12 0.660657 0.000000 0.991385
O O13 0.750000 0.250000 0.000000
O O14 0.730638 0.500000 0.566148
O O15 0.750000 0.250000 0.500000
O O16 0.818184 0.251746 0.579478
O O17 0.000000 0.245410 0.500000
O O18 0.079348 0.000000 0.432985
O O19 0.901129 0.000000 0.790764
#
# Coordination Sequence:
#
# PCOD9187062 Si02
#       7
#     8   8   8   8   8   8   8
#     4   9  19  36  58  80 111 153 188 225 279 341
#     4  10  21  38  58  82 112 148 188 232 281 333
#     4  11  22  37  58  86 115 149 190 233 280 334
#     4  11  21  36  59  86 114 147 188 237 289 336
#     4  11  21  35  57  86 114 146 185 230 284 335
#     4  10  19  35  57  84 112 144 185 228 278 335
#     4   9  19  38  58  78 111 154 192 225 276 340
#
# _framework density 19.370892999999999
#
# number of rings (size 3 to 8) (size 9 to 14) (size 15 to 20)
#    0.000    1.857    2.857    1.714    0.000    4.286 
#    0.000    0.000    0.000    6.000    0.000    0.000 
#    0.000    0.000    0.000    0.000    0.000    0.000 
#
# Total GULP energy -156405.120956 kJ/mol
# GULP energy per Si atom -5585.897177 kJ/mol
# Density = 1.932680 g / cm^3
# Si number density = 19.370893 Si / 1000 Ang^3
#
#
#
# Elastic Constant Matrix: (Units=GPa)
#
#
# Indices 1 2 3 4 5 6 
#
# 1 132.5610 10.0203 40.1309 0.0000 -32.2404 0.0000
# 2 10.0203 15.4060 9.8950 0.0000 -3.1430 0.0000
# 3 40.1309 9.8950 119.7790 0.0000 -29.4461 0.0000
# 4 0.0000 0.0000 0.0000 14.5870 0.0000 -4.2982
# 5 -32.2404 -3.1430 -29.4461 0.0000 24.0911 0.0000
# 6 0.0000 0.0000 0.0000 -4.2982 0.0000 34.4755
#
#
#
# Elastic Compliance Matrix: (Units=1/GPa)
#
#
# Indices 1 2 3 4 5 6 
#
# 1 0.011477 -0.004542 0.000229 0.000000 0.015047 0.000000
# 2 -0.004542 0.070485 -0.005053 0.000000 -0.003059 0.000000
# 3 0.000229 -0.005053 0.012298 0.000000 0.014679 0.000000
# 4 0.000000 0.000000 0.000000 0.071169 0.000000 0.008873
# 5 0.015047 -0.003059 0.014679 0.000000 0.079189 0.000000
# 6 0.000000 0.000000 0.000000 0.008873 0.000000 0.030112
#
#
# Mechanical properties :
#
#
# Convention : Reuss Voigt Hill
#
# Bulk Modulus (GPa) = 13.24014 43.09316 28.16665
# Shear Modulus (GPa) = 15.69173 28.47737 22.08455
#
# Velocity S-wave (km/s) = 2.84926 3.83836 3.38018
# Velocity P-wave (km/s) = 4.20408 6.47601 5.45953
#
# Compressibility (1/GPa) = 0.07552789
#
# Stress axis : x y z
#
# Youngs Moduli (GPa) = 87.12797 14.18736 81.31397
#
# Poissons Ratio (x) = 0.06444 -0.01862
# Poissons Ratio (y) = 0.39577 0.41088
# Poissons Ratio (z) = -0.01995 0.07169
#
# Static dielectric constant tensor:
#      x y z
#    x 1.658100 0.000000 -0.000960 
#    y 0.000000 1.679290 0.000000 
#    z -0.000960 0.000000 1.663310 
# 
# From -- ./inp_files/338453.got.cif
#   From: 2010.05.17/outbox.cif.g08.bks.cpg/sg12_170_cif.got.tgz:338453.got - 2010.06.03 13:09:07.
