data_PCOD9187136
_publ_section_title
;
Structure prediction by ZEFSAII (Michael W. Deem and Ramdas Pophale) SiO2 
 PCOD9187136
Probable space group: C 2/M
;
_chemical_formula_sum "Si O2"
_cell_formula_units_Z 64
_cell_length_a 15.527283
_cell_length_b 7.736164
_cell_length_c 27.900323
_cell_angle_alpha 90.000000
_cell_angle_beta 118.691911
_cell_angle_gamma 90.000000
_cell_volume 2939.922610
_symmetry_space_group_name_H-M "C 2/M"
_symmetry_group_IT_number 12
_symmetry_cell_setting 'monoclinic'
loop_
_space_group_symop_operation_xyz
x,y,z
-x,y,-z
-x,-y,-z
x,-y,z
1/2+x,1/2+y,z
1/2-x,1/2+y,-z
1/2-x,1/2-y,-z
1/2+x,1/2-y,z
loop_
_atom_site_type_symbol
_atom_site_label
_atom_site_fract_x
_atom_site_fract_y
_atom_site_fract_z
Si Si1 0.728877 0.293718 0.701150
Si Si2 0.054009 0.290067 0.242914
Si Si3 0.927272 0.788537 0.416802
Si Si4 0.854845 0.792612 0.502952
Si Si5 0.150834 0.709922 0.783504
Si Si6 0.468920 0.210870 0.873957
Si Si7 0.199704 0.194669 0.103902
Si Si8 0.641791 0.799709 0.986772
O O1 0.731945 0.500000 0.694487
O O2 0.837006 0.224784 0.717012
O O3 0.640204 0.226595 0.644867
O O4 0.707835 0.263735 0.751342
O O5 0.057372 0.500000 0.247011
O O6 0.026576 0.248998 0.180673
O O7 0.961822 0.231591 0.249508
O O8 0.873472 0.737565 0.452422
O O9 0.041827 0.732882 0.445091
O O10 0.929495 0.000000 0.417306
O O11 0.750000 0.750000 0.500000
O O12 0.857410 0.000000 0.503397
O O13 0.153571 0.500000 0.786910
O O14 0.202150 0.773433 0.846640
O O15 0.373814 0.296336 0.871494
O O16 0.458646 0.000000 0.874989
O O17 0.559426 0.278084 0.930351
O O18 0.141140 0.271324 0.043472
O O19 0.223655 0.000000 0.094908
O O20 0.630171 0.000000 0.975579
O O21 0.750000 0.750000 0.000000
#
# Coordination Sequence:
#
# PCOD9187136 Si02
#       8
#     8   8   8   8   8   8   8   8
#     4  10  19  35  58  80 104 143 192 229 262 323
#     4   9  18  34  56  76 102 140 180 219 270 330
#     4   8  17  33  53  78 111 149 184 222 272 323
#     4   9  17  33  55  80 113 149 184 224 269 320
#     4  10  21  37  55  79 111 145 178 226 283 327
#     4  10  20  37  57  77 102 137 180 223 273 332
#     4  11  22  36  55  78 108 140 177 224 280 335
#     4  11  23  37  55  78 106 138 177 225 277 338
#
# _framework density 21.769279000000001
#
# number of rings (size 3 to 8) (size 9 to 14) (size 15 to 20)
#    0.000    2.250    1.250    2.625    0.000    6.000 
#    0.000    5.000    0.000    0.000    0.000    0.000 
#    0.000    0.000    0.000    0.000    0.000    0.000 
#
# Total GULP energy -178448.416254 kJ/mol
# GULP energy per Si atom -5576.513008 kJ/mol
# Density = 2.171973 g / cm^3
# Si number density = 21.769279 Si / 1000 Ang^3
#
#
#
# Elastic Constant Matrix: (Units=GPa)
#
#
# Indices 1 2 3 4 5 6 
#
# 1 104.4103 -4.6774 31.6887 0.0000 34.5979 0.0000
# 2 -4.6774 28.6141 6.8778 0.0000 4.1094 0.0000
# 3 31.6887 6.8778 119.0586 0.0000 37.3611 0.0000
# 4 0.0000 0.0000 0.0000 6.4890 0.0000 -0.0290
# 5 34.5979 4.1094 37.3611 0.0000 31.3279 0.0000
# 6 0.0000 0.0000 0.0000 -0.0290 0.0000 20.9258
#
#
#
# Elastic Compliance Matrix: (Units=1/GPa)
#
#
# Indices 1 2 3 4 5 6 
#
# 1 0.016102 0.005149 0.001932 0.000000 -0.020762 0.000000
# 2 0.005149 0.037332 -0.000329 0.000000 -0.010191 0.000000
# 3 0.001932 -0.000329 0.013679 0.000000 -0.018404 0.000000
# 4 0.000000 0.000000 0.000000 0.154109 0.000000 0.000213
# 5 -0.020762 -0.010191 -0.018404 0.000000 0.078135 0.000000
# 6 0.000000 0.000000 0.000000 0.000213 0.000000 0.047788
#
#
# Mechanical properties :
#
#
# Convention : Reuss Voigt Hill
#
# Bulk Modulus (GPa) = 12.40417 35.54013 23.97215
# Shear Modulus (GPa) = 13.86913 26.29480 20.08196
#
# Velocity S-wave (km/s) = 2.52681 3.47924 3.04055
# Velocity P-wave (km/s) = 3.77140 5.70100 4.83347
#
# Compressibility (1/GPa) = 0.08061802
#
# Stress axis : x y z
#
# Youngs Moduli (GPa) = 62.10540 26.78650 73.10286
#
# Poissons Ratio (x) = -0.13793 -0.14124
# Poissons Ratio (y) = -0.31980 0.02406
# Poissons Ratio (z) = -0.11999 0.00881
#
# Static dielectric constant tensor:
#      x y z
#    x 1.799700 0.000000 0.027410 
#    y 0.000000 1.752680 0.000000 
#    z 0.027410 0.000000 1.869020 
# 
# From -- ./inp_files/375072.got.cif
#   From: 2010.05.17/outbox.cif.g08.bks.cpg/sg12_188_cif.got.tgz:375072.got - 2010.06.03 13:09:07.
