data_PCOD9187585
_publ_section_title
;
Structure prediction by ZEFSAII (Michael W. Deem and Ramdas Pophale) SiO2 
 PCOD9187585
Probable space group: C 2/M
;
_chemical_formula_sum "Si O2"
_cell_formula_units_Z 56
_cell_length_a 16.438176
_cell_length_b 7.493517
_cell_length_c 23.737407
_cell_angle_alpha 90.000000
_cell_angle_beta 57.244607
_cell_angle_gamma 90.000000
_cell_volume 2459.022171
_symmetry_space_group_name_H-M "C 2/M"
_symmetry_group_IT_number 12
_symmetry_cell_setting 'monoclinic'
loop_
_space_group_symop_operation_xyz
x,y,z
-x,y,-z
-x,-y,-z
x,-y,z
1/2+x,1/2+y,z
1/2-x,1/2+y,-z
1/2-x,1/2-y,-z
1/2+x,1/2-y,z
loop_
_atom_site_type_symbol
_atom_site_label
_atom_site_fract_x
_atom_site_fract_y
_atom_site_fract_z
Si Si1 0.244908 0.204473 0.145095
Si Si2 0.379903 0.283240 0.289635
Si Si3 0.968588 0.702970 0.570780
Si Si4 0.197987 0.716779 0.285347
Si Si5 0.561345 0.719127 0.152274
Si Si6 0.033907 0.792960 0.928116
Si Si7 0.846756 0.212865 0.428862
O O1 0.189595 0.212716 0.225559
O O2 0.349573 0.289570 0.116128
O O3 0.169679 0.278754 0.127288
O O4 0.265188 0.000000 0.122655
O O5 0.379893 0.500000 0.290349
O O6 0.300913 0.230929 0.272946
O O7 0.485219 0.225646 0.229264
O O8 0.347141 0.225373 0.363914
O O9 0.935754 0.500000 0.569168
O O10 0.063392 0.700814 0.573229
O O11 0.000000 0.788597 0.500000
O O12 0.883566 0.781016 0.640637
O O13 0.192999 0.500000 0.283962
O O14 0.562763 0.500000 0.152243
O O15 0.516432 0.779744 0.109523
O O16 0.003289 0.000000 0.940157
O O17 0.000000 0.711706 0.000000
O O18 0.750000 0.250000 0.500000
O O19 0.861827 0.000000 0.423064
#
# Coordination Sequence:
#
# PCOD9187585 Si02
#       7
#     8   8   8   8   8   8   8
#     4  11  22  36  58  89 122 155 191 241 299 349
#     4   9  17  33  58  80 105 149 194 232 284 348
#     4  10  21  37  56  80 111 149 194 242 296 353
#     4  10  19  35  60  83 110 151 196 241 283 343
#     4   9  18  35  59  85 116 152 191 233 288 352
#     4  10  21  40  65  88 114 155 202 240 283 354
#     4  11  22  36  55  79 109 149 193 240 297 356
#
# _framework density 22.773278999999999
#
# number of rings (size 3 to 8) (size 9 to 14) (size 15 to 20)
#    0.000    2.000    1.429    2.571    0.000    5.143 
#    0.000    4.286    0.000    0.000    0.000    0.000 
#    0.000    0.000    0.000    0.000    0.000    0.000 
#
# Total GULP energy -156422.483968 kJ/mol
# GULP energy per Si atom -5586.517285 kJ/mol
# Density = 2.272145 g / cm^3
# Si number density = 22.773279 Si / 1000 Ang^3
#
#
#
# Elastic Constant Matrix: (Units=GPa)
#
#
# Indices 1 2 3 4 5 6 
#
# 1 134.1244 -8.5150 41.4211 -0.0002 23.9904 0.0002
# 2 -8.5150 66.6288 -4.3708 -0.0003 3.7816 0.0005
# 3 41.4211 -4.3708 127.2359 -0.0001 18.0682 0.0001
# 4 -0.0002 -0.0003 -0.0001 -0.8585 0.0000 4.0678
# 5 23.9904 3.7816 18.0682 0.0000 29.1848 0.0000
# 6 0.0002 0.0005 0.0001 4.0678 0.0000 9.5920
#
#
#
# Elastic Compliance Matrix: (Units=1/GPa)
#
#
# Indices 1 2 3 4 5 6 
#
# 1 0.009366 0.001437 -0.002061 -0.000001 -0.006609 0.000000
# 2 0.001437 0.015429 0.000563 -0.000003 -0.003529 0.000001
# 3 -0.002061 0.000563 0.009121 0.000000 -0.004026 0.000000
# 4 -0.000001 -0.000003 0.000000 -0.387070 0.000002 0.164148
# 5 -0.006609 -0.003529 -0.004026 0.000002 0.042647 0.000000
# 6 0.000000 0.000001 0.000000 0.164148 0.000000 0.034641
#
#
# Mechanical properties :
#
#
# Convention : Reuss Voigt Hill
#
# Bulk Modulus (GPa) = 29.59039 42.78442 36.18740
# Shear Modulus (GPa) = -18.90512 27.54726 4.32107
#
# Velocity S-wave (km/s) = -2.88435 3.48175 1.37897
# Velocity P-wave (km/s) = 1.38890 5.91535 4.29653
#
# Compressibility (1/GPa) = 0.03379475
#
# Stress axis : x y z
#
# Youngs Moduli (GPa) = 106.77364 64.81132 109.63181
#
# Poissons Ratio (x) = -0.09312 0.22596
# Poissons Ratio (y) = -0.15341 -0.06177
# Poissons Ratio (z) = 0.22007 -0.03652
#
# Static dielectric constant tensor:
#      x y z
#    x 1.813530 0.000000 0.007110 
#    y 0.000000 1.908620 0.000000 
#    z 0.007110 0.000000 1.853970 
# 
# From -- ./inp_files/337869.got.cif
#   From: 2010.05.17/outbox.cif.g08.bks.cpg/sg12_169_cif.got.tgz:337869.got - 2010.06.03 13:09:07.
