data_PCOD9187367
_publ_section_title
;
Structure prediction by ZEFSAII (Michael W. Deem and Ramdas Pophale) SiO2 
 PCOD9187367
Probable space group: C 2/M
;
_chemical_formula_sum "Si O2"
_cell_formula_units_Z 64
_cell_length_a 20.989972
_cell_length_b 7.657956
_cell_length_c 22.988293
_cell_angle_alpha 90.000000
_cell_angle_beta 124.858171
_cell_angle_gamma 90.000000
_cell_volume 3032.122501
_symmetry_space_group_name_H-M "C 2/M"
_symmetry_group_IT_number 12
_symmetry_cell_setting 'monoclinic'
loop_
_space_group_symop_operation_xyz
x,y,z
-x,y,-z
-x,-y,-z
x,-y,z
1/2+x,1/2+y,z
1/2-x,1/2+y,-z
1/2-x,1/2-y,-z
1/2+x,1/2-y,z
loop_
_atom_site_type_symbol
_atom_site_label
_atom_site_fract_x
_atom_site_fract_y
_atom_site_fract_z
Si Si1 0.689296 0.287623 0.581609
Si Si2 0.225964 0.791799 0.053514
Si Si3 0.560795 0.794206 0.419349
Si Si4 0.634356 0.209396 0.338407
Si Si5 0.388528 0.297482 0.341754
Si Si6 0.627144 0.295167 0.795217
Si Si7 0.048694 0.213971 0.969541
Si Si8 0.503181 0.709639 0.184191
O O1 0.689233 0.500000 0.581949
O O2 0.630993 0.231997 0.500496
O O3 0.777262 0.226954 0.617005
O O4 0.656339 0.222785 0.626293
O O5 0.290054 0.718604 0.130635
O O6 0.226628 0.000000 0.060498
O O7 0.250000 0.750000 0.000000
O O8 0.138377 0.729744 0.018775
O O9 0.587094 0.724051 0.369959
O O10 0.481020 0.710480 0.399400
O O11 0.544880 0.000000 0.405684
O O12 0.586140 0.250294 0.255408
O O13 0.637909 0.000000 0.346328
O O14 0.363933 0.500000 0.326050
O O15 0.373625 0.218531 0.270067
O O16 0.607389 0.500000 0.778304
O O17 0.562309 0.220629 0.805259
O O18 0.012105 0.272608 0.889119
O O19 0.048593 0.000000 0.969455
O O20 0.000000 0.270915 0.000000
O O21 0.494473 0.500000 0.177317
#
# Coordination Sequence:
#
# PCOD9187367 Si02
#       8
#     8   8   8   8   8   8   8   8
#     4  10  22  39  57  79 111 150 185 224 278 335
#     4  11  21  35  58  85 112 146 185 228 274 323
#     4  11  22  36  57  84 112 143 183 234 278 322
#     4  10  22  38  56  82 113 144 183 228 277 328
#     4  10  21  38  59  80 109 149 187 225 275 335
#     4  10  20  36  57  84 112 143 187 230 272 327
#     4   9  19  36  56  81 113 146 181 221 270 327
#     4  10  19  35  59  82 108 146 186 224 271 328
#
# _framework density 21.107327999999999
#
# number of rings (size 3 to 8) (size 9 to 14) (size 15 to 20)
#    0.000    1.875    2.500    1.500    0.000    5.000 
#    0.000    0.000    0.000    2.625    0.000    0.000 
#    0.000    0.000    0.000    0.000    0.000    0.000 
#
# Total GULP energy -178806.070932 kJ/mol
# GULP energy per Si atom -5587.689717 kJ/mol
# Density = 2.105929 g / cm^3
# Si number density = 21.107328 Si / 1000 Ang^3
#
#
#
# Elastic Constant Matrix: (Units=GPa)
#
#
# Indices 1 2 3 4 5 6 
#
# 1 97.0625 -3.6712 17.0430 0.0000 -5.8824 0.0000
# 2 -3.6712 39.0250 -14.9995 0.0000 -8.6688 -0.0001
# 3 17.0430 -14.9995 106.0753 0.0000 -5.5489 0.0000
# 4 0.0000 0.0000 0.0000 24.9506 0.0000 9.8191
# 5 -5.8824 -8.6688 -5.5489 0.0000 27.7873 0.0000
# 6 0.0000 -0.0001 0.0000 9.8191 0.0000 6.8385
#
#
#
# Elastic Compliance Matrix: (Units=1/GPa)
#
#
# Indices 1 2 3 4 5 6 
#
# 1 0.010735 0.000950 -0.001471 0.000000 0.002275 0.000000
# 2 0.000950 0.029798 0.004606 0.000000 0.010417 0.000001
# 3 -0.001471 0.004606 0.010483 0.000000 0.003219 0.000000
# 4 0.000000 0.000000 0.000000 0.092151 0.000000 -0.132315
# 5 0.002275 0.010417 0.003219 0.000000 0.040362 0.000000
# 6 0.000000 0.000001 0.000000 -0.132315 0.000000 0.336218
#
#
# Mechanical properties :
#
#
# Convention : Reuss Voigt Hill
#
# Bulk Modulus (GPa) = 16.89626 26.54525 21.72076
# Shear Modulus (GPa) = 9.41076 28.16798 18.78937
#
# Velocity S-wave (km/s) = 2.11381 3.65706 2.98683
# Velocity P-wave (km/s) = 3.73897 5.51686 4.71252
#
# Compressibility (1/GPa) = 0.05918469
#
# Stress axis : x y z
#
# Youngs Moduli (GPa) = 93.15499 33.55903 95.38918
#
# Poissons Ratio (x) = -0.03187 0.14036
# Poissons Ratio (y) = -0.08846 -0.43936
# Poissons Ratio (z) = 0.13707 -0.15457
#
# Static dielectric constant tensor:
#      x y z
#    x 1.744760 0.000000 -0.018160 
#    y 0.000000 1.785000 0.000000 
#    z -0.018160 0.000000 1.720330 
# 
# From -- ./inp_files/346148.got.cif
#   From: 2010.05.17/outbox.cif.g08.bks.cpg/sg12_174_cif.got.tgz:346148.got - 2010.06.03 13:09:07.
