data_PCOD9187441
_publ_section_title
;
Structure prediction by ZEFSAII (Michael W. Deem and Ramdas Pophale) SiO2 
 PCOD9187441
Probable space group: C 2/M
;
_chemical_formula_sum "Si O2"
_cell_formula_units_Z 44
_cell_length_a 20.166704
_cell_length_b 15.310906
_cell_length_c 9.799471
_cell_angle_alpha 90.000000
_cell_angle_beta 134.958816
_cell_angle_gamma 90.000000
_cell_volume 2141.092318
_symmetry_space_group_name_H-M "C 2/M"
_symmetry_group_IT_number 12
_symmetry_cell_setting 'monoclinic'
loop_
_space_group_symop_operation_xyz
x,y,z
-x,y,-z
-x,-y,-z
x,-y,z
1/2+x,1/2+y,z
1/2-x,1/2+y,-z
1/2-x,1/2-y,-z
1/2+x,1/2-y,z
loop_
_atom_site_type_symbol
_atom_site_label
_atom_site_fract_x
_atom_site_fract_y
_atom_site_fract_z
Si Si1 0.822450 0.776281 0.723522
Si Si2 0.000000 0.350832 0.000000
Si Si3 0.084849 0.897950 0.334223
Si Si4 0.723467 0.663792 0.779356
Si Si5 0.439687 0.288008 0.278052
Si Si6 0.917728 0.406982 0.149980
O O1 0.750000 0.750000 0.500000
O O2 0.866987 0.866876 0.737099
O O3 0.766450 0.754770 0.780934
O O4 0.908734 0.709176 0.850020
O O5 0.016657 0.404586 0.887755
O O6 0.158943 0.876616 0.564719
O O7 0.993047 0.838832 0.234517
O O8 0.062713 0.000000 0.302498
O O9 0.662042 0.679545 0.824307
O O10 0.811226 0.603404 0.942158
O O11 0.500000 0.306769 0.500000
O O12 0.438779 0.184209 0.254636
O O13 0.928999 0.500000 0.238917
#
# Coordination Sequence:
#
# PCOD9187441 Si02
#       6
#     8   4   8   8   8   8
#     4   9  18  35  58  80 113 150 185 234 286 335
#     4  10  19  36  59  82 110 144 193 238 287 326
#     4  10  19  35  59  85 112 148 193 238 284 336
#     4   9  20  35  58  79 112 147 189 236 285 332
#     4  10  21  37  57  81 114 153 181 230 288 340
#     4  11  21  35  57  83 112 145 189 234 279 337
#
# _framework density 20.550259
#
# number of rings (size 3 to 8) (size 9 to 14) (size 15 to 20)
#    0.000    2.182    1.818    1.364    0.000    4.364 
#    0.000    2.273    0.000    0.000    0.000    0.000 
#    0.000    0.000    0.000    0.000    0.000    0.000 
#
# Total GULP energy -122648.235816 kJ/mol
# GULP energy per Si atom -5574.919810 kJ/mol
# Density = 2.050349 g / cm^3
# Si number density = 20.550259 Si / 1000 Ang^3
#
#
#
# Elastic Constant Matrix: (Units=GPa)
#
#
# Indices 1 2 3 4 5 6 
#
# 1 72.8229 28.4703 14.9992 0.0000 15.4809 0.0000
# 2 28.4703 129.5029 3.0719 0.0000 8.3890 0.0000
# 3 14.9992 3.0719 49.0049 0.0000 12.9758 0.0000
# 4 0.0000 0.0000 0.0000 24.2462 0.0000 -16.3054
# 5 15.4809 8.3890 12.9758 0.0000 26.7683 0.0000
# 6 0.0000 0.0000 0.0000 -16.3054 0.0000 23.5416
#
#
#
# Elastic Compliance Matrix: (Units=1/GPa)
#
#
# Indices 1 2 3 4 5 6 
#
# 1 0.017214 -0.003229 -0.003096 0.000000 -0.007443 0.000000
# 2 -0.003229 0.008489 0.000764 0.000000 -0.001163 0.000000
# 3 -0.003096 0.000764 0.023972 0.000000 -0.010069 0.000000
# 4 0.000000 0.000000 0.000000 0.077204 0.000000 0.053473
# 5 -0.007443 -0.001163 -0.010069 0.000000 0.046908 0.000000
# 6 0.000000 0.000000 0.000000 0.053473 0.000000 0.079515
#
#
# Mechanical properties :
#
#
# Convention : Reuss Voigt Hill
#
# Bulk Modulus (GPa) = 25.93732 38.26815 32.10273
# Shear Modulus (GPa) = 18.03276 28.56384 23.29830
#
# Velocity S-wave (km/s) = 2.96547 3.73225 3.37073
# Velocity P-wave (km/s) = 4.93702 6.10205 5.55019
#
# Compressibility (1/GPa) = 0.03855449
#
# Stress axis : x y z
#
# Youngs Moduli (GPa) = 58.09189 117.80072 41.71539
#
# Poissons Ratio (x) = 0.38036 0.12914
# Poissons Ratio (y) = 0.18757 -0.03188
# Poissons Ratio (z) = 0.17983 -0.09002
#
# Static dielectric constant tensor:
#      x y z
#    x 1.764930 0.000000 0.003200 
#    y 0.000000 1.731680 0.000000 
#    z 0.003200 0.000000 1.753180 
# 
# From -- ./inp_files/155552.got.cif
#   From: 2010.05.17/outbox.cif.g08.bks.cpg/sg12_78_cif.got.tgz:155552.got - 2010.06.03 13:09:07.
