data_PCOD9187331
_publ_section_title
;
Structure prediction by ZEFSAII (Michael W. Deem and Ramdas Pophale) SiO2 
 PCOD9187331
Probable space group: C 2/M
;
_chemical_formula_sum "Si O2"
_cell_formula_units_Z 58
_cell_length_a 21.327411
_cell_length_b 7.606874
_cell_length_c 19.654657
_cell_angle_alpha 90.000000
_cell_angle_beta 116.264418
_cell_angle_gamma 90.000000
_cell_volume 2859.477896
_symmetry_space_group_name_H-M "C 2/M"
_symmetry_group_IT_number 12
_symmetry_cell_setting 'monoclinic'
loop_
_space_group_symop_operation_xyz
x,y,z
-x,y,-z
-x,-y,-z
x,-y,z
1/2+x,1/2+y,z
1/2-x,1/2+y,-z
1/2-x,1/2-y,-z
1/2+x,1/2-y,z
loop_
_atom_site_type_symbol
_atom_site_label
_atom_site_fract_x
_atom_site_fract_y
_atom_site_fract_z
Si Si1 0.077333 0.212831 0.206372
Si Si2 0.290052 0.290980 0.368303
Si Si3 0.000000 0.500000 0.500000
Si Si4 0.800363 0.788952 0.961636
Si Si5 0.459613 0.285128 0.049416
Si Si6 0.582936 0.702450 0.483398
Si Si7 0.281552 0.711293 0.802254
Si Si8 0.348803 0.794824 0.622805
O O1 0.143082 0.269615 0.191046
O O2 0.094222 0.277110 0.289878
O O3 0.006068 0.270164 0.136145
O O4 0.077819 0.000000 0.208277
O O5 0.291211 0.500000 0.379606
O O6 0.362967 0.225849 0.433054
O O7 0.274898 0.260198 0.281848
O O8 0.223406 0.222205 0.379338
O O9 0.978630 0.342734 0.544574
O O10 0.772786 0.724237 0.874990
O O11 0.804995 0.000000 0.958775
O O12 0.750000 0.750000 0.000000
O O13 0.879666 0.724450 0.011034
O O14 0.458899 0.500000 0.048896
O O15 0.500000 0.232498 0.000000
O O16 0.563448 0.500000 0.486897
O O17 0.625309 0.706305 0.433175
O O18 0.283248 0.500000 0.804639
O O19 0.338128 0.000000 0.602398
#
# Coordination Sequence:
#
# PCOD9187331 Si02
#       8
#     8   8   2   8   8   8   8   8
#     4   9  16  29  53  85 110 143 190 245 301 354
#     4   9  20  35  59  91 121 149 191 247 305 363
#     4  12  26  44  64  86 120 168 212 244 292 354
#     4  10  20  34  52  78 109 149 191 240 297 354
#     4   9  15  29  55  79 104 141 198 250 290 348
#     4  11  23  42  64  90 120 162 211 247 294 361
#     4   9  17  30  53  81 111 145 189 238 295 357
#     4  10  19  35  58  90 127 154 187 249 314 357
#
# _framework density 20.283424
#
# number of rings (size 3 to 8) (size 9 to 14) (size 15 to 20)
#    0.000    2.345    2.069    1.034    0.966    1.103 
#    0.000    2.069    0.000    4.138    0.000    0.000 
#    0.000    0.000    0.000    0.000    0.000    0.000 
#
# Total GULP energy -161582.171899 kJ/mol
# GULP energy per Si atom -5571.799031 kJ/mol
# Density = 2.023726 g / cm^3
# Si number density = 20.283424 Si / 1000 Ang^3
#
#
#
# Elastic Constant Matrix: (Units=GPa)
#
#
# Indices 1 2 3 4 5 6 
#
# 1 86.9182 7.8266 52.2493 0.0000 -10.1519 0.0000
# 2 7.8266 73.7887 3.5868 0.0000 -0.8086 0.0000
# 3 52.2493 3.5868 113.3672 0.0000 -8.4057 0.0000
# 4 0.0000 0.0000 0.0000 20.0290 0.0000 -4.3635
# 5 -10.1519 -0.8086 -8.4057 0.0000 21.0307 0.0000
# 6 0.0000 0.0000 0.0000 -4.3635 0.0000 5.5966
#
#
#
# Elastic Compliance Matrix: (Units=1/GPa)
#
#
# Indices 1 2 3 4 5 6 
#
# 1 0.016552 -0.001350 -0.007211 0.000000 0.005056 0.000000
# 2 -0.001350 0.013686 0.000185 0.000000 -0.000051 0.000000
# 3 -0.007211 0.000185 0.012244 0.000000 0.001420 0.000000
# 4 0.000000 0.000000 0.000000 0.060143 0.000000 0.046892
# 5 0.005056 -0.000051 0.001420 0.000000 0.050556 0.000000
# 6 0.000000 0.000000 0.000000 0.046892 0.000000 0.215241
#
#
# Mechanical properties :
#
#
# Convention : Reuss Voigt Hill
#
# Bulk Modulus (GPa) = 38.86420 44.59993 41.73206
# Shear Modulus (GPa) = 12.69846 23.35870 18.02858
#
# Velocity S-wave (km/s) = 2.50482 3.39723 2.98456
# Velocity P-wave (km/s) = 5.25049 6.11754 5.70052
#
# Compressibility (1/GPa) = 0.02573062
#
# Stress axis : x y z
#
# Youngs Moduli (GPa) = 60.41632 73.06841 81.67451
#
# Poissons Ratio (x) = 0.09862 0.58895
# Poissons Ratio (y) = 0.08154 -0.01513
# Poissons Ratio (z) = 0.43566 -0.01354
#
# Static dielectric constant tensor:
#      x y z
#    x 1.737220 0.000000 0.027970 
#    y 0.000000 1.751320 0.000000 
#    z 0.027970 0.000000 1.736610 
# 
# From -- ./inp_files/282252.got.cif
#   From: 2010.05.17/outbox.cif.g08.bks.cpg/sg12_142_cif.got.tgz:282252.got - 2010.06.03 13:09:07.
