data_PCOD9187328
_publ_section_title
;
Structure prediction by ZEFSAII (Michael W. Deem and Ramdas Pophale) SiO2 
 PCOD9187328
Probable space group: C 2/M
;
_chemical_formula_sum "Si O2"
_cell_formula_units_Z 64
_cell_length_a 15.224821
_cell_length_b 23.960688
_cell_length_c 7.979547
_cell_angle_alpha 90.000000
_cell_angle_beta 83.294557
_cell_angle_gamma 90.000000
_cell_volume 2891.004346
_symmetry_space_group_name_H-M "C 2/M"
_symmetry_group_IT_number 12
_symmetry_cell_setting 'monoclinic'
loop_
_space_group_symop_operation_xyz
x,y,z
-x,y,-z
-x,-y,-z
x,-y,z
1/2+x,1/2+y,z
1/2-x,1/2+y,-z
1/2-x,1/2-y,-z
1/2+x,1/2-y,z
loop_
_atom_site_type_symbol
_atom_site_label
_atom_site_fract_x
_atom_site_fract_y
_atom_site_fract_z
Si Si1 0.083635 0.674033 0.077056
Si Si2 0.602301 0.938099 0.532479
Si Si3 0.393899 0.347205 0.030779
Si Si4 0.877549 0.775156 0.354970
Si Si5 0.384035 0.059312 0.838862
Si Si6 0.809825 0.344870 0.273201
Si Si7 0.408204 0.270172 0.715304
Si Si8 0.784515 0.063393 0.882250
O O1 0.056896 0.612416 0.137404
O O2 0.115513 0.706927 0.232231
O O3 0.159192 0.669204 0.922911
O O4 0.000000 0.701243 0.000000
O O5 0.500000 0.937304 0.500000
O O6 0.652213 0.934782 0.342049
O O7 0.623659 0.885317 0.640517
O O8 0.621761 0.000000 0.602625
O O9 0.359077 0.319509 0.211271
O O10 0.352435 0.406390 0.992535
O O11 0.500000 0.352184 0.000000
O O12 0.375102 0.304441 0.882557
O O13 0.823684 0.717196 0.347459
O O14 0.869084 0.792481 0.551084
O O15 0.984715 0.767894 0.316367
O O16 0.306265 0.058975 0.991504
O O17 0.431858 0.000000 0.837159
O O18 0.731884 0.391114 0.261787
O O19 0.808915 0.000000 0.826498
#
# Coordination Sequence:
#
# PCOD9187328 Si02
#       8
#     8   8   8   8   8   8   8   8
#     4  11  17  29  51  79 117 156 198 237 281 347
#     4  10  20  33  51  80 120 168 222 256 280 341
#     4  10  21  43  66  90 118 150 202 262 317 372
#     4  10  20  34  60  90 123 160 191 245 302 369
#     4   9  20  35  49  74 114 161 205 252 294 341
#     4  11  20  32  55  85 122 164 197 240 299 357
#     4  10  19  35  58  90 124 154 198 245 302 354
#     4  10  23  42  62  84 117 160 205 256 313 366
#
# _framework density 22.137633999999998
#
# number of rings (size 3 to 8) (size 9 to 14) (size 15 to 20)
#    0.000    1.875    2.500    2.250    1.750    1.500 
#    2.250    0.625    0.000    0.000    0.000    3.500 
#    0.000    0.000    0.000    0.000    0.000    0.000 
#
# Total GULP energy -178355.743914 kJ/mol
# GULP energy per Si atom -5573.616997 kJ/mol
# Density = 2.208725 g / cm^3
# Si number density = 22.137634 Si / 1000 Ang^3
#
#
#
# Elastic Constant Matrix: (Units=GPa)
#
#
# Indices 1 2 3 4 5 6 
#
# 1 38.4612 35.9626 12.7725 0.0000 12.8647 0.0000
# 2 35.9626 121.3371 34.5115 0.0000 22.3680 0.0000
# 3 12.7725 34.5115 101.7468 0.0000 14.1275 0.0000
# 4 0.0000 0.0000 0.0000 23.8160 0.0000 12.5271
# 5 12.8647 22.3680 14.1275 0.0000 17.4518 0.0000
# 6 0.0000 0.0000 0.0000 12.5271 0.0000 20.0786
#
#
#
# Elastic Compliance Matrix: (Units=1/GPa)
#
#
# Indices 1 2 3 4 5 6 
#
# 1 0.040206 -0.008538 0.000501 0.000000 -0.019101 0.000000
# 2 -0.008538 0.012963 -0.002132 0.000000 -0.008595 0.000000
# 3 0.000501 -0.002132 0.011447 0.000000 -0.006904 0.000000
# 4 0.000000 0.000000 0.000000 0.062499 0.000000 -0.038993
# 5 -0.019101 -0.008595 -0.006904 0.000000 0.087986 0.000000
# 6 0.000000 0.000000 0.000000 -0.038993 0.000000 0.074133
#
#
# Mechanical properties :
#
#
# Convention : Reuss Voigt Hill
#
# Bulk Modulus (GPa) = 22.58425 47.55980 35.07202
# Shear Modulus (GPa) = 15.41640 24.15585 19.78612
#
# Velocity S-wave (km/s) = 2.64178 3.30686 2.99285
# Velocity P-wave (km/s) = 4.41919 6.00923 5.27447
#
# Compressibility (1/GPa) = 0.04427865
#
# Stress axis : x y z
#
# Youngs Moduli (GPa) = 24.87193 77.14404 87.35887
#
# Poissons Ratio (x) = 0.65864 -0.04376
# Poissons Ratio (y) = 0.21235 0.18622
# Poissons Ratio (z) = -0.01246 0.16444
#
# Static dielectric constant tensor:
#      x y z
#    x 1.871060 0.000000 0.003510 
#    y 0.000000 1.856350 0.000000 
#    z 0.003510 0.000000 1.882380 
# 
# From -- ./inp_files/77508.got.cif
#   From: 2010.05.17/outbox.cif.g08.bks.cpg/sg12_39_cif.got.tgz:77508.got - 2010.06.03 13:09:07.
