data_PCOD9187066
_publ_section_title
;
Structure prediction by ZEFSAII (Michael W. Deem and Ramdas Pophale) SiO2 
 PCOD9187066
Probable space group: C 2/M
;
_chemical_formula_sum "Si O2"
_cell_formula_units_Z 58
_cell_length_a 28.028109
_cell_length_b 9.317647
_cell_length_c 11.749835
_cell_angle_alpha 90.000000
_cell_angle_beta 90.971185
_cell_angle_gamma 90.000000
_cell_volume 3068.099403
_symmetry_space_group_name_H-M "C 2/M"
_symmetry_group_IT_number 12
_symmetry_cell_setting 'monoclinic'
loop_
_space_group_symop_operation_xyz
x,y,z
-x,y,-z
-x,-y,-z
x,-y,z
1/2+x,1/2+y,z
1/2-x,1/2+y,-z
1/2-x,1/2-y,-z
1/2+x,1/2-y,z
loop_
_atom_site_type_symbol
_atom_site_label
_atom_site_fract_x
_atom_site_fract_y
_atom_site_fract_z
Si Si1 0.887345 0.830181 0.537819
Si Si2 0.500000 0.000000 0.000000
Si Si3 0.416163 0.170348 0.322010
Si Si4 0.944782 0.749558 0.880627
Si Si5 0.152945 0.668929 0.249468
Si Si6 0.705245 0.329831 0.053137
Si Si7 0.010470 0.156866 0.339818
Si Si8 0.609304 0.660878 0.902135
O O1 0.885235 0.751684 0.416627
O O2 0.855532 0.749600 0.631276
O O3 0.942535 0.817554 0.582888
O O4 0.876464 0.000000 0.532241
O O5 0.520185 0.876563 0.085947
O O6 0.470424 0.222687 0.344916
O O7 0.401467 0.225108 0.196184
O O8 0.412075 0.000000 0.330917
O O9 0.897236 0.685688 0.819856
O O10 0.969982 0.845459 0.787827
O O11 0.927864 0.824616 0.995618
O O12 0.163863 0.500000 0.263094
O O13 0.190171 0.751777 0.169789
O O14 0.713588 0.500000 0.071509
O O15 0.750000 0.250000 0.000000
O O16 0.660581 0.317774 0.964008
O O17 0.989594 0.000000 0.366733
O O18 0.606569 0.500000 0.853586
#
# Coordination Sequence:
#
# PCOD9187066 Si02
#       8
#     8   2   8   8   8   8   8   8
#     4  10  21  38  57  76 105 148 197 239 279 330
#     4  12  20  28  42  76 110 148 182 228 272 322
#     4  12  25  35  51  77 109 148 191 239 288 330
#     4  10  21  31  52  75 109 145 189 230 281 328
#     4  10  19  35  57  84 114 144 181 230 279 328
#     4  10  21  38  63  93 118 145 179 223 282 346
#     4  10  21  36  54  74 103 145 196 245 284 329
#     4  10  22  39  57  78 112 151 189 229 283 348
#
# _framework density 18.904212000000001
#
# number of rings (size 3 to 8) (size 9 to 14) (size 15 to 20)
#    0.000    1.655    0.690    4.138    3.862    7.172 
#    0.000    2.069    0.000    0.828    0.000    0.000 
#    0.000    0.000    0.000    0.000    0.000    0.000 
#
# Total GULP energy -161719.688248 kJ/mol
# GULP energy per Si atom -5576.540974 kJ/mol
# Density = 1.886119 g / cm^3
# Si number density = 18.904212 Si / 1000 Ang^3
#
#
#
# Elastic Constant Matrix: (Units=GPa)
#
#
# Indices 1 2 3 4 5 6 
#
# 1 37.0075 42.0227 29.2161 0.0000 -23.2260 0.0000
# 2 42.0227 175.6993 66.8652 0.0000 -21.1707 0.0000
# 3 29.2161 66.8652 133.1658 0.0000 -31.5103 0.0000
# 4 0.0000 0.0000 0.0000 30.9104 0.0000 23.9843
# 5 -23.2260 -21.1707 -31.5103 0.0000 23.9884 0.0000
# 6 0.0000 0.0000 0.0000 23.9843 0.0000 61.0484
#
#
#
# Elastic Compliance Matrix: (Units=1/GPa)
#
#
# Indices 1 2 3 4 5 6 
#
# 1 0.090658 -0.014255 0.007343 0.000000 0.084842 0.000000
# 2 -0.014255 0.009364 -0.004186 0.000000 -0.011036 0.000000
# 3 0.007343 -0.004186 0.012781 0.000000 0.020204 0.000000
# 4 0.000000 0.000000 0.000000 0.046538 0.000000 -0.018284
# 5 0.084842 -0.011036 0.020204 0.000000 0.140632 0.000000
# 6 0.000000 0.000000 0.000000 -0.018284 0.000000 0.023564
#
#
# Mechanical properties :
#
#
# Convention : Reuss Voigt Hill
#
# Bulk Modulus (GPa) = 11.03652 69.12007 40.07830
# Shear Modulus (GPa) = 13.30020 37.04068 25.17044
#
# Velocity S-wave (km/s) = 2.65534 4.43130 3.65289
# Velocity P-wave (km/s) = 3.90537 7.92620 6.24806
#
# Compressibility (1/GPa) = 0.09060828
#
# Stress axis : x y z
#
# Youngs Moduli (GPa) = 11.03052 106.79074 78.24130
#
# Poissons Ratio (x) = 1.52225 -0.57454
# Poissons Ratio (y) = 0.15724 0.32750
# Poissons Ratio (z) = -0.08100 0.44701
#
# Static dielectric constant tensor:
#      x y z
#    x 1.647430 0.000000 -0.013690 
#    y 0.000000 1.635050 0.000000 
#    z -0.013690 0.000000 1.678870 
# 
# From -- ./inp_files/180910.got.cif
#   From: 2010.05.17/outbox.cif.g08.bks.cpg/sg12_91_cif.got.tgz:180910.got - 2010.06.03 13:09:07.
