data_PCOD9187080
_publ_section_title
;
Structure prediction by ZEFSAII (Michael W. Deem and Ramdas Pophale) SiO2 
 PCOD9187080
Probable space group: C 2/M
;
_chemical_formula_sum "Si O2"
_cell_formula_units_Z 60
_cell_length_a 23.305959
_cell_length_b 16.170171
_cell_length_c 14.998696
_cell_angle_alpha 90.000000
_cell_angle_beta 147.183197
_cell_angle_gamma 90.000000
_cell_volume 3063.360293
_symmetry_space_group_name_H-M "C 2/M"
_symmetry_group_IT_number 12
_symmetry_cell_setting 'monoclinic'
loop_
_space_group_symop_operation_xyz
x,y,z
-x,y,-z
-x,-y,-z
x,-y,z
1/2+x,1/2+y,z
1/2-x,1/2+y,-z
1/2-x,1/2-y,-z
1/2+x,1/2-y,z
loop_
_atom_site_type_symbol
_atom_site_label
_atom_site_fract_x
_atom_site_fract_y
_atom_site_fract_z
Si Si1 0.792053 0.837429 0.019609
Si Si2 0.825414 0.901762 0.590062
Si Si3 0.224868 0.400802 0.275784
Si Si4 0.772646 0.900656 0.712040
Si Si5 0.381586 0.648245 0.321380
Si Si6 0.544979 0.669914 0.928321
Si Si7 0.500000 0.812469 0.000000
Si Si8 0.118677 0.652551 0.663073
O O1 0.844541 0.879458 0.174371
O O2 0.877354 0.818839 0.054011
O O3 0.750000 0.750000 0.000000
O O4 0.693324 0.880918 0.840562
O O5 0.785234 0.869140 0.443366
O O6 0.766746 0.870819 0.602499
O O7 0.948028 0.884458 0.768115
O O8 0.808970 0.000000 0.566015
O O9 0.219324 0.500000 0.269316
O O10 0.293612 0.375407 0.279553
O O11 0.106853 0.364578 0.127346
O O12 0.680674 0.864615 0.653031
O O13 0.768831 0.000000 0.709481
O O14 0.882916 0.871913 0.900860
O O15 0.500000 0.617645 0.500000
O O16 0.387398 0.748506 0.330149
O O17 0.498828 0.753069 0.911689
O O18 0.000000 0.619553 0.500000
#
# Coordination Sequence:
#
# PCOD9187080 Si02
#       8
#     8   8   8   8   8   8   4   8
#     4   9  18  34  55  82 115 146 187 239 295 345
#     4  10  21  38  58  87 120 153 192 241 300 354
#     4  11  25  43  60  84 123 165 205 247 295 362
#     4  10  19  35  57  84 123 154 187 242 301 358
#     4  10  20  39  61  84 113 153 202 256 298 342
#     4  11  20  36  62  93 114 148 195 249 302 354
#     4  12  23  40  61  88 122 162 200 246 303 356
#     4   9  19  35  55  83 118 152 195 244 294 356
#
# _framework density 19.586334999999998
#
# number of rings (size 3 to 8) (size 9 to 14) (size 15 to 20)
#    0.000    1.867    1.333    3.800    0.000    2.133 
#    9.600    3.333    0.000    0.000    0.000    0.000 
#    0.000    0.000    0.000    0.000    0.000    0.000 
#
# Total GULP energy -167384.868571 kJ/mol
# GULP energy per Si atom -5579.495619 kJ/mol
# Density = 1.954176 g / cm^3
# Si number density = 19.586335 Si / 1000 Ang^3
#
#
#
# Elastic Constant Matrix: (Units=GPa)
#
#
# Indices 1 2 3 4 5 6 
#
# 1 143.3708 7.2072 86.4602 0.0000 -10.1505 0.0000
# 2 7.2072 13.7678 11.8311 0.0000 -5.3881 0.0000
# 3 86.4602 11.8311 127.4274 0.0000 0.9682 0.0000
# 4 0.0000 0.0000 0.0000 20.7774 0.0000 -18.4681
# 5 -10.1505 -5.3881 0.9682 0.0000 38.9572 0.0000
# 6 0.0000 0.0000 0.0000 -18.4681 0.0000 23.3409
#
#
#
# Elastic Compliance Matrix: (Units=1/GPa)
#
#
# Indices 1 2 3 4 5 6 
#
# 1 0.012308 0.002421 -0.008604 0.000000 0.003756 0.000000
# 2 0.002421 0.084518 -0.009585 0.000000 0.012558 0.000000
# 3 -0.008604 -0.009585 0.014606 0.000000 -0.003931 0.000000
# 4 0.000000 0.000000 0.000000 0.162212 0.000000 0.128347
# 5 0.003756 0.012558 -0.003931 0.000000 0.028482 0.000000
# 6 0.000000 0.000000 0.000000 0.128347 0.000000 0.144396
#
#
# Mechanical properties :
#
#
# Convention : Reuss Voigt Hill
#
# Bulk Modulus (GPa) = 12.51658 55.06256 33.78957
# Shear Modulus (GPa) = 9.90707 28.55294 19.23001
#
# Velocity S-wave (km/s) = 2.25147 3.82226 3.13678
# Velocity P-wave (km/s) = 3.62811 6.90314 5.51437
#
# Compressibility (1/GPa) = 0.07989401
#
# Stress axis : x y z
#
# Youngs Moduli (GPa) = 81.24796 11.83183 68.46735
#
# Poissons Ratio (x) = -0.02864 0.58912
# Poissons Ratio (y) = -0.19668 0.65626
# Poissons Ratio (z) = 0.69909 0.11341
#
# Static dielectric constant tensor:
#      x y z
#    x 1.671360 0.000000 -0.018450 
#    y 0.000000 1.678420 0.000000 
#    z -0.018450 0.000000 1.718480 
# 
# From -- ./inp_files/241310.got.cif
#   From: 2010.05.17/outbox.cif.g08.bks.cpg/sg12_121_cif.got.tgz:241310.got - 2010.06.03 13:09:07.
