data_PCOD9187461
_publ_section_title
;
Structure prediction by ZEFSAII (Michael W. Deem and Ramdas Pophale) SiO2 
 PCOD9187461
Probable space group: C 2/M
;
_chemical_formula_sum "Si O2"
_cell_formula_units_Z 64
_cell_length_a 15.940393
_cell_length_b 7.724487
_cell_length_c 24.445534
_cell_angle_alpha 90.000000
_cell_angle_beta 91.510011
_cell_angle_gamma 90.000000
_cell_volume 3008.966542
_symmetry_space_group_name_H-M "C 2/M"
_symmetry_group_IT_number 12
_symmetry_cell_setting 'monoclinic'
loop_
_space_group_symop_operation_xyz
x,y,z
-x,y,-z
-x,-y,-z
x,-y,z
1/2+x,1/2+y,z
1/2-x,1/2+y,-z
1/2-x,1/2-y,-z
1/2+x,1/2-y,z
loop_
_atom_site_type_symbol
_atom_site_label
_atom_site_fract_x
_atom_site_fract_y
_atom_site_fract_z
Si Si1 0.959702 0.712649 0.823433
Si Si2 0.708526 0.293467 0.941458
Si Si3 0.725743 0.791075 0.174006
Si Si4 0.386628 0.202812 0.248053
Si Si5 0.036475 0.703408 0.443718
Si Si6 0.981335 0.300452 0.058814
Si Si7 0.722870 0.791763 0.437718
Si Si8 0.620125 0.700617 0.628035
O O1 0.963327 0.500000 0.824549
O O2 0.865519 0.764181 0.806493
O O3 0.978457 0.773943 0.885601
O O4 0.033167 0.771284 0.784312
O O5 0.695758 0.500000 0.938689
O O6 0.763143 0.242696 0.889615
O O7 0.618314 0.204831 0.935278
O O8 0.750000 0.250000 0.000000
O O9 0.804004 0.724070 0.209763
O O10 0.728512 0.000000 0.176780
O O11 0.375274 0.286266 0.306839
O O12 0.400978 0.000000 0.258083
O O13 0.051455 0.500000 0.454649
O O14 0.127677 0.775098 0.428606
O O15 0.000000 0.778383 0.500000
O O16 0.964625 0.717621 0.397156
O O17 0.011922 0.500000 0.056300
O O18 0.000000 0.219024 0.000000
O O19 0.750000 0.750000 0.500000
O O20 0.795857 0.724754 0.398795
O O21 0.721070 0.000000 0.430153
O O22 0.614625 0.500000 0.611951
#
# Coordination Sequence:
#
# PCOD9187461 Si02
#       8
#     8   8   8   8   8   8   8   8
#     4   9  19  37  61  85 113 154 198 239 296 360
#     4  11  22  35  56  86 121 155 194 246 303 363
#     4  10  21  40  63  86 115 155 199 246 300 356
#     4  11  23  41  63  86 117 158 204 250 292 348
#     4  10  20  37  62  90 121 157 197 242 291 346
#     4  10  19  35  59  85 117 154 196 244 300 365
#     4  10  21  37  60  89 122 159 197 241 295 351
#     4  11  24  40  60  89 124 160 199 244 295 352
#
# _framework density 21.269762
#
# number of rings (size 3 to 8) (size 9 to 14) (size 15 to 20)
#    0.000    1.750    2.500    1.875    0.000    5.000 
#    0.000    6.875    0.000    0.000    0.000    0.000 
#    0.000    0.000    0.000    0.000    0.000    0.000 
#
# Total GULP energy -178750.692120 kJ/mol
# GULP energy per Si atom -5585.959129 kJ/mol
# Density = 2.122135 g / cm^3
# Si number density = 21.269762 Si / 1000 Ang^3
#
#
#
# Elastic Constant Matrix: (Units=GPa)
#
#
# Indices 1 2 3 4 5 6 
#
# 1 177.7400 -0.8810 62.8057 0.0000 -18.2923 0.0000
# 2 -0.8810 30.1613 -6.6560 0.0000 -5.7993 0.0000
# 3 62.8057 -6.6560 120.8490 0.0000 -15.9422 0.0000
# 4 0.0000 0.0000 0.0000 4.0525 0.0000 -4.1619
# 5 -18.2923 -5.7993 -15.9422 0.0000 31.7207 0.0000
# 6 0.0000 0.0000 0.0000 -4.1619 0.0000 12.1070
#
#
#
# Elastic Compliance Matrix: (Units=1/GPa)
#
#
# Indices 1 2 3 4 5 6 
#
# 1 0.007056 -0.000080 -0.003360 0.000000 0.002366 0.000000
# 2 -0.000080 0.035350 0.003036 0.000000 0.007943 0.000000
# 3 -0.003360 0.003036 0.010716 0.000000 0.004004 0.000000
# 4 0.000000 0.000000 0.000000 0.381416 0.000000 0.131116
# 5 0.002366 0.007943 0.004004 0.000000 0.036354 0.000000
# 6 0.000000 0.000000 0.000000 0.131116 0.000000 0.127669
#
#
# Mechanical properties :
#
#
# Convention : Reuss Voigt Hill
#
# Bulk Modulus (GPa) = 19.11468 48.80973 33.96220
# Shear Modulus (GPa) = 8.10626 27.80817 17.95722
#
# Velocity S-wave (km/s) = 1.95434 3.61973 2.90877
# Velocity P-wave (km/s) = 3.75485 6.36142 5.22334
#
# Compressibility (1/GPa) = 0.05231581
#
# Stress axis : x y z
#
# Youngs Moduli (GPa) = 141.71483 28.28855 93.31725
#
# Poissons Ratio (x) = 0.00227 0.31350
# Poissons Ratio (y) = 0.01138 -0.28336
# Poissons Ratio (z) = 0.47610 -0.08590
#
# Static dielectric constant tensor:
#      x y z
#    x 1.770290 0.000000 -0.036880 
#    y 0.000000 1.836410 0.000000 
#    z -0.036880 0.000000 1.732920 
# 
# From -- ./inp_files/338827.got.cif
#   From: 2010.05.17/outbox.cif.g08.bks.cpg/sg12_170_cif.got.tgz:338827.got - 2010.06.03 13:09:07.
