data_PCOD9187116
_publ_section_title
;
Structure prediction by ZEFSAII (Michael W. Deem and Ramdas Pophale) SiO2 
 PCOD9187116
Probable space group: C 2/M
;
_chemical_formula_sum "Si O2"
_cell_formula_units_Z 56
_cell_length_a 17.499026
_cell_length_b 26.742189
_cell_length_c 19.086666
_cell_angle_alpha 90.000000
_cell_angle_beta 158.170007
_cell_angle_gamma 90.000000
_cell_volume 3321.338636
_symmetry_space_group_name_H-M "C 2/M"
_symmetry_group_IT_number 12
_symmetry_cell_setting 'monoclinic'
loop_
_space_group_symop_operation_xyz
x,y,z
-x,y,-z
-x,-y,-z
x,-y,z
1/2+x,1/2+y,z
1/2-x,1/2+y,-z
1/2-x,1/2-y,-z
1/2+x,1/2-y,z
loop_
_atom_site_type_symbol
_atom_site_label
_atom_site_fract_x
_atom_site_fract_y
_atom_site_fract_z
Si Si1 0.831714 0.500000 0.719528
Si Si2 0.480578 0.706319 0.757057
Si Si3 0.174346 0.324226 0.060095
Si Si4 0.474312 0.186209 0.683663
Si Si5 0.389250 0.291259 0.975590
Si Si6 0.063633 0.894296 0.635625
Si Si7 0.403039 0.890963 0.734099
Si Si8 0.334475 0.500000 0.271906
O O1 0.928090 0.449789 0.770251
O O2 0.584970 0.500000 0.496234
O O3 0.821377 0.500000 0.794832
O O4 0.648253 0.681245 0.848683
O O5 0.499866 0.766313 0.758695
O O6 0.251913 0.691247 0.540408
O O7 0.520231 0.693547 0.871636
O O8 0.285209 0.348834 0.221223
O O9 0.100343 0.268932 0.014026
O O10 0.998118 0.359640 0.879090
O O11 0.496644 0.134736 0.745026
O O12 0.650769 0.193267 0.776578
O O13 0.500000 0.309863 0.000000
O O14 0.000000 0.903406 0.500000
O O15 0.842582 0.883694 0.481178
O O16 0.176536 0.943174 0.764765
#
# Coordination Sequence:
#
# PCOD9187116 Si02
#       8
#     4   8   8   8   8   8   8   4
#     4   9  18  31  52  74 102 143 172 215 257 293
#     4  10  19  37  54  74 100 139 176 207 263 307
#     4  11  22  33  53  76 103 144 176 211 252 309
#     4  10  19  35  58  71 101 142 173 211 255 309
#     4  11  23  35  50  79 110 130 170 223 260 308
#     4  11  21  33  50  73 104 147 183 214 253 288
#     4  11  19  35  54  74 103 141 181 213 251 304
#     4   9  16  37  46  65 115 141 169 224 258 281
#
# _framework density 16.860671
#
# number of rings (size 3 to 8) (size 9 to 14) (size 15 to 20)
#    0.000    1.571    7.143    0.857    2.000    1.143 
#    0.000    0.714    0.000    0.000    0.000    0.500 
#    0.000    1.143    0.000    0.000    0.000    0.000 
#
# Total GULP energy -156027.472300 kJ/mol
# GULP energy per Si atom -5572.409725 kJ/mol
# Density = 1.682230 g / cm^3
# Si number density = 16.860671 Si / 1000 Ang^3
#
#
#
# Elastic Constant Matrix: (Units=GPa)
#
#
# Indices 1 2 3 4 5 6 
#
# 1 94.7614 16.3374 26.9172 0.0000 15.1556 0.0000
# 2 16.3374 83.5491 20.2815 0.0001 7.1087 0.0000
# 3 26.9172 20.2815 48.6251 -0.0004 -0.9793 0.0003
# 4 0.0000 0.0001 -0.0004 10.7117 0.0000 4.5141
# 5 15.1556 7.1087 -0.9793 0.0000 19.4891 -0.0001
# 6 0.0000 0.0000 0.0003 4.5141 -0.0001 15.5565
#
#
#
# Elastic Compliance Matrix: (Units=1/GPa)
#
#
# Indices 1 2 3 4 5 6 
#
# 1 0.014883 0.000196 -0.008564 0.000000 -0.012075 0.000000
# 2 0.000196 0.013855 -0.005999 0.000000 -0.005508 0.000000
# 3 -0.008564 -0.005999 0.028015 0.000001 0.010255 -0.000001
# 4 0.000000 0.000000 0.000001 0.106362 0.000001 -0.030864
# 5 -0.012075 -0.005508 0.010255 0.000001 0.063225 0.000000
# 6 0.000000 0.000000 -0.000001 -0.030864 0.000000 0.073238
#
#
# Mechanical properties :
#
#
# Convention : Reuss Voigt Hill
#
# Bulk Modulus (GPa) = 35.68805 39.33422 37.51114
# Shear Modulus (GPa) = 14.80822 20.04477 17.42650
#
# Velocity S-wave (km/s) = 2.96678 3.45171 3.21839
# Velocity P-wave (km/s) = 5.74004 6.26621 6.00889
#
# Compressibility (1/GPa) = 0.02802058
#
# Stress axis : x y z
#
# Youngs Moduli (GPa) = 67.19174 72.17390 35.69574
#
# Poissons Ratio (x) = -0.01415 0.30568
# Poissons Ratio (y) = -0.01317 0.21412
# Poissons Ratio (z) = 0.57540 0.43294
#
# Static dielectric constant tensor:
#      x y z
#    x 1.580620 0.000000 -0.013460 
#    y 0.000000 1.583780 0.000000 
#    z -0.013460 0.000000 1.610700 
# 
# From -- ./inp_files/318548.got.cif
#   From: 2010.05.17/outbox.cif.g08.bks.cpg/sg12_160_cif.got.tgz:318548.got - 2010.06.03 13:09:07.
