data_PCOD9187435
_publ_section_title
;
Structure prediction by ZEFSAII (Michael W. Deem and Ramdas Pophale) SiO2 
 PCOD9187435
Probable space group: C 2/M
;
_chemical_formula_sum "Si O2"
_cell_formula_units_Z 64
_cell_length_a 20.055572
_cell_length_b 7.604887
_cell_length_c 32.142171
_cell_angle_alpha 90.000000
_cell_angle_beta 37.175071
_cell_angle_gamma 90.000000
_cell_volume 2962.248419
_symmetry_space_group_name_H-M "C 2/M"
_symmetry_group_IT_number 12
_symmetry_cell_setting 'monoclinic'
loop_
_space_group_symop_operation_xyz
x,y,z
-x,y,-z
-x,-y,-z
x,-y,z
1/2+x,1/2+y,z
1/2-x,1/2+y,-z
1/2-x,1/2-y,-z
1/2+x,1/2-y,z
loop_
_atom_site_type_symbol
_atom_site_label
_atom_site_fract_x
_atom_site_fract_y
_atom_site_fract_z
Si Si1 0.259600 0.712377 0.713458
Si Si2 0.874900 0.714491 0.058386
Si Si3 0.036214 0.711112 0.785095
Si Si4 0.534940 0.798697 0.694715
Si Si5 0.785406 0.208090 0.935325
Si Si6 0.620705 0.788549 0.564636
Si Si7 0.521942 0.208738 0.442742
Si Si8 0.701334 0.712887 0.212717
O O1 0.258527 0.500000 0.715150
O O2 0.136115 0.773180 0.764381
O O3 0.352017 0.765665 0.634317
O O4 0.294607 0.773085 0.741801
O O5 0.879070 0.500000 0.053434
O O6 0.802149 0.778815 0.055282
O O7 0.809435 0.757305 0.132967
O O8 0.000000 0.777497 0.000000
O O9 0.045173 0.500000 0.777949
O O10 0.060304 0.783056 0.726766
O O11 0.912046 0.743155 0.862274
O O12 0.575110 0.717705 0.631341
O O13 0.403193 0.795430 0.757662
O O14 0.576505 0.000000 0.674521
O O15 0.781304 0.000000 0.932879
O O16 0.750000 0.250000 0.000000
O O17 0.750000 0.750000 0.500000
O O18 0.555719 0.720657 0.556173
O O19 0.603766 0.000000 0.573293
O O20 0.500000 0.280801 0.500000
O O21 0.499690 0.000000 0.455878
O O22 0.688766 0.500000 0.217949
#
# Coordination Sequence:
#
# PCOD9187435 Si02
#       8
#     8   8   8   8   8   8   8   8
#     4  10  22  37  59  87 113 148 190 236 282 332
#     4   9  19  35  58  84 110 145 187 230 274 323
#     4  10  22  39  59  85 116 149 188 233 284 338
#     4  10  20  37  59  81 113 149 183 233 289 334
#     4  11  23  39  60  85 116 152 189 231 282 337
#     4  10  22  38  57  83 113 149 190 232 285 338
#     4  10  22  40  58  80 114 152 189 234 286 340
#     4  10  19  35  59  85 109 140 191 236 273 329
#
# _framework density 21.605208999999999
#
# number of rings (size 3 to 8) (size 9 to 14) (size 15 to 20)
#    0.000    2.000    2.500    0.375    3.500    1.750 
#    0.000    0.000    0.000    1.875    0.000    0.000 
#    0.000    0.000    0.000    0.000    0.000    0.000 
#
# Total GULP energy -178657.431446 kJ/mol
# GULP energy per Si atom -5583.044733 kJ/mol
# Density = 2.155603 g / cm^3
# Si number density = 21.605209 Si / 1000 Ang^3
#
#
#
# Elastic Constant Matrix: (Units=GPa)
#
#
# Indices 1 2 3 4 5 6 
#
# 1 83.5147 -2.4496 17.7758 -0.0050 2.7075 0.0153
# 2 -2.4496 45.3168 -10.8385 0.0136 6.5578 -0.0592
# 3 17.7758 -10.8385 104.5593 -0.0064 3.2361 -0.0004
# 4 -0.0050 0.0136 -0.0064 20.7864 -0.0039 -9.4597
# 5 2.7075 6.5578 3.2361 -0.0039 42.8815 -0.0020
# 6 0.0153 -0.0592 -0.0004 -9.4597 -0.0020 9.6284
#
#
#
# Elastic Compliance Matrix: (Units=1/GPa)
#
#
# Indices 1 2 3 4 5 6 
#
# 1 0.012444 0.000276 -0.002066 -0.000011 -0.000672 -0.000029
# 2 0.000276 0.023218 0.002476 0.000089 -0.003755 0.000229
# 3 -0.002066 0.002476 0.010203 0.000017 -0.001018 0.000035
# 4 -0.000011 0.000089 0.000017 0.087014 -0.000002 0.085490
# 5 -0.000672 -0.003755 -0.001018 -0.000002 0.024014 -0.000019
# 6 -0.000029 0.000229 0.000035 0.085490 -0.000019 0.187854
#
#
# Mechanical properties :
#
#
# Convention : Reuss Voigt Hill
#
# Bulk Modulus (GPa) = 21.17035 26.92957 24.04996
# Shear Modulus (GPa) = 13.92292 29.91946 21.92119
#
# Velocity S-wave (km/s) = 2.54130 3.72536 3.18877
# Velocity P-wave (km/s) = 4.29313 5.56739 4.97126
#
# Compressibility (1/GPa) = 0.04723588
#
# Stress axis : x y z
#
# Youngs Moduli (GPa) = 80.36271 43.07071 98.00667
#
# Poissons Ratio (x) = -0.01187 0.20249
# Poissons Ratio (y) = -0.02215 -0.24267
# Poissons Ratio (z) = 0.16604 -0.10665
#
# Static dielectric constant tensor:
#      x y z
#    x 1.784710 0.000070 0.016430 
#    y 0.000070 1.837960 0.000030 
#    z 0.016430 0.000030 1.750160 
# 
# From -- ./inp_files/378143.got.cif
#   From: 2010.05.17/outbox.cif.g08.bks.cpg/sg12_190_cif.got.tgz:378143.got - 2010.06.03 13:09:07.
