data_PCOD9187794
_publ_section_title
;
Structure prediction by ZEFSAII (Michael W. Deem and Ramdas Pophale) SiO2 
 PCOD9187794
Probable space group: C 2/M
;
_chemical_formula_sum "Si O2"
_cell_formula_units_Z 48
_cell_length_a 23.656680
_cell_length_b 12.694018
_cell_length_c 9.181787
_cell_angle_alpha 90.000000
_cell_angle_beta 117.770996
_cell_angle_gamma 90.000000
_cell_volume 2439.683867
_symmetry_space_group_name_H-M "C 2/M"
_symmetry_group_IT_number 12
_symmetry_cell_setting 'monoclinic'
loop_
_space_group_symop_operation_xyz
x,y,z
-x,y,-z
-x,-y,-z
x,-y,z
1/2+x,1/2+y,z
1/2-x,1/2+y,-z
1/2-x,1/2-y,-z
1/2+x,1/2-y,z
loop_
_atom_site_type_symbol
_atom_site_label
_atom_site_fract_x
_atom_site_fract_y
_atom_site_fract_z
Si Si1 0.503641 0.880784 0.329097
Si Si2 0.150913 0.618109 0.417232
Si Si3 0.331828 0.688311 0.381663
Si Si4 0.693064 0.117882 0.135138
Si Si5 0.938107 0.000000 0.219370
Si Si6 0.915727 0.000000 0.544614
Si Si7 0.607682 0.727408 0.853789
O O1 0.500000 0.871827 0.500000
O O2 0.576061 0.867647 0.363476
O O3 0.456696 0.794909 0.206560
O O4 0.483121 0.000000 0.266001
O O5 0.169336 0.500000 0.488460
O O6 0.186164 0.711027 0.544004
O O7 0.163450 0.623832 0.261049
O O8 0.268748 0.632796 0.244783
O O9 0.374109 0.604406 0.522164
O O10 0.373081 0.725988 0.293206
O O11 0.680128 0.000000 0.060023
O O12 0.662739 0.210648 0.004259
O O13 0.926468 0.000000 0.381238
O O14 0.906552 0.106679 0.121905
O O15 0.015067 0.000000 0.297788
#
# Coordination Sequence:
#
# PCOD9187794 Si02
#       7
#     8   8   8   8   4   4   8
#     4  10  19  35  61  90 115 145 198 251 292 351
#     4  10  22  38  61  90 118 154 199 245 302 355
#     4  11  20  39  61  86 116 160 206 245 288 355
#     4  11  24  41  57  85 126 163 197 240 303 364
#     4   9  20  34  57  91 119 149 203 251 297 349
#     4   9  18  34  63  87 113 154 202 255 289 335
#     4  11  22  37  61  89 120 157 196 250 304 350
#
# _framework density 19.674681
#
# number of rings (size 3 to 8) (size 9 to 14) (size 15 to 20)
#    0.000    1.667    2.500    2.500    2.333    1.333 
#    1.500    3.333    0.000    2.000    0.000    0.000 
#    0.000    0.000    0.000    0.000    0.000    0.000 
#
# Total GULP energy -134024.915145 kJ/mol
# GULP energy per Si atom -5584.371464 kJ/mol
# Density = 1.962990 g / cm^3
# Si number density = 19.674681 Si / 1000 Ang^3
#
#
#
# Elastic Constant Matrix: (Units=GPa)
#
#
# Indices 1 2 3 4 5 6 
#
# 1 47.3158 14.4585 -6.3517 0.0000 1.4647 0.0000
# 2 14.4585 173.4801 53.1054 0.0000 30.6849 0.0000
# 3 -6.3517 53.1054 28.4331 0.0000 20.7682 0.0000
# 4 0.0000 0.0000 0.0000 31.9630 0.0000 15.4749
# 5 1.4647 30.6849 20.7682 0.0000 35.1419 0.0000
# 6 0.0000 0.0000 0.0000 15.4749 0.0000 17.1763
#
#
#
# Elastic Compliance Matrix: (Units=1/GPa)
#
#
# Indices 1 2 3 4 5 6 
#
# 1 0.030911 -0.012537 0.040938 0.000000 -0.014535 0.000000
# 2 -0.012537 0.019169 -0.047083 0.000000 0.011610 0.000000
# 3 0.040938 -0.047083 0.182062 0.000000 -0.068190 0.000000
# 4 0.000000 0.000000 0.000000 0.055491 0.000000 -0.049994
# 5 -0.014535 0.011610 -0.068190 0.000000 0.059223 0.000000
# 6 0.000000 0.000000 0.000000 -0.049994 0.000000 0.103262
#
#
# Mechanical properties :
#
#
# Convention : Reuss Voigt Hill
#
# Bulk Modulus (GPa) = 5.13407 41.29484 23.21445
# Shear Modulus (GPa) = 9.05129 29.39068 19.22098
#
# Velocity S-wave (km/s) = 2.14720 3.86921 3.12899
# Velocity P-wave (km/s) = 2.96014 6.40276 4.98788
#
# Compressibility (1/GPa) = 0.19477709
#
# Stress axis : x y z
#
# Youngs Moduli (GPa) = 32.35081 52.16857 5.49265
#
# Poissons Ratio (x) = 0.65405 -0.22486
# Poissons Ratio (y) = 0.40559 0.25861
# Poissons Ratio (z) = -1.32438 2.45625
#
# Static dielectric constant tensor:
#      x y z
#    x 1.678870 0.000000 0.003930 
#    y 0.000000 1.720860 0.000000 
#    z 0.003930 0.000000 1.662930 
# 
# From -- ./inp_files/94936.got.cif
#   From: 2010.05.17/outbox.cif.g08.bks.cpg/sg12_48_cif.got.tgz:94936.got - 2010.06.03 13:09:07.
