data_PCOD9187092
_publ_section_title
;
Structure prediction by ZEFSAII (Michael W. Deem and Ramdas Pophale) SiO2 
 PCOD9187092
Probable space group: C 2/M
;
_chemical_formula_sum "Si O2"
_cell_formula_units_Z 56
_cell_length_a 24.525289
_cell_length_b 13.323045
_cell_length_c 29.563700
_cell_angle_alpha 90.000000
_cell_angle_beta 18.127060
_cell_angle_gamma 90.000000
_cell_volume 3005.465575
_symmetry_space_group_name_H-M "C 2/M"
_symmetry_group_IT_number 12
_symmetry_cell_setting 'monoclinic'
loop_
_space_group_symop_operation_xyz
x,y,z
-x,y,-z
-x,-y,-z
x,-y,z
1/2+x,1/2+y,z
1/2-x,1/2+y,-z
1/2-x,1/2-y,-z
1/2+x,1/2-y,z
loop_
_atom_site_type_symbol
_atom_site_label
_atom_site_fract_x
_atom_site_fract_y
_atom_site_fract_z
Si Si1 0.771426 0.617542 0.888377
Si Si2 0.721179 0.381571 0.599826
Si Si3 0.207052 0.115584 0.833710
Si Si4 0.065950 0.236898 0.119682
Si Si5 0.750357 0.381026 0.376296
Si Si6 0.834011 0.621326 0.411917
Si Si7 0.499924 0.208013 0.448765
O O1 0.747309 0.500000 0.920055
O O2 0.774446 0.622917 0.831919
O O3 0.963515 0.653298 0.752670
O O4 0.619553 0.683193 0.030623
O O5 0.703763 0.500000 0.611277
O O6 0.551710 0.335371 0.756736
O O7 0.753307 0.343921 0.523168
O O8 0.880638 0.354626 0.507638
O O9 0.306435 0.194451 0.723860
O O10 0.238066 0.000000 0.793412
O O11 0.000000 0.130910 0.000000
O O12 0.939128 0.333445 0.213437
O O13 0.250000 0.250000 0.000000
O O14 0.743607 0.500000 0.373688
O O15 0.737179 0.360846 0.440935
O O16 0.593912 0.316901 0.477549
O O17 0.844205 0.500000 0.407985
O O18 0.500000 0.169886 0.500000
#
# Coordination Sequence:
#
# PCOD9187092 Si02
#       7
#     8   8   8   8   8   8   8
#     4  10  19  35  57  85 123 154 180 225 291 360
#     4  10  21  36  57  89 122 149 183 233 293 355
#     4  10  22  38  59  87 121 155 181 225 297 364
#     4  11  22  33  54  89 118 153 188 231 285 345
#     4  10  23  41  61  82 113 158 205 248 289 330
#     4   9  17  35  61  85 113 150 187 228 288 354
#     4  11  24  39  60  88 112 152 202 245 282 344
#
# _framework density 18.632719000000002
#
# number of rings (size 3 to 8) (size 9 to 14) (size 15 to 20)
#    0.000    1.857    2.857    0.857    4.000    5.429 
#    0.000    0.000    0.000    1.286    0.000    0.000 
#    0.000    0.000    0.000    0.000    0.000    0.000 
#
# Total GULP energy -156211.660096 kJ/mol
# GULP energy per Si atom -5578.987861 kJ/mol
# Density = 1.859031 g / cm^3
# Si number density = 18.632719 Si / 1000 Ang^3
#
#
#
# Elastic Constant Matrix: (Units=GPa)
#
#
# Indices 1 2 3 4 5 6 
#
# 1 58.4100 -2.0810 28.2329 -0.0092 4.2583 -0.0055
# 2 -2.0810 74.8090 40.4319 -0.0137 1.1565 -0.0021
# 3 28.2329 40.4319 109.1765 0.0269 11.7117 -0.0042
# 4 -0.0092 -0.0137 0.0269 23.0084 -0.0145 -3.4015
# 5 4.2583 1.1565 11.7117 -0.0145 30.8601 0.0033
# 6 -0.0055 -0.0021 -0.0042 -3.4015 0.0033 19.3480
#
#
#
# Elastic Compliance Matrix: (Units=1/GPa)
#
#
# Indices 1 2 3 4 5 6 
#
# 1 0.020631 0.004301 -0.006886 0.000020 -0.000395 0.000008
# 2 0.004301 0.017705 -0.007854 0.000023 0.001724 0.000005
# 3 -0.006886 -0.007854 0.014297 -0.000027 -0.004182 -0.000004
# 4 0.000020 0.000023 -0.000027 0.044622 0.000027 0.007845
# 5 -0.000395 0.001724 -0.004182 0.000027 0.033981 -0.000002
# 6 0.000008 0.000005 -0.000004 0.007845 -0.000002 0.053064
#
#
# Mechanical properties :
#
#
# Convention : Reuss Voigt Hill
#
# Bulk Modulus (GPa) = 31.48955 41.72923 36.60939
# Shear Modulus (GPa) = 23.17357 26.36408 24.76883
#
# Velocity S-wave (km/s) = 3.53044 3.76564 3.64994
# Velocity P-wave (km/s) = 5.79271 6.43048 6.11991
#
# Compressibility (1/GPa) = 0.03175656
#
# Stress axis : x y z
#
# Youngs Moduli (GPa) = 48.47161 56.48024 69.94306
#
# Poissons Ratio (x) = -0.24295 0.48161
# Poissons Ratio (y) = -0.20850 0.54934
# Poissons Ratio (z) = 0.33376 0.44360
#
# Static dielectric constant tensor:
#      x y z
#    x 1.691700 0.000000 -0.010460 
#    y 0.000000 1.681530 0.000010 
#    z -0.010460 0.000010 1.654190 
# 
# From -- ./inp_files/368067.got.cif
#   From: 2010.05.17/outbox.cif.g08.bks.cpg/sg12_185_cif.got.tgz:368067.got - 2010.06.03 13:09:07.
