data_PCOD9187772
_publ_section_title
;
Structure prediction by ZEFSAII (Michael W. Deem and Ramdas Pophale) SiO2 
 PCOD9187772
Probable space group: C 2/M
;
_chemical_formula_sum "Si O2"
_cell_formula_units_Z 56
_cell_length_a 8.382373
_cell_length_b 23.486396
_cell_length_c 13.858757
_cell_angle_alpha 90.000000
_cell_angle_beta 70.247824
_cell_angle_gamma 90.000000
_cell_volume 2567.867261
_symmetry_space_group_name_H-M "C 2/M"
_symmetry_group_IT_number 12
_symmetry_cell_setting 'monoclinic'
loop_
_space_group_symop_operation_xyz
x,y,z
-x,y,-z
-x,-y,-z
x,-y,z
1/2+x,1/2+y,z
1/2-x,1/2+y,-z
1/2-x,1/2-y,-z
1/2+x,1/2-y,z
loop_
_atom_site_type_symbol
_atom_site_label
_atom_site_fract_x
_atom_site_fract_y
_atom_site_fract_z
Si Si1 0.848448 0.691313 0.454462
Si Si2 0.624275 0.934997 0.567073
Si Si3 0.121612 0.563151 0.198814
Si Si4 0.103793 0.730892 0.768772
Si Si5 0.361119 0.168568 0.944774
Si Si6 0.009411 0.937135 0.114553
Si Si7 0.388562 0.678457 0.846123
O O1 0.750000 0.750000 0.500000
O O2 0.775369 0.625885 0.465266
O O3 0.906476 0.706580 0.335093
O O4 0.000000 0.688523 0.500000
O O5 0.500000 0.937289 0.500000
O O6 0.508107 0.927133 0.686899
O O7 0.298420 0.000000 0.442535
O O8 0.086886 0.500000 0.166403
O O9 0.123499 0.609975 0.115406
O O10 0.317161 0.562959 0.192665
O O11 0.259031 0.702270 0.792555
O O12 0.928875 0.714666 0.856933
O O13 0.078441 0.798704 0.784762
O O14 0.500000 0.167134 0.000000
O O15 0.185921 0.186075 0.030023
O O16 0.109256 0.890047 0.153175
O O17 0.083204 0.000000 0.108991
O O18 0.000000 0.925538 0.000000
#
# Coordination Sequence:
#
# PCOD9187772 Si02
#       7
#     8   8   8   8   8   8   8
#     4  11  23  41  67  94 126 164 207 265 323 379
#     4   9  19  37  63  92 119 154 206 261 310 367
#     4  10  19  35  61  88 120 162 206 258 308 370
#     4  11  24  41  58  91 126 163 214 255 316 379
#     4  10  21  36  54  85 126 161 204 253 306 369
#     4  10  21  37  60  88 123 167 213 258 313 374
#     4  11  24  38  61  85 125 170 205 260 310 375
#
# _framework density 21.807980000000001
#
# number of rings (size 3 to 8) (size 9 to 14) (size 15 to 20)
#    0.000    1.714    2.857    1.286    2.000    4.286 
#    0.000    2.857    0.000    0.429    0.000    0.000 
#    0.000    0.000    0.000    0.000    0.000    0.000 
#
# Total GULP energy -155957.086054 kJ/mol
# GULP energy per Si atom -5569.895931 kJ/mol
# Density = 2.175834 g / cm^3
# Si number density = 21.807980 Si / 1000 Ang^3
#
#
#
# Elastic Constant Matrix: (Units=GPa)
#
#
# Indices 1 2 3 4 5 6 
#
# 1 49.9904 31.8939 19.6060 0.0000 12.8784 0.0000
# 2 31.8939 177.0021 42.1311 0.0000 6.6600 0.0000
# 3 19.6060 42.1311 74.7782 0.0000 28.1162 0.0000
# 4 0.0000 0.0000 0.0000 29.6278 0.0000 3.6754
# 5 12.8784 6.6600 28.1162 0.0000 18.5735 0.0000
# 6 0.0000 0.0000 0.0000 3.6754 0.0000 19.3257
#
#
#
# Elastic Compliance Matrix: (Units=1/GPa)
#
#
# Indices 1 2 3 4 5 6 
#
# 1 0.027863 -0.005303 0.005180 0.000000 -0.025259 0.000000
# 2 -0.005303 0.008016 -0.007956 0.000000 0.012846 0.000000
# 3 0.005180 -0.007956 0.038937 0.000000 -0.059680 0.000000
# 4 0.000000 0.000000 0.000000 0.034568 0.000000 -0.006574
# 5 -0.025259 0.012846 -0.059680 0.000000 0.157091 0.000000
# 6 0.000000 0.000000 0.000000 -0.006574 0.000000 0.052995
#
#
# Mechanical properties :
#
#
# Convention : Reuss Voigt Hill
#
# Bulk Modulus (GPa) = 17.04831 54.33696 35.69263
# Shear Modulus (GPa) = 14.07742 27.38139 20.72940
#
# Velocity S-wave (km/s) = 2.54346 3.54724 3.08643
# Velocity P-wave (km/s) = 4.05709 6.46122 5.39479
#
# Compressibility (1/GPa) = 0.05865685
#
# Stress axis : x y z
#
# Youngs Moduli (GPa) = 35.89001 124.75804 25.68273
#
# Poissons Ratio (x) = 0.66160 -0.13303
# Poissons Ratio (y) = 0.19033 0.20432
# Poissons Ratio (z) = -0.18590 0.99254
#
# Static dielectric constant tensor:
#      x y z
#    x 1.796660 0.000000 -0.042920 
#    y 0.000000 2.461420 0.000000 
#    z -0.042920 0.000000 1.797060 
# 
# From -- ./inp_files/198353.got.cif
#   From: 2010.05.17/outbox.cif.g08.bks.cpg/sg12_100_cif.got.tgz:198353.got - 2010.06.03 13:09:07.
