data_PCOD9187042
_publ_section_title
;
Structure prediction by ZEFSAII (Michael W. Deem and Ramdas Pophale) SiO2 
 PCOD9187042
Probable space group: C 2/M
;
_chemical_formula_sum "Si O2"
_cell_formula_units_Z 56
_cell_length_a 30.474652
_cell_length_b 9.106346
_cell_length_c 11.488018
_cell_angle_alpha 90.000000
_cell_angle_beta 66.773532
_cell_angle_gamma 90.000000
_cell_volume 2929.688402
_symmetry_space_group_name_H-M "C 2/M"
_symmetry_group_IT_number 12
_symmetry_cell_setting 'monoclinic'
loop_
_space_group_symop_operation_xyz
x,y,z
-x,y,-z
-x,-y,-z
x,-y,z
1/2+x,1/2+y,z
1/2-x,1/2+y,-z
1/2-x,1/2-y,-z
1/2+x,1/2-y,z
loop_
_atom_site_type_symbol
_atom_site_label
_atom_site_fract_x
_atom_site_fract_y
_atom_site_fract_z
Si Si1 0.634009 0.174239 0.327663
Si Si2 0.293738 0.832447 0.331984
Si Si3 0.025944 0.675325 0.090435
Si Si4 0.814354 0.828905 0.542118
Si Si5 0.028074 0.678305 0.353641
Si Si6 0.360759 0.832998 0.039168
Si Si7 0.200437 0.827957 0.078609
O O1 0.643506 0.232753 0.446933
O O2 0.583409 0.212355 0.322929
O O3 0.675334 0.255333 0.214696
O O4 0.639069 0.000000 0.318412
O O5 0.239193 0.801683 0.350183
O O6 0.307743 0.717749 0.415711
O O7 0.332110 0.830269 0.189566
O O8 0.292666 0.000000 0.381545
O O9 0.015473 0.500000 0.104919
O O10 0.014929 0.729674 0.235242
O O11 0.082813 0.691259 0.011873
O O12 0.000000 0.733693 0.000000
O O13 0.825078 0.000000 0.545436
O O14 0.023571 0.500000 0.355630
O O15 0.000000 0.728356 0.500000
O O16 0.354323 0.000000 0.995918
O O17 0.335979 0.711906 0.986175
O O18 0.207350 0.000000 0.087074
O O19 0.250000 0.750000 0.000000
#
# Coordination Sequence:
#
# PCOD9187042 Si02
#       7
#     8   8   8   8   8   8   8
#     4  11  21  36  58  84 116 151 193 245 298 352
#     4   9  19  34  53  77 108 149 193 239 289 347
#     4   9  17  31  54  84 116 150 194 252 307 355
#     4  10  20  34  52  78 114 152 192 237 289 355
#     4   9  18  33  55  85 118 150 192 250 307 356
#     4  10  19  35  57  83 114 149 196 248 296 349
#     4  12  24  37  57  85 118 156 196 238 295 360
#
# _framework density 19.114659
#
# number of rings (size 3 to 8) (size 9 to 14) (size 15 to 20)
#    0.000    2.000    1.429    3.000    0.000    3.429 
#    0.000    4.286    0.000    2.143    0.000    0.000 
#    0.000    0.000    0.000    0.000    0.000    0.000 
#
# Total GULP energy -156080.625115 kJ/mol
# GULP energy per Si atom -5574.308040 kJ/mol
# Density = 1.907115 g / cm^3
# Si number density = 19.114659 Si / 1000 Ang^3
#
#
#
# Elastic Constant Matrix: (Units=GPa)
#
#
# Indices 1 2 3 4 5 6 
#
# 1 90.4452 35.4543 37.7420 0.0000 28.8956 0.0000
# 2 35.4543 51.6170 18.3048 0.0000 5.7756 0.0000
# 3 37.7420 18.3048 89.8333 0.0000 15.7871 0.0000
# 4 0.0000 0.0000 0.0000 22.1158 0.0000 4.3863
# 5 28.8956 5.7756 15.7871 0.0000 16.9241 0.0000
# 6 0.0000 0.0000 0.0000 4.3863 0.0000 21.1776
#
#
#
# Elastic Compliance Matrix: (Units=1/GPa)
#
#
# Indices 1 2 3 4 5 6 
#
# 1 0.036129 -0.018084 -0.002079 0.000000 -0.053575 0.000000
# 2 -0.018084 0.030138 -0.002586 0.000000 0.023003 0.000000
# 3 -0.002079 -0.002586 0.014058 0.000000 -0.008681 0.000000
# 4 0.000000 0.000000 0.000000 0.047154 0.000000 -0.009767
# 5 -0.053575 0.023003 -0.008681 0.000000 0.150807 0.000000
# 6 0.000000 0.000000 0.000000 -0.009767 0.000000 0.049243
#
#
# Mechanical properties :
#
#
# Convention : Reuss Voigt Hill
#
# Bulk Modulus (GPa) = 28.71356 46.09975 37.40666
# Shear Modulus (GPa) = 12.99933 21.40311 17.20122
#
# Velocity S-wave (km/s) = 2.61065 3.34986 3.00308
# Velocity P-wave (km/s) = 4.91342 6.25555 5.62466
#
# Compressibility (1/GPa) = 0.03482675
#
# Stress axis : x y z
#
# Youngs Moduli (GPa) = 27.67855 33.18063 71.13531
#
# Poissons Ratio (x) = 0.60004 0.14789
# Poissons Ratio (y) = 0.50054 0.18395
# Poissons Ratio (z) = 0.05755 0.08580
#
# Static dielectric constant tensor:
#      x y z
#    x 1.671610 0.000000 0.061300 
#    y 0.000000 1.643070 0.000000 
#    z 0.061300 0.000000 1.835990 
# 
# From -- ./inp_files/181152.got.cif
#   From: 2010.05.17/outbox.cif.g08.bks.cpg/sg12_91_cif.got.tgz:181152.got - 2010.06.03 13:09:07.
