data_PCOD9187038
_publ_section_title
;
Structure prediction by ZEFSAII (Michael W. Deem and Ramdas Pophale) SiO2 
 PCOD9187038
Probable space group: C 2/M
;
_chemical_formula_sum "Si O2"
_cell_formula_units_Z 64
_cell_length_a 20.813370
_cell_length_b 8.597749
_cell_length_c 22.661545
_cell_angle_alpha 90.000000
_cell_angle_beta 63.285683
_cell_angle_gamma 90.000000
_cell_volume 3622.380978
_symmetry_space_group_name_H-M "C 2/M"
_symmetry_group_IT_number 12
_symmetry_cell_setting 'monoclinic'
loop_
_space_group_symop_operation_xyz
x,y,z
-x,y,-z
-x,-y,-z
x,-y,z
1/2+x,1/2+y,z
1/2-x,1/2+y,-z
1/2-x,1/2-y,-z
1/2+x,1/2-y,z
loop_
_atom_site_type_symbol
_atom_site_label
_atom_site_fract_x
_atom_site_fract_y
_atom_site_fract_z
Si Si1 0.243274 0.186833 0.177971
Si Si2 0.596748 0.810767 0.907612
Si Si3 0.441366 0.189022 0.942919
Si Si4 0.861694 0.812754 0.440081
Si Si5 0.013883 0.811966 0.426147
Si Si6 0.331731 0.184450 0.675532
Si Si7 0.305443 0.187464 0.928115
Si Si8 0.756765 0.185471 0.592318
O O1 0.326644 0.240387 0.148552
O O2 0.197015 0.246358 0.251559
O O3 0.214174 0.247838 0.127621
O O4 0.242540 0.000000 0.177480
O O5 0.524071 0.758265 0.904845
O O6 0.596590 0.000000 0.906728
O O7 0.587978 0.765574 0.980077
O O8 0.384959 0.237729 0.916801
O O9 0.442335 0.000000 0.942248
O O10 0.944005 0.765658 0.416884
O O11 0.816115 0.771815 0.517846
O O12 0.819414 0.738371 0.402983
O O13 0.858981 0.000000 0.435588
O O14 0.000000 0.766264 0.500000
O O15 0.088465 0.744817 0.372437
O O16 0.018562 0.000000 0.423297
O O17 0.279752 0.237728 0.643794
O O18 0.332589 0.000000 0.678702
O O19 0.302254 0.000000 0.928920
O O20 0.250000 0.250000 0.000000
O O21 0.758302 0.000000 0.598533
#
# Coordination Sequence:
#
# PCOD9187038 Si02
#       8
#     8   8   8   8   8   8   8   8
#     4  11  22  38  58  80 109 150 191 232 290 349
#     4   8  14  28  52  80 105 135 179 226 271 323
#     4   8  14  27  51  82 109 133 174 228 273 317
#     4   9  18  33  57  87 116 143 181 234 286 333
#     4  10  19  37  61  86 116 150 189 237 292 344
#     4  12  25  39  56  82 116 154 196 240 289 347
#     4  11  20  33  55  84 115 147 184 232 283 338
#     4  10  19  35  57  83 114 149 187 229 282 342
#
# _framework density 17.667936999999998
#
# number of rings (size 3 to 8) (size 9 to 14) (size 15 to 20)
#    0.000    2.125    2.500    3.000    0.000    1.250 
#    0.000    1.250    0.000    8.250    0.000    0.000 
#    0.000    0.000    0.000    0.000    0.000    0.000 
#
# Total GULP energy -178545.123052 kJ/mol
# GULP energy per Si atom -5579.535095 kJ/mol
# Density = 1.762772 g / cm^3
# Si number density = 17.667937 Si / 1000 Ang^3
#
#
#
# Elastic Constant Matrix: (Units=GPa)
#
#
# Indices 1 2 3 4 5 6 
#
# 1 180.4422 46.3509 90.1226 0.0001 -5.9839 0.0003
# 2 46.3509 44.8406 38.8326 0.0003 0.5813 0.0008
# 3 90.1226 38.8326 125.8259 0.0000 -4.1794 0.0000
# 4 0.0001 0.0003 0.0000 20.6889 0.0000 3.7074
# 5 -5.9839 0.5813 -4.1794 0.0000 23.7779 0.0001
# 6 0.0003 0.0008 0.0000 3.7074 0.0001 26.8183
#
#
#
# Elastic Compliance Matrix: (Units=1/GPa)
#
#
# Indices 1 2 3 4 5 6 
#
# 1 0.009548 -0.005480 -0.005093 0.000000 0.001642 0.000000
# 2 -0.005480 0.033719 -0.006593 0.000000 -0.003362 -0.000001
# 3 -0.005093 -0.006593 0.013672 0.000000 0.001283 0.000000
# 4 0.000000 0.000000 0.000000 0.049563 0.000000 -0.006852
# 5 0.001642 -0.003362 0.001283 0.000000 0.042777 0.000000
# 6 0.000000 -0.000001 0.000000 -0.006852 0.000000 0.038235
#
#
# Mechanical properties :
#
#
# Convention : Reuss Voigt Hill
#
# Bulk Modulus (GPa) = 44.23280 77.96899 61.10090
# Shear Modulus (GPa) = 21.79773 25.97718 23.88745
#
# Velocity S-wave (km/s) = 3.51628 3.83861 3.68098
# Velocity P-wave (km/s) = 6.44792 7.99203 7.26114
#
# Compressibility (1/GPa) = 0.02260766
#
# Stress axis : x y z
#
# Youngs Moduli (GPa) = 104.73784 29.65665 73.13991
#
# Poissons Ratio (x) = 0.16252 0.37248
# Poissons Ratio (y) = 0.57399 0.48221
# Poissons Ratio (z) = 0.53339 0.19553
#
# Static dielectric constant tensor:
#      x y z
#    x 1.620920 0.000000 -0.010520 
#    y 0.000000 1.600260 0.000000 
#    z -0.010520 0.000000 1.566450 
# 
# From -- ./inp_files/319777.got.cif
#   From: 2010.05.17/outbox.cif.g08.bks.cpg/sg12_160_cif.got.tgz:319777.got - 2010.06.03 13:09:07.
