data_PCOD9187219
_publ_section_title
;
Structure prediction by ZEFSAII (Michael W. Deem and Ramdas Pophale) SiO2 
 PCOD9187219
Probable space group: C 2/M
;
_chemical_formula_sum "Si O2"
_cell_formula_units_Z 64
_cell_length_a 30.886235
_cell_length_b 8.546011
_cell_length_c 16.587386
_cell_angle_alpha 90.000000
_cell_angle_beta 132.916581
_cell_angle_gamma 90.000000
_cell_volume 3206.436238
_symmetry_space_group_name_H-M "C 2/M"
_symmetry_group_IT_number 12
_symmetry_cell_setting 'monoclinic'
loop_
_space_group_symop_operation_xyz
x,y,z
-x,y,-z
-x,-y,-z
x,-y,z
1/2+x,1/2+y,z
1/2-x,1/2+y,-z
1/2-x,1/2-y,-z
1/2+x,1/2-y,z
loop_
_atom_site_type_symbol
_atom_site_label
_atom_site_fract_x
_atom_site_fract_y
_atom_site_fract_z
Si Si1 0.453839 0.690655 0.372471
Si Si2 0.841308 0.312466 0.777527
Si Si3 0.226215 0.311823 0.053934
Si Si4 0.875884 0.187474 0.651652
Si Si5 0.106910 0.310721 0.984721
Si Si6 0.497407 0.688835 0.252413
Si Si7 0.833167 0.810868 0.303710
Si Si8 0.709024 0.185415 0.586845
O O1 0.500000 0.738911 0.500000
O O2 0.454314 0.500000 0.370800
O O3 0.473402 0.745561 0.308833
O O4 0.388608 0.737242 0.319039
O O5 0.838139 0.500000 0.774857
O O6 0.873982 0.255237 0.738902
O O7 0.774448 0.249366 0.687829
O O8 0.874434 0.262267 0.901426
O O9 0.225733 0.500000 0.050699
O O10 0.272720 0.266484 0.182076
O O11 0.250000 0.250000 0.000000
O O12 0.160704 0.258841 0.994540
O O13 0.819324 0.244342 0.529698
O O14 0.935691 0.238394 0.681788
O O15 0.874874 0.000000 0.654211
O O16 0.104266 0.500000 0.980111
O O17 0.046469 0.244423 0.873238
O O18 0.497067 0.500000 0.254174
O O19 0.832135 0.737097 0.390528
O O20 0.834860 0.000000 0.314616
O O21 0.711474 0.000000 0.583222
#
# Coordination Sequence:
#
# PCOD9187219 Si02
#       8
#     8   8   8   8   8   8   8   8
#     4   9  17  32  57  87 117 157 205 248 296 353
#     4  11  23  43  66  89 121 161 204 249 306 367
#     4  10  20  35  55  83 116 157 202 245 299 355
#     4  11  24  42  64  91 122 158 202 253 308 365
#     4  10  22  40  61  85 121 162 201 250 305 362
#     4  10  22  40  63  90 121 161 207 253 300 360
#     4  10  19  35  58  83 119 160 200 246 298 359
#     4  12  24  39  62  93 125 158 201 253 309 366
#
# _framework density 19.959855999999998
#
# number of rings (size 3 to 8) (size 9 to 14) (size 15 to 20)
#    0.000    1.625    1.250    3.750    0.000    6.500 
#    0.000    3.125    0.000    1.500    0.000    0.000 
#    0.000    0.000    0.000    0.000    0.000    0.000 
#
# Total GULP energy -178867.039309 kJ/mol
# GULP energy per Si atom -5589.594978 kJ/mol
# Density = 1.991443 g / cm^3
# Si number density = 19.959856 Si / 1000 Ang^3
#
#
#
# Elastic Constant Matrix: (Units=GPa)
#
#
# Indices 1 2 3 4 5 6 
#
# 1 87.6595 18.2461 24.5312 0.0000 -8.0456 0.0000
# 2 18.2461 31.0112 17.4186 0.0000 -2.9508 0.0000
# 3 24.5312 17.4186 109.1829 0.0000 -5.0077 0.0000
# 4 0.0000 0.0000 0.0000 26.4801 0.0000 -5.9281
# 5 -8.0456 -2.9508 -5.0077 0.0000 39.9908 0.0000
# 6 0.0000 0.0000 0.0000 -5.9281 0.0000 28.4041
#
#
#
# Elastic Compliance Matrix: (Units=1/GPa)
#
#
# Indices 1 2 3 4 5 6 
#
# 1 0.013511 -0.006707 -0.001874 0.000000 0.001989 0.000000
# 2 -0.006707 0.038897 -0.004655 0.000000 0.000938 0.000000
# 3 -0.001874 -0.004655 0.010349 0.000000 0.000575 0.000000
# 4 0.000000 0.000000 0.000000 0.039615 0.000000 0.008268
# 5 0.001989 0.000938 0.000575 0.000000 0.025547 0.000000
# 6 0.000000 0.000000 0.000000 0.008268 0.000000 0.036932
#
#
# Mechanical properties :
#
#
# Convention : Reuss Voigt Hill
#
# Bulk Modulus (GPa) = 27.56137 38.69393 33.12765
# Shear Modulus (GPa) = 24.57973 30.15220 27.36596
#
# Velocity S-wave (km/s) = 3.51302 3.89091 3.70679
# Velocity P-wave (km/s) = 5.50395 6.29393 5.91215
#
# Compressibility (1/GPa) = 0.03628267
#
# Stress axis : x y z
#
# Youngs Moduli (GPa) = 74.01398 25.70894 96.62614
#
# Poissons Ratio (x) = 0.17244 0.18111
# Poissons Ratio (y) = 0.49644 0.44984
# Poissons Ratio (z) = 0.13873 0.11969
#
# Static dielectric constant tensor:
#      x y z
#    x 1.709560 0.000000 -0.003380 
#    y 0.000000 1.682630 0.000000 
#    z -0.003380 0.000000 1.688060 
# 
# From -- ./inp_files/249943.got.cif
#   From: 2010.05.17/outbox.cif.g08.bks.cpg/sg12_125_cif.got.tgz:249943.got - 2010.06.03 13:09:07.
