data_PCOD9187417
_publ_section_title
;
Structure prediction by ZEFSAII (Michael W. Deem and Ramdas Pophale) SiO2 
 PCOD9187417
Probable space group: C 2/M
;
_chemical_formula_sum "Si O2"
_cell_formula_units_Z 64
_cell_length_a 16.108347
_cell_length_b 8.011334
_cell_length_c 31.751278
_cell_angle_alpha 90.000000
_cell_angle_beta 50.703607
_cell_angle_gamma 90.000000
_cell_volume 3170.959493
_symmetry_space_group_name_H-M "C 2/M"
_symmetry_group_IT_number 12
_symmetry_cell_setting 'monoclinic'
loop_
_space_group_symop_operation_xyz
x,y,z
-x,y,-z
-x,-y,-z
x,-y,z
1/2+x,1/2+y,z
1/2-x,1/2+y,-z
1/2-x,1/2-y,-z
1/2+x,1/2-y,z
loop_
_atom_site_type_symbol
_atom_site_label
_atom_site_fract_x
_atom_site_fract_y
_atom_site_fract_z
Si Si1 0.098045 0.303167 0.941554
Si Si2 0.507409 0.299232 0.564858
Si Si3 0.826444 0.795729 0.560057
Si Si4 0.285828 0.200365 0.941846
Si Si5 0.999668 0.700740 0.827548
Si Si6 0.314729 0.205219 0.175003
Si Si7 0.417272 0.801726 0.367648
Si Si8 0.928193 0.198461 0.757441
O O1 0.074516 0.500000 0.943397
O O2 0.204197 0.280752 0.935024
O O3 0.123131 0.237425 0.887087
O O4 0.000000 0.229227 0.000000
O O5 0.506289 0.500000 0.563910
O O6 0.396648 0.243291 0.578157
O O7 0.604849 0.243943 0.503016
O O8 0.528844 0.248440 0.605589
O O9 0.704549 0.734383 0.597296
O O10 0.824772 0.000000 0.560749
O O11 0.405454 0.253366 0.890070
O O12 0.279714 0.000000 0.940199
O O13 0.250000 0.250000 0.000000
O O14 0.001387 0.500000 0.827780
O O15 0.968890 0.751894 0.790521
O O16 0.114738 0.758464 0.807754
O O17 0.192261 0.264414 0.212386
O O18 0.312571 0.000000 0.175018
O O19 0.490141 0.751471 0.304982
O O20 0.408426 0.000000 0.370427
O O21 0.920795 0.000000 0.758986
#
# Coordination Sequence:
#
# PCOD9187417 Si02
#       8
#     8   8   8   8   8   8   8   8
#     4  10  19  35  59  84 113 147 185 228 278 342
#     4   9  17  35  60  85 112 149 195 235 275 333
#     4   8  17  34  58  84 115 153 190 230 281 340
#     4  11  22  35  56  85 118 147 182 229 285 346
#     4  10  21  40  62  83 108 145 187 233 285 339
#     4   9  19  37  60  81 107 145 186 225 280 343
#     4  11  22  36  55  83 117 151 188 234 289 338
#     4  11  23  40  59  81 110 150 196 240 279 334
#
# _framework density 20.183166
#
# number of rings (size 3 to 8) (size 9 to 14) (size 15 to 20)
#    0.000    2.125    1.250    3.000    0.000    3.750 
#    0.000   10.000    0.000    0.000    0.000    0.000 
#    0.000    0.000    0.000    0.000    0.000    0.000 
#
# Total GULP energy -178655.149470 kJ/mol
# GULP energy per Si atom -5582.973421 kJ/mol
# Density = 2.013723 g / cm^3
# Si number density = 20.183166 Si / 1000 Ang^3
#
#
#
# Elastic Constant Matrix: (Units=GPa)
#
#
# Indices 1 2 3 4 5 6 
#
# 1 206.2804 -2.0314 107.5067 0.0023 8.6399 0.0015
# 2 -2.0314 9.2429 6.6968 0.0050 2.0698 0.0039
# 3 107.5067 6.6968 136.9867 0.0017 16.5153 0.0001
# 4 0.0023 0.0050 0.0017 15.6962 -0.0014 0.9643
# 5 8.6399 2.0698 16.5153 -0.0014 19.5109 -0.0007
# 6 0.0015 0.0039 0.0001 0.9643 -0.0007 24.9788
#
#
#
# Elastic Compliance Matrix: (Units=1/GPa)
#
#
# Indices 1 2 3 4 5 6 
#
# 1 0.008671 0.006854 -0.007338 -0.000002 0.001645 -0.000001
# 2 0.006854 0.118739 -0.010356 -0.000037 -0.006866 -0.000018
# 3 -0.007338 -0.010356 0.014523 0.000002 -0.007945 0.000002
# 4 -0.000002 -0.000037 0.000002 0.063861 0.000008 -0.002465
# 5 0.001645 -0.006866 -0.007945 0.000008 0.057979 0.000002
# 6 -0.000001 -0.000018 0.000002 -0.002465 0.000002 0.040129
#
#
# Mechanical properties :
#
#
# Convention : Reuss Voigt Hill
#
# Bulk Modulus (GPa) = 8.31582 64.09490 36.20536
# Shear Modulus (GPa) = 13.67365 28.05968 20.86666
#
# Velocity S-wave (km/s) = 2.60566 3.73265 3.21886
# Velocity P-wave (km/s) = 3.63067 7.09947 5.63845
#
# Compressibility (1/GPa) = 0.12025266
#
# Stress axis : x y z
#
# Youngs Moduli (GPa) = 115.32940 8.42183 68.85565
#
# Poissons Ratio (x) = -0.05772 0.50528
# Poissons Ratio (y) = -0.79049 0.71308
# Poissons Ratio (z) = 0.84631 0.08722
#
# Static dielectric constant tensor:
#      x y z
#    x 1.722630 0.000000 -0.035590 
#    y 0.000000 1.743900 0.000000 
#    z -0.035590 0.000000 1.654570 
# 
# From -- ./inp_files/375092.got.cif
#   From: 2010.05.17/outbox.cif.g08.bks.cpg/sg12_188_cif.got.tgz:375092.got - 2010.06.03 13:09:07.
