data_PCOD9187111
_publ_section_title
;
Structure prediction by ZEFSAII (Michael W. Deem and Ramdas Pophale) SiO2 
 PCOD9187111
Probable space group: C 2/M
;
_chemical_formula_sum "Si O2"
_cell_formula_units_Z 56
_cell_length_a 16.997179
_cell_length_b 15.104442
_cell_length_c 27.319857
_cell_angle_alpha 90.000000
_cell_angle_beta 22.503865
_cell_angle_gamma 90.000000
_cell_volume 2684.542828
_symmetry_space_group_name_H-M "C 2/M"
_symmetry_group_IT_number 12
_symmetry_cell_setting 'monoclinic'
loop_
_space_group_symop_operation_xyz
x,y,z
-x,y,-z
-x,-y,-z
x,-y,z
1/2+x,1/2+y,z
1/2-x,1/2+y,-z
1/2-x,1/2-y,-z
1/2+x,1/2-y,z
loop_
_atom_site_type_symbol
_atom_site_label
_atom_site_fract_x
_atom_site_fract_y
_atom_site_fract_z
Si Si1 0.116871 0.744761 0.625897
Si Si2 0.479693 0.599296 0.250819
Si Si3 0.749294 0.405114 0.720698
Si Si4 0.309154 0.724576 0.725675
Si Si5 0.405009 0.395696 0.500644
Si Si6 0.106054 0.905020 0.992322
Si Si7 0.615411 0.790135 0.985774
O O1 0.250000 0.750000 0.500000
O O2 0.198972 0.661106 0.608820
O O3 0.132163 0.832698 0.649029
O O4 0.889517 0.746987 0.733364
O O5 0.490722 0.500000 0.264695
O O6 0.360378 0.596592 0.268360
O O7 0.706787 0.638383 0.111270
O O8 0.863866 0.500000 0.659279
O O9 0.858900 0.311500 0.664793
O O10 0.575018 0.405044 0.863150
O O11 0.431427 0.642676 0.632661
O O12 0.068174 0.704272 0.868946
O O13 0.500000 0.380318 0.500000
O O14 0.370571 0.500000 0.514161
O O15 0.210155 0.809144 0.936928
O O16 0.218971 0.000000 0.932597
O O17 0.000000 0.904983 0.000000
O O18 0.500000 0.800635 0.000000
#
# Coordination Sequence:
#
# PCOD9187111 Si02
#       7
#     8   8   8   8   8   8   8
#     4  10  22  40  60  85 115 153 202 246 300 361
#     4  11  23  39  60  88 126 162 202 253 307 369
#     4   9  19  35  57  87 120 161 203 245 300 353
#     4  10  20  37  63  90 122 157 198 254 302 363
#     4  10  22  41  63  86 116 155 201 253 304 358
#     4   8  15  29  51  77 114 157 194 232 277 339
#     4  10  19  35  57  91 124 158 199 241 304 365
#
# _framework density 20.860163
#
# number of rings (size 3 to 8) (size 9 to 14) (size 15 to 20)
#    0.000    2.286    1.429    0.857    0.000    6.000 
#    0.000    2.857    0.000   13.714    0.000    0.000 
#    0.000    0.000    0.000    0.000    0.000    0.000 
#
# Total GULP energy -156120.952830 kJ/mol
# GULP energy per Si atom -5575.748315 kJ/mol
# Density = 2.081268 g / cm^3
# Si number density = 20.860163 Si / 1000 Ang^3
#
#
#
# Elastic Constant Matrix: (Units=GPa)
#
#
# Indices 1 2 3 4 5 6 
#
# 1 76.9285 54.4426 17.2101 0.0649 5.1290 0.0888
# 2 54.4426 175.3893 33.8537 0.1014 -0.6311 0.1211
# 3 17.2101 33.8537 77.5063 -0.0734 5.0431 0.0271
# 4 0.0649 0.1014 -0.0734 85.9162 0.0307 70.1912
# 5 5.1290 -0.6311 5.0431 0.0307 13.1503 -0.0360
# 6 0.0888 0.1211 0.0271 70.1912 -0.0360 73.8497
#
#
#
# Elastic Compliance Matrix: (Units=1/GPa)
#
#
# Indices 1 2 3 4 5 6 
#
# 1 0.017372 -0.005192 -0.001161 0.000030 -0.006579 -0.000044
# 2 -0.005192 0.007803 -0.002473 -0.000024 0.003348 0.000019
# 3 -0.001161 -0.002473 0.014583 0.000090 -0.005258 -0.000088
# 4 0.000030 -0.000024 0.000090 0.052079 -0.000305 -0.049499
# 5 -0.006579 0.003348 -0.005258 -0.000305 0.080789 0.000333
# 6 -0.000044 0.000019 -0.000088 -0.049499 0.000333 0.060588
#
#
# Mechanical properties :
#
#
# Convention : Reuss Voigt Hill
#
# Bulk Modulus (GPa) = 45.24039 60.09299 52.66669
# Shear Modulus (GPa) = 19.36232 49.53775 34.45004
#
# Velocity S-wave (km/s) = 3.04994 4.87843 4.06824
# Velocity P-wave (km/s) = 5.84272 7.78474 6.88257
#
# Compressibility (1/GPa) = 0.02210414
#
# Stress axis : x y z
#
# Youngs Moduli (GPa) = 57.56405 128.16192 68.57505
#
# Poissons Ratio (x) = 0.66540 0.07965
# Poissons Ratio (y) = 0.29887 0.16959
# Poissons Ratio (z) = 0.06686 0.31696
#
# Static dielectric constant tensor:
#      x y z
#    x 1.870050 -0.000380 0.008620 
#    y -0.000380 1.790750 -0.000090 
#    z 0.008620 -0.000090 1.815800 
# 
# From -- ./inp_files/340297.got.cif
#   From: 2010.05.17/outbox.cif.g08.bks.cpg/sg12_171_cif.got.tgz:340297.got - 2010.06.03 13:09:07.
