data_PCOD9187642
_publ_section_title
;
Structure prediction by ZEFSAII (Michael W. Deem and Ramdas Pophale) SiO2 
 PCOD9187642
Probable space group: C 2/M
;
_chemical_formula_sum "Si O2"
_cell_formula_units_Z 48
_cell_length_a 14.558381
_cell_length_b 13.390311
_cell_length_c 28.462679
_cell_angle_alpha 90.000000
_cell_angle_beta 160.066530
_cell_angle_gamma 90.000000
_cell_volume 1891.660409
_symmetry_space_group_name_H-M "C 2/M"
_symmetry_group_IT_number 12
_symmetry_cell_setting 'monoclinic'
loop_
_space_group_symop_operation_xyz
x,y,z
-x,y,-z
-x,-y,-z
x,-y,z
1/2+x,1/2+y,z
1/2-x,1/2+y,-z
1/2-x,1/2-y,-z
1/2+x,1/2-y,z
loop_
_atom_site_type_symbol
_atom_site_label
_atom_site_fract_x
_atom_site_fract_y
_atom_site_fract_z
Si Si1 0.514944 0.171504 0.450471
Si Si2 0.736287 0.605720 0.229797
Si Si3 0.713253 0.771503 0.875962
Si Si4 0.829194 0.611666 0.010833
Si Si5 0.395003 0.316774 0.273096
Si Si6 0.332493 0.611998 0.371157
O O1 0.500000 0.162368 0.500000
O O2 0.298603 0.112361 0.315643
O O3 0.467544 0.288274 0.414006
O O4 0.812429 0.139341 0.577862
O O5 0.834658 0.500000 0.258492
O O6 0.413880 0.612038 0.068770
O O7 0.883576 0.699471 0.279317
O O8 0.757028 0.702882 0.942308
O O9 0.648228 0.690035 0.803896
O O10 0.471532 0.849268 0.765046
O O11 0.000000 0.818728 0.000000
O O12 0.823580 0.500000 0.987050
O O13 0.137498 0.632336 0.173439
O O14 0.500000 0.604800 0.500000
O O15 0.337346 0.500000 0.352841
#
# Coordination Sequence:
#
# PCOD9187642 Si02
#       6
#     8   8   8   8   8   8
#     4  11  21  42  64  92 126 162 209 262 313 362
#     4  11  24  41  63  90 125 166 208 255 316 378
#     4  10  20  37  63  92 125 160 205 264 304 360
#     4  10  22  42  67  92 123 168 211 254 312 369
#     4  11  22  38  63  91 130 163 201 262 308 373
#     4  10  19  35  60  86 119 160 204 247 303 365
#
# _framework density 25.374531999999999
#
# number of rings (size 3 to 8) (size 9 to 14) (size 15 to 20)
#    0.000    1.500    5.000    1.000    0.000    5.667 
#    0.000    3.333    0.000    0.500    0.000    0.000 
#    0.000    0.000    0.000    0.000    0.000    0.000 
#
# Total GULP energy -134209.777351 kJ/mol
# GULP energy per Si atom -5592.074056 kJ/mol
# Density = 2.531678 g / cm^3
# Si number density = 25.374532 Si / 1000 Ang^3
#
#
#
# Elastic Constant Matrix: (Units=GPa)
#
#
# Indices 1 2 3 4 5 6 
#
# 1 42.4563 7.8204 18.4250 0.0072 2.1027 0.0747
# 2 7.8204 136.4188 27.8477 0.0328 -9.9449 0.0513
# 3 18.4250 27.8477 172.7208 0.0839 31.9665 -0.0315
# 4 0.0072 0.0328 0.0839 15.2069 -0.0215 -12.7372
# 5 2.1027 -9.9449 31.9665 -0.0215 37.7493 0.1614
# 6 0.0747 0.0513 -0.0315 -12.7372 0.1614 -176.6616
#
#
#
# Elastic Compliance Matrix: (Units=1/GPa)
#
#
# Indices 1 2 3 4 5 6 
#
# 1 0.024818 -0.000841 -0.002627 0.000014 0.000620 0.000010
# 2 -0.000841 0.008043 -0.001907 0.000004 0.003781 0.000006
# 3 -0.002627 -0.001907 0.007641 -0.000051 -0.006826 -0.000006
# 4 0.000014 0.000004 -0.000051 0.062015 0.000098 -0.004471
# 5 0.000620 0.003781 -0.006826 0.000098 0.033232 0.000026
# 6 0.000010 0.000006 -0.000006 -0.004471 0.000026 -0.005338
#
#
# Mechanical properties :
#
#
# Convention : Reuss Voigt Hill
#
# Bulk Modulus (GPa) = 33.61059 51.08691 42.34875
# Shear Modulus (GPa) = 33.09546 -4.90755 14.09395
#
# Velocity S-wave (km/s) = 3.61540 -1.39221 2.35933
# Velocity P-wave (km/s) = 5.54100 4.19434 4.91402
#
# Compressibility (1/GPa) = 0.02975253
#
# Stress axis : x y z
#
# Youngs Moduli (GPa) = 40.29377 124.32501 130.87790
#
# Poissons Ratio (x) = 0.10460 0.34376
# Poissons Ratio (y) = 0.03390 0.24956
# Poissons Ratio (z) = 0.10583 0.23706
#
# Static dielectric constant tensor:
#      x y z
#    x 2.052950 0.000000 -0.053250 
#    y 0.000000 1.934760 -0.000010 
#    z -0.053250 -0.000010 2.012290 
# 
# From -- ./inp_files/376649.got.cif
#   From: 2010.05.17/outbox.cif.g08.bks.cpg/sg12_189_cif.got.tgz:376649.got - 2010.06.03 13:09:07.
