data_PCOD9187098
_publ_section_title
;
Structure prediction by ZEFSAII (Michael W. Deem and Ramdas Pophale) SiO2 
 PCOD9187098
Probable space group: C 2/M
;
_chemical_formula_sum "Si O2"
_cell_formula_units_Z 56
_cell_length_a 13.715713
_cell_length_b 14.293454
_cell_length_c 26.766555
_cell_angle_alpha 90.000000
_cell_angle_beta 148.309908
_cell_angle_gamma 90.000000
_cell_volume 2756.612519
_symmetry_space_group_name_H-M "C 2/M"
_symmetry_group_IT_number 12
_symmetry_cell_setting 'monoclinic'
loop_
_space_group_symop_operation_xyz
x,y,z
-x,y,-z
-x,-y,-z
x,-y,z
1/2+x,1/2+y,z
1/2-x,1/2+y,-z
1/2-x,1/2-y,-z
1/2+x,1/2-y,z
loop_
_atom_site_type_symbol
_atom_site_label
_atom_site_fract_x
_atom_site_fract_y
_atom_site_fract_z
Si Si1 0.952789 0.772642 0.109817
Si Si2 0.390116 0.391370 0.624189
Si Si3 0.009219 0.606449 0.206027
Si Si4 0.877907 0.887588 0.732963
Si Si5 0.484954 0.809000 0.549776
Si Si6 0.926108 0.896007 0.394693
Si Si7 0.146301 0.108908 0.109447
O O1 0.015166 0.676148 0.162282
O O2 0.970354 0.845865 0.163400
O O3 0.078310 0.819114 0.121613
O O4 0.750000 0.750000 0.000000
O O5 0.343128 0.500000 0.609499
O O6 0.417804 0.356476 0.692851
O O7 0.559253 0.386024 0.659348
O O8 0.213733 0.345424 0.519790
O O9 0.969453 0.500000 0.172395
O O10 0.847114 0.632056 0.173954
O O11 0.213125 0.607860 0.318572
O O12 0.674241 0.844630 0.657994
O O13 0.871320 0.000000 0.732962
O O14 0.500000 0.847977 0.500000
O O15 0.478994 0.697235 0.544746
O O16 0.001725 0.000000 0.439641
O O17 0.149095 0.000000 0.128840
O O18 0.000000 0.112569 0.000000
#
# Coordination Sequence:
#
# PCOD9187098 Si02
#       7
#     8   8   8   8   8   8   8
#     4  12  23  38  63  95 122 155 208 264 312 363
#     4   9  19  36  61  88 123 162 199 252 317 376
#     4  10  22  41  61  85 123 167 206 248 311 380
#     4  10  21  38  60  91 123 155 203 259 314 373
#     4  10  19  35  57  87 122 161 207 252 308 367
#     4  10  20  37  58  86 123 164 204 249 307 370
#     4  10  21  40  64  88 120 162 209 258 316 378
#
# _framework density 20.314789000000001
#
# number of rings (size 3 to 8) (size 9 to 14) (size 15 to 20)
#    0.000    1.857    2.857    1.286    0.000    3.714 
#    0.000    0.000    0.000    4.714    0.000    0.000 
#    0.000    0.000    0.000    0.000    0.000    0.000 
#
# Total GULP energy -156097.642721 kJ/mol
# GULP energy per Si atom -5574.915811 kJ/mol
# Density = 2.026855 g / cm^3
# Si number density = 20.314789 Si / 1000 Ang^3
#
#
#
# Elastic Constant Matrix: (Units=GPa)
#
#
# Indices 1 2 3 4 5 6 
#
# 1 120.2466 48.4115 31.6305 0.0000 10.4695 0.0000
# 2 48.4115 101.2646 24.5946 -0.0001 2.5073 -0.0001
# 3 31.6305 24.5946 66.3069 -0.0002 4.9078 -0.0001
# 4 0.0000 -0.0001 -0.0002 31.3897 0.0000 -4.3911
# 5 10.4695 2.5073 4.9078 0.0000 30.1498 0.0000
# 6 0.0000 -0.0001 -0.0001 -4.3911 0.0000 33.2521
#
#
#
# Elastic Compliance Matrix: (Units=1/GPa)
#
#
# Indices 1 2 3 4 5 6 
#
# 1 0.011301 -0.004477 -0.003510 0.000000 -0.002981 0.000000
# 2 -0.004477 0.012628 -0.002617 0.000000 0.000930 0.000000
# 3 -0.003510 -0.002617 0.017835 0.000000 -0.001467 0.000000
# 4 0.000000 0.000000 0.000000 0.032457 0.000000 0.004286
# 5 -0.002981 0.000930 -0.001467 0.000000 0.034364 0.000000
# 6 0.000000 0.000000 0.000000 0.004286 0.000000 0.030639
#
#
# Mechanical properties :
#
#
# Convention : Reuss Voigt Hill
#
# Bulk Modulus (GPa) = 48.64632 55.23237 51.93934
# Shear Modulus (GPa) = 29.88912 31.17043 30.52977
#
# Velocity S-wave (km/s) = 3.83991 3.92135 3.88085
# Velocity P-wave (km/s) = 6.60743 6.91014 6.76048
#
# Compressibility (1/GPa) = 0.02055654
#
# Stress axis : x y z
#
# Youngs Moduli (GPa) = 88.48524 79.19000 56.06899
#
# Poissons Ratio (x) = 0.35449 0.19680
# Poissons Ratio (y) = 0.39611 0.14675
# Poissons Ratio (z) = 0.31059 0.20727
#
# Static dielectric constant tensor:
#      x y z
#    x 1.775980 0.000000 0.005490 
#    y 0.000000 1.737820 0.000000 
#    z 0.005490 0.000000 1.738030 
# 
# From -- ./inp_files/361464.got.cif
#   From: 2010.05.17/outbox.cif.g08.bks.cpg/sg12_181_cif.got.tgz:361464.got - 2010.06.03 13:09:07.
