data_PCOD9187687
_publ_section_title
;
Structure prediction by ZEFSAII (Michael W. Deem and Ramdas Pophale) SiO2 
 PCOD9187687
Probable space group: C 2/M
;
_chemical_formula_sum "Si O2"
_cell_formula_units_Z 64
_cell_length_a 30.590206
_cell_length_b 8.506624
_cell_length_c 15.063549
_cell_angle_alpha 90.000000
_cell_angle_beta 128.033080
_cell_angle_gamma 90.000000
_cell_volume 3087.472297
_symmetry_space_group_name_H-M "C 2/M"
_symmetry_group_IT_number 12
_symmetry_cell_setting 'monoclinic'
loop_
_space_group_symop_operation_xyz
x,y,z
-x,y,-z
-x,-y,-z
x,-y,z
1/2+x,1/2+y,z
1/2-x,1/2+y,-z
1/2-x,1/2-y,-z
1/2+x,1/2-y,z
loop_
_atom_site_type_symbol
_atom_site_label
_atom_site_fract_x
_atom_site_fract_y
_atom_site_fract_z
Si Si1 0.719650 0.811213 0.128581
Si Si2 0.889723 0.191414 0.494666
Si Si3 0.661415 0.181546 0.231056
Si Si4 0.309895 0.316083 0.551865
Si Si5 0.943329 0.817782 0.876085
Si Si6 0.616814 0.312785 0.883893
Si Si7 0.489278 0.691549 0.743996
Si Si8 0.157517 0.686583 0.749490
O O1 0.705005 0.766275 0.211987
O O2 0.777297 0.732799 0.173083
O O3 0.726016 0.000000 0.133201
O O4 0.666354 0.763625 0.003433
O O5 0.843517 0.245043 0.509277
O O6 0.949716 0.235500 0.611386
O O7 0.872874 0.261067 0.379119
O O8 0.888028 0.000000 0.486903
O O9 0.659218 0.278820 0.318418
O O10 0.599170 0.211338 0.121344
O O11 0.672039 0.000000 0.264272
O O12 0.304710 0.500000 0.531143
O O13 0.250000 0.250000 0.500000
O O14 0.958690 0.759612 0.796403
O O15 0.924114 0.000000 0.848748
O O16 0.000000 0.819813 0.000000
O O17 0.618612 0.500000 0.902379
O O18 0.553469 0.257350 0.821982
O O19 0.630791 0.275077 0.799374
O O20 0.489987 0.500000 0.746707
O O21 0.152717 0.500000 0.755492
#
# Coordination Sequence:
#
# PCOD9187687 Si02
#       8
#     8   8   8   8   8   8   8   8
#     4  11  24  43  64  91 128 165 207 258 313 375
#     4  10  21  41  64  88 124 167 211 258 307 365
#     4  11  23  37  57  88 125 162 200 241 301 364
#     4  11  22  37  60  87 123 161 204 254 302 358
#     4  10  19  35  60  89 122 161 207 252 295 356
#     4  11  23  42  69  95 121 160 209 261 317 375
#     4   9  19  38  63  92 124 164 211 255 305 368
#     4  12  26  43  64  92 124 160 208 263 322 379
#
# _framework density 20.728929999999998
#
# number of rings (size 3 to 8) (size 9 to 14) (size 15 to 20)
#    0.000    1.375    1.250    4.500    0.000    7.750 
#    0.000    5.000    0.000    0.000    0.000    0.000 
#    0.000    0.000    0.000    0.000    0.000    0.000 
#
# Total GULP energy -178709.201599 kJ/mol
# GULP energy per Si atom -5584.662550 kJ/mol
# Density = 2.068175 g / cm^3
# Si number density = 20.728930 Si / 1000 Ang^3
#
#
#
# Elastic Constant Matrix: (Units=GPa)
#
#
# Indices 1 2 3 4 5 6 
#
# 1 83.9799 -4.2207 7.8939 0.0000 13.1569 0.0000
# 2 -4.2207 16.2025 -1.2176 0.0000 7.1232 0.0000
# 3 7.8939 -1.2176 77.3187 0.0000 8.0328 0.0000
# 4 0.0000 0.0000 0.0000 31.2066 0.0000 2.4053
# 5 13.1569 7.1232 8.0328 0.0000 34.2473 0.0000
# 6 0.0000 0.0000 0.0000 2.4053 0.0000 24.9457
#
#
#
# Elastic Compliance Matrix: (Units=1/GPa)
#
#
# Indices 1 2 3 4 5 6 
#
# 1 0.013249 0.006142 -0.000609 0.000000 -0.006224 0.000000
# 2 0.006142 0.071292 0.002338 0.000000 -0.017736 0.000000
# 3 -0.000609 0.002338 0.013385 0.000000 -0.003392 0.000000
# 4 0.000000 0.000000 0.000000 0.032284 0.000000 -0.003113
# 5 -0.006224 -0.017736 -0.003392 0.000000 0.036075 0.000000
# 6 0.000000 0.000000 0.000000 -0.003113 0.000000 0.040387
#
#
# Mechanical properties :
#
#
# Convention : Reuss Voigt Hill
#
# Bulk Modulus (GPa) = 8.79755 20.26801 14.53278
# Shear Modulus (GPa) = 21.85124 29.74963 25.80043
#
# Velocity S-wave (km/s) = 3.25028 3.79248 3.53180
# Velocity P-wave (km/s) = 4.28241 5.38294 4.86390
#
# Compressibility (1/GPa) = 0.11366801
#
# Stress axis : x y z
#
# Youngs Moduli (GPa) = 75.47890 14.02677 74.71116
#
# Poissons Ratio (x) = -0.08615 0.04552
# Poissons Ratio (y) = -0.46359 -0.17470
# Poissons Ratio (z) = 0.04598 -0.03280
#
# Static dielectric constant tensor:
#      x y z
#    x 1.805330 0.000000 0.125240 
#    y 0.000000 1.742790 0.000000 
#    z 0.125240 0.000000 2.206900 
# 
# From -- ./inp_files/250005.got.cif
#   From: 2010.05.17/outbox.cif.g08.bks.cpg/sg12_126_cif.got.tgz:250005.got - 2010.06.03 13:09:07.
