data_PCOD9187819
_publ_section_title
;
Structure prediction by ZEFSAII (Michael W. Deem and Ramdas Pophale) SiO2 
 PCOD9187819
Probable space group: C 2/M
;
_chemical_formula_sum "Si O2"
_cell_formula_units_Z 58
_cell_length_a 24.021434
_cell_length_b 16.966631
_cell_length_c 14.888404
_cell_angle_alpha 90.000000
_cell_angle_beta 27.777731
_cell_angle_gamma 90.000000
_cell_volume 2827.928923
_symmetry_space_group_name_H-M "C 2/M"
_symmetry_group_IT_number 12
_symmetry_cell_setting 'monoclinic'
loop_
_space_group_symop_operation_xyz
x,y,z
-x,y,-z
-x,-y,-z
x,-y,z
1/2+x,1/2+y,z
1/2-x,1/2+y,-z
1/2-x,1/2-y,-z
1/2+x,1/2-y,z
loop_
_atom_site_type_symbol
_atom_site_label
_atom_site_fract_x
_atom_site_fract_y
_atom_site_fract_z
Si Si1 0.000000 0.500000 0.500000
Si Si2 0.778412 0.404811 0.543609
Si Si3 0.309412 0.721036 0.790143
Si Si4 0.900833 0.092081 0.352247
Si Si5 0.007387 0.407832 0.890608
Si Si6 0.566378 0.276919 0.203812
Si Si7 0.729699 0.586566 0.279320
Si Si8 0.099314 0.649230 0.463831
O O1 0.036781 0.569465 0.521175
O O2 0.782410 0.500000 0.544078
O O3 0.661058 0.384999 0.653233
O O4 0.791506 0.370822 0.624628
O O5 0.894361 0.377497 0.319400
O O6 0.362746 0.693666 0.808597
O O7 0.336243 0.655603 0.677930
O O8 0.361663 0.803104 0.680307
O O9 0.168939 0.736339 0.998871
O O10 0.796488 0.093834 0.577402
O O11 0.998811 0.153639 0.247751
O O12 0.941363 0.000000 0.289925
O O13 0.042951 0.500000 0.852843
O O14 0.869842 0.408820 0.056699
O O15 0.000000 0.369654 0.000000
O O16 0.481108 0.209187 0.364050
O O17 0.686071 0.500000 0.314369
#
# Coordination Sequence:
#
# PCOD9187819 Si02
#       8
#     2   8   8   8   8   8   8   8
#     4  12  24  44  72 100 118 178 224 274 316 370
#     4  10  20  35  62  94 128 169 213 266 329 380
#     4  11  24  43  63  92 126 168 211 272 329 375
#     4  10  21  39  63  94 129 167 208 255 322 397
#     4   9  15  28  52  89 127 160 202 257 309 374
#     4  11  24  44  64  89 131 168 212 267 329 386
#     4  10  19  35  61  91 126 161 203 257 319 386
#     4  12  23  44  68  93 129 164 222 276 316 383
#
# _framework density 20.509709000000001
#
# number of rings (size 3 to 8) (size 9 to 14) (size 15 to 20)
#    0.000    1.517    4.828    0.828    0.000    1.103 
#    2.483    2.069    0.000    1.655    0.000    0.000 
#    0.000    0.000    0.000    0.000    0.000    0.000 
#
# Total GULP energy -161502.838367 kJ/mol
# GULP energy per Si atom -5569.063392 kJ/mol
# Density = 2.046303 g / cm^3
# Si number density = 20.509709 Si / 1000 Ang^3
#
#
#
# Elastic Constant Matrix: (Units=GPa)
#
#
# Indices 1 2 3 4 5 6 
#
# 1 111.7026 52.6316 8.3481 0.0000 -7.2835 0.0000
# 2 52.6316 91.9476 11.7836 0.0000 -13.1553 0.0000
# 3 8.3481 11.7836 35.5760 0.0000 -12.1230 0.0000
# 4 0.0000 0.0000 0.0000 17.0661 0.0000 -4.4672
# 5 -7.2835 -13.1553 -12.1230 0.0000 22.5225 0.0000
# 6 0.0000 0.0000 0.0000 -4.4672 0.0000 33.9575
#
#
#
# Elastic Compliance Matrix: (Units=1/GPa)
#
#
# Indices 1 2 3 4 5 6 
#
# 1 0.012275 -0.007006 -0.000737 0.000000 -0.000519 0.000000
# 2 -0.007006 0.015975 -0.001518 0.000000 0.006248 0.000000
# 3 -0.000737 -0.001518 0.034781 0.000000 0.017596 0.000000
# 4 0.000000 0.000000 0.000000 0.060685 0.000000 0.007983
# 5 -0.000519 0.006248 0.017596 0.000000 0.057353 0.000000
# 6 0.000000 0.000000 0.000000 0.007983 0.000000 0.030499
#
#
# Mechanical properties :
#
#
# Convention : Reuss Voigt Hill
#
# Bulk Modulus (GPa) = 22.46778 42.75031 32.60905
# Shear Modulus (GPa) = 20.41450 25.80676 23.11063
#
# Velocity S-wave (km/s) = 3.15835 3.55106 3.36045
# Velocity P-wave (km/s) = 4.92735 6.14024 5.56692
#
# Compressibility (1/GPa) = 0.04450818
#
# Stress axis : x y z
#
# Youngs Moduli (GPa) = 81.46908 62.59971 28.75166
#
# Poissons Ratio (x) = 0.43857 0.02118
# Poissons Ratio (y) = 0.57077 0.04365
# Poissons Ratio (z) = 0.06002 0.09503
#
# Static dielectric constant tensor:
#      x y z
#    x 1.762750 0.000000 -0.017660 
#    y 0.000000 1.716240 0.000000 
#    z -0.017660 0.000000 1.761150 
# 
# From -- ./inp_files/241298.got.cif
#   From: 2010.05.17/outbox.cif.g08.bks.cpg/sg12_121_cif.got.tgz:241298.got - 2010.06.03 13:09:07.
