data_PCOD9187404
_publ_section_title
;
Structure prediction by ZEFSAII (Michael W. Deem and Ramdas Pophale) SiO2 
 PCOD9187404
Probable space group: C 2/M
;
_chemical_formula_sum "Si O2"
_cell_formula_units_Z 64
_cell_length_a 19.985028
_cell_length_b 19.765730
_cell_length_c 20.178966
_cell_angle_alpha 90.000000
_cell_angle_beta 28.513450
_cell_angle_gamma 90.000000
_cell_volume 3805.109372
_symmetry_space_group_name_H-M "C 2/M"
_symmetry_group_IT_number 12
_symmetry_cell_setting 'monoclinic'
loop_
_space_group_symop_operation_xyz
x,y,z
-x,y,-z
-x,-y,-z
x,-y,z
1/2+x,1/2+y,z
1/2-x,1/2+y,-z
1/2-x,1/2-y,-z
1/2+x,1/2-y,z
loop_
_atom_site_type_symbol
_atom_site_label
_atom_site_fract_x
_atom_site_fract_y
_atom_site_fract_z
Si Si1 0.685265 0.577017 0.191796
Si Si2 0.108992 0.204319 0.347116
Si Si3 0.109859 0.784156 0.707317
Si Si4 0.436554 0.785849 0.390225
Si Si5 0.928262 0.076246 0.313817
Si Si6 0.096956 0.285489 0.854185
Si Si7 0.490600 0.922525 0.126627
Si Si8 0.884916 0.577471 0.368834
O O1 0.677715 0.500000 0.225140
O O2 0.652700 0.635466 0.272170
O O3 0.565340 0.582259 0.240005
O O4 0.841808 0.586318 0.026662
O O5 0.246705 0.233695 0.261706
O O6 0.000000 0.189574 0.500000
O O7 0.041810 0.255117 0.351981
O O8 0.277684 0.773519 0.554276
O O9 0.048266 0.752539 0.693335
O O10 0.076855 0.863661 0.734305
O O11 0.057142 0.748884 0.819489
O O12 0.445929 0.865269 0.364082
O O13 0.784709 0.085576 0.481489
O O14 0.924009 0.000000 0.290238
O O15 0.083697 0.366037 0.852941
O O16 0.000000 0.267157 0.000000
O O17 0.441482 0.912753 0.245267
O O18 0.456616 0.000000 0.137078
O O19 0.916058 0.500000 0.361444
#
# Coordination Sequence:
#
# PCOD9187404 Si02
#       8
#     8   8   8   8   8   8   8   8
#     4  10  21  37  53  79 116 151 185 222 271 330
#     4  12  24  37  55  81 115 147 184 230 283 326
#     4  10  19  35  60  82 110 147 184 230 280 325
#     4  10  19  35  59  84 110 144 185 232 280 323
#     4   9  18  34  60  87 109 139 189 237 272 320
#     4  12  24  39  54  82 115 150 190 226 275 336
#     4  10  21  37  55  78 114 155 185 219 273 332
#     4   9  18  34  60  86 108 141 189 232 272 326
#
# _framework density 16.819489999999998
#
# number of rings (size 3 to 8) (size 9 to 14) (size 15 to 20)
#    0.000    1.750    5.000    0.000    1.750    1.000 
#    2.250    1.875    0.000    1.500    0.000    0.000 
#    0.000    0.000    0.000    0.000    0.000    0.000 
#
# Total GULP energy -178502.703210 kJ/mol
# GULP energy per Si atom -5578.209475 kJ/mol
# Density = 1.678121 g / cm^3
# Si number density = 16.819490 Si / 1000 Ang^3
#
#
#
# Elastic Constant Matrix: (Units=GPa)
#
#
# Indices 1 2 3 4 5 6 
#
# 1 79.3019 43.6269 29.1032 -0.0027 2.2952 0.0010
# 2 43.6269 87.2596 25.3494 -0.0086 2.7489 -0.0007
# 3 29.1032 25.3494 57.6670 -0.0085 7.1404 0.0001
# 4 -0.0027 -0.0086 -0.0085 10.8112 -0.0031 -12.0538
# 5 2.2952 2.7489 7.1404 -0.0031 29.9587 -0.0002
# 6 0.0010 -0.0007 0.0001 -12.0538 -0.0002 6.4663
#
#
#
# Elastic Compliance Matrix: (Units=1/GPa)
#
#
# Indices 1 2 3 4 5 6 
#
# 1 0.019202 -0.007775 -0.006367 0.000010 0.000760 0.000014
# 2 -0.007775 0.016286 -0.003219 -0.000011 -0.000131 -0.000018
# 3 -0.006367 -0.003219 0.022538 -0.000012 -0.004588 -0.000021
# 4 0.000010 -0.000011 -0.000012 -0.085776 -0.000007 -0.159894
# 5 0.000760 -0.000131 -0.004588 -0.000007 0.034427 -0.000012
# 6 0.000014 -0.000018 -0.000021 -0.159894 -0.000012 -0.143411
#
#
# Mechanical properties :
#
#
# Convention : Reuss Voigt Hill
#
# Bulk Modulus (GPa) = 42.91161 46.70972 44.81066
# Shear Modulus (GPa) = -53.05410 17.85716 -17.59847
#
# Velocity S-wave (km/s) = -5.62243 3.26190 -3.23819
# Velocity P-wave (km/s) = 4.07192 6.48214 3.56634
#
# Compressibility (1/GPa) = 0.02330372
#
# Stress axis : x y z
#
# Youngs Moduli (GPa) = 52.07832 61.40083 44.37011
#
# Poissons Ratio (x) = 0.47736 0.28252
# Poissons Ratio (y) = 0.40488 0.14284
# Poissons Ratio (z) = 0.33160 0.19767
#
# Static dielectric constant tensor:
#      x y z
#    x 1.558320 0.000000 0.007980 
#    y 0.000000 1.592050 0.000000 
#    z 0.007980 0.000000 1.582090 
# 
# From -- ./inp_files/317807.got.cif
#   From: 2010.05.17/outbox.cif.g08.bks.cpg/sg12_159_cif.got.tgz:317807.got - 2010.06.03 13:09:07.
