data_PCOD9187814
_publ_section_title
;
Structure prediction by ZEFSAII (Michael W. Deem and Ramdas Pophale) SiO2 
 PCOD9187814
Probable space group: C 2/M
;
_chemical_formula_sum "Si O2"
_cell_formula_units_Z 56
_cell_length_a 21.528243
_cell_length_b 14.654090
_cell_length_c 19.486481
_cell_angle_alpha 90.000000
_cell_angle_beta 25.832747
_cell_angle_gamma 90.000000
_cell_volume 2678.760395
_symmetry_space_group_name_H-M "C 2/M"
_symmetry_group_IT_number 12
_symmetry_cell_setting 'monoclinic'
loop_
_space_group_symop_operation_xyz
x,y,z
-x,y,-z
-x,-y,-z
x,-y,z
1/2+x,1/2+y,z
1/2-x,1/2+y,-z
1/2-x,1/2-y,-z
1/2+x,1/2-y,z
loop_
_atom_site_type_symbol
_atom_site_label
_atom_site_fract_x
_atom_site_fract_y
_atom_site_fract_z
Si Si1 0.302694 0.779544 0.143281
Si Si2 0.365749 0.106404 0.682117
Si Si3 0.132699 0.606330 0.159598
Si Si4 0.968712 0.103555 0.802674
Si Si5 0.779448 0.606676 0.297949
Si Si6 0.044360 0.897484 0.347858
Si Si7 0.468090 0.214400 0.206322
O O1 0.262331 0.676520 0.203981
O O2 0.338174 0.839600 0.174154
O O3 0.158694 0.823788 0.255903
O O4 0.419386 0.784581 0.968106
O O5 0.500000 0.126806 0.500000
O O6 0.406838 0.117715 0.721469
O O7 0.326101 0.000000 0.712102
O O8 0.112699 0.500000 0.160001
O O9 0.043913 0.668721 0.196532
O O10 0.302339 0.624796 0.984724
O O11 0.980569 0.106828 0.708866
O O12 0.063478 0.181178 0.742975
O O13 0.998671 0.000000 0.795681
O O14 0.818309 0.500000 0.259181
O O15 0.608341 0.613875 0.465280
O O16 0.837269 0.655214 0.308813
O O17 0.099479 0.000000 0.308974
#
# Coordination Sequence:
#
# PCOD9187814 Si02
#       7
#     8   8   8   8   8   8   8
#     4  12  22  38  63  88 118 164 206 241 292 356
#     4  10  21  37  60  92 122 151 197 253 298 343
#     4  10  19  35  61  91 120 153 197 249 294 347
#     4  10  20  37  63  90 117 154 202 250 293 350
#     4  11  26  42  57  87 127 159 195 250 306 355
#     4  10  21  39  63  89 118 156 202 246 296 358
#     4  12  23  37  61  92 123 157 199 246 301 356
#
# _framework density 20.905192
#
# number of rings (size 3 to 8) (size 9 to 14) (size 15 to 20)
#    0.000    1.286    2.857    3.857    0.000    4.000 
#    0.000    0.714    0.000    6.000    0.000    0.000 
#    0.000    0.000    0.000    0.000    0.000    0.000 
#
# Total GULP energy -156621.089964 kJ/mol
# GULP energy per Si atom -5593.610356 kJ/mol
# Density = 2.085761 g / cm^3
# Si number density = 20.905192 Si / 1000 Ang^3
#
#
#
# Elastic Constant Matrix: (Units=GPa)
#
#
# Indices 1 2 3 4 5 6 
#
# 1 47.3433 41.1998 2.0972 -0.0002 5.4611 0.0003
# 2 41.1998 104.9898 0.3760 -0.0001 -13.4724 0.0001
# 3 2.0972 0.3760 57.2671 -0.0003 19.2694 0.0004
# 4 -0.0002 -0.0001 -0.0003 23.0768 0.0002 4.9617
# 5 5.4611 -13.4724 19.2694 0.0002 28.4817 -0.0002
# 6 0.0003 0.0001 0.0004 4.9617 -0.0002 30.1155
#
#
#
# Elastic Compliance Matrix: (Units=1/GPa)
#
#
# Indices 1 2 3 4 5 6 
#
# 1 0.038346 -0.017520 0.005144 0.000001 -0.019120 -0.000001
# 2 -0.017520 0.018358 -0.004572 0.000000 0.015136 0.000000
# 3 0.005144 -0.004572 0.023776 0.000001 -0.019235 -0.000001
# 4 0.000001 0.000000 0.000001 0.044925 -0.000001 -0.007402
# 5 -0.019120 0.015136 -0.019235 -0.000001 0.058949 0.000001
# 6 -0.000001 0.000000 -0.000001 -0.007402 0.000001 0.034425
#
#
# Mechanical properties :
#
#
# Convention : Reuss Voigt Hill
#
# Bulk Modulus (GPa) = 21.46586 32.99403 27.22995
# Shear Modulus (GPa) = 18.64262 27.39662 23.01962
#
# Velocity S-wave (km/s) = 2.98949 3.62403 3.32195
# Velocity P-wave (km/s) = 4.71238 5.77308 5.26949
#
# Compressibility (1/GPa) = 0.04658559
#
# Stress axis : x y z
#
# Youngs Moduli (GPa) = 26.07831 54.47106 42.05954
#
# Poissons Ratio (x) = 0.95431 -0.21637
# Poissons Ratio (y) = 0.45688 0.19230
# Poissons Ratio (z) = -0.13415 0.24905
#
# Static dielectric constant tensor:
#      x y z
#    x 1.736070 0.000000 0.008680 
#    y 0.000000 1.775410 0.000000 
#    z 0.008680 0.000000 1.745340 
# 
# From -- ./inp_files/284486.got.cif
#   From: 2010.05.17/outbox.cif.g08.bks.cpg/sg12_143_cif.got.tgz:284486.got - 2010.06.03 13:09:07.
