data_PCOD9187573
_publ_section_title
;
Structure prediction by ZEFSAII (Michael W. Deem and Ramdas Pophale) SiO2 
 PCOD9187573
Probable space group: C 2/M
;
_chemical_formula_sum "Si O2"
_cell_formula_units_Z 38
_cell_length_a 14.519843
_cell_length_b 19.909089
_cell_length_c 20.518869
_cell_angle_alpha 90.000000
_cell_angle_beta 160.538700
_cell_angle_gamma 90.000000
_cell_volume 1976.208325
_symmetry_space_group_name_H-M "C 2/M"
_symmetry_group_IT_number 12
_symmetry_cell_setting 'monoclinic'
loop_
_space_group_symop_operation_xyz
x,y,z
-x,y,-z
-x,-y,-z
x,-y,z
1/2+x,1/2+y,z
1/2-x,1/2+y,-z
1/2-x,1/2-y,-z
1/2+x,1/2-y,z
loop_
_atom_site_type_symbol
_atom_site_label
_atom_site_fract_x
_atom_site_fract_y
_atom_site_fract_z
Si Si1 0.961296 0.243069 0.771299
Si Si2 0.734095 0.624524 0.574188
Si Si3 0.500000 0.864317 0.500000
Si Si4 0.308720 0.873165 0.234000
Si Si5 0.000000 0.000000 0.500000
Si Si6 0.186101 0.216649 0.779124
O O1 0.834056 0.317098 0.689841
O O2 0.761310 0.183964 0.660056
O O3 0.025910 0.227580 0.739426
O O4 0.250000 0.250000 0.000000
O O5 0.650442 0.558572 0.555931
O O6 0.473927 0.660348 0.366662
O O7 0.969987 0.613554 0.675989
O O8 0.411623 0.901406 0.373065
O O9 0.306182 0.792002 0.244850
O O10 0.000000 0.890247 0.000000
O O11 0.500000 0.196060 0.000000
#
# Coordination Sequence:
#
# PCOD9187573 Si02
#       6
#     8   8   4   8   2   8
#     4  11  21  32  63  98 125 161 208 275 342 385
#     4  11  22  44  55  91 132 169 228 251 316 400
#     4  12  17  32  58  94 124 163 186 268 362 356
#     4  10  20  36  62  97 127 155 209 280 333 377
#     4  12  30  40  72  78 128 208 204 252 314 408
#     4  10  19  35  59  92 134 163 199 285 331 366
#
# _framework density 19.228740999999999
#
# number of rings (size 3 to 8) (size 9 to 14) (size 15 to 20)
#    0.000    1.263    4.211    5.684    2.947    0.000 
#    0.000    1.053    0.000    0.632    0.000    0.000 
#    0.000    0.000    0.000    0.000    0.000    0.000 
#
# Total GULP energy -105776.244827 kJ/mol
# GULP energy per Si atom -5567.170780 kJ/mol
# Density = 1.918498 g / cm^3
# Si number density = 19.228741 Si / 1000 Ang^3
#
#
#
# Elastic Constant Matrix: (Units=GPa)
#
#
# Indices 1 2 3 4 5 6 
#
# 1 100.7262 23.2171 40.9543 -0.1086 2.1919 -0.0254
# 2 23.2171 87.8717 33.4578 0.0526 4.7662 0.0830
# 3 40.9543 33.4578 132.8422 0.1311 6.2538 -0.0263
# 4 -0.1086 0.0526 0.1311 -0.9602 -0.0889 9.7991
# 5 2.1919 4.7662 6.2538 -0.0889 27.9192 -0.0577
# 6 -0.0254 0.0830 -0.0263 9.7991 -0.0577 23.1723
#
#
#
# Elastic Compliance Matrix: (Units=1/GPa)
#
#
# Indices 1 2 3 4 5 6 
#
# 1 0.011627 -0.001893 -0.003113 -0.000318 0.000107 0.000151
# 2 -0.001893 0.012954 -0.002610 0.000027 -0.001478 -0.000066
# 3 -0.003113 -0.002610 0.009209 0.000325 -0.001372 -0.000124
# 4 -0.000318 0.000027 0.000325 -0.195902 -0.000505 0.082841
# 5 0.000107 -0.001478 -0.001372 -0.000505 0.036368 0.000308
# 6 0.000151 -0.000066 -0.000124 0.082841 0.000308 0.008124
#
#
# Mechanical properties :
#
#
# Convention : Reuss Voigt Hill
#
# Bulk Modulus (GPa) = 53.87809 57.41094 55.64451
# Shear Modulus (GPa) = -51.97316 24.94699 -13.51309
#
# Velocity S-wave (km/s) = -5.20457 3.60582 -2.65383
# Velocity P-wave (km/s) = 2.83485 6.87442 4.42839
#
# Compressibility (1/GPa) = 0.01856042
#
# Stress axis : x y z
#
# Youngs Moduli (GPa) = 86.00628 77.19531 108.59179
#
# Poissons Ratio (x) = 0.14611 0.33799
# Poissons Ratio (y) = 0.16278 0.28338
# Poissons Ratio (z) = 0.26770 0.20145
#
# Static dielectric constant tensor:
#      x y z
#    x 1.918270 -0.000080 -0.333200 
#    y -0.000080 1.615070 0.000130 
#    z -0.333200 0.000130 2.226780 
# 
# From -- ./inp_files/311805.got.cif
#   From: 2010.05.17/outbox.cif.g08.bks.cpg/sg12_156_cif.got.tgz:311805.got - 2010.06.03 13:09:07.
