data_PCOD9187599
_publ_section_title
;
Structure prediction by ZEFSAII (Michael W. Deem and Ramdas Pophale) SiO2 
 PCOD9187599
Probable space group: C 2/M
;
_chemical_formula_sum "Si O2"
_cell_formula_units_Z 48
_cell_length_a 12.090372
_cell_length_b 14.175329
_cell_length_c 11.591548
_cell_angle_alpha 90.000000
_cell_angle_beta 99.166595
_cell_angle_gamma 90.000000
_cell_volume 1961.246993
_symmetry_space_group_name_H-M "C 2/M"
_symmetry_group_IT_number 12
_symmetry_cell_setting 'monoclinic'
loop_
_space_group_symop_operation_xyz
x,y,z
-x,y,-z
-x,-y,-z
x,-y,z
1/2+x,1/2+y,z
1/2-x,1/2+y,-z
1/2-x,1/2-y,-z
1/2+x,1/2-y,z
loop_
_atom_site_type_symbol
_atom_site_label
_atom_site_fract_x
_atom_site_fract_y
_atom_site_fract_z
Si Si1 0.316818 0.322591 0.266440
Si Si2 0.180526 0.336082 0.038067
Si Si3 0.123117 0.353140 0.410309
Si Si4 0.054057 0.141082 0.392973
Si Si5 0.500025 0.104678 0.836705
Si Si6 0.790805 0.602190 0.330545
O O1 0.269674 0.374306 0.144930
O O2 0.446706 0.344794 0.295304
O O3 0.304024 0.206773 0.273511
O O4 0.239587 0.360188 0.358597
O O5 0.078458 0.318739 0.111882
O O6 0.250000 0.250000 0.000000
O O7 0.118879 0.385249 0.920664
O O8 0.099121 0.244608 0.433325
O O9 0.027049 0.384726 0.303334
O O10 0.859887 0.397413 0.462411
O O11 0.000000 0.099179 0.500000
O O12 0.160474 0.098413 0.347558
O O13 0.457646 0.000000 0.861043
O O14 0.815687 0.500000 0.275657
#
# Coordination Sequence:
#
# PCOD9187599 Si02
#       6
#     8   8   8   8   8   8
#     4  10  20  37  57  81 114 155 192 229 280 348
#     4  10  20  36  59  83 109 147 194 235 282 337
#     4  10  19  35  60  84 118 155 185 225 287 350
#     4  11  18  35  58  82 115 155 196 222 267 347
#     4  10  21  39  62  89 113 142 191 248 287 326
#     4  11  22  36  55  88 123 150 184 235 286 334
#
# _framework density 24.474225000000001
#
# number of rings (size 3 to 8) (size 9 to 14) (size 15 to 20)
#    0.000    1.667    3.333    3.500    0.000    1.667 
#    0.000    7.500    0.000    0.000    0.000   31.500 
#    0.000    0.000    0.000    0.000    0.000    0.000 
#
# Total GULP energy -133837.725910 kJ/mol
# GULP energy per Si atom -5576.571913 kJ/mol
# Density = 2.441852 g / cm^3
# Si number density = 24.474225 Si / 1000 Ang^3
#
#
#
# Elastic Constant Matrix: (Units=GPa)
#
#
# Indices 1 2 3 4 5 6 
#
# 1 122.7293 29.4108 73.8710 0.0000 27.3239 0.0000
# 2 29.4108 114.9923 31.8665 0.0000 9.7367 0.0000
# 3 73.8710 31.8665 151.2979 0.0000 16.5633 0.0000
# 4 0.0000 0.0000 0.0000 20.9946 0.0000 1.9470
# 5 27.3239 9.7367 16.5633 0.0000 54.3366 0.0000
# 6 0.0000 0.0000 0.0000 1.9470 0.0000 21.0797
#
#
#
# Elastic Compliance Matrix: (Units=1/GPa)
#
#
# Indices 1 2 3 4 5 6 
#
# 1 0.012760 -0.001372 -0.005447 0.000000 -0.004510 0.000000
# 2 -0.001372 0.009447 -0.001252 0.000000 -0.000621 0.000000
# 3 -0.005447 -0.001252 0.009526 0.000000 0.000060 0.000000
# 4 0.000000 0.000000 0.000000 0.048043 0.000000 -0.004437
# 5 -0.004510 -0.000621 0.000060 0.000000 0.020765 0.000000
# 6 0.000000 0.000000 0.000000 -0.004437 0.000000 0.047849
#
#
# Mechanical properties :
#
#
# Convention : Reuss Voigt Hill
#
# Bulk Modulus (GPa) = 64.14162 73.25734 68.69948
# Shear Modulus (GPa) = 29.45898 36.20693 32.83295
#
# Velocity S-wave (km/s) = 3.47316 3.85046 3.66667
# Velocity P-wave (km/s) = 6.50758 7.05446 6.78653
#
# Compressibility (1/GPa) = 0.01559050
#
# Stress axis : x y z
#
# Youngs Moduli (GPa) = 78.37283 105.85778 104.97436
#
# Poissons Ratio (x) = 0.14524 0.57181
# Poissons Ratio (y) = 0.10753 0.13140
# Poissons Ratio (z) = 0.42691 0.13251
#
# Static dielectric constant tensor:
#      x y z
#    x 2.029920 0.000000 -0.044570 
#    y 0.000000 2.043200 0.000000 
#    z -0.044570 0.000000 2.040890 
# 
# From -- ./inp_files/204502.got.cif
#   From: 2010.05.17/outbox.cif.g08.bks.cpg/sg12_103_cif.got.tgz:204502.got - 2010.06.03 13:09:07.
