data_PCOD9187068
_publ_section_title
;
Structure prediction by ZEFSAII (Michael W. Deem and Ramdas Pophale) SiO2 
 PCOD9187068
Probable space group: C 2/M
;
_chemical_formula_sum "Si O2"
_cell_formula_units_Z 50
_cell_length_a 14.982416
_cell_length_b 7.525550
_cell_length_c 20.683843
_cell_angle_alpha 90.000000
_cell_angle_beta 118.519166
_cell_angle_gamma 90.000000
_cell_volume 2049.136669
_symmetry_space_group_name_H-M "C 2/M"
_symmetry_group_IT_number 12
_symmetry_cell_setting 'monoclinic'
loop_
_space_group_symop_operation_xyz
x,y,z
-x,y,-z
-x,-y,-z
x,-y,z
1/2+x,1/2+y,z
1/2-x,1/2+y,-z
1/2-x,1/2-y,-z
1/2+x,1/2-y,z
loop_
_atom_site_type_symbol
_atom_site_label
_atom_site_fract_x
_atom_site_fract_y
_atom_site_fract_z
Si Si1 0.352821 0.215374 0.311382
Si Si2 0.500000 0.500000 0.500000
Si Si3 0.908399 0.710531 0.925298
Si Si4 0.075122 0.702726 0.440701
Si Si5 0.809842 0.204660 0.642867
Si Si6 0.813125 0.713376 0.152359
Si Si7 0.966057 0.715891 0.805891
O O1 0.468734 0.257040 0.368609
O O2 0.276939 0.282009 0.340388
O O3 0.322766 0.279622 0.229779
O O4 0.345278 0.000000 0.307571
O O5 0.577041 0.343574 0.498279
O O6 0.926096 0.500000 0.925711
O O7 0.795607 0.734986 0.913333
O O8 0.913628 0.779549 0.853652
O O9 0.000000 0.783804 0.000000
O O10 0.067880 0.500000 0.460786
O O11 0.160803 0.712843 0.415355
O O12 0.908961 0.213585 0.723326
O O13 0.783772 0.000000 0.620509
O O14 0.814793 0.500000 0.154866
O O15 0.915821 0.768758 0.152191
O O16 0.960825 0.500000 0.799505
#
# Coordination Sequence:
#
# PCOD9187068 Si02
#       7
#     8   2   8   8   8   8   8
#     4   9  19  36  63  93 125 158 204 263 319 362
#     4  12  26  48  68 102 132 170 218 252 300 394
#     4  10  22  38  53  79 121 164 206 257 318 383
#     4  11  23  45  70  93 132 176 205 257 319 373
#     4  11  20  36  63  97 125 154 210 269 309 370
#     4  10  19  35  57  84 114 153 205 258 307 374
#     4  10  20  35  56  84 117 160 205 257 320 376
#
# _framework density 24.400518999999999
#
# number of rings (size 3 to 8) (size 9 to 14) (size 15 to 20)
#    0.000    1.760    4.000    0.720    0.000    1.600 
#    4.320    0.800    0.000    0.000    0.000    0.000 
#    0.000    0.000    0.000    0.000    0.000    0.000 
#
# Total GULP energy -139629.949825 kJ/mol
# GULP energy per Si atom -5585.197993 kJ/mol
# Density = 2.434498 g / cm^3
# Si number density = 24.400519 Si / 1000 Ang^3
#
#
#
# Elastic Constant Matrix: (Units=GPa)
#
#
# Indices 1 2 3 4 5 6 
#
# 1 91.3704 -8.7246 -14.4907 0.0000 8.0652 0.0000
# 2 -8.7246 87.7385 -7.2787 0.0000 -11.8163 0.0000
# 3 -14.4907 -7.2787 54.0448 0.0000 29.4992 0.0000
# 4 0.0000 0.0000 0.0000 0.5040 0.0000 -15.4729
# 5 8.0652 -11.8163 29.4992 0.0000 38.8531 0.0000
# 6 0.0000 0.0000 0.0000 -15.4729 0.0000 -31.5814
#
#
#
# Elastic Compliance Matrix: (Units=1/GPa)
#
#
# Indices 1 2 3 4 5 6 
#
# 1 0.013166 0.000810 0.008533 0.000000 -0.008966 0.000000
# 2 0.000810 0.011947 -0.000112 0.000000 0.003550 0.000000
# 3 0.008533 -0.000112 0.037162 0.000000 -0.030021 0.000000
# 4 0.000000 0.000000 0.000000 0.123690 0.000000 -0.060600
# 5 -0.008966 0.003550 -0.030021 0.000000 0.051472 0.000000
# 6 0.000000 0.000000 0.000000 -0.060600 0.000000 -0.001974
#
#
# Mechanical properties :
#
#
# Convention : Reuss Voigt Hill
#
# Bulk Modulus (GPa) = 12.38581 19.12951 15.75766
# Shear Modulus (GPa) = 20.49903 19.13164 19.81534
#
# Velocity S-wave (km/s) = 2.90160 2.80316 2.85281
# Velocity P-wave (km/s) = 4.03891 4.28179 4.16212
#
# Compressibility (1/GPa) = 0.08073758
#
# Stress axis : x y z
#
# Youngs Moduli (GPa) = 75.95070 83.70391 26.90901
#
# Poissons Ratio (x) = -0.06777 -0.22961
# Poissons Ratio (y) = -0.06150 0.00300
# Poissons Ratio (z) = -0.64808 0.00935
#
# Static dielectric constant tensor:
#      x y z
#    x 1.933060 0.000000 0.024630 
#    y 0.000000 1.917080 0.000000 
#    z 0.024630 0.000000 1.963320 
# 
# From -- ./inp_files/338256.got.cif
#   From: 2010.05.17/outbox.cif.g08.bks.cpg/sg12_170_cif.got.tgz:338256.got - 2010.06.03 13:09:07.
