data_PCOD9187612
_publ_section_title
;
Structure prediction by ZEFSAII (Michael W. Deem and Ramdas Pophale) SiO2 
 PCOD9187612
Probable space group: C 2/M
;
_chemical_formula_sum "Si O2"
_cell_formula_units_Z 64
_cell_length_a 26.267651
_cell_length_b 8.364739
_cell_length_c 15.022815
_cell_angle_alpha 90.000000
_cell_angle_beta 78.694707
_cell_angle_gamma 90.000000
_cell_volume 3236.795885
_symmetry_space_group_name_H-M "C 2/M"
_symmetry_group_IT_number 12
_symmetry_cell_setting 'monoclinic'
loop_
_space_group_symop_operation_xyz
x,y,z
-x,y,-z
-x,-y,-z
x,-y,z
1/2+x,1/2+y,z
1/2-x,1/2+y,-z
1/2-x,1/2-y,-z
1/2+x,1/2-y,z
loop_
_atom_site_type_symbol
_atom_site_label
_atom_site_fract_x
_atom_site_fract_y
_atom_site_fract_z
Si Si1 0.026480 0.693548 0.898618
Si Si2 0.641478 0.685988 0.832105
Si Si3 0.098119 0.810059 0.576972
Si Si4 0.999669 0.310182 0.715116
Si Si5 0.268187 0.807869 0.089668
Si Si6 0.194559 0.686249 0.640229
Si Si7 0.292592 0.305215 0.710498
Si Si8 0.592443 0.692535 0.377863
O O1 0.031898 0.500000 0.895891
O O2 0.082729 0.770923 0.871715
O O3 0.995757 0.740472 0.819602
O O4 0.000000 0.739823 0.000000
O O5 0.646839 0.500000 0.805361
O O6 0.677328 0.727775 0.903544
O O7 0.663268 0.792287 0.743714
O O8 0.056609 0.735969 0.659008
O O9 0.157625 0.771687 0.581926
O O10 0.085457 0.751748 0.481868
O O11 0.091182 0.000000 0.583096
O O12 0.994955 0.500000 0.713083
O O13 0.955009 0.238981 0.668546
O O14 0.229816 0.761258 0.184642
O O15 0.272960 0.000000 0.088935
O O16 0.250000 0.750000 0.000000
O O17 0.198275 0.500000 0.615507
O O18 0.251854 0.748352 0.647683
O O19 0.291873 0.500000 0.707188
O O20 0.351250 0.250285 0.675444
O O21 0.594647 0.500000 0.380028
#
# Coordination Sequence:
#
# PCOD9187612 Si02
#       8
#     8   8   8   8   8   8   8   8
#     4  10  22  40  60  84 115 152 192 240 300 352
#     4  11  21  35  57  84 114 149 191 237 289 347
#     4  11  22  36  59  88 115 151 195 242 294 349
#     4  11  23  39  60  84 115 154 196 242 291 348
#     4  10  20  36  59  85 115 152 195 240 290 348
#     4  10  19  35  60  85 113 151 192 238 288 343
#     4   8  18  37  58  81 114 155 192 234 292 349
#     4  10  22  40  59  82 118 157 194 239 293 351
#
# _framework density 19.772641
#
# number of rings (size 3 to 8) (size 9 to 14) (size 15 to 20)
#    0.000    1.875    1.250    3.750    0.000    4.750 
#    0.000    6.250    0.000    0.000    0.000    0.000 
#    0.000    0.000    0.000    0.000    0.000    0.000 
#
# Total GULP energy -178699.397704 kJ/mol
# GULP energy per Si atom -5584.356178 kJ/mol
# Density = 1.972764 g / cm^3
# Si number density = 19.772641 Si / 1000 Ang^3
#
#
#
# Elastic Constant Matrix: (Units=GPa)
#
#
# Indices 1 2 3 4 5 6 
#
# 1 91.8245 -0.8083 36.6052 0.0000 18.5147 0.0000
# 2 -0.8083 11.0022 7.6477 0.0000 -0.4594 0.0000
# 3 36.6052 7.6477 99.2977 0.0000 24.7629 0.0000
# 4 0.0000 0.0000 0.0000 19.2576 0.0000 7.3696
# 5 18.5147 -0.4594 24.7629 0.0000 33.5912 0.0000
# 6 0.0000 0.0000 0.0000 7.3696 0.0000 26.0868
#
#
#
# Elastic Compliance Matrix: (Units=1/GPa)
#
#
# Indices 1 2 3 4 5 6 
#
# 1 0.013452 0.003712 -0.004176 0.000000 -0.004285 0.000000
# 2 0.003712 0.098978 -0.010805 0.000000 0.007273 0.000000
# 3 -0.004176 -0.010805 0.014587 0.000000 -0.008599 0.000000
# 4 0.000000 0.000000 0.000000 0.058222 0.000000 -0.016448
# 5 -0.004285 0.007273 -0.008599 0.000000 0.038570 0.000000
# 6 0.000000 0.000000 0.000000 -0.016448 0.000000 0.042980
#
#
# Mechanical properties :
#
#
# Convention : Reuss Voigt Hill
#
# Bulk Modulus (GPa) = 9.57137 32.11263 20.84200
# Shear Modulus (GPa) = 15.42477 26.36577 20.89527
#
# Velocity S-wave (km/s) = 2.79607 3.65560 3.25434
# Velocity P-wave (km/s) = 3.90835 5.83901 4.96837
#
# Compressibility (1/GPa) = 0.10447826
#
# Stress axis : x y z
#
# Youngs Moduli (GPa) = 74.33945 10.10324 68.55460
#
# Poissons Ratio (x) = -0.03751 0.28630
# Poissons Ratio (y) = -0.27597 0.74075
# Poissons Ratio (z) = 0.31046 0.10917
#
# Static dielectric constant tensor:
#      x y z
#    x 1.694150 0.000000 0.012300 
#    y 0.000000 1.684170 0.000000 
#    z 0.012300 0.000000 1.695340 
# 
# From -- ./inp_files/243949.got.cif
#   From: 2010.05.17/outbox.cif.g08.bks.cpg/sg12_122_cif.got.tgz:243949.got - 2010.06.03 13:09:07.
