data_PCOD9187308
_publ_section_title
;
Structure prediction by ZEFSAII (Michael W. Deem and Ramdas Pophale) SiO2 
 PCOD9187308
Probable space group: C 2/M
;
_chemical_formula_sum "Si O2"
_cell_formula_units_Z 44
_cell_length_a 19.552813
_cell_length_b 13.461188
_cell_length_c 21.093530
_cell_angle_alpha 90.000000
_cell_angle_beta 22.328420
_cell_angle_gamma 90.000000
_cell_volume 2109.251592
_symmetry_space_group_name_H-M "C 2/M"
_symmetry_group_IT_number 12
_symmetry_cell_setting 'monoclinic'
loop_
_space_group_symop_operation_xyz
x,y,z
-x,y,-z
-x,-y,-z
x,-y,z
1/2+x,1/2+y,z
1/2-x,1/2+y,-z
1/2-x,1/2-y,-z
1/2+x,1/2-y,z
loop_
_atom_site_type_symbol
_atom_site_label
_atom_site_fract_x
_atom_site_fract_y
_atom_site_fract_z
Si Si1 0.358882 0.216102 0.470520
Si Si2 0.239895 0.384335 0.144791
Si Si3 0.500000 0.753769 0.000000
Si Si4 0.431442 0.388721 0.730490
Si Si5 0.011174 0.195756 0.179137
Si Si6 0.015320 0.613372 0.099119
O O1 0.250000 0.250000 0.500000
O O2 0.531411 0.146216 0.314056
O O3 0.448547 0.319078 0.416727
O O4 0.199862 0.169669 0.648433
O O5 0.253336 0.500000 0.148069
O O6 0.341123 0.316252 0.109669
O O7 0.354141 0.358283 0.983900
O O8 0.575768 0.823455 0.878642
O O9 0.502919 0.500000 0.672844
O O10 0.435645 0.337896 0.796334
O O11 0.220791 0.391743 0.896861
O O12 0.017039 0.313891 0.158577
O O13 0.955673 0.500000 0.161242
#
# Coordination Sequence:
#
# PCOD9187308 Si02
#       6
#     8   8   4   8   8   8
#     4  10  22  37  60  89 128 158 195 248 307 364
#     4  11  23  41  64  90 122 164 203 253 307 360
#     4  10  20  40  64  86 122 160 216 252 294 356
#     4  10  19  35  58  87 121 157 195 244 306 365
#     4  10  21  38  61  91 126 153 201 251 307 367
#     4  10  20  35  62  87 115 160 202 247 303 354
#
# _framework density 20.860481
#
# number of rings (size 3 to 8) (size 9 to 14) (size 15 to 20)
#    0.000    1.818    3.636    1.636    2.545    4.364 
#    0.000    3.636    0.000    6.545    0.000    0.000 
#    0.000    0.000    0.000    0.000    0.000    0.000 
#
# Total GULP energy -122574.227011 kJ/mol
# GULP energy per Si atom -5571.555773 kJ/mol
# Density = 2.081300 g / cm^3
# Si number density = 20.860481 Si / 1000 Ang^3
#
#
#
# Elastic Constant Matrix: (Units=GPa)
#
#
# Indices 1 2 3 4 5 6 
#
# 1 42.4394 21.5131 9.6310 -0.0010 -12.1938 -0.0005
# 2 21.5131 148.4386 14.0279 -0.0049 -3.5881 0.0011
# 3 9.6310 14.0279 135.9668 -0.0035 -12.3374 0.0016
# 4 -0.0010 -0.0049 -0.0035 12.9439 0.0020 3.3792
# 5 -12.1938 -3.5881 -12.3374 0.0020 15.9576 -0.0010
# 6 -0.0005 0.0011 0.0016 3.3792 -0.0010 13.0769
#
#
#
# Elastic Compliance Matrix: (Units=1/GPa)
#
#
# Indices 1 2 3 4 5 6 
#
# 1 0.032549 -0.004163 0.000318 -0.000004 0.024182 0.000004
# 2 -0.004163 0.007352 -0.000648 0.000003 -0.002029 -0.000002
# 3 0.000318 -0.000648 0.007967 0.000001 0.006257 -0.000001
# 4 -0.000004 0.000003 0.000001 0.082845 -0.000013 -0.021408
# 5 0.024182 -0.002029 0.006257 -0.000013 0.085525 0.000010
# 6 0.000004 -0.000002 -0.000001 -0.021408 0.000010 0.082003
#
#
# Mechanical properties :
#
#
# Convention : Reuss Voigt Hill
#
# Bulk Modulus (GPa) = 25.71808 46.35432 36.03620
# Shear Modulus (GPa) = 15.61584 27.17387 21.39485
#
# Velocity S-wave (km/s) = 2.73900 3.61314 3.20600
# Velocity P-wave (km/s) = 4.72844 6.29887 5.56929
#
# Compressibility (1/GPa) = 0.03888315
#
# Stress axis : x y z
#
# Youngs Moduli (GPa) = 30.72290 136.01208 125.52147
#
# Poissons Ratio (x) = 0.56620 -0.03993
# Poissons Ratio (y) = 0.12789 0.08131
# Poissons Ratio (z) = -0.00977 0.08810
#
# Static dielectric constant tensor:
#      x y z
#    x 1.810270 0.000000 0.010600 
#    y 0.000000 1.782820 0.000000 
#    z 0.010600 0.000000 1.830480 
# 
# From -- ./inp_files/347359.got.cif
#   From: 2010.05.17/outbox.cif.g08.bks.cpg/sg12_174_cif.got.tgz:347359.got - 2010.06.03 13:09:07.
