data_PCOD9187316
_publ_section_title
;
Structure prediction by ZEFSAII (Michael W. Deem and Ramdas Pophale) SiO2 
 PCOD9187316
Probable space group: C 2/M
;
_chemical_formula_sum "Si O2"
_cell_formula_units_Z 42
_cell_length_a 14.637539
_cell_length_b 15.756735
_cell_length_c 12.084067
_cell_angle_alpha 90.000000
_cell_angle_beta 56.606561
_cell_angle_gamma 90.000000
_cell_volume 2326.952663
_symmetry_space_group_name_H-M "C 2/M"
_symmetry_group_IT_number 12
_symmetry_cell_setting 'monoclinic'
loop_
_space_group_symop_operation_xyz
x,y,z
-x,y,-z
-x,-y,-z
x,-y,z
1/2+x,1/2+y,z
1/2-x,1/2+y,-z
1/2-x,1/2-y,-z
1/2+x,1/2-y,z
loop_
_atom_site_type_symbol
_atom_site_label
_atom_site_fract_x
_atom_site_fract_y
_atom_site_fract_z
Si Si1 0.363786 0.725526 0.365018
Si Si2 0.562291 0.852061 0.281599
Si Si3 0.889829 0.403978 0.999929
Si Si4 0.247499 0.275932 0.771301
Si Si5 0.879953 0.094425 0.527752
Si Si6 0.500000 0.000000 0.500000
O O1 0.250000 0.750000 0.500000
O O2 0.456932 0.790461 0.341580
O O3 0.342529 0.732466 0.248805
O O4 0.389460 0.634038 0.399181
O O5 0.582389 0.890544 0.146809
O O6 0.665073 0.793457 0.247825
O O7 0.538998 0.925144 0.385640
O O8 0.845859 0.500000 0.046102
O O9 0.808706 0.330359 0.095021
O O10 0.000000 0.397452 0.000000
O O11 0.308440 0.344697 0.652766
O O12 0.000000 0.092256 0.500000
O O13 0.832792 0.000000 0.555571
#
# Coordination Sequence:
#
# PCOD9187316 Si02
#       6
#     8   8   8   8   8   2
#     4  10  21  38  58  88 124 160 206 255 326 373
#     4  12  23  43  63  92 129 165 208 269 316 388
#     4  11  23  42  65  94 124 165 220 263 318 378
#     4  11  22  40  63  88 123 169 211 258 319 379
#     4  10  19  35  58  88 121 157 207 259 312 374
#     4  12  24  40  66  96 132 162 206 270 330 368
#
# _framework density 18.049357000000001
#
# number of rings (size 3 to 8) (size 9 to 14) (size 15 to 20)
#    0.000    1.143    4.762    3.429    0.000    0.000 
#   15.429    0.000    0.000    0.000    0.000    3.333 
#    0.000    0.000    0.000    0.000    0.000    0.000 
#
# Total GULP energy -116932.936077 kJ/mol
# GULP energy per Si atom -5568.235051 kJ/mol
# Density = 1.800828 g / cm^3
# Si number density = 18.049357 Si / 1000 Ang^3
#
#
#
# Elastic Constant Matrix: (Units=GPa)
#
#
# Indices 1 2 3 4 5 6 
#
# 1 85.6001 68.0751 32.6080 0.0000 8.8298 0.0000
# 2 68.0751 125.5328 60.4385 0.0000 23.0147 0.0000
# 3 32.6080 60.4385 124.4136 0.0000 24.6410 0.0000
# 4 0.0000 0.0000 0.0000 47.1600 0.0000 4.9332
# 5 8.8298 23.0147 24.6410 0.0000 23.0219 0.0000
# 6 0.0000 0.0000 0.0000 4.9332 0.0000 12.3201
#
#
#
# Elastic Compliance Matrix: (Units=1/GPa)
#
#
# Indices 1 2 3 4 5 6 
#
# 1 0.020875 -0.011853 -0.000602 0.000000 0.004487 0.000000
# 2 -0.011853 0.017910 -0.003741 0.000000 -0.009354 0.000000
# 3 -0.000602 -0.003741 0.011708 0.000000 -0.008561 0.000000
# 4 0.000000 0.000000 0.000000 0.022131 0.000000 -0.008862
# 5 0.004487 -0.009354 -0.008561 0.000000 0.060230 0.000000
# 6 0.000000 0.000000 0.000000 -0.008862 0.000000 0.084717
#
#
# Mechanical properties :
#
#
# Convention : Reuss Voigt Hill
#
# Bulk Modulus (GPa) = 55.24531 73.08775 64.16653
# Shear Modulus (GPa) = 19.53136 28.12871 23.83004
#
# Velocity S-wave (km/s) = 3.29311 3.95198 3.63749
# Velocity P-wave (km/s) = 6.71817 7.83616 7.29860
#
# Compressibility (1/GPa) = 0.01810109
#
# Stress axis : x y z
#
# Youngs Moduli (GPa) = 47.90371 55.83427 85.40863
#
# Poissons Ratio (x) = 0.66182 0.05140
# Poissons Ratio (y) = 0.56782 0.31953
# Poissons Ratio (z) = 0.02883 0.20889
#
# Static dielectric constant tensor:
#      x y z
#    x 1.601560 0.000000 0.022860 
#    y 0.000000 1.624260 0.000000 
#    z 0.022860 0.000000 1.614820 
# 
# From -- ./inp_files/142620.got.cif
#   From: 2010.05.17/outbox.cif.g08.bks.cpg/sg12_72_cif.got.tgz:142620.got - 2010.06.03 13:09:07.
