data_PCOD9187165
_publ_section_title
;
Structure prediction by ZEFSAII (Michael W. Deem and Ramdas Pophale) SiO2 
 PCOD9187165
Probable space group: C 2/M
;
_chemical_formula_sum "Si O2"
_cell_formula_units_Z 64
_cell_length_a 29.140906
_cell_length_b 7.861892
_cell_length_c 14.557290
_cell_angle_alpha 90.000000
_cell_angle_beta 119.339474
_cell_angle_gamma 90.000000
_cell_volume 2907.325105
_symmetry_space_group_name_H-M "C 2/M"
_symmetry_group_IT_number 12
_symmetry_cell_setting 'monoclinic'
loop_
_space_group_symop_operation_xyz
x,y,z
-x,y,-z
-x,-y,-z
x,-y,z
1/2+x,1/2+y,z
1/2-x,1/2+y,-z
1/2-x,1/2-y,-z
1/2+x,1/2-y,z
loop_
_atom_site_type_symbol
_atom_site_label
_atom_site_fract_x
_atom_site_fract_y
_atom_site_fract_z
Si Si1 0.731642 0.689390 0.081944
Si Si2 0.922652 0.699719 0.172983
Si Si3 0.874809 0.204639 0.460637
Si Si4 0.944159 0.291097 0.986739
Si Si5 0.240463 0.205759 0.595928
Si Si6 0.339713 0.304877 0.231333
Si Si7 0.333098 0.196595 0.818047
Si Si8 0.488549 0.293125 0.594594
O O1 0.710709 0.500000 0.055454
O O2 0.787664 0.694887 0.188444
O O3 0.690961 0.795244 0.102510
O O4 0.750000 0.750000 0.000000
O O5 0.911063 0.500000 0.155254
O O6 0.937324 0.762200 0.086107
O O7 0.871465 0.782828 0.168921
O O8 0.970215 0.727404 0.290819
O O9 0.818032 0.269937 0.436153
O O10 0.877508 0.233178 0.353698
O O11 0.928914 0.265651 0.557988
O O12 0.874259 0.000000 0.473441
O O13 0.943732 0.500000 0.985258
O O14 0.892109 0.231372 0.880731
O O15 0.000000 0.236783 0.000000
O O16 0.250000 0.250000 0.500000
O O17 0.288479 0.271603 0.706854
O O18 0.239255 0.000000 0.606921
O O19 0.321910 0.500000 0.223045
O O20 0.338772 0.000000 0.796636
O O21 0.500000 0.243601 0.500000
O O22 0.491116 0.500000 0.599582
#
# Coordination Sequence:
#
# PCOD9187165 Si02
#       8
#     8   8   8   8   8   8   8   8
#     4  12  24  37  57  89 124 158 198 247 304 363
#     4  11  22  35  56  91 125 152 197 257 306 352
#     4   9  18  35  57  81 111 152 198 241 291 358
#     4   9  20  39  61  84 115 156 200 246 296 351
#     4  10  21  38  60  87 118 155 201 247 300 362
#     4  11  20  37  61  84 117 158 198 240 297 365
#     4  10  20  39  65  87 115 158 205 249 300 364
#     4  10  19  35  58  81 112 162 205 235 291 366
#
# _framework density 22.013362000000001
#
# number of rings (size 3 to 8) (size 9 to 14) (size 15 to 20)
#    0.000    1.750    2.500    2.625    0.000    2.750 
#    0.000    2.500    0.000    3.375    0.000    0.000 
#    0.000    0.000    0.000    0.000    0.000    0.000 
#
# Total GULP energy -178716.959528 kJ/mol
# GULP energy per Si atom -5584.904985 kJ/mol
# Density = 2.196326 g / cm^3
# Si number density = 22.013362 Si / 1000 Ang^3
#
#
#
# Elastic Constant Matrix: (Units=GPa)
#
#
# Indices 1 2 3 4 5 6 
#
# 1 157.5316 -1.0473 56.3379 0.0000 16.3063 0.0000
# 2 -1.0473 33.7211 0.8680 0.0000 3.2867 0.0000
# 3 56.3379 0.8680 92.3342 0.0000 12.9758 0.0000
# 4 0.0000 0.0000 0.0000 20.9996 0.0000 -4.0349
# 5 16.3063 3.2867 12.9758 0.0000 41.6349 0.0000
# 6 0.0000 0.0000 0.0000 -4.0349 0.0000 17.6632
#
#
#
# Elastic Compliance Matrix: (Units=1/GPa)
#
#
# Indices 1 2 3 4 5 6 
#
# 1 0.008248 0.000553 -0.004787 0.000000 -0.001782 0.000000
# 2 0.000553 0.029922 -0.000268 0.000000 -0.002495 0.000000
# 3 -0.004787 -0.000268 0.014105 0.000000 -0.002500 0.000000
# 4 0.000000 0.000000 0.000000 0.049806 0.000000 0.011378
# 5 -0.001782 -0.002495 -0.002500 0.000000 0.025692 0.000000
# 6 0.000000 0.000000 0.000000 0.011378 0.000000 0.059214
#
#
# Mechanical properties :
#
#
# Convention : Reuss Voigt Hill
#
# Bulk Modulus (GPa) = 23.11032 43.98935 33.54984
# Shear Modulus (GPa) = 23.76241 31.22142 27.49192
#
# Velocity S-wave (km/s) = 3.28907 3.77011 3.53777
# Velocity P-wave (km/s) = 4.99450 6.24324 5.65346
#
# Compressibility (1/GPa) = 0.04327071
#
# Stress axis : x y z
#
# Youngs Moduli (GPa) = 121.23869 33.41986 70.89631
#
# Poissons Ratio (x) = -0.01848 0.33941
# Poissons Ratio (y) = -0.06706 0.01901
# Poissons Ratio (z) = 0.58042 0.00896
#
# Static dielectric constant tensor:
#      x y z
#    x 1.804680 0.000000 0.023550 
#    y 0.000000 1.815380 0.000000 
#    z 0.023550 0.000000 1.830590 
# 
# From -- ./inp_files/249191.got.cif
#   From: 2010.05.17/outbox.cif.g08.bks.cpg/sg12_125_cif.got.tgz:249191.got - 2010.06.03 13:09:07.
