data_PCOD9187557
_publ_section_title
;
Structure prediction by ZEFSAII (Michael W. Deem and Ramdas Pophale) SiO2 
 PCOD9187557
Probable space group: C 2/M
;
_chemical_formula_sum "Si O2"
_cell_formula_units_Z 48
_cell_length_a 25.057824
_cell_length_b 8.483780
_cell_length_c 11.323543
_cell_angle_alpha 90.000000
_cell_angle_beta 100.373977
_cell_angle_gamma 90.000000
_cell_volume 2367.866239
_symmetry_space_group_name_H-M "C 2/M"
_symmetry_group_IT_number 12
_symmetry_cell_setting 'monoclinic'
loop_
_space_group_symop_operation_xyz
x,y,z
-x,y,-z
-x,-y,-z
x,-y,z
1/2+x,1/2+y,z
1/2-x,1/2+y,-z
1/2-x,1/2-y,-z
1/2+x,1/2-y,z
loop_
_atom_site_type_symbol
_atom_site_label
_atom_site_fract_x
_atom_site_fract_y
_atom_site_fract_z
Si Si1 0.188487 0.809939 0.479136
Si Si2 0.011206 0.190849 0.643198
Si Si3 0.865673 0.189651 0.302310
Si Si4 0.848122 0.809971 0.787536
Si Si5 0.963185 0.688066 0.872757
Si Si6 0.763174 0.312031 0.132877
O O1 0.250000 0.750000 0.500000
O O2 0.157390 0.752473 0.581827
O O3 0.154306 0.765416 0.350824
O O4 0.191088 0.000000 0.482589
O O5 0.073159 0.241590 0.693020
O O6 0.000000 0.238553 0.500000
O O7 0.978713 0.247612 0.747287
O O8 0.006201 0.000000 0.640700
O O9 0.820673 0.243219 0.193090
O O10 0.866972 0.000000 0.305937
O O11 0.900464 0.735519 0.868927
O O12 0.788674 0.761730 0.809915
O O13 0.852198 0.000000 0.800074
O O14 0.968323 0.500000 0.869969
O O15 0.000000 0.743883 0.000000
O O16 0.766077 0.500000 0.139761
O O17 0.750000 0.250000 0.000000
#
# Coordination Sequence:
#
# PCOD9187557 Si02
#       6
#     8   8   8   8   8   8
#     4  10  19  35  59  90 124 154 194 243 296 360
#     4  10  22  43  69  94 125 167 214 261 309 373
#     4  10  21  37  62  93 124 159 200 247 304 365
#     4  10  22  41  64  89 120 162 207 248 300 369
#     4  11  26  44  63  93 128 164 210 265 319 370
#     4  11  24  40  60  88 123 161 204 251 303 363
#
# _framework density 20.271414
#
# number of rings (size 3 to 8) (size 9 to 14) (size 15 to 20)
#    0.000    1.667    1.667    2.000    2.333    7.000 
#    0.000    1.667    0.000    0.000    0.000    0.000 
#    0.000    0.000    0.000    0.000    0.000    0.000 
#
# Total GULP energy -133918.869003 kJ/mol
# GULP energy per Si atom -5579.952875 kJ/mol
# Density = 2.022528 g / cm^3
# Si number density = 20.271414 Si / 1000 Ang^3
#
#
#
# Elastic Constant Matrix: (Units=GPa)
#
#
# Indices 1 2 3 4 5 6 
#
# 1 98.2752 11.6516 25.2394 0.0000 23.9268 0.0000
# 2 11.6516 5.0751 9.1408 0.0000 1.5237 0.0000
# 3 25.2394 9.1408 113.0162 0.0000 22.0603 0.0000
# 4 0.0000 0.0000 0.0000 25.5199 0.0000 1.8669
# 5 23.9268 1.5237 22.0603 0.0000 38.9156 0.0000
# 6 0.0000 0.0000 0.0000 1.8669 0.0000 30.9120
#
#
#
# Elastic Compliance Matrix: (Units=1/GPa)
#
#
# Indices 1 2 3 4 5 6 
#
# 1 0.016595 -0.037348 0.001148 0.000000 -0.009392 0.000000
# 2 -0.037348 0.314798 -0.021585 0.000000 0.022873 0.000000
# 3 0.001148 -0.021585 0.011593 0.000000 -0.006433 0.000000
# 4 0.000000 0.000000 0.000000 0.039359 0.000000 -0.002377
# 5 -0.009392 0.022873 -0.006433 0.000000 0.034222 0.000000
# 6 0.000000 0.000000 0.000000 -0.002377 0.000000 0.032493
#
#
# Mechanical properties :
#
#
# Convention : Reuss Voigt Hill
#
# Bulk Modulus (GPa) = 4.39723 34.27002 19.33362
# Shear Modulus (GPa) = 7.80717 30.42516 19.11616
#
# Velocity S-wave (km/s) = 1.96461 3.87833 3.07418
# Velocity P-wave (km/s) = 2.70557 6.08256 4.70732
#
# Compressibility (1/GPa) = 0.22741611
#
# Stress axis : x y z
#
# Youngs Moduli (GPa) = 60.25791 3.17664 86.25615
#
# Poissons Ratio (x) = 0.11864 -0.09901
# Poissons Ratio (y) = 2.25052 1.86185
# Poissons Ratio (z) = -0.06916 0.06857
#
# Static dielectric constant tensor:
#      x y z
#    x 1.774510 0.000000 -0.032110 
#    y 0.000000 1.706500 0.000000 
#    z -0.032110 0.000000 1.768800 
# 
# From -- ./inp_files/173066.got.cif
#   From: 2010.05.17/outbox.cif.g08.bks.cpg/sg12_87_cif.got.tgz:173066.got - 2010.06.03 13:09:07.
