data_PCOD9187014
_publ_section_title
;
Structure prediction by ZEFSAII (Michael W. Deem and Ramdas Pophale) SiO2 
 PCOD9187014
Probable space group: C 2/M
;
_chemical_formula_sum "Si O2"
_cell_formula_units_Z 40
_cell_length_a 10.947641
_cell_length_b 14.229577
_cell_length_c 12.266806
_cell_angle_alpha 90.000000
_cell_angle_beta 94.915153
_cell_angle_gamma 90.000000
_cell_volume 1903.899620
_symmetry_space_group_name_H-M "C 2/M"
_symmetry_group_IT_number 12
_symmetry_cell_setting 'monoclinic'
loop_
_space_group_symop_operation_xyz
x,y,z
-x,y,-z
-x,-y,-z
x,-y,z
1/2+x,1/2+y,z
1/2-x,1/2+y,-z
1/2-x,1/2-y,-z
1/2+x,1/2-y,z
loop_
_atom_site_type_symbol
_atom_site_label
_atom_site_fract_x
_atom_site_fract_y
_atom_site_fract_z
Si Si1 0.273485 0.249954 0.850853
Si Si2 0.298621 0.099335 0.301050
Si Si3 0.133968 0.681782 0.475929
Si Si4 0.067451 0.606093 0.233594
Si Si5 0.362512 0.389544 0.035870
O O1 0.274112 0.309169 0.739799
O O2 0.388494 0.179731 0.853170
O O3 0.281739 0.331820 0.941603
O O4 0.161351 0.177026 0.860847
O O5 0.341176 0.104743 0.428645
O O6 0.422052 0.105432 0.239071
O O7 0.234810 0.000000 0.274001
O O8 0.250000 0.750000 0.500000
O O9 0.000000 0.723979 0.500000
O O10 0.878110 0.637283 0.644677
O O11 0.106991 0.500000 0.211054
O O12 0.331582 0.500000 0.046993
O O13 0.500000 0.385580 0.000000
#
# Coordination Sequence:
#
# PCOD9187014 Si02
#       5
#     8   8   8   8   8
#     4  11  20  35  58  78 104 139 180 231 272 318
#     4  10  20  34  55  82 110 144 185 224 268 324
#     4  10  19  35  57  82 116 152 183 223 273 326
#     4  10  20  34  55  82 110 144 185 224 268 324
#     4  10  22  38  54  76 106 140 176 220 282 340
#
# _framework density 21.009512000000001
#
# number of rings (size 3 to 8) (size 9 to 14) (size 15 to 20)
#    0.000    1.800    2.000    3.000    0.000    2.400 
#    0.000    0.000    0.000   14.400    0.000    0.000 
#    0.000    0.000    0.000    0.000    0.000    0.000 
#
# Total GULP energy -111421.619766 kJ/mol
# GULP energy per Si atom -5571.080988 kJ/mol
# Density = 2.096169 g / cm^3
# Si number density = 21.009512 Si / 1000 Ang^3
#
#
#
# Elastic Constant Matrix: (Units=GPa)
#
#
# Indices 1 2 3 4 5 6 
#
# 1 48.1895 43.3071 -9.7163 0.0000 -9.2750 0.0000
# 2 43.3071 175.9568 24.0384 0.0000 -8.3548 0.0000
# 3 -9.7163 24.0384 36.3990 0.0000 -1.6204 0.0000
# 4 0.0000 0.0000 0.0000 13.9448 0.0000 -0.9490
# 5 -9.2750 -8.3548 -1.6204 0.0000 28.0071 0.0000
# 6 0.0000 0.0000 0.0000 -0.9490 0.0000 26.0506
#
#
#
# Elastic Compliance Matrix: (Units=1/GPa)
#
#
# Indices 1 2 3 4 5 6 
#
# 1 0.035533 -0.010601 0.016913 0.000000 0.009583 0.000000
# 2 -0.010601 0.009485 -0.009147 0.000000 -0.001211 0.000000
# 3 0.016913 -0.009147 0.038256 0.000000 0.005086 0.000000
# 4 0.000000 0.000000 0.000000 0.071890 0.000000 0.002619
# 5 0.009583 -0.001211 0.005086 0.000000 0.038812 0.000000
# 6 0.000000 0.000000 0.000000 0.002619 0.000000 0.038482
#
#
# Mechanical properties :
#
#
# Convention : Reuss Voigt Hill
#
# Bulk Modulus (GPa) = 12.88629 41.75594 27.32111
# Shear Modulus (GPa) = 18.93970 27.12822 23.03396
#
# Velocity S-wave (km/s) = 3.00573 3.59727 3.31472
# Velocity P-wave (km/s) = 4.26529 6.09687 5.26139
#
# Compressibility (1/GPa) = 0.07760185
#
# Stress axis : x y z
#
# Youngs Moduli (GPa) = 28.14285 105.43440 26.14001
#
# Poissons Ratio (x) = 1.11771 -0.44210
# Poissons Ratio (y) = 0.29834 0.23911
# Poissons Ratio (z) = -0.47598 0.96446
#
# Static dielectric constant tensor:
#      x y z
#    x 1.760180 0.000000 -0.004230 
#    y 0.000000 1.782220 0.000000 
#    z -0.004230 0.000000 1.858300 
# 
# From -- ./inp_files/203845.got.cif
#   From: 2010.05.17/outbox.cif.g08.bks.cpg/sg12_102_cif.got.tgz:203845.got - 2010.06.03 13:09:07.
