data_PCOD9187979
_publ_section_title
;
Structure prediction by ZEFSAII (Michael W. Deem and Ramdas Pophale) SiO2 
 PCOD9187979
Probable space group: C 2/M
;
_chemical_formula_sum "Si O2"
_cell_formula_units_Z 44
_cell_length_a 13.456105
_cell_length_b 15.038118
_cell_length_c 12.269630
_cell_angle_alpha 90.000000
_cell_angle_beta 134.203651
_cell_angle_gamma 90.000000
_cell_volume 1779.845951
_symmetry_space_group_name_H-M "C 2/M"
_symmetry_group_IT_number 12
_symmetry_cell_setting 'monoclinic'
loop_
_space_group_symop_operation_xyz
x,y,z
-x,y,-z
-x,-y,-z
x,-y,z
1/2+x,1/2+y,z
1/2-x,1/2+y,-z
1/2-x,1/2-y,-z
1/2+x,1/2-y,z
loop_
_atom_site_type_symbol
_atom_site_label
_atom_site_fract_x
_atom_site_fract_y
_atom_site_fract_z
Si Si1 0.500000 0.653342 0.000000
Si Si2 0.474520 0.594177 0.611120
Si Si3 0.590488 0.798333 0.428606
Si Si4 0.815535 0.396466 0.181036
Si Si5 0.838054 0.727565 0.740746
Si Si6 0.786673 0.600010 0.908198
O O1 0.653161 0.611687 0.094902
O O2 0.529876 0.714071 0.127563
O O3 0.500000 0.594831 0.500000
O O4 0.399591 0.500000 0.579405
O O5 0.423602 0.691994 0.598070
O O6 0.621742 0.590199 0.781478
O O7 0.441018 0.841354 0.332824
O O8 0.285693 0.795095 0.388982
O O9 0.638543 0.833214 0.347110
O O10 0.850796 0.500000 0.219047
O O11 0.824079 0.371295 0.058937
O O12 0.814285 0.667766 0.829990
O O13 0.843998 0.500000 0.931284
#
# Coordination Sequence:
#
# PCOD9187979 Si02
#       6
#     4   8   8   8   8   8
#     4  12  25  44  69  96 136 188 249 306 356 432
#     4  10  19  35  64  98 133 177 230 289 345 407
#     4  11  24  43  68 104 149 186 234 292 365 436
#     4  11  26  47  71 102 142 193 246 301 361 430
#     4  11  24  41  68 106 142 187 234 291 365 435
#     4  10  21  40  69 102 138 181 237 297 356 424
#
# _framework density 24.721240999999999
#
# number of rings (size 3 to 8) (size 9 to 14) (size 15 to 20)
#    0.000    1.273    1.818    3.545    0.000    2.909 
#    0.000    8.636    0.000    1.091    0.000    2.545 
#    0.000    0.000    0.000    0.000    0.000    0.000 
#
# Total GULP energy -122636.502592 kJ/mol
# GULP energy per Si atom -5574.386481 kJ/mol
# Density = 2.466497 g / cm^3
# Si number density = 24.721241 Si / 1000 Ang^3
#
#
#
# Elastic Constant Matrix: (Units=GPa)
#
#
# Indices 1 2 3 4 5 6 
#
# 1 116.1253 36.9626 38.4075 0.0000 7.3458 0.0000
# 2 36.9626 100.2178 33.5020 0.0000 18.5512 0.0000
# 3 38.4075 33.5020 149.0914 0.0000 24.8750 0.0000
# 4 0.0000 0.0000 0.0000 67.9585 0.0000 22.0651
# 5 7.3458 18.5512 24.8750 0.0000 45.1708 0.0000
# 6 0.0000 0.0000 0.0000 22.0651 0.0000 76.6410
#
#
#
# Elastic Compliance Matrix: (Units=1/GPa)
#
#
# Indices 1 2 3 4 5 6 
#
# 1 0.010274 -0.003251 -0.002048 0.000000 0.000792 0.000000
# 2 -0.003251 0.012316 -0.001293 0.000000 -0.003817 0.000000
# 3 -0.002048 -0.001293 0.008128 0.000000 -0.003612 0.000000
# 4 0.000000 0.000000 0.000000 0.016232 0.000000 -0.004673
# 5 0.000792 -0.003817 -0.003612 0.000000 0.025566 0.000000
# 6 0.000000 0.000000 0.000000 -0.004673 0.000000 0.014393
#
#
# Mechanical properties :
#
#
# Convention : Reuss Voigt Hill
#
# Bulk Modulus (GPa) = 57.03532 64.79764 60.91648
# Shear Modulus (GPa) = 47.19708 55.05822 51.12765
#
# Velocity S-wave (km/s) = 4.37415 4.72440 4.55264
# Velocity P-wave (km/s) = 6.97369 7.48520 7.23397
#
# Compressibility (1/GPa) = 0.01753300
#
# Stress axis : x y z
#
# Youngs Moduli (GPa) = 97.33771 81.19355 123.02930
#
# Poissons Ratio (x) = 0.26397 0.25199
# Poissons Ratio (y) = 0.31645 0.15909
# Poissons Ratio (z) = 0.19937 0.10499
#
# Static dielectric constant tensor:
#      x y z
#    x 2.087340 0.000000 -0.049670 
#    y 0.000000 2.018370 0.000000 
#    z -0.049670 0.000000 2.021390 
# 
# From -- ./inp_files/131850.got.cif
#   From: 2010.05.17/outbox.cif.g08.bks.cpg/sg12_66_cif.got.tgz:131850.got - 2010.06.03 13:09:07.
