data_PCOD9187906
_publ_section_title
;
Structure prediction by ZEFSAII (Michael W. Deem and Ramdas Pophale) SiO2 
 PCOD9187906
Probable space group: C 2/M
;
_chemical_formula_sum "Si O2"
_cell_formula_units_Z 50
_cell_length_a 14.783337
_cell_length_b 8.446415
_cell_length_c 21.220908
_cell_angle_alpha 90.000000
_cell_angle_beta 53.078914
_cell_angle_gamma 90.000000
_cell_volume 2118.398064
_symmetry_space_group_name_H-M "C 2/M"
_symmetry_group_IT_number 12
_symmetry_cell_setting 'monoclinic'
loop_
_space_group_symop_operation_xyz
x,y,z
-x,y,-z
-x,-y,-z
x,-y,z
1/2+x,1/2+y,z
1/2-x,1/2+y,-z
1/2-x,1/2-y,-z
1/2+x,1/2-y,z
loop_
_atom_site_type_symbol
_atom_site_label
_atom_site_fract_x
_atom_site_fract_y
_atom_site_fract_z
Si Si1 0.000000 0.000000 0.500000
Si Si2 0.428933 0.671800 0.409708
Si Si3 0.611556 0.308485 0.872789
Si Si4 0.024934 0.191670 0.186769
Si Si5 0.171921 0.315109 0.303997
Si Si6 0.262811 0.688669 0.064912
Si Si7 0.188473 0.317106 0.646498
O O1 0.060869 0.135403 0.520334
O O2 0.403334 0.500000 0.390587
O O3 0.557862 0.719819 0.339727
O O4 0.340198 0.788759 0.414726
O O5 0.604608 0.500000 0.879054
O O6 0.508467 0.261192 0.871318
O O7 0.723280 0.269577 0.784674
O O8 0.634776 0.251513 0.933735
O O9 0.147781 0.260046 0.147989
O O10 0.929408 0.267935 0.270419
O O11 0.022949 0.000000 0.192259
O O12 0.148756 0.500000 0.304673
O O13 0.218142 0.283088 0.355208
O O14 0.271004 0.500000 0.058276
O O15 0.250000 0.750000 0.000000
O O16 0.216384 0.500000 0.646580
#
# Coordination Sequence:
#
# PCOD9187906 Si02
#       7
#     2   8   8   8   8   8   8
#     4   8  24  40  62  80 124 154 202 228 292 332
#     4  10  20  39  60  81 119 154 190 239 280 341
#     4   8  18  35  55  79 110 143 184 233 287 341
#     4  10  20  37  58  84 111 144 190 245 296 342
#     4  10  19  35  62  92 115 146 193 247 300 346
#     4  11  22  37  54  77 112 155 197 237 288 358
#     4  11  21  35  60  92 119 150 190 239 297 353
#
# _framework density 23.602740000000001
#
# number of rings (size 3 to 8) (size 9 to 14) (size 15 to 20)
#    0.480    1.600    0.000    5.280    0.000    1.920 
#    0.000   14.400    0.000    0.000    0.000    0.000 
#    0.000    0.000    0.000    0.000    0.000    0.000 
#
# Total GULP energy -139380.708036 kJ/mol
# GULP energy per Si atom -5575.228321 kJ/mol
# Density = 2.354902 g / cm^3
# Si number density = 23.602740 Si / 1000 Ang^3
#
#
#
# Elastic Constant Matrix: (Units=GPa)
#
#
# Indices 1 2 3 4 5 6 
#
# 1 128.5034 -9.2720 17.2219 0.0000 36.3534 0.0000
# 2 -9.2720 45.8005 0.4786 0.0000 4.8246 0.0001
# 3 17.2219 0.4786 58.0768 0.0000 12.9418 0.0000
# 4 0.0000 0.0000 0.0000 23.5070 0.0000 7.8470
# 5 36.3534 4.8246 12.9418 0.0000 45.0178 0.0000
# 6 0.0000 0.0001 0.0000 7.8470 0.0000 30.4949
#
#
#
# Elastic Compliance Matrix: (Units=1/GPa)
#
#
# Indices 1 2 3 4 5 6 
#
# 1 0.010578 0.003050 -0.001267 0.000000 -0.008505 0.000000
# 2 0.003050 0.022970 0.000004 0.000000 -0.004926 0.000000
# 3 -0.001267 0.000004 0.018555 0.000000 -0.004312 0.000000
# 4 0.000000 0.000000 0.000000 0.046538 0.000000 -0.011975
# 5 -0.008505 -0.004926 -0.004312 0.000000 0.030849 0.000000
# 6 0.000000 0.000000 0.000000 -0.011975 0.000000 0.035874
#
#
# Mechanical properties :
#
#
# Convention : Reuss Voigt Hill
#
# Bulk Modulus (GPa) = 17.96032 27.69310 22.82671
# Shear Modulus (GPa) = 27.72424 34.73408 31.22916
#
# Velocity S-wave (km/s) = 3.43099 3.84032 3.64141
# Velocity P-wave (km/s) = 4.82924 5.60558 5.23183
#
# Compressibility (1/GPa) = 0.05567830
#
# Stress axis : x y z
#
# Youngs Moduli (GPa) = 94.53859 43.53459 53.89382
#
# Poissons Ratio (x) = -0.13280 0.06826
# Poissons Ratio (y) = -0.28839 -0.00021
# Poissons Ratio (z) = 0.11975 -0.00017
#
# Static dielectric constant tensor:
#      x y z
#    x 1.853910 0.000000 0.069110 
#    y 0.000000 1.576550 0.000000 
#    z 0.069110 0.000000 1.997450 
# 
# From -- ./inp_files/308412.got.cif
#   From: 2010.05.17/outbox.cif.g08.bks.cpg/sg12_155_cif.got.tgz:308412.got - 2010.06.03 13:09:07.
