data_PCOD9187778
_publ_section_title
;
Structure prediction by ZEFSAII (Michael W. Deem and Ramdas Pophale) SiO2 
 PCOD9187778
Probable space group: C 2/M
;
_chemical_formula_sum "Si O2"
_cell_formula_units_Z 56
_cell_length_a 21.546237
_cell_length_b 14.876559
_cell_length_c 9.551488
_cell_angle_alpha 90.000000
_cell_angle_beta 55.152623
_cell_angle_gamma 90.000000
_cell_volume 2512.564537
_symmetry_space_group_name_H-M "C 2/M"
_symmetry_group_IT_number 12
_symmetry_cell_setting 'monoclinic'
loop_
_space_group_symop_operation_xyz
x,y,z
-x,y,-z
-x,-y,-z
x,-y,z
1/2+x,1/2+y,z
1/2-x,1/2+y,-z
1/2-x,1/2-y,-z
1/2+x,1/2-y,z
loop_
_atom_site_type_symbol
_atom_site_label
_atom_site_fract_x
_atom_site_fract_y
_atom_site_fract_z
Si Si1 0.285137 0.892040 0.286938
Si Si2 0.144874 0.897409 0.963808
Si Si3 0.951966 0.395700 0.701629
Si Si4 0.057632 0.396218 0.797503
Si Si5 0.857977 0.110113 0.350072
Si Si6 0.508199 0.389940 0.328914
Si Si7 0.284082 0.848011 0.959641
O O1 0.362927 0.857203 0.255164
O O2 0.212367 0.858036 0.465047
O O3 0.286548 0.000000 0.300317
O O4 0.282318 0.876452 0.124480
O O5 0.146175 0.857687 0.805771
O O6 0.226597 0.899444 0.931342
O O7 0.119153 0.000000 0.975672
O O8 0.083868 0.858053 0.151402
O O9 0.935988 0.500000 0.766394
O O10 0.869898 0.352936 0.797259
O O11 0.000000 0.397747 0.500000
O O12 0.008526 0.351412 0.740019
O O13 0.073215 0.500000 0.731091
O O14 0.000000 0.400140 0.000000
O O15 0.935874 0.132948 0.327374
O O16 0.853920 0.000000 0.353306
O O17 0.500000 0.357499 0.500000
O O18 0.511317 0.500000 0.333970
O O19 0.250000 0.750000 0.000000
#
# Coordination Sequence:
#
# PCOD9187778 Si02
#       7
#     8   8   8   8   8   8   8
#     4  10  19  35  61  89 117 151 198 251 310 374
#     4  10  20  35  58  83 113 150 197 253 302 352
#     4  10  21  38  66  96 121 152 202 265 319 362
#     4   9  16  30  57  91 116 142 187 251 313 359
#     4   9  18  31  55  90 116 140 185 249 305 353
#     4   9  16  29  52  82 113 145 185 234 285 338
#     4  12  25  40  56  82 125 164 200 240 303 379
#
# _framework density 22.287986
#
# number of rings (size 3 to 8) (size 9 to 14) (size 15 to 20)
#    0.000    2.143    1.429    2.571    2.000    4.000 
#    0.000    2.857    6.286    0.000    0.000    0.000 
#    0.000    0.000    0.000    0.000    0.000    0.000 
#
# Total GULP energy -156373.871429 kJ/mol
# GULP energy per Si atom -5584.781122 kJ/mol
# Density = 2.223726 g / cm^3
# Si number density = 22.287986 Si / 1000 Ang^3
#
#
#
# Elastic Constant Matrix: (Units=GPa)
#
#
# Indices 1 2 3 4 5 6 
#
# 1 209.1809 5.4144 102.3005 0.0000 -6.2553 0.0000
# 2 5.4144 44.2971 2.5152 0.0000 -11.6466 0.0000
# 3 102.3005 2.5152 156.7829 0.0000 -6.6401 0.0000
# 4 0.0000 0.0000 0.0000 -2.1954 0.0000 -12.2796
# 5 -6.2553 -11.6466 -6.6401 0.0000 31.1349 0.0000
# 6 0.0000 0.0000 0.0000 -12.2796 0.0000 16.2188
#
#
#
# Elastic Compliance Matrix: (Units=1/GPa)
#
#
# Indices 1 2 3 4 5 6 
#
# 1 0.007038 -0.000538 -0.004574 0.000000 0.000237 0.000000
# 2 -0.000538 0.025078 0.000345 0.000000 0.009346 0.000000
# 3 -0.004574 0.000345 0.009409 0.000000 0.001217 0.000000
# 4 0.000000 0.000000 0.000000 -0.087013 0.000000 -0.065879
# 5 0.000237 0.009346 0.001217 0.000000 0.035922 0.000000
# 6 0.000000 0.000000 0.000000 -0.065879 0.000000 0.011778
#
#
# Mechanical properties :
#
#
# Convention : Reuss Voigt Hill
#
# Bulk Modulus (GPa) = 31.25900 70.08014 50.66957
# Shear Modulus (GPa) = 223.10632 29.03373 126.07002
#
# Velocity S-wave (km/s) = 10.01593 3.61316 7.52907
# Velocity P-wave (km/s) = 12.15788 6.99413 9.91796
#
# Compressibility (1/GPa) = 0.03199079
#
# Stress axis : x y z
#
# Youngs Moduli (GPa) = 142.07668 39.87488 106.28468
#
# Poissons Ratio (x) = 0.02146 0.48613
# Poissons Ratio (y) = 0.07647 -0.03664
# Poissons Ratio (z) = 0.64984 -0.01374
#
# Static dielectric constant tensor:
#      x y z
#    x 1.848420 0.000000 0.042380 
#    y 0.000000 1.891110 0.000000 
#    z 0.042380 0.000000 1.805030 
# 
# From -- ./inp_files/77374.got.cif
#   From: 2010.05.17/outbox.cif.g08.bks.cpg/sg12_39_cif.got.tgz:77374.got - 2010.06.03 13:09:07.
