data_PCOD9187520
_publ_section_title
;
Structure prediction by ZEFSAII (Michael W. Deem and Ramdas Pophale) SiO2 
 PCOD9187520
Probable space group: C 2/M
;
_chemical_formula_sum "Si O2"
_cell_formula_units_Z 40
_cell_length_a 9.400704
_cell_length_b 27.464170
_cell_length_c 12.260093
_cell_angle_alpha 90.000000
_cell_angle_beta 44.408711
_cell_angle_gamma 90.000000
_cell_volume 2215.017472
_symmetry_space_group_name_H-M "C 2/M"
_symmetry_group_IT_number 12
_symmetry_cell_setting 'monoclinic'
loop_
_space_group_symop_operation_xyz
x,y,z
-x,y,-z
-x,-y,-z
x,-y,z
1/2+x,1/2+y,z
1/2-x,1/2+y,-z
1/2-x,1/2-y,-z
1/2+x,1/2-y,z
loop_
_atom_site_type_symbol
_atom_site_label
_atom_site_fract_x
_atom_site_fract_y
_atom_site_fract_z
Si Si1 0.629286 0.280854 0.819323
Si Si2 0.357599 0.867277 0.177910
Si Si3 0.548196 0.444931 0.344844
Si Si4 0.929262 0.154499 0.340609
Si Si5 0.062653 0.304453 0.679770
O O1 0.553546 0.327678 0.792267
O O2 0.601287 0.237164 0.748738
O O3 0.862364 0.289854 0.724106
O O4 0.500000 0.272928 0.000000
O O5 0.274579 0.922191 0.211496
O O6 0.460813 0.853220 0.234344
O O7 0.144151 0.837759 0.284441
O O8 0.500000 0.854457 0.000000
O O9 0.500000 0.443603 0.500000
O O10 0.529277 0.500000 0.315864
O O11 0.407492 0.403949 0.364769
O O12 0.751016 0.184166 0.497259
#
# Coordination Sequence:
#
# PCOD9187520 Si02
#       5
#     8   8   8   8   8
#     4  12  25  38  59  85 121 155 195 241 297 344
#     4  10  19  35  59  87 121 146 192 245 292 339
#     4   9  18  36  64  89 117 150 197 244 290 343
#     4  10  21  39  57  85 116 154 197 237 291 345
#     4  12  22  38  56  86 116 160 195 236 284 359
#
# _framework density 18.058548999999999
#
# number of rings (size 3 to 8) (size 9 to 14) (size 15 to 20)
#    1.200    0.200    2.000    5.400    0.000    2.000 
#    0.000    0.000    0.000    4.200    0.000    0.000 
#    0.000    0.000    0.000    0.000    0.000    0.000 
#
# Total GULP energy -111435.938032 kJ/mol
# GULP energy per Si atom -5571.796902 kJ/mol
# Density = 1.801745 g / cm^3
# Si number density = 18.058549 Si / 1000 Ang^3
#
#
#
# Elastic Constant Matrix: (Units=GPa)
#
#
# Indices 1 2 3 4 5 6 
#
# 1 59.7051 36.9029 -16.1288 0.0000 -1.2541 0.0000
# 2 36.9029 120.9869 20.2412 0.0000 4.8460 0.0000
# 3 -16.1288 20.2412 53.0147 0.0000 2.8562 0.0000
# 4 0.0000 0.0000 0.0000 8.3153 0.0000 -2.3659
# 5 -1.2541 4.8460 2.8562 0.0000 28.9670 0.0000
# 6 0.0000 0.0000 0.0000 -2.3659 0.0000 18.2363
#
#
#
# Elastic Compliance Matrix: (Units=1/GPa)
#
#
# Indices 1 2 3 4 5 6 
#
# 1 0.026102 -0.009979 0.011662 0.000000 0.001649 0.000000
# 2 -0.009979 0.012682 -0.007782 0.000000 -0.001786 0.000000
# 3 0.011662 -0.007782 0.025419 0.000000 -0.000700 0.000000
# 4 0.000000 0.000000 0.000000 0.124869 0.000000 0.016200
# 5 0.001649 -0.001786 -0.000700 0.000000 0.034961 0.000000
# 6 0.000000 0.000000 0.000000 0.016200 0.000000 0.056937
#
#
# Mechanical properties :
#
#
# Convention : Reuss Voigt Hill
#
# Bulk Modulus (GPa) = 19.22825 35.08193 27.15509
# Shear Modulus (GPa) = 16.10288 23.94983 20.02635
#
# Velocity S-wave (km/s) = 2.98938 3.64570 3.33373
# Velocity P-wave (km/s) = 4.75248 6.09840 5.46701
#
# Compressibility (1/GPa) = 0.05200681
#
# Stress axis : x y z
#
# Youngs Moduli (GPa) = 38.31183 78.84936 39.33993
#
# Poissons Ratio (x) = 0.78680 -0.45878
# Poissons Ratio (y) = 0.38230 0.30613
# Poissons Ratio (z) = -0.44679 0.61359
#
# Static dielectric constant tensor:
#      x y z
#    x 1.601010 0.000000 -0.009610 
#    y 0.000000 1.679980 0.000000 
#    z -0.009610 0.000000 1.634130 
# 
# From -- ./inp_files/124993.got.cif
#   From: 2010.05.17/outbox.cif.g08.bks.cpg/sg12_63_cif.got.tgz:124993.got - 2010.06.03 13:09:07.
