data_PCOD9187127
_publ_section_title
;
Structure prediction by ZEFSAII (Michael W. Deem and Ramdas Pophale) SiO2 
 PCOD9187127
Probable space group: C 2/M
;
_chemical_formula_sum "Si O2"
_cell_formula_units_Z 64
_cell_length_a 18.922189
_cell_length_b 9.159789
_cell_length_c 33.160754
_cell_angle_alpha 90.000000
_cell_angle_beta 142.449254
_cell_angle_gamma 90.000000
_cell_volume 3502.911733
_symmetry_space_group_name_H-M "C 2/M"
_symmetry_group_IT_number 12
_symmetry_cell_setting 'monoclinic'
loop_
_space_group_symop_operation_xyz
x,y,z
-x,y,-z
-x,-y,-z
x,-y,z
1/2+x,1/2+y,z
1/2-x,1/2+y,-z
1/2-x,1/2-y,-z
1/2+x,1/2-y,z
loop_
_atom_site_type_symbol
_atom_site_label
_atom_site_fract_x
_atom_site_fract_y
_atom_site_fract_z
Si Si1 0.287966 0.826822 0.976041
Si Si2 0.156839 0.671054 0.307810
Si Si3 0.934345 0.171706 0.429779
Si Si4 0.560960 0.173360 0.102017
Si Si5 0.927798 0.330722 0.344781
Si Si6 0.647556 0.330431 0.221085
Si Si7 0.765767 0.822886 0.135701
Si Si8 0.487629 0.325001 0.289998
O O1 0.228146 0.771434 0.907766
O O2 0.265158 0.000000 0.969957
O O3 0.250000 0.750000 0.000000
O O4 0.425789 0.808142 0.031488
O O5 0.127484 0.500000 0.295742
O O6 0.295941 0.685079 0.372940
O O7 0.117102 0.742256 0.247643
O O8 0.096689 0.757054 0.316601
O O9 0.966007 0.264017 0.404737
O O10 0.000000 0.217690 0.500000
O O11 0.959751 0.000000 0.434169
O O12 0.591978 0.259726 0.156515
O O13 0.647551 0.219923 0.105325
O O14 0.581530 0.000000 0.118215
O O15 0.960587 0.500000 0.356070
O O16 0.787248 0.322125 0.279884
O O17 0.974728 0.238607 0.328704
O O18 0.614438 0.500000 0.210351
O O19 0.874382 0.780808 0.212458
O O20 0.764314 0.000000 0.132929
O O21 0.492830 0.500000 0.293224
#
# Coordination Sequence:
#
# PCOD9187127 Si02
#       8
#     8   8   8   8   8   8   8   8
#     4  10  22  38  55  78 107 142 184 234 286 341
#     4  10  21  36  56  83 117 147 181 230 276 325
#     4   9  19  38  63  87 113 150 190 226 271 329
#     4  10  19  35  58  79 102 141 190 231 277 334
#     4  10  20  35  56  85 117 148 184 229 276 326
#     4  10  20  34  54  81 111 144 183 228 276 332
#     4   9  19  36  57  78 104 142 187 229 275 331
#     4  11  21  35  57  84 115 150 187 231 281 335
#
# _framework density 18.270513999999999
#
# number of rings (size 3 to 8) (size 9 to 14) (size 15 to 20)
#    0.000    2.125    1.250    1.875    1.750    3.750 
#    0.000    1.875    0.000    1.500    0.000    0.000 
#    0.000    0.000    0.000    0.000    0.000    0.000 
#
# Total GULP energy -178659.075220 kJ/mol
# GULP energy per Si atom -5583.096101 kJ/mol
# Density = 1.822893 g / cm^3
# Si number density = 18.270514 Si / 1000 Ang^3
#
#
#
# Elastic Constant Matrix: (Units=GPa)
#
#
# Indices 1 2 3 4 5 6 
#
# 1 102.6032 58.3242 36.6335 0.0000 -32.0381 0.0001
# 2 58.3242 81.4364 44.1516 -0.0001 -20.1501 0.0003
# 3 36.6335 44.1516 82.3035 0.0000 -39.0146 0.0000
# 4 0.0000 -0.0001 0.0000 21.0947 0.0000 -5.4581
# 5 -32.0381 -20.1501 -39.0146 0.0000 28.4580 0.0000
# 6 0.0001 0.0003 0.0000 -5.4581 0.0000 33.7384
#
#
#
# Elastic Compliance Matrix: (Units=1/GPa)
#
#
# Indices 1 2 3 4 5 6 
#
# 1 0.026878 -0.018552 0.017439 0.000000 0.041031 0.000000
# 2 -0.018552 0.030139 -0.021978 0.000000 -0.029676 0.000000
# 3 0.017439 -0.021978 0.051719 0.000000 0.074975 0.000000
# 4 0.000000 0.000000 0.000000 0.049476 0.000000 0.008004
# 5 0.041031 -0.029676 0.074975 0.000000 0.163106 0.000000
# 6 0.000000 0.000000 0.000000 0.008004 0.000000 0.030935
#
#
# Mechanical properties :
#
#
# Convention : Reuss Voigt Hill
#
# Bulk Modulus (GPa) = 15.98649 60.50686 38.24667
# Shear Modulus (GPa) = 11.92505 25.14047 18.53276
#
# Velocity S-wave (km/s) = 2.55756 3.71349 3.18835
# Velocity P-wave (km/s) = 4.18215 7.18163 5.87648
#
# Compressibility (1/GPa) = 0.06255283
#
# Stress axis : x y z
#
# Youngs Moduli (GPa) = 37.20582 33.17971 19.33536
#
# Poissons Ratio (x) = 0.61554 -0.33718
# Poissons Ratio (y) = 0.69023 0.42495
# Poissons Ratio (z) = -0.64882 0.72923
#
# Static dielectric constant tensor:
#      x y z
#    x 1.616180 0.000000 0.010110 
#    y 0.000000 1.611450 0.000000 
#    z 0.010110 0.000000 1.616970 
# 
# From -- ./inp_files/378302.got.cif
#   From: 2010.05.17/outbox.cif.g08.bks.cpg/sg12_190_cif.got.tgz:378302.got - 2010.06.03 13:09:07.
