data_PCOD9187950
_publ_section_title
;
Structure prediction by ZEFSAII (Michael W. Deem and Ramdas Pophale) SiO2 
 PCOD9187950
Probable space group: C 2/M
;
_chemical_formula_sum "Si O2"
_cell_formula_units_Z 44
_cell_length_a 18.154586
_cell_length_b 12.163250
_cell_length_c 29.457650
_cell_angle_alpha 90.000000
_cell_angle_beta 160.033095
_cell_angle_gamma 90.000000
_cell_volume 2221.242246
_symmetry_space_group_name_H-M "C 2/M"
_symmetry_group_IT_number 12
_symmetry_cell_setting 'monoclinic'
loop_
_space_group_symop_operation_xyz
x,y,z
-x,y,-z
-x,-y,-z
x,-y,z
1/2+x,1/2+y,z
1/2-x,1/2+y,-z
1/2-x,1/2-y,-z
1/2+x,1/2-y,z
loop_
_atom_site_type_symbol
_atom_site_label
_atom_site_fract_x
_atom_site_fract_y
_atom_site_fract_z
Si Si1 0.287431 0.000000 0.739767
Si Si2 0.090186 0.131988 0.774306
Si Si3 0.795136 0.000000 0.426257
Si Si4 0.597403 0.000000 0.833149
Si Si5 0.141459 0.256527 0.540425
Si Si6 0.693322 0.712433 0.733020
Si Si7 0.412278 0.310336 0.997511
O O1 0.414439 0.000000 0.766119
O O2 0.327029 0.111751 0.788687
O O3 0.026165 0.000000 0.584622
O O4 0.103336 0.169225 0.729056
O O5 0.286157 0.196370 0.912952
O O6 0.862016 0.177580 0.660610
O O7 0.107417 0.000000 0.787824
O O8 0.806888 0.871056 0.416861
O O9 0.544127 0.000000 0.295510
O O10 0.741398 0.106615 0.919012
O O11 0.000000 0.301963 0.500000
O O12 0.993789 0.251140 0.409509
O O13 0.877058 0.800434 0.849767
O O14 0.500000 0.352422 0.000000
#
# Coordination Sequence:
#
# PCOD9187950 Si02
#       7
#     4   8   4   4   8   8   8
#     4  10  21  35  66  90 117 158 207 263 292 358
#     4  11  23  41  64  89 122 170 207 244 305 370
#     4  10  19  35  63  93 116 149 199 255 304 350
#     4  12  20  40  62  95 123 154 204 259 322 352
#     4  11  22  41  66  92 123 159 205 259 306 361
#     4  10  22  42  60  92 124 161 207 250 304 364
#     4  10  24  40  63  89 127 164 201 252 308 373
#
# _framework density 19.808736
#
# number of rings (size 3 to 8) (size 9 to 14) (size 15 to 20)
#    0.000    1.455    2.727    3.545    1.273    2.182 
#    1.636    0.000    0.000    0.000    0.000    0.000 
#    0.000    0.000    0.000    0.000    0.000    0.000 
#
# Total GULP energy -122473.446872 kJ/mol
# GULP energy per Si atom -5566.974858 kJ/mol
# Density = 1.976365 g / cm^3
# Si number density = 19.808736 Si / 1000 Ang^3
#
#
#
# Elastic Constant Matrix: (Units=GPa)
#
#
# Indices 1 2 3 4 5 6 
#
# 1 62.7938 23.4329 41.2284 -0.0039 7.8878 -0.0015
# 2 23.4329 49.0774 22.4789 0.0244 -8.7065 0.0038
# 3 41.2284 22.4789 72.0572 0.0501 28.1466 0.0004
# 4 -0.0039 0.0244 0.0501 -51.0993 -0.0074 -35.0079
# 5 7.8878 -8.7065 28.1466 -0.0074 -18.3168 -0.0045
# 6 -0.0015 0.0038 0.0004 -35.0079 -0.0045 -26.4306
#
#
#
# Elastic Compliance Matrix: (Units=1/GPa)
#
#
# Indices 1 2 3 4 5 6 
#
# 1 0.027066 -0.007977 -0.011893 -0.000168 -0.002828 0.000220
# 2 -0.007977 0.021400 0.002002 0.000115 -0.010531 -0.000147
# 3 -0.011893 0.002002 0.014017 0.000156 0.015466 -0.000208
# 4 -0.000168 0.000115 0.000156 -0.211390 0.000128 0.279990
# 5 -0.002828 -0.010531 0.015466 0.000128 -0.027041 -0.000166
# 6 0.000220 -0.000147 -0.000208 0.279990 -0.000166 -0.408688
#
#
# Mechanical properties :
#
#
# Convention : Reuss Voigt Hill
#
# Bulk Modulus (GPa) = 37.38903 39.80097 38.59500
# Shear Modulus (GPa) = -9.25951 -12.71681 -10.98816
#
# Velocity S-wave (km/s) = -2.16439 -2.53648 -2.35779
# Velocity P-wave (km/s) = 3.55947 3.39970 3.48050
#
# Compressibility (1/GPa) = 0.02674581
#
# Stress axis : x y z
#
# Youngs Moduli (GPa) = 36.94733 46.72957 71.34411
#
# Poissons Ratio (x) = 0.37278 0.84847
# Poissons Ratio (y) = 0.29474 -0.14283
# Poissons Ratio (z) = 0.43940 -0.09355
#
# Static dielectric constant tensor:
#      x y z
#    x 1.900770 0.000000 -0.083930 
#    y 0.000000 1.709380 -0.000010 
#    z -0.083930 -0.000010 1.751780 
# 
# From -- ./inp_files/379152.got.cif
#   From: 2010.05.17/outbox.cif.g08.bks.cpg/sg12_190_cif.got.tgz:379152.got - 2010.06.03 13:09:07.
