data_PCOD9187288
_publ_section_title
;
Structure prediction by ZEFSAII (Michael W. Deem and Ramdas Pophale) SiO2 
 PCOD9187288
Probable space group: C 2/M
;
_chemical_formula_sum "Si O2"
_cell_formula_units_Z 52
_cell_length_a 16.863583
_cell_length_b 12.111089
_cell_length_c 18.168076
_cell_angle_alpha 90.000000
_cell_angle_beta 35.624945
_cell_angle_gamma 90.000000
_cell_volume 2161.328136
_symmetry_space_group_name_H-M "C 2/M"
_symmetry_group_IT_number 12
_symmetry_cell_setting 'monoclinic'
loop_
_space_group_symop_operation_xyz
x,y,z
-x,y,-z
-x,-y,-z
x,-y,z
1/2+x,1/2+y,z
1/2-x,1/2+y,-z
1/2-x,1/2-y,-z
1/2+x,1/2-y,z
loop_
_atom_site_type_symbol
_atom_site_label
_atom_site_fract_x
_atom_site_fract_y
_atom_site_fract_z
Si Si1 0.763875 0.623958 0.114266
Si Si2 0.866078 0.631425 0.886951
Si Si3 0.500000 0.276705 0.000000
Si Si4 0.769402 0.374611 0.520394
Si Si5 0.408439 0.121452 0.693572
Si Si6 0.132098 0.169530 0.358281
Si Si7 0.883177 0.231061 0.235976
O O1 0.819910 0.500000 0.075375
O O2 0.644854 0.625912 0.265032
O O3 0.748961 0.642998 0.037707
O O4 0.880557 0.700520 0.058663
O O5 0.900945 0.500000 0.857171
O O6 0.993722 0.702754 0.818237
O O7 0.837129 0.659706 0.823662
O O8 0.563313 0.328290 0.878850
O O9 0.734996 0.500000 0.515404
O O10 0.750000 0.250000 0.500000
O O11 0.683572 0.356399 0.659194
O O12 0.931052 0.378820 0.411441
O O13 0.385129 0.200855 0.643921
O O14 0.359600 0.000000 0.713442
O O15 0.272509 0.172373 0.297688
O O16 0.000000 0.127296 0.500000
#
# Coordination Sequence:
#
# PCOD9187288 Si02
#       7
#     8   8   4   8   8   8   8
#     4   9  18  33  53  80 113 153 198 244 295 352
#     4   9  18  36  64  86 105 147 209 258 293 349
#     4   8  17  32  57  82 110 152 200 248 292 350
#     4  11  22  38  62  91 121 157 203 255 303 354
#     4  10  21  37  59  84 112 151 198 244 295 359
#     4  11  22  34  51  83 121 155 187 237 296 359
#     4  10  19  35  58  86 116 151 197 247 298 353
#
# _framework density 24.059280000000001
#
# number of rings (size 3 to 8) (size 9 to 14) (size 15 to 20)
#    0.000    2.154    3.077    0.231    0.000    5.538 
#    0.000    1.154    0.000    5.538    0.000    0.000 
#    0.000    0.000    0.000    0.000    0.000    0.000 
#
# Total GULP energy -144960.124748 kJ/mol
# GULP energy per Si atom -5575.389413 kJ/mol
# Density = 2.400452 g / cm^3
# Si number density = 24.059280 Si / 1000 Ang^3
#
#
#
# Elastic Constant Matrix: (Units=GPa)
#
#
# Indices 1 2 3 4 5 6 
#
# 1 59.1389 38.2494 27.5902 -0.0001 5.5311 0.0000
# 2 38.2494 101.8917 30.8657 0.0000 9.0442 0.0000
# 3 27.5902 30.8657 165.8625 -0.0001 29.1098 0.0000
# 4 -0.0001 0.0000 -0.0001 15.3292 0.0001 -6.3757
# 5 5.5311 9.0442 29.1098 0.0001 37.8406 0.0000
# 6 0.0000 0.0000 0.0000 -6.3757 0.0000 -8.8940
#
#
#
# Elastic Compliance Matrix: (Units=1/GPa)
#
#
# Indices 1 2 3 4 5 6 
#
# 1 0.023183 -0.008000 -0.002438 0.000000 0.000399 0.000000
# 2 -0.008000 0.013205 -0.000899 0.000000 -0.001295 0.000000
# 3 -0.002438 -0.000899 0.007516 0.000000 -0.005211 0.000000
# 4 0.000000 0.000000 0.000000 0.050252 0.000000 -0.036024
# 5 0.000399 -0.001295 -0.005211 0.000000 0.030687 0.000000
# 6 0.000000 0.000000 0.000000 -0.036024 0.000000 -0.086612
#
#
# Mechanical properties :
#
#
# Convention : Reuss Voigt Hill
#
# Bulk Modulus (GPa) = 47.10082 57.81153 52.45617
# Shear Modulus (GPa) = 73.54872 24.20101 48.87486
#
# Velocity S-wave (km/s) = 5.53499 3.17502 4.51203
# Velocity P-wave (km/s) = 7.77610 6.12552 6.99963
#
# Compressibility (1/GPa) = 0.02123105
#
# Stress axis : x y z
#
# Youngs Moduli (GPa) = 43.13434 75.73016 133.04072
#
# Poissons Ratio (x) = 0.60583 0.32431
# Poissons Ratio (y) = 0.34507 0.11965
# Poissons Ratio (z) = 0.10515 0.06811
#
# Static dielectric constant tensor:
#      x y z
#    x 1.912280 0.000000 0.048440 
#    y 0.000000 2.013470 0.000000 
#    z 0.048440 0.000000 2.011860 
# 
# From -- ./inp_files/321520.got.cif
#   From: 2010.05.17/outbox.cif.g08.bks.cpg/sg12_161_cif.got.tgz:321520.got - 2010.06.03 13:09:07.
