data_PCOD9187572
_publ_section_title
;
Structure prediction by ZEFSAII (Michael W. Deem and Ramdas Pophale) SiO2 
 PCOD9187572
Probable space group: C 2/M
;
_chemical_formula_sum "Si O2"
_cell_formula_units_Z 64
_cell_length_a 28.571242
_cell_length_b 18.426853
_cell_length_c 11.897995
_cell_angle_alpha 90.000000
_cell_angle_beta 25.470362
_cell_angle_gamma 90.000000
_cell_volume 2693.810966
_symmetry_space_group_name_H-M "C 2/M"
_symmetry_group_IT_number 12
_symmetry_cell_setting 'monoclinic'
loop_
_space_group_symop_operation_xyz
x,y,z
-x,y,-z
-x,-y,-z
x,-y,z
1/2+x,1/2+y,z
1/2-x,1/2+y,-z
1/2-x,1/2-y,-z
1/2+x,1/2-y,z
loop_
_atom_site_type_symbol
_atom_site_label
_atom_site_fract_x
_atom_site_fract_y
_atom_site_fract_z
Si Si1 0.995333 0.233812 0.883370
Si Si2 0.510375 0.918953 0.194297
Si Si3 0.060354 0.078797 0.727392
Si Si4 0.270224 0.082790 0.434400
Si Si5 0.685729 0.832010 0.450238
Si Si6 0.899470 0.693845 0.882323
Si Si7 0.215191 0.083954 0.189955
Si Si8 0.189350 0.189844 0.052416
O O1 0.985637 0.147931 0.904791
O O2 0.117823 0.257125 0.582216
O O3 0.908629 0.269819 0.987325
O O4 0.000000 0.262177 0.000000
O O5 0.407619 0.893982 0.346906
O O6 0.506401 0.865083 0.309635
O O7 0.503372 0.000000 0.248399
O O8 0.620120 0.912303 0.880755
O O9 0.166005 0.085330 0.578267
O O10 0.109278 0.081931 0.497151
O O11 0.008166 0.000000 0.858072
O O12 0.261932 0.147733 0.543408
O O13 0.271384 0.000000 0.480092
O O14 0.755710 0.833137 0.185252
O O15 0.799252 0.641384 0.065636
O O16 0.909955 0.761140 0.777452
O O17 0.256528 0.000000 0.095587
O O18 0.182303 0.118773 0.142907
O O19 0.250000 0.250000 0.000000
#
# Coordination Sequence:
#
# PCOD9187572 Si02
#       8
#     8   8   8   8   8   8   8   8
#     4  11  24  37  59  94 130 163 199 251 311 372
#     4  10  19  35  59  92 130 162 192 242 314 383
#     4  10  22  41  65  87 115 164 215 254 303 367
#     4  10  20  35  61  92 124 163 202 250 312 377
#     4  11  22  35  58  92 130 159 200 257 310 372
#     4  10  20  38  60  88 123 162 203 249 305 357
#     4  10  20  41  69  90 117 161 214 256 303 367
#     4  10  23  41  62  86 124 168 210 258 299 358
#
# _framework density 23.758163
#
# number of rings (size 3 to 8) (size 9 to 14) (size 15 to 20)
#    0.000    1.750    1.250    4.125    1.750    2.750 
#    0.000   16.250    0.000    7.875    0.000    0.000 
#    0.000    0.000    0.000    0.000    0.000    0.000 
#
# Total GULP energy -178437.051808 kJ/mol
# GULP energy per Si atom -5576.157869 kJ/mol
# Density = 2.370409 g / cm^3
# Si number density = 23.758163 Si / 1000 Ang^3
#
#
#
# Elastic Constant Matrix: (Units=GPa)
#
#
# Indices 1 2 3 4 5 6 
#
# 1 107.2865 58.6898 21.9864 0.0000 17.2637 0.0000
# 2 58.6898 169.0661 32.1211 0.0000 2.5538 0.0000
# 3 21.9864 32.1211 67.0465 0.0000 12.9015 0.0000
# 4 0.0000 0.0000 0.0000 20.9552 0.0000 1.6765
# 5 17.2637 2.5538 12.9015 0.0000 28.2879 0.0000
# 6 0.0000 0.0000 0.0000 1.6765 0.0000 42.8235
#
#
#
# Elastic Compliance Matrix: (Units=1/GPa)
#
#
# Indices 1 2 3 4 5 6 
#
# 1 0.012957 -0.004229 -0.000849 0.000000 -0.007138 0.000000
# 2 -0.004229 0.007909 -0.003027 0.000000 0.003247 0.000000
# 3 -0.000849 -0.003027 0.018078 0.000000 -0.007453 0.000000
# 4 0.000000 0.000000 0.000000 0.047871 0.000000 -0.001874
# 5 -0.007138 0.003247 -0.007453 0.000000 0.042813 0.000000
# 6 0.000000 0.000000 0.000000 -0.001874 0.000000 0.023425
#
#
# Mechanical properties :
#
#
# Convention : Reuss Voigt Hill
#
# Bulk Modulus (GPa) = 43.98861 63.22154 53.60507
# Shear Modulus (GPa) = 28.27396 33.78676 31.03036
#
# Velocity S-wave (km/s) = 3.45349 3.77518 3.61791
# Velocity P-wave (km/s) = 5.87005 6.75802 6.32963
#
# Compressibility (1/GPa) = 0.02273316
#
# Stress axis : x y z
#
# Youngs Moduli (GPa) = 77.17986 126.44030 55.31556
#
# Poissons Ratio (x) = 0.53467 0.04699
# Poissons Ratio (y) = 0.32636 0.16745
# Poissons Ratio (z) = 0.06556 0.38276
#
# Static dielectric constant tensor:
#      x y z
#    x 1.945290 0.000000 -0.008160 
#    y 0.000000 1.953050 0.000000 
#    z -0.008160 0.000000 1.938550 
# 
# From -- ./inp_files/190046.got.cif
#   From: 2010.05.17/outbox.cif.g08.bks.cpg/sg12_96_cif.got.tgz:190046.got - 2010.06.03 13:09:07.
