data_PCOD9187356
_publ_section_title
;
Structure prediction by ZEFSAII (Michael W. Deem and Ramdas Pophale) SiO2 
 PCOD9187356
Probable space group: C 2/M
;
_chemical_formula_sum "Si O2"
_cell_formula_units_Z 64
_cell_length_a 20.918016
_cell_length_b 19.943243
_cell_length_c 9.853258
_cell_angle_alpha 90.000000
_cell_angle_beta 62.941143
_cell_angle_gamma 90.000000
_cell_volume 3660.575832
_symmetry_space_group_name_H-M "C 2/M"
_symmetry_group_IT_number 12
_symmetry_cell_setting 'monoclinic'
loop_
_space_group_symop_operation_xyz
x,y,z
-x,y,-z
-x,-y,-z
x,-y,z
1/2+x,1/2+y,z
1/2-x,1/2+y,-z
1/2-x,1/2-y,-z
1/2+x,1/2-y,z
loop_
_atom_site_type_symbol
_atom_site_label
_atom_site_fract_x
_atom_site_fract_y
_atom_site_fract_z
Si Si1 0.961155 0.687413 0.680357
Si Si2 0.291766 0.194508 0.118205
Si Si3 0.304382 0.921768 0.317769
Si Si4 0.793440 0.678813 0.804116
Si Si5 0.062118 0.220805 0.055345
Si Si6 0.721849 0.422098 0.668493
Si Si7 0.916745 0.074484 0.039985
Si Si8 0.474825 0.921682 0.178038
O O1 0.878471 0.675738 0.724256
O O2 0.967014 0.751743 0.773647
O O3 0.000000 0.694200 0.500000
O O4 0.989503 0.626022 0.745307
O O5 0.292332 0.128475 0.206577
O O6 0.235657 0.250210 0.222113
O O7 0.271798 0.176388 0.983085
O O8 0.369833 0.231283 0.044426
O O9 0.252939 0.902131 0.492557
O O10 0.388752 0.916015 0.273471
O O11 0.291369 0.000000 0.296472
O O12 0.759397 0.621011 0.747948
O O13 0.089297 0.143799 0.037234
O O14 0.000000 0.225144 0.000000
O O15 0.741362 0.500000 0.665089
O O16 0.636736 0.416529 0.779852
O O17 0.898642 0.000000 0.998785
O O18 0.000000 0.071757 0.000000
O O19 0.494615 0.000000 0.178492
O O20 0.500000 0.903407 0.000000
#
# Coordination Sequence:
#
# PCOD9187356 Si02
#       8
#     8   8   8   8   8   8   8   8
#     4  11  22  35  52  79 116 147 179 221 269 320
#     4  10  20  36  54  75 112 142 179 218 262 320
#     4  10  21  36  56  83 113 142 180 229 273 316
#     4  10  21  35  52  76 108 148 179 214 261 325
#     4  10  19  35  59  81 102 138 183 224 268 326
#     4  10  20  36  56  82 110 136 178 228 276 325
#     4   9  18  35  58  80 102 133 179 233 279 320
#     4  10  20  36  58  83 111 147 189 226 261 315
#
# _framework density 17.483587
#
# number of rings (size 3 to 8) (size 9 to 14) (size 15 to 20)
#    0.000    2.000    1.250    3.375    0.000    1.750 
#    4.500    0.000    0.000    0.375    0.000    0.000 
#    0.000    0.000    0.000    0.000    0.000    0.000 
#
# Total GULP energy -178388.210147 kJ/mol
# GULP energy per Si atom -5574.631567 kJ/mol
# Density = 1.744379 g / cm^3
# Si number density = 17.483587 Si / 1000 Ang^3
#
#
#
# Elastic Constant Matrix: (Units=GPa)
#
#
# Indices 1 2 3 4 5 6 
#
# 1 68.0354 34.3973 39.1184 0.0000 -2.7380 0.0000
# 2 34.3973 106.5444 66.0562 0.0000 10.8940 0.0000
# 3 39.1184 66.0562 114.8086 0.0000 -4.6656 0.0000
# 4 0.0000 0.0000 0.0000 17.7166 0.0000 -1.5628
# 5 -2.7380 10.8940 -4.6656 0.0000 19.7429 0.0000
# 6 0.0000 0.0000 0.0000 -1.5628 0.0000 16.6723
#
#
#
# Elastic Compliance Matrix: (Units=1/GPa)
#
#
# Indices 1 2 3 4 5 6 
#
# 1 0.019262 -0.004135 -0.004022 0.000000 0.004002 0.000000
# 2 -0.004135 0.017805 -0.009348 0.000000 -0.012607 0.000000
# 3 -0.004022 -0.009348 0.015798 0.000000 0.008334 0.000000
# 4 0.000000 0.000000 0.000000 0.056915 0.000000 0.005335
# 5 0.004002 -0.012607 0.008334 0.000000 0.060132 0.000000
# 6 0.000000 0.000000 0.000000 0.005335 0.000000 0.060480
#
#
# Mechanical properties :
#
#
# Convention : Reuss Voigt Hill
#
# Bulk Modulus (GPa) = 56.00199 63.17025 59.58612
# Shear Modulus (GPa) = 18.42625 20.81414 19.62019
#
# Velocity S-wave (km/s) = 3.24993 3.45410 3.35357
# Velocity P-wave (km/s) = 6.79584 7.21923 7.01073
#
# Compressibility (1/GPa) = 0.01785651
#
# Stress axis : x y z
#
# Youngs Moduli (GPa) = 51.91592 56.16306 63.30099
#
# Poissons Ratio (x) = 0.23221 0.25457
# Poissons Ratio (y) = 0.21465 0.59174
# Poissons Ratio (z) = 0.20878 0.52501
#
# Static dielectric constant tensor:
#      x y z
#    x 1.564570 0.000000 0.072970 
#    y 0.000000 1.615610 0.000000 
#    z 0.072970 0.000000 1.090190 
# 
# From -- ./inp_files/89583.got.cif
#   From: 2010.05.17/outbox.cif.g08.bks.cpg/sg12_45_cif.got.tgz:89583.got - 2010.06.03 13:09:07.
