data_PCOD9187339
_publ_section_title
;
Structure prediction by ZEFSAII (Michael W. Deem and Ramdas Pophale) SiO2 
 PCOD9187339
Probable space group: C 2/M
;
_chemical_formula_sum "Si O2"
_cell_formula_units_Z 56
_cell_length_a 14.222911
_cell_length_b 18.035595
_cell_length_c 12.439914
_cell_angle_alpha 90.000000
_cell_angle_beta 120.644515
_cell_angle_gamma 90.000000
_cell_volume 2745.425278
_symmetry_space_group_name_H-M "C 2/M"
_symmetry_group_IT_number 12
_symmetry_cell_setting 'monoclinic'
loop_
_space_group_symop_operation_xyz
x,y,z
-x,y,-z
-x,-y,-z
x,-y,z
1/2+x,1/2+y,z
1/2-x,1/2+y,-z
1/2-x,1/2-y,-z
1/2+x,1/2-y,z
loop_
_atom_site_type_symbol
_atom_site_label
_atom_site_fract_x
_atom_site_fract_y
_atom_site_fract_z
Si Si1 0.338662 0.820171 0.628579
Si Si2 0.533011 0.852778 0.898816
Si Si3 0.291965 0.913749 0.150534
Si Si4 0.794026 0.414693 0.389884
Si Si5 0.961662 0.915115 0.717749
Si Si6 0.911708 0.182530 0.042738
Si Si7 0.095258 0.192205 0.482177
O O1 0.422989 0.847825 0.764819
O O2 0.330935 0.868070 0.514403
O O3 0.215620 0.814049 0.603079
O O4 0.381224 0.741464 0.609740
O O5 0.614509 0.906233 0.883643
O O6 0.589041 0.770621 0.935601
O O7 0.500000 0.873929 0.000000
O O8 0.334700 0.892454 0.295147
O O9 0.254122 0.000000 0.135604
O O10 0.197906 0.856560 0.061929
O O11 0.824847 0.500000 0.426764
O O12 0.661611 0.410709 0.306450
O O13 0.947230 0.885720 0.588303
O O14 0.043807 0.862433 0.829084
O O15 0.997448 0.000000 0.744557
O O16 0.000000 0.172397 0.000000
O O17 0.000000 0.224759 0.500000
#
# Coordination Sequence:
#
# PCOD9187339 Si02
#       7
#     8   8   8   8   8   8   8
#     4  10  22  41  63  90 124 168 212 258 322 370
#     4  11  26  43  61  92 131 175 219 263 314 392
#     4  11  24  41  65  97 130 169 217 267 325 386
#     4   9  20  37  63  95 124 158 209 272 319 372
#     4  10  19  35  58  92 129 160 206 263 323 380
#     4  11  21  38  64  93 128 166 208 270 325 373
#     4  10  22  38  62  91 124 167 211 257 316 383
#
# _framework density 20.397569000000001
#
# number of rings (size 3 to 8) (size 9 to 14) (size 15 to 20)
#    0.000    1.714    2.857    0.857    2.000    2.857 
#    0.000    1.429    0.000    0.000    0.000    0.000 
#    0.000    0.000    0.000    0.000    0.000    0.000 
#
# Total GULP energy -156338.396981 kJ/mol
# GULP energy per Si atom -5583.514178 kJ/mol
# Density = 2.035114 g / cm^3
# Si number density = 20.397569 Si / 1000 Ang^3
#
#
#
# Elastic Constant Matrix: (Units=GPa)
#
#
# Indices 1 2 3 4 5 6 
#
# 1 87.5185 24.6156 38.7943 0.0000 -9.3434 0.0000
# 2 24.6156 50.8218 27.7947 0.0000 -5.5491 0.0000
# 3 38.7943 27.7947 98.3643 0.0000 -0.5793 0.0000
# 4 0.0000 0.0000 0.0000 18.7690 0.0000 -7.3247
# 5 -9.3434 -5.5491 -0.5793 0.0000 18.0977 0.0000
# 6 0.0000 0.0000 0.0000 -7.3247 0.0000 17.5182
#
#
#
# Elastic Compliance Matrix: (Units=1/GPa)
#
#
# Indices 1 2 3 4 5 6 
#
# 1 0.015448 -0.004086 -0.004899 0.000000 0.006566 0.000000
# 2 -0.004086 0.025256 -0.005493 0.000000 0.005459 0.000000
# 3 -0.004899 -0.005493 0.013628 0.000000 -0.003777 0.000000
# 4 0.000000 0.000000 0.000000 0.063668 0.000000 0.026621
# 5 0.006566 0.005459 -0.003777 0.000000 0.060198 0.000000
# 6 0.000000 0.000000 0.000000 0.026621 0.000000 0.068214
#
#
# Mechanical properties :
#
#
# Convention : Reuss Voigt Hill
#
# Bulk Modulus (GPa) = 39.40752 46.56819 42.98786
# Shear Modulus (GPa) = 17.61632 20.57700 19.09666
#
# Velocity S-wave (km/s) = 2.94198 3.17960 3.06309
# Velocity P-wave (km/s) = 5.55895 6.02990 5.79921
#
# Compressibility (1/GPa) = 0.02537587
#
# Stress axis : x y z
#
# Youngs Moduli (GPa) = 64.73303 39.59511 73.37593
#
# Poissons Ratio (x) = 0.16178 0.35950
# Poissons Ratio (y) = 0.26449 0.40304
# Poissons Ratio (z) = 0.31715 0.21749
#
# Static dielectric constant tensor:
#      x y z
#    x 1.736210 0.000000 -0.003990 
#    y 0.000000 1.746990 0.000000 
#    z -0.003990 0.000000 1.720950 
# 
# From -- ./inp_files/146229.got.cif
#   From: 2010.05.17/outbox.cif.g08.bks.cpg/sg12_74_cif.got.tgz:146229.got - 2010.06.03 13:09:07.
