data_PCOD9187932
_publ_section_title
;
Structure prediction by ZEFSAII (Michael W. Deem and Ramdas Pophale) SiO2 
 PCOD9187932
Probable space group: C 2/M
;
_chemical_formula_sum "Si O2"
_cell_formula_units_Z 56
_cell_length_a 17.614817
_cell_length_b 20.986658
_cell_length_c 9.599770
_cell_angle_alpha 90.000000
_cell_angle_beta 127.077796
_cell_angle_gamma 90.000000
_cell_volume 2831.299935
_symmetry_space_group_name_H-M "C 2/M"
_symmetry_group_IT_number 12
_symmetry_cell_setting 'monoclinic'
loop_
_space_group_symop_operation_xyz
x,y,z
-x,y,-z
-x,-y,-z
x,-y,z
1/2+x,1/2+y,z
1/2-x,1/2+y,-z
1/2-x,1/2-y,-z
1/2+x,1/2-y,z
loop_
_atom_site_type_symbol
_atom_site_label
_atom_site_fract_x
_atom_site_fract_y
_atom_site_fract_z
Si Si1 0.931615 0.102576 0.620747
Si Si2 0.809396 0.675981 0.398562
Si Si3 0.888682 0.769451 0.693655
Si Si4 0.783677 0.676378 0.046079
Si Si5 0.399412 0.848681 0.906937
Si Si6 0.220909 0.571874 0.433090
Si Si7 0.866778 0.073652 0.236753
O O1 0.949387 0.169896 0.716691
O O2 0.835356 0.073503 0.579507
O O3 0.897805 0.102833 0.421128
O O4 0.033168 0.069147 0.734680
O O5 0.876221 0.730286 0.536428
O O6 0.708215 0.700256 0.350063
O O7 0.826572 0.608709 0.491317
O O8 0.810887 0.668720 0.236681
O O9 0.913007 0.716243 0.833520
O O10 0.868516 0.666362 0.029256
O O11 0.704538 0.623373 0.915426
O O12 0.750000 0.750000 0.000000
O O13 0.313897 0.887071 0.738197
O O14 0.500000 0.883854 0.000000
O O15 0.189854 0.500000 0.383202
O O16 0.831234 0.000000 0.216474
#
# Coordination Sequence:
#
# PCOD9187932 Si02
#       7
#     8   8   8   8   8   8   8
#     4  10  19  35  63  87 121 163 203 248 304 374
#     4   9  19  35  60  85 116 156 201 251 300 368
#     4   9  18  37  56  85 121 155 200 247 305 362
#     4  12  23  39  63  92 126 162 206 257 314 360
#     4  11  24  39  61  90 125 160 206 260 306 367
#     4  10  20  40  63  85 118 168 209 246 310 379
#     4  11  23  37  58  95 129 159 205 257 310 369
#
# _framework density 19.7789
#
# number of rings (size 3 to 8) (size 9 to 14) (size 15 to 20)
#    0.000    1.714    2.857    3.429    2.000    0.857 
#    0.000    4.286    0.000    5.143    0.000    0.000 
#    0.000    0.000    0.000    0.000    0.000    0.000 
#
# Total GULP energy -155951.900355 kJ/mol
# GULP energy per Si atom -5569.710727 kJ/mol
# Density = 1.973388 g / cm^3
# Si number density = 19.778900 Si / 1000 Ang^3
#
#
#
# Elastic Constant Matrix: (Units=GPa)
#
#
# Indices 1 2 3 4 5 6 
#
# 1 77.2808 30.9191 34.9084 0.0000 -8.8485 0.0000
# 2 30.9191 114.6742 33.9519 0.0000 -12.3431 0.0000
# 3 34.9084 33.9519 74.6229 0.0000 -32.2078 0.0000
# 4 0.0000 0.0000 0.0000 -10.9720 0.0000 11.9831
# 5 -8.8485 -12.3431 -32.2078 0.0000 39.6371 0.0000
# 6 0.0000 0.0000 0.0000 11.9831 0.0000 14.2267
#
#
#
# Elastic Compliance Matrix: (Units=1/GPa)
#
#
# Indices 1 2 3 4 5 6 
#
# 1 0.017442 -0.002550 -0.008719 0.000000 -0.003985 0.000000
# 2 -0.002550 0.010472 -0.003711 0.000000 -0.000324 0.000000
# 3 -0.008719 -0.003711 0.027460 0.000000 0.019210 0.000000
# 4 0.000000 0.000000 0.000000 -0.047471 0.000000 0.039985
# 5 -0.003985 -0.000324 0.019210 0.000000 0.039848 0.000000
# 6 0.000000 0.000000 0.000000 0.039985 0.000000 0.036611
#
#
# Mechanical properties :
#
#
# Convention : Reuss Voigt Hill
#
# Bulk Modulus (GPa) = 39.35149 51.79296 45.57223
# Shear Modulus (GPa) = 40.71845 19.69825 30.20835
#
# Velocity S-wave (km/s) = 4.54219 3.15925 3.91231
# Velocity P-wave (km/s) = 6.88822 6.28893 6.59538
#
# Compressibility (1/GPa) = 0.02541200
#
# Stress axis : x y z
#
# Youngs Moduli (GPa) = 57.33140 95.49322 36.41721
#
# Poissons Ratio (x) = 0.24354 0.31753
# Poissons Ratio (y) = 0.14622 0.13516
# Poissons Ratio (z) = 0.49989 0.35441
#
# Static dielectric constant tensor:
#      x y z
#    x 1.746300 0.000000 0.043370 
#    y 0.000000 1.737740 0.000000 
#    z 0.043370 0.000000 1.742990 
# 
# From -- ./inp_files/77634.got.cif
#   From: 2010.05.17/outbox.cif.g08.bks.cpg/sg12_39_cif.got.tgz:77634.got - 2010.06.03 13:09:07.
