data_PCOD9187644
_publ_section_title
;
Structure prediction by ZEFSAII (Michael W. Deem and Ramdas Pophale) SiO2 
 PCOD9187644
Probable space group: C 2/M
;
_chemical_formula_sum "Si O2"
_cell_formula_units_Z 48
_cell_length_a 20.810478
_cell_length_b 8.593459
_cell_length_c 15.294938
_cell_angle_alpha 90.000000
_cell_angle_beta 99.773238
_cell_angle_gamma 90.000000
_cell_volume 2695.558831
_symmetry_space_group_name_H-M "C 2/M"
_symmetry_group_IT_number 12
_symmetry_cell_setting 'monoclinic'
loop_
_space_group_symop_operation_xyz
x,y,z
-x,y,-z
-x,-y,-z
x,-y,z
1/2+x,1/2+y,z
1/2-x,1/2+y,-z
1/2-x,1/2-y,-z
1/2+x,1/2-y,z
loop_
_atom_site_type_symbol
_atom_site_label
_atom_site_fract_x
_atom_site_fract_y
_atom_site_fract_z
Si Si1 0.984331 0.813227 0.767174
Si Si2 0.811195 0.812583 0.567953
Si Si3 0.455115 0.186969 0.572040
Si Si4 0.664394 0.688554 0.231277
Si Si5 0.557533 0.813842 0.945961
Si Si6 0.306610 0.313844 0.952276
O O1 0.986254 0.751118 0.668911
O O2 0.912101 0.768457 0.785666
O O3 0.036606 0.742476 0.845146
O O4 0.988682 0.000000 0.768022
O O5 0.750000 0.750000 0.500000
O O6 0.881384 0.752634 0.550134
O O7 0.806787 0.761139 0.668929
O O8 0.811872 0.000000 0.565684
O O9 0.500000 0.230939 0.500000
O O10 0.451640 0.000000 0.575478
O O11 0.666719 0.500000 0.231660
O O12 0.697046 0.743497 0.149325
O O13 0.563758 0.000000 0.948472
O O14 0.500000 0.768615 0.000000
O O15 0.624169 0.738205 0.993350
O O16 0.303365 0.500000 0.950362
O O17 0.250000 0.250000 0.000000
#
# Coordination Sequence:
#
# PCOD9187644 Si02
#       6
#     8   8   8   8   8   8
#     4  10  19  35  60  87 112 148 193 234 281 335
#     4  10  20  37  60  86 111 147 193 236 283 337
#     4  10  21  38  59  85 118 153 185 230 289 340
#     4   8  17  34  57  80 108 146 185 228 282 336
#     4  11  22  36  58  88 116 147 191 237 277 335
#     4  11  22  39  58  81 115 153 190 233 287 339
#
# _framework density 17.807068000000001
#
# number of rings (size 3 to 8) (size 9 to 14) (size 15 to 20)
#    0.000    2.000    1.667    3.500    0.000    2.000 
#    3.000    2.500    0.000    0.000    0.000    0.000 
#    0.000    0.000    0.000    0.000    0.000    0.000 
#
# Total GULP energy -133958.087743 kJ/mol
# GULP energy per Si atom -5581.586989 kJ/mol
# Density = 1.776654 g / cm^3
# Si number density = 17.807068 Si / 1000 Ang^3
#
#
#
# Elastic Constant Matrix: (Units=GPa)
#
#
# Indices 1 2 3 4 5 6 
#
# 1 116.0669 39.8106 95.8605 0.0000 -6.1630 0.0000
# 2 39.8106 54.6711 38.5898 0.0000 -6.1329 0.0000
# 3 95.8605 38.5898 163.0470 0.0000 -10.8055 0.0000
# 4 0.0000 0.0000 0.0000 28.2744 0.0000 2.7837
# 5 -6.1630 -6.1329 -10.8055 0.0000 36.1988 0.0000
# 6 0.0000 0.0000 0.0000 2.7837 0.0000 31.9021
#
#
#
# Elastic Compliance Matrix: (Units=1/GPa)
#
#
# Indices 1 2 3 4 5 6 
#
# 1 0.018796 -0.007132 -0.009417 0.000000 -0.000819 0.000000
# 2 -0.007132 0.024841 -0.001518 0.000000 0.002541 0.000000
# 3 -0.009417 -0.001518 0.012146 0.000000 0.001765 0.000000
# 4 0.000000 0.000000 0.000000 0.035674 0.000000 -0.003113
# 5 -0.000819 0.002541 0.001765 0.000000 0.028443 0.000000
# 6 0.000000 0.000000 0.000000 -0.003113 0.000000 0.031618
#
#
# Mechanical properties :
#
#
# Convention : Reuss Voigt Hill
#
# Bulk Modulus (GPa) = 50.89208 75.81187 63.35197
# Shear Modulus (GPa) = 25.74644 29.90998 27.82821
#
# Velocity S-wave (km/s) = 3.80656 4.10282 3.95747
# Velocity P-wave (km/s) = 6.92544 8.06912 7.51905
#
# Compressibility (1/GPa) = 0.01964942
#
# Stress axis : x y z
#
# Youngs Moduli (GPa) = 53.20255 40.25613 82.33097
#
# Poissons Ratio (x) = 0.28710 0.77532
# Poissons Ratio (y) = 0.37943 0.12497
# Poissons Ratio (z) = 0.50102 0.06111
#
# Static dielectric constant tensor:
#      x y z
#    x 1.573750 0.000000 -0.008130 
#    y 0.000000 1.602530 0.000000 
#    z -0.008130 0.000000 1.625450 
# 
# From -- ./inp_files/221628.got.cif
#   From: 2010.05.17/outbox.cif.g08.bks.cpg/sg12_111_cif.got.tgz:221628.got - 2010.06.03 13:09:07.
