data_PCOD9187811
_publ_section_title
;
Structure prediction by ZEFSAII (Michael W. Deem and Ramdas Pophale) SiO2 
 PCOD9187811
Probable space group: C 2/M
;
_chemical_formula_sum "Si O2"
_cell_formula_units_Z 48
_cell_length_a 27.159641
_cell_length_b 17.624785
_cell_length_c 11.708525
_cell_angle_alpha 90.000000
_cell_angle_beta 21.528223
_cell_angle_gamma 90.000000
_cell_volume 2056.686823
_symmetry_space_group_name_H-M "C 2/M"
_symmetry_group_IT_number 12
_symmetry_cell_setting 'monoclinic'
loop_
_space_group_symop_operation_xyz
x,y,z
-x,y,-z
-x,-y,-z
x,-y,z
1/2+x,1/2+y,z
1/2-x,1/2+y,-z
1/2-x,1/2-y,-z
1/2+x,1/2-y,z
loop_
_atom_site_type_symbol
_atom_site_label
_atom_site_fract_x
_atom_site_fract_y
_atom_site_fract_z
Si Si1 0.685962 0.661609 0.380123
Si Si2 0.654605 0.590975 0.208837
Si Si3 0.666752 0.914301 0.396353
Si Si4 0.100298 0.705068 0.700834
Si Si5 0.209331 0.416468 0.645004
Si Si6 0.926160 0.082353 0.003081
O O1 0.694598 0.645322 0.227764
O O2 0.704659 0.740210 0.409762
O O3 0.776403 0.602379 0.253900
O O4 0.529305 0.645135 0.743092
O O5 0.500000 0.605134 0.500000
O O6 0.658420 0.500000 0.229477
O O7 0.764765 0.603667 0.872109
O O8 0.567208 0.853172 0.668106
O O9 0.795762 0.914985 0.202534
O O10 0.611615 0.000000 0.513077
O O11 0.146745 0.648610 0.702112
O O12 0.000000 0.751922 0.000000
O O13 0.152422 0.500000 0.744928
O O14 0.361427 0.416546 0.267493
O O15 0.990958 0.000000 0.842490
#
# Coordination Sequence:
#
# PCOD9187811 Si02
#       6
#     8   8   8   8   8   8
#     4  12  21  32  56  89 123 146 176 231 302 354
#     4  10  19  35  61  91 119 148 182 227 288 356
#     4   9  19  37  61  86 112 149 198 236 273 336
#     4  11  24  39  56  79 117 160 199 236 280 331
#     4  10  21  36  55  80 110 151 198 241 283 332
#     4   9  16  30  54  83 112 141 176 230 292 346
#
# _framework density 23.338507
#
# number of rings (size 3 to 8) (size 9 to 14) (size 15 to 20)
#    0.000    1.833    1.667    5.000    0.000    4.667 
#    0.000    0.000    0.000    0.000    0.000    3.500 
#    0.000    0.000    0.000    0.000    0.000    0.000 
#
# Total GULP energy -133728.473474 kJ/mol
# GULP energy per Si atom -5572.019728 kJ/mol
# Density = 2.328539 g / cm^3
# Si number density = 23.338507 Si / 1000 Ang^3
#
#
#
# Elastic Constant Matrix: (Units=GPa)
#
#
# Indices 1 2 3 4 5 6 
#
# 1 105.1159 31.2139 33.9120 0.0000 36.8304 0.0000
# 2 31.2139 82.9859 18.4555 0.0001 22.0417 -0.0001
# 3 33.9120 18.4555 97.5970 0.0002 37.1653 -0.0001
# 4 0.0000 0.0001 0.0002 6.6579 -0.0001 26.0185
# 5 36.8304 22.0417 37.1653 -0.0001 47.9211 0.0001
# 6 0.0000 -0.0001 -0.0001 26.0185 0.0001 8.6050
#
#
#
# Elastic Compliance Matrix: (Units=1/GPa)
#
#
# Indices 1 2 3 4 5 6 
#
# 1 0.013580 -0.002642 -0.001004 0.000000 -0.008443 0.000000
# 2 -0.002642 0.014246 -0.000076 0.000000 -0.004463 0.000000
# 3 -0.001004 -0.000076 0.014620 0.000000 -0.010532 0.000000
# 4 0.000000 0.000000 0.000000 -0.013887 0.000000 0.041988
# 5 -0.008443 -0.004463 -0.010532 0.000000 0.037578 0.000000
# 6 0.000000 0.000000 0.000000 0.041988 0.000000 -0.010744
#
#
# Mechanical properties :
#
#
# Convention : Reuss Voigt Hill
#
# Bulk Modulus (GPa) = 28.56984 50.31797 39.44390
# Shear Modulus (GPa) = 67.10918 26.11131 46.61024
#
# Velocity S-wave (km/s) = 5.36816 3.34849 4.47378
# Velocity P-wave (km/s) = 7.11976 6.04621 6.60483
#
# Compressibility (1/GPa) = 0.03500195
#
# Stress axis : x y z
#
# Youngs Moduli (GPa) = 73.63718 70.19322 68.39903
#
# Poissons Ratio (x) = 0.18546 0.06866
# Poissons Ratio (y) = 0.19456 0.00523
# Poissons Ratio (z) = 0.07391 0.00537
#
# Static dielectric constant tensor:
#      x y z
#    x 1.923510 0.000000 -0.068950 
#    y 0.000000 2.059590 0.000000 
#    z -0.068950 0.000000 1.985110 
# 
# From -- ./inp_files/189365.got.cif
#   From: 2010.05.17/outbox.cif.g08.bks.cpg/sg12_95_cif.got.tgz:189365.got - 2010.06.03 13:09:07.
