data_PCOD9187629
_publ_section_title
;
Structure prediction by ZEFSAII (Michael W. Deem and Ramdas Pophale) SiO2 
 PCOD9187629
Probable space group: C 2/M
;
_chemical_formula_sum "Si O2"
_cell_formula_units_Z 56
_cell_length_a 20.775068
_cell_length_b 8.058658
_cell_length_c 18.612884
_cell_angle_alpha 90.000000
_cell_angle_beta 50.122218
_cell_angle_gamma 90.000000
_cell_volume 2391.379344
_symmetry_space_group_name_H-M "C 2/M"
_symmetry_group_IT_number 12
_symmetry_cell_setting 'monoclinic'
loop_
_space_group_symop_operation_xyz
x,y,z
-x,y,-z
-x,-y,-z
x,-y,z
1/2+x,1/2+y,z
1/2-x,1/2+y,-z
1/2-x,1/2-y,-z
1/2+x,1/2-y,z
loop_
_atom_site_type_symbol
_atom_site_label
_atom_site_fract_x
_atom_site_fract_y
_atom_site_fract_z
Si Si1 0.862734 0.313775 0.900437
Si Si2 0.017404 0.700508 0.067691
Si Si3 0.288841 0.304471 0.809374
Si Si4 0.332704 0.300397 0.219700
Si Si5 0.516888 0.690324 0.707733
Si Si6 0.946926 0.193374 0.604345
Si Si7 0.708281 0.304297 0.603074
O O1 0.836050 0.500000 0.936835
O O2 0.797697 0.248811 0.886625
O O3 0.901835 0.235107 0.945491
O O4 0.948370 0.308003 0.791899
O O5 0.026258 0.500000 0.059030
O O6 0.927758 0.744040 0.166360
O O7 0.000000 0.764432 0.000000
O O8 0.303293 0.500000 0.801183
O O9 0.202984 0.266758 0.829715
O O10 0.361870 0.234824 0.702715
O O11 0.331283 0.500000 0.218228
O O12 0.275624 0.238076 0.327875
O O13 0.495964 0.500000 0.745372
O O14 0.508685 0.693990 0.628107
O O15 0.610634 0.727879 0.660452
O O16 0.000000 0.267662 0.500000
O O17 0.927982 0.000000 0.598168
O O18 0.723047 0.500000 0.597374
O O19 0.750000 0.250000 0.500000
#
# Coordination Sequence:
#
# PCOD9187629 Si02
#       7
#     8   8   8   8   8   8   8
#     4  10  19  35  60  86 115 149 187 236 291 349
#     4  10  22  41  66  94 120 151 195 243 296 363
#     4  10  21  36  58  83 115 158 198 241 297 355
#     4  11  23  40  60  87 124 158 199 251 299 353
#     4   9  17  32  51  73 106 148 193 236 281 338
#     4   8  15  27  47  73 100 138 191 239 275 326
#     4  10  22  35  52  79 116 158 199 244 291 347
#
# _framework density 23.417446999999999
#
# number of rings (size 3 to 8) (size 9 to 14) (size 15 to 20)
#    0.000    2.286    1.429    2.143    2.000    2.571 
#    0.000    0.714    0.000    2.143    0.000    0.000 
#    0.000    0.000    0.000    0.000    0.000    0.000 
#
# Total GULP energy -156035.749319 kJ/mol
# GULP energy per Si atom -5572.705333 kJ/mol
# Density = 2.336415 g / cm^3
# Si number density = 23.417447 Si / 1000 Ang^3
#
#
#
# Elastic Constant Matrix: (Units=GPa)
#
#
# Indices 1 2 3 4 5 6 
#
# 1 150.6206 5.4850 27.9172 -0.0005 22.9042 0.0007
# 2 5.4850 27.7569 3.2222 -0.0013 11.4292 0.0020
# 3 27.9172 3.2222 101.5247 -0.0004 25.8189 0.0005
# 4 -0.0005 -0.0013 -0.0004 18.9971 0.0000 2.8583
# 5 22.9042 11.4292 25.8189 0.0000 31.9925 0.0000
# 6 0.0007 0.0020 0.0005 2.8583 0.0000 17.3796
#
#
#
# Elastic Compliance Matrix: (Units=1/GPa)
#
#
# Indices 1 2 3 4 5 6 
#
# 1 0.007522 0.000646 -0.000831 0.000000 -0.004945 0.000000
# 2 0.000646 0.043108 0.003131 0.000004 -0.018390 -0.000006
# 3 -0.000831 0.003131 0.012723 0.000001 -0.010792 -0.000001
# 4 0.000000 0.000004 0.000001 0.053975 -0.000002 -0.008877
# 5 -0.004945 -0.018390 -0.010792 -0.000002 0.050076 0.000003
# 6 0.000000 -0.000006 -0.000001 -0.008877 0.000003 0.058999
#
#
# Mechanical properties :
#
#
# Convention : Reuss Voigt Hill
#
# Bulk Modulus (GPa) = 14.44153 39.23902 26.84027
# Shear Modulus (GPa) = 20.52603 29.89237 25.20920
#
# Velocity S-wave (km/s) = 2.96383 3.57669 3.28459
# Velocity P-wave (km/s) = 4.22999 5.81804 5.08638
#
# Compressibility (1/GPa) = 0.06924476
#
# Stress axis : x y z
#
# Youngs Moduli (GPa) = 132.94864 23.19757 78.59506
#
# Poissons Ratio (x) = -0.01499 0.06533
# Poissons Ratio (y) = -0.08593 -0.24606
# Poissons Ratio (z) = 0.11051 -0.07263
#
# Static dielectric constant tensor:
#      x y z
#    x 1.905820 0.000000 0.024020 
#    y 0.000000 1.878790 0.000000 
#    z 0.024020 0.000000 1.990370 
# 
# From -- ./inp_files/281001.got.cif
#   From: 2010.05.17/outbox.cif.g08.bks.cpg/sg12_141_cif.got.tgz:281001.got - 2010.06.03 13:09:07.
