data_PCOD9187128
_publ_section_title
;
Structure prediction by ZEFSAII (Michael W. Deem and Ramdas Pophale) SiO2 
 PCOD9187128
Probable space group: C 2/M
;
_chemical_formula_sum "Si O2"
_cell_formula_units_Z 64
_cell_length_a 29.784843
_cell_length_b 7.459324
_cell_length_c 12.656681
_cell_angle_alpha 90.000000
_cell_angle_beta 105.856948
_cell_angle_gamma 90.000000
_cell_volume 2704.990325
_symmetry_space_group_name_H-M "C 2/M"
_symmetry_group_IT_number 12
_symmetry_cell_setting 'monoclinic'
loop_
_space_group_symop_operation_xyz
x,y,z
-x,y,-z
-x,-y,-z
x,-y,z
1/2+x,1/2+y,z
1/2-x,1/2+y,-z
1/2-x,1/2-y,-z
1/2+x,1/2-y,z
loop_
_atom_site_type_symbol
_atom_site_label
_atom_site_fract_x
_atom_site_fract_y
_atom_site_fract_z
Si Si1 0.051082 0.202591 0.018344
Si Si2 0.690641 0.280987 0.833877
Si Si3 0.367812 0.707405 0.397473
Si Si4 0.535643 0.203718 0.441853
Si Si5 0.080896 0.717815 0.267482
Si Si6 0.318463 0.784643 0.569614
Si Si7 0.776574 0.710777 0.751310
Si Si8 0.850415 0.217468 0.972736
O O1 0.070997 0.198777 0.149399
O O2 0.095699 0.280776 0.985056
O O3 0.043174 0.000000 0.972113
O O4 0.000000 0.288880 0.000000
O O5 0.692532 0.500000 0.837886
O O6 0.649427 0.229322 0.727065
O O7 0.737357 0.215192 0.805338
O O8 0.679834 0.222108 0.945638
O O9 0.380750 0.500000 0.397388
O O10 0.413095 0.802606 0.472768
O O11 0.325088 0.719817 0.454108
O O12 0.500000 0.291182 0.500000
O O13 0.543845 0.281077 0.331363
O O14 0.518978 0.000000 0.413385
O O15 0.078810 0.500000 0.257458
O O16 0.131639 0.761960 0.345612
O O17 0.282148 0.716764 0.635024
O O18 0.314691 0.000000 0.562044
O O19 0.766691 0.500000 0.732122
O O20 0.824627 0.725866 0.848616
O O21 0.851875 0.000000 0.973358
#
# Coordination Sequence:
#
# PCOD9187128 Si02
#       8
#     8   8   8   8   8   8   8   8
#     4  10  21  34  50  75 105 138 172 212 266 320
#     4   9  20  36  53  77 111 146 175 220 276 322
#     4  10  20  34  53  79 110 142 179 219 265 321
#     4   9  19  36  56  77 104 139 178 220 269 318
#     4   9  17  32  52  74  99 131 170 214 260 305
#     4   9  18  33  54  77 104 138 174 219 269 315
#     4  10  19  35  58  79 103 140 184 221 268 326
#     4  10  20  36  55  76 107 141 178 224 271 316
#
# _framework density 23.659973000000001
#
# number of rings (size 3 to 8) (size 9 to 14) (size 15 to 20)
#    0.000    2.500    1.250    1.500    0.000    4.500 
#    0.000    3.750    0.000    0.000    0.000    0.000 
#    0.000    0.000    0.000    0.000    0.000    0.000 
#
# Total GULP energy -178600.582496 kJ/mol
# GULP energy per Si atom -5581.268203 kJ/mol
# Density = 2.360612 g / cm^3
# Si number density = 23.659973 Si / 1000 Ang^3
#
#
#
# Elastic Constant Matrix: (Units=GPa)
#
#
# Indices 1 2 3 4 5 6 
#
# 1 94.6029 -3.0353 -6.7100 0.0000 -29.5379 0.0000
# 2 -3.0353 69.4629 -7.2983 0.0000 -5.9415 0.0000
# 3 -6.7100 -7.2983 73.0997 0.0000 -27.5831 0.0000
# 4 0.0000 0.0000 0.0000 -26.5541 0.0000 99.6912
# 5 -29.5379 -5.9415 -27.5831 0.0000 45.1033 0.0000
# 6 0.0000 0.0000 0.0000 99.6912 0.0000 -227.5085
#
#
#
# Elastic Compliance Matrix: (Units=1/GPa)
#
#
# Indices 1 2 3 4 5 6 
#
# 1 0.016059 0.002833 0.007626 0.000000 0.015554 0.000000
# 2 0.002833 0.015525 0.004267 0.000000 0.006510 0.000000
# 3 0.007626 0.004267 0.021973 0.000000 0.018994 0.000000
# 4 0.000000 0.000000 0.000000 0.058380 0.000000 0.025581
# 5 0.015554 0.006510 0.018994 0.000000 0.044831 0.000000
# 6 0.000000 0.000000 0.000000 0.025581 0.000000 0.006814
#
#
# Mechanical properties :
#
#
# Convention : Reuss Voigt Hill
#
# Bulk Modulus (GPa) = 12.04703 22.56425 17.30564
# Shear Modulus (GPa) = 30.90255 -24.84459 3.02898
#
# Velocity S-wave (km/s) = 3.61794 -3.24399 1.13269
# Velocity P-wave (km/s) = 4.74925 2.11512 3.00680
#
# Compressibility (1/GPa) = 0.08300798
#
# Stress axis : x y z
#
# Youngs Moduli (GPa) = 62.27203 64.41187 45.51046
#
# Poissons Ratio (x) = -0.18250 -0.34706
# Poissons Ratio (y) = -0.17644 -0.19417
# Poissons Ratio (z) = -0.47488 -0.27481
#
# Static dielectric constant tensor:
#      x y z
#    x 1.954170 0.000000 -0.042110 
#    y 0.000000 1.838480 0.000000 
#    z -0.042110 0.000000 1.857440 
# 
# From -- ./inp_files/187609.got.cif
#   From: 2010.05.17/outbox.cif.g08.bks.cpg/sg12_94_cif.got.tgz:187609.got - 2010.06.03 13:09:07.
