data_PCOD9187805
_publ_section_title
;
Structure prediction by ZEFSAII (Michael W. Deem and Ramdas Pophale) SiO2 
 PCOD9187805
Probable space group: C 2/M
;
_chemical_formula_sum "Si O2"
_cell_formula_units_Z 48
_cell_length_a 12.201596
_cell_length_b 18.467412
_cell_length_c 12.673224
_cell_angle_alpha 90.000000
_cell_angle_beta 71.192253
_cell_angle_gamma 90.000000
_cell_volume 2703.204462
_symmetry_space_group_name_H-M "C 2/M"
_symmetry_group_IT_number 12
_symmetry_cell_setting 'monoclinic'
loop_
_space_group_symop_operation_xyz
x,y,z
-x,y,-z
-x,-y,-z
x,-y,z
1/2+x,1/2+y,z
1/2-x,1/2+y,-z
1/2-x,1/2-y,-z
1/2+x,1/2-y,z
loop_
_atom_site_type_symbol
_atom_site_label
_atom_site_fract_x
_atom_site_fract_y
_atom_site_fract_z
Si Si1 0.501947 0.916416 0.878908
Si Si2 0.769460 0.352328 0.894538
Si Si3 0.134323 0.810865 0.137262
Si Si4 0.865716 0.172905 0.274054
Si Si5 0.373139 0.586617 0.489017
Si Si6 0.711606 0.163745 0.706761
O O1 0.371891 0.909133 0.877390
O O2 0.591515 0.872313 0.780195
O O3 0.539121 0.000000 0.871090
O O4 0.500000 0.887471 0.000000
O O5 0.831907 0.273683 0.882922
O O6 0.706333 0.357565 0.802451
O O7 0.679270 0.351799 0.019181
O O8 0.204670 0.838451 0.217145
O O9 0.998373 0.818268 0.196573
O O10 0.863499 0.122859 0.377404
O O11 0.813926 0.252710 0.313704
O O12 0.500000 0.602261 0.500000
O O13 0.360384 0.500000 0.487334
O O14 0.275588 0.621335 0.594092
#
# Coordination Sequence:
#
# PCOD9187805 Si02
#       6
#     8   8   8   8   8   8
#     4  11  22  37  59  89 127 162 197 238 293 366
#     4  10  21  35  59  92 124 158 186 246 305 353
#     4  10  19  35  61  90 123 150 198 244 296 355
#     4  11  22  38  63  92 119 156 201 257 296 356
#     4  11  24  42  62  83 118 162 204 254 305 359
#     4  11  21  39  64  90 117 156 208 250 294 354
#
# _framework density 17.756703999999999
#
# number of rings (size 3 to 8) (size 9 to 14) (size 15 to 20)
#    0.000    1.333    5.000    1.500    0.000    0.667 
#    0.000    1.667    0.000    4.000    0.000    0.000 
#    0.000    0.000    0.000    0.000    0.000    0.000 
#
# Total GULP energy -134051.655364 kJ/mol
# GULP energy per Si atom -5585.485640 kJ/mol
# Density = 1.771629 g / cm^3
# Si number density = 17.756704 Si / 1000 Ang^3
#
#
#
# Elastic Constant Matrix: (Units=GPa)
#
#
# Indices 1 2 3 4 5 6 
#
# 1 111.3814 44.9552 72.2598 0.0000 1.0920 0.0000
# 2 44.9552 51.3818 53.9183 0.0000 7.0723 0.0000
# 3 72.2598 53.9183 139.6292 0.0000 -3.5865 0.0000
# 4 0.0000 0.0000 0.0000 10.9504 0.0000 6.4540
# 5 1.0920 7.0723 -3.5865 0.0000 31.9948 0.0000
# 6 0.0000 0.0000 0.0000 6.4540 0.0000 24.4799
#
#
#
# Elastic Compliance Matrix: (Units=1/GPa)
#
#
# Indices 1 2 3 4 5 6 
#
# 1 0.015536 -0.008926 -0.004569 0.000000 0.000931 0.000000
# 2 -0.008926 0.040440 -0.011251 0.000000 -0.009896 0.000000
# 3 -0.004569 -0.011251 0.013979 0.000000 0.004210 0.000000
# 4 0.000000 0.000000 0.000000 0.108121 0.000000 -0.028506
# 5 0.000931 -0.009896 0.004210 0.000000 0.033883 0.000000
# 6 0.000000 0.000000 0.000000 -0.028506 0.000000 0.048365
#
#
# Mechanical properties :
#
#
# Convention : Reuss Voigt Hill
#
# Bulk Modulus (GPa) = 48.86927 71.62877 60.24902
# Shear Modulus (GPa) = 15.79086 22.23562 19.01324
#
# Velocity S-wave (km/s) = 2.98533 3.54254 3.27580
# Velocity P-wave (km/s) = 6.28206 7.56038 6.95067
#
# Compressibility (1/GPa) = 0.02046276
#
# Stress axis : x y z
#
# Youngs Moduli (GPa) = 64.36582 24.72789 71.53443
#
# Poissons Ratio (x) = 0.22072 0.32687
# Poissons Ratio (y) = 0.57453 0.80483
# Poissons Ratio (z) = 0.29411 0.27821
#
# Static dielectric constant tensor:
#      x y z
#    x 1.588420 0.000000 0.004260 
#    y 0.000000 1.600430 0.000000 
#    z 0.004260 0.000000 1.580320 
# 
# From -- ./inp_files/131072.got.cif
#   From: 2010.05.17/outbox.cif.g08.bks.cpg/sg12_66_cif.got.tgz:131072.got - 2010.06.03 13:09:07.
