data_PCOD9187790
_publ_section_title
;
Structure prediction by ZEFSAII (Michael W. Deem and Ramdas Pophale) SiO2 
 PCOD9187790
Probable space group: C 2/M
;
_chemical_formula_sum "Si O2"
_cell_formula_units_Z 58
_cell_length_a 30.854764
_cell_length_b 7.488738
_cell_length_c 24.162578
_cell_angle_alpha 90.000000
_cell_angle_beta 152.481454
_cell_angle_gamma 90.000000
_cell_volume 2579.583986
_symmetry_space_group_name_H-M "C 2/M"
_symmetry_group_IT_number 12
_symmetry_cell_setting 'monoclinic'
loop_
_space_group_symop_operation_xyz
x,y,z
-x,y,-z
-x,-y,-z
x,-y,z
1/2+x,1/2+y,z
1/2-x,1/2+y,-z
1/2-x,1/2-y,-z
1/2+x,1/2-y,z
loop_
_atom_site_type_symbol
_atom_site_label
_atom_site_fract_x
_atom_site_fract_y
_atom_site_fract_z
Si Si1 0.500000 0.500000 0.500000
Si Si2 0.724453 0.282377 0.142392
Si Si3 0.973670 0.216407 0.031741
Si Si4 0.973505 0.204364 0.705834
Si Si5 0.677810 0.286035 0.967144
Si Si6 0.877911 0.706578 0.401684
Si Si7 0.686143 0.717279 0.552809
Si Si8 0.371961 0.793199 0.701537
O O1 0.463550 0.341898 0.501534
O O2 0.727244 0.500000 0.146413
O O3 0.816114 0.225054 0.279645
O O4 0.630168 0.227720 0.067609
O O5 0.715223 0.220569 0.068786
O O6 0.048743 0.279521 0.161630
O O7 0.975758 0.000000 0.035046
O O8 0.000000 0.275710 0.000000
O O9 0.908821 0.282240 0.584471
O O10 0.911027 0.203517 0.690634
O O11 0.074408 0.285520 0.834871
O O12 0.992175 0.000000 0.710331
O O13 0.668152 0.500000 0.963030
O O14 0.750000 0.250000 0.000000
O O15 0.903674 0.500000 0.423634
O O16 0.814618 0.721083 0.384917
O O17 0.688250 0.500000 0.554886
O O18 0.775921 0.778000 0.619148
O O19 0.356931 0.000000 0.669995
#
# Coordination Sequence:
#
# PCOD9187790 Si02
#       8
#     2   8   8   8   8   8   8   8
#     4  12  26  48  68  98 138 164 222 288 330 392
#     4   9  19  39  63  91 126 161 213 268 318 390
#     4  10  19  35  61  89 123 167 215 262 318 391
#     4  10  21  40  64  87 125 175 218 268 330 392
#     4  10  21  40  62  89 122 160 213 273 325 386
#     4  11  24  45  72  98 130 177 221 272 341 399
#     4  10  22  41  62  94 135 171 220 277 326 392
#     4  11  22  35  57  93 135 171 212 268 330 396
#
# _framework density 22.484244
#
# number of rings (size 3 to 8) (size 9 to 14) (size 15 to 20)
#    0.000    1.793    2.069    1.862    0.000    4.690 
#    4.966    1.379    0.000    0.000    0.000    0.000 
#    0.000    0.000    0.000    0.000    0.000    0.000 
#
# Total GULP energy -161877.870379 kJ/mol
# GULP energy per Si atom -5581.995530 kJ/mol
# Density = 2.243307 g / cm^3
# Si number density = 22.484244 Si / 1000 Ang^3
#
#
#
# Elastic Constant Matrix: (Units=GPa)
#
#
# Indices 1 2 3 4 5 6 
#
# 1 115.8782 1.2638 32.7218 0.0000 9.7164 0.0000
# 2 1.2638 91.4286 6.9260 0.0000 4.4575 0.0000
# 3 32.7218 6.9260 98.6323 0.0000 -8.4931 0.0000
# 4 0.0000 0.0000 0.0000 -4.9758 0.0000 -6.2260
# 5 9.7164 4.4575 -8.4931 0.0000 30.5437 0.0000
# 6 0.0000 0.0000 0.0000 -6.2260 0.0000 41.8416
#
#
#
# Elastic Compliance Matrix: (Units=1/GPa)
#
#
# Indices 1 2 3 4 5 6 
#
# 1 0.010036 0.000352 -0.003723 0.000000 -0.004279 0.000000
# 2 0.000352 0.011113 -0.001072 0.000000 -0.002032 0.000000
# 3 -0.003723 -0.001072 0.011848 0.000000 0.004635 0.000000
# 4 0.000000 0.000000 0.000000 -0.169426 0.000000 -0.025211
# 5 -0.004279 -0.002032 0.004635 0.000000 0.035687 0.000000
# 6 0.000000 0.000000 0.000000 -0.025211 0.000000 0.020148
#
#
# Mechanical properties :
#
#
# Convention : Reuss Voigt Hill
#
# Bulk Modulus (GPa) = 41.47432 43.08470 42.27951
# Shear Modulus (GPa) = -78.52770 31.15039 -23.68865
#
# Velocity S-wave (km/s) = -5.91620 3.72618 -3.24939
# Velocity P-wave (km/s) = 5.30873 6.14136 2.18331
#
# Compressibility (1/GPa) = 0.02411131
#
# Stress axis : x y z
#
# Youngs Moduli (GPa) = 99.64215 89.98545 84.40185
#
# Poissons Ratio (x) = -0.03167 0.31420
# Poissons Ratio (y) = -0.03506 0.09048
# Poissons Ratio (z) = 0.37093 0.09647
#
# Static dielectric constant tensor:
#      x y z
#    x 1.808630 0.000000 0.014070 
#    y 0.000000 1.952430 0.000000 
#    z 0.014070 0.000000 1.852520 
# 
# From -- ./inp_files/353072.got.cif
#   From: 2010.05.17/outbox.cif.g08.bks.cpg/sg12_177_cif.got.tgz:353072.got - 2010.06.03 13:09:07.
