data_PCOD9187132
_publ_section_title
;
Structure prediction by ZEFSAII (Michael W. Deem and Ramdas Pophale) SiO2 
 PCOD9187132
Probable space group: C 2/M
;
_chemical_formula_sum "Si O2"
_cell_formula_units_Z 48
_cell_length_a 11.175225
_cell_length_b 15.348271
_cell_length_c 16.112545
_cell_angle_alpha 90.000000
_cell_angle_beta 129.578112
_cell_angle_gamma 90.000000
_cell_volume 2130.086221
_symmetry_space_group_name_H-M "C 2/M"
_symmetry_group_IT_number 12
_symmetry_cell_setting 'monoclinic'
loop_
_space_group_symop_operation_xyz
x,y,z
-x,y,-z
-x,-y,-z
x,-y,z
1/2+x,1/2+y,z
1/2-x,1/2+y,-z
1/2-x,1/2-y,-z
1/2+x,1/2-y,z
loop_
_atom_site_type_symbol
_atom_site_label
_atom_site_fract_x
_atom_site_fract_y
_atom_site_fract_z
Si Si1 0.665529 0.095298 0.165428
Si Si2 0.496875 0.598940 0.596212
Si Si3 0.744609 0.898986 0.773966
Si Si4 0.761007 0.251855 0.102945
Si Si5 0.382258 0.714536 0.685180
Si Si6 0.406970 0.096160 0.691378
O O1 0.830387 0.102295 0.287321
O O2 0.663253 0.174174 0.101765
O O3 0.546329 0.098155 0.189699
O O4 0.659037 0.000000 0.122462
O O5 0.500000 0.616348 0.500000
O O6 0.443924 0.500000 0.585987
O O7 0.393046 0.662274 0.605003
O O8 0.790170 0.841535 0.874828
O O9 0.796781 0.842225 0.717642
O O10 0.557531 0.902024 0.699601
O O11 0.799458 0.000000 0.796225
O O12 0.940037 0.230651 0.206138
O O13 0.750000 0.250000 0.000000
O O14 0.321007 0.812135 0.643072
O O15 0.332544 0.000000 0.647577
#
# Coordination Sequence:
#
# PCOD9187132 Si02
#       6
#     8   8   8   8   8   8
#     4   9  17  34  58  79 107 149 191 229 275 335
#     4   9  18  33  57  88 114 141 184 236 284 334
#     4  10  20  35  54  80 111 146 183 230 284 331
#     4  10  21  35  53  79 113 144 184 232 278 329
#     4  10  19  35  58  79 109 145 185 224 283 332
#     4   9  18  34  57  78 107 147 183 224 276 331
#
# _framework density 22.534298
#
# number of rings (size 3 to 8) (size 9 to 14) (size 15 to 20)
#    0.000    2.500    1.667    0.500    0.000    2.000 
#    0.000    1.667    0.000    5.500    0.000    0.000 
#    0.000    0.000    0.000    0.000    0.000    0.000 
#
# Total GULP energy -133959.735944 kJ/mol
# GULP energy per Si atom -5581.655664 kJ/mol
# Density = 2.248301 g / cm^3
# Si number density = 22.534298 Si / 1000 Ang^3
#
#
#
# Elastic Constant Matrix: (Units=GPa)
#
#
# Indices 1 2 3 4 5 6 
#
# 1 80.3154 95.8119 22.5023 0.0000 -21.6862 0.0000
# 2 95.8119 257.8231 70.8023 0.0000 -49.6520 0.0000
# 3 22.5023 70.8023 107.9651 0.0000 -21.6524 0.0000
# 4 0.0000 0.0000 0.0000 11.8782 0.0000 -18.6496
# 5 -21.6862 -49.6520 -21.6524 0.0000 42.4787 0.0000
# 6 0.0000 0.0000 0.0000 -18.6496 0.0000 48.9108
#
#
#
# Elastic Compliance Matrix: (Units=1/GPa)
#
#
# Indices 1 2 3 4 5 6 
#
# 1 0.022651 -0.008263 0.001203 0.000000 0.002519 0.000000
# 2 -0.008263 0.008618 -0.003069 0.000000 0.004291 0.000000
# 3 0.001203 -0.003069 0.011615 0.000000 0.002947 0.000000
# 4 0.000000 0.000000 0.000000 0.209771 0.000000 0.079985
# 5 0.002519 0.004291 0.002947 0.000000 0.031345 0.000000
# 6 0.000000 0.000000 0.000000 0.079985 0.000000 0.050944
#
#
# Mechanical properties :
#
#
# Convention : Reuss Voigt Hill
#
# Bulk Modulus (GPa) = 44.19573 91.59296 67.89435
# Shear Modulus (GPa) = 13.78380 37.78601 25.78490
#
# Velocity S-wave (km/s) = 2.47590 4.09934 3.38635
# Velocity P-wave (km/s) = 5.27529 7.94610 6.74422
#
# Compressibility (1/GPa) = 0.02262662
#
# Stress axis : x y z
#
# Youngs Moduli (GPa) = 44.14792 116.02982 86.09294
#
# Poissons Ratio (x) = 0.95873 -0.10355
# Poissons Ratio (y) = 0.36479 0.26423
# Poissons Ratio (z) = -0.05310 0.35612
#
# Static dielectric constant tensor:
#      x y z
#    x 1.900860 0.000000 0.061820 
#    y 0.000000 1.878570 0.000000 
#    z 0.061820 0.000000 1.836380 
# 
# From -- ./inp_files/205122.got.cif
#   From: 2010.05.17/outbox.cif.g08.bks.cpg/sg12_103_cif.got.tgz:205122.got - 2010.06.03 13:09:07.
