data_PCOD9187193
_publ_section_title
;
Structure prediction by ZEFSAII (Michael W. Deem and Ramdas Pophale) SiO2 
 PCOD9187193
Probable space group: C 2/M
;
_chemical_formula_sum "Si O2"
_cell_formula_units_Z 58
_cell_length_a 28.222366
_cell_length_b 7.565819
_cell_length_c 24.146527
_cell_angle_alpha 90.000000
_cell_angle_beta 146.358765
_cell_angle_gamma 90.000000
_cell_volume 2856.318496
_symmetry_space_group_name_H-M "C 2/M"
_symmetry_group_IT_number 12
_symmetry_cell_setting 'monoclinic'
loop_
_space_group_symop_operation_xyz
x,y,z
-x,y,-z
-x,-y,-z
x,-y,z
1/2+x,1/2+y,z
1/2-x,1/2+y,-z
1/2-x,1/2-y,-z
1/2+x,1/2-y,z
loop_
_atom_site_type_symbol
_atom_site_label
_atom_site_fract_x
_atom_site_fract_y
_atom_site_fract_z
Si Si1 0.075006 0.793224 0.159211
Si Si2 0.656439 0.290127 0.887196
Si Si3 0.016648 0.784717 0.225054
Si Si4 0.895951 0.794580 0.579790
Si Si5 0.094585 0.795425 0.596341
Si Si6 0.572800 0.797785 0.694476
Si Si7 0.272525 0.283706 0.365623
Si Si8 0.500000 0.000000 0.000000
O O1 0.177669 0.783683 0.263804
O O2 0.041275 0.735782 0.187208
O O3 0.050279 0.000000 0.125363
O O4 0.040773 0.656688 0.080505
O O5 0.647329 0.500000 0.872652
O O6 0.579507 0.229127 0.852254
O O7 0.636958 0.212356 0.808213
O O8 0.750000 0.250000 0.000000
O O9 0.078310 0.719470 0.335017
O O10 0.019340 0.000000 0.229657
O O11 0.818692 0.722852 0.467409
O O12 0.983081 0.785029 0.627700
O O13 0.876077 0.000000 0.569388
O O14 0.113566 0.786949 0.679799
O O15 0.166036 0.723594 0.625002
O O16 0.000000 0.714461 0.500000
O O17 0.086104 0.000000 0.570841
O O18 0.554018 0.000000 0.663363
O O19 0.269006 0.500000 0.362692
#
# Coordination Sequence:
#
# PCOD9187193 Si02
#       8
#     8   8   8   8   8   8   8   2
#     4  11  24  46  71  94 127 167 213 269 323 376
#     4  10  20  39  61  86 119 153 202 259 311 370
#     4   8  18  38  64  91 122 163 204 252 319 384
#     4   9  17  35  62  88 126 165 201 249 313 375
#     4  10  19  35  58  82 118 169 211 247 305 368
#     4  11  21  33  51  84 123 161 206 249 307 373
#     4  10  20  37  62  94 127 163 215 268 311 382
#     4  12  26  52  72  94 122 164 222 270 324 380
#
# _framework density 20.305858000000001
#
# number of rings (size 3 to 8) (size 9 to 14) (size 15 to 20)
#    0.000    2.069    2.069    2.690    0.000    1.931 
#    8.690    0.000    0.000    0.000    0.000    0.000 
#    0.000    0.000    0.000    0.000    0.000    0.000 
#
# Total GULP energy -161559.902224 kJ/mol
# GULP energy per Si atom -5571.031111 kJ/mol
# Density = 2.025964 g / cm^3
# Si number density = 20.305858 Si / 1000 Ang^3
#
#
#
# Elastic Constant Matrix: (Units=GPa)
#
#
# Indices 1 2 3 4 5 6 
#
# 1 103.1065 20.1009 94.2285 0.0000 -4.0814 0.0000
# 2 20.1009 85.6774 26.3512 0.0000 -8.3839 0.0000
# 3 94.2285 26.3512 155.0556 0.0000 -24.9814 0.0000
# 4 0.0000 0.0000 0.0000 20.2286 0.0000 9.6267
# 5 -4.0814 -8.3839 -24.9814 0.0000 17.7775 0.0000
# 6 0.0000 0.0000 0.0000 9.6267 0.0000 -25.9197
#
#
#
# Elastic Compliance Matrix: (Units=1/GPa)
#
#
# Indices 1 2 3 4 5 6 
#
# 1 0.027629 -0.002567 -0.020071 0.000000 -0.023072 0.000000
# 2 -0.002567 0.012746 0.000345 0.000000 0.005907 0.000000
# 3 -0.020071 0.000345 0.023102 0.000000 0.028019 0.000000
# 4 0.000000 0.000000 0.000000 0.042010 0.000000 0.015603
# 5 -0.023072 0.005907 0.028019 0.000000 0.093112 0.000000
# 6 0.000000 0.000000 0.000000 0.015603 0.000000 -0.032786
#
#
# Mechanical properties :
#
#
# Convention : Reuss Voigt Hill
#
# Bulk Modulus (GPa) = 52.93338 69.46677 61.20008
# Shear Modulus (GPa) = 23.07389 15.96121 19.51755
#
# Velocity S-wave (km/s) = 3.37459 2.80668 3.10365
# Velocity P-wave (km/s) = 6.42716 6.69237 6.56110
#
# Compressibility (1/GPa) = 0.01889167
#
# Stress axis : x y z
#
# Youngs Moduli (GPa) = 36.19407 78.45824 43.28576
#
# Poissons Ratio (x) = 0.20137 0.86880
# Poissons Ratio (y) = 0.09289 -0.01495
# Poissons Ratio (z) = 0.72646 -0.02709
#
# Static dielectric constant tensor:
#      x y z
#    x 1.721960 0.000000 0.028880 
#    y 0.000000 1.760790 0.000000 
#    z 0.028880 0.000000 1.504140 
# 
# From -- ./inp_files/351527.got.cif
#   From: 2010.05.17/outbox.cif.g08.bks.cpg/sg12_176_cif.got.tgz:351527.got - 2010.06.03 13:09:07.
