data_PCOD9187239
_publ_section_title
;
Structure prediction by ZEFSAII (Michael W. Deem and Ramdas Pophale) SiO2 
 PCOD9187239
Probable space group: C 2/M
;
_chemical_formula_sum "Si O2"
_cell_formula_units_Z 64
_cell_length_a 23.041736
_cell_length_b 8.701022
_cell_length_c 16.497205
_cell_angle_alpha 90.000000
_cell_angle_beta 88.145467
_cell_angle_gamma 90.000000
_cell_volume 3305.736981
_symmetry_space_group_name_H-M "C 2/M"
_symmetry_group_IT_number 12
_symmetry_cell_setting 'monoclinic'
loop_
_space_group_symop_operation_xyz
x,y,z
-x,y,-z
-x,-y,-z
x,-y,z
1/2+x,1/2+y,z
1/2-x,1/2+y,-z
1/2-x,1/2-y,-z
1/2+x,1/2-y,z
loop_
_atom_site_type_symbol
_atom_site_label
_atom_site_fract_x
_atom_site_fract_y
_atom_site_fract_z
Si Si1 0.358130 0.317214 0.175925
Si Si2 0.666949 0.816166 0.224272
Si Si3 0.079809 0.315156 0.668173
Si Si4 0.536889 0.816053 0.245587
Si Si5 0.662278 0.316745 0.541351
Si Si6 0.224503 0.817025 0.376277
Si Si7 0.246429 0.816916 0.090493
Si Si8 0.480128 0.317019 0.089804
O O1 0.349111 0.500000 0.186414
O O2 0.379513 0.246577 0.260277
O O3 0.301237 0.241612 0.140674
O O4 0.412160 0.293020 0.111896
O O5 0.602589 0.760441 0.252036
O O6 0.709775 0.766867 0.294118
O O7 0.689553 0.742252 0.140314
O O8 0.666748 0.000000 0.215696
O O9 0.082079 0.500000 0.668291
O O10 0.104455 0.250941 0.583206
O O11 0.014221 0.262198 0.691934
O O12 0.515327 0.769874 0.157484
O O13 0.538259 0.000000 0.252421
O O14 0.664022 0.500000 0.551924
O O15 0.715540 0.241677 0.588316
O O16 0.675454 0.283588 0.446632
O O17 0.227598 0.000000 0.363525
O O18 0.246446 0.000000 0.087217
O O19 0.250000 0.750000 0.000000
O O20 0.491027 0.500000 0.097324
O O21 0.500000 0.268384 0.000000
#
# Coordination Sequence:
#
# PCOD9187239 Si02
#       8
#     8   8   8   8   8   8   8   8
#     4  10  20  36  56  81 113 145 183 229 279 334
#     4  11  23  41  61  83 115 152 191 233 283 340
#     4  10  19  35  58  84 114 149 189 233 282 333
#     4   9  21  38  56  81 110 148 191 231 279 337
#     4  10  20  35  58  87 118 148 188 238 284 335
#     4  10  21  37  58  87 117 152 191 231 285 340
#     4  12  26  42  59  82 112 148 189 233 283 337
#     4   9  19  34  55  82 108 139 181 231 282 329
#
# _framework density 19.360282000000002
#
# number of rings (size 3 to 8) (size 9 to 14) (size 15 to 20)
#    0.000    1.875    0.000    3.750    1.750    3.750 
#    0.000    0.625    0.000    3.750    0.000    0.000 
#    0.000    0.000    0.000    0.000    0.000    0.000 
#
# Total GULP energy -178769.409264 kJ/mol
# GULP energy per Si atom -5586.544039 kJ/mol
# Density = 1.931622 g / cm^3
# Si number density = 19.360282 Si / 1000 Ang^3
#
#
#
# Elastic Constant Matrix: (Units=GPa)
#
#
# Indices 1 2 3 4 5 6 
#
# 1 55.2538 20.0261 19.7181 0.0000 -6.9081 0.0000
# 2 20.0261 66.6152 25.2857 0.0000 -10.7265 0.0000
# 3 19.7181 25.2857 80.5500 0.0000 -27.9112 0.0000
# 4 0.0000 0.0000 0.0000 30.1644 0.0000 -4.9002
# 5 -6.9081 -10.7265 -27.9112 0.0000 24.4766 0.0000
# 6 0.0000 0.0000 0.0000 -4.9002 0.0000 22.0076
#
#
#
# Elastic Compliance Matrix: (Units=1/GPa)
#
#
# Indices 1 2 3 4 5 6 
#
# 1 0.021207 -0.005019 -0.003809 0.000000 -0.000558 0.000000
# 2 -0.005019 0.018306 -0.003685 0.000000 0.002404 0.000000
# 3 -0.003809 -0.003685 0.022438 0.000000 0.022896 0.000000
# 4 0.000000 0.000000 0.000000 0.034396 0.000000 0.007659
# 5 -0.000558 0.002404 0.022896 0.000000 0.067860 0.000000
# 6 0.000000 0.000000 0.000000 0.007659 0.000000 0.047144
#
#
# Mechanical properties :
#
#
# Convention : Reuss Voigt Hill
#
# Bulk Modulus (GPa) = 27.08240 36.94208 32.01224
# Shear Modulus (GPa) = 20.10568 24.48899 22.29733
#
# Velocity S-wave (km/s) = 3.22607 3.56041 3.39736
# Velocity P-wave (km/s) = 5.28164 6.00207 5.65334
#
# Compressibility (1/GPa) = 0.03692435
#
# Stress axis : x y z
#
# Youngs Moduli (GPa) = 47.15410 54.62595 44.56819
#
# Poissons Ratio (x) = 0.27419 0.16976
# Poissons Ratio (y) = 0.23668 0.16423
# Poissons Ratio (z) = 0.17961 0.20129
#
# Static dielectric constant tensor:
#      x y z
#    x 1.691750 0.000000 -0.045570 
#    y 0.000000 1.647120 0.000000 
#    z -0.045570 0.000000 1.659550 
# 
# From -- ./inp_files/287595.got.cif
#   From: 2010.05.17/outbox.cif.g08.bks.cpg/sg12_144_cif.got.tgz:287595.got - 2010.06.03 13:09:07.
