data_PCOD9187217
_publ_section_title
;
Structure prediction by ZEFSAII (Michael W. Deem and Ramdas Pophale) SiO2 
 PCOD9187217
Probable space group: C 2/M
;
_chemical_formula_sum "Si O2"
_cell_formula_units_Z 40
_cell_length_a 30.388916
_cell_length_b 7.740395
_cell_length_c 8.172320
_cell_angle_alpha 90.000000
_cell_angle_beta 105.268605
_cell_angle_gamma 90.000000
_cell_volume 1854.457193
_symmetry_space_group_name_H-M "C 2/M"
_symmetry_group_IT_number 12
_symmetry_cell_setting 'monoclinic'
loop_
_space_group_symop_operation_xyz
x,y,z
-x,y,-z
-x,-y,-z
x,-y,z
1/2+x,1/2+y,z
1/2-x,1/2+y,-z
1/2-x,1/2-y,-z
1/2+x,1/2-y,z
loop_
_atom_site_type_symbol
_atom_site_label
_atom_site_fract_x
_atom_site_fract_y
_atom_site_fract_z
Si Si1 0.392154 0.288292 0.224281
Si Si2 0.447258 0.288616 0.958694
Si Si3 0.201221 0.206287 0.027513
Si Si4 0.800758 0.303696 0.600182
Si Si5 0.103363 0.801567 0.413310
O O1 0.393063 0.500000 0.230505
O O2 0.406092 0.224519 0.417450
O O3 0.423638 0.232438 0.104182
O O4 0.340339 0.238532 0.129198
O O5 0.444775 0.500000 0.957639
O O6 0.420031 0.225635 0.771563
O O7 0.500000 0.239705 0.000000
O O8 0.195927 0.286667 0.201198
O O9 0.197938 0.000000 0.045844
O O10 0.250000 0.250000 0.000000
O O11 0.807816 0.500000 0.555762
O O12 0.750000 0.250000 0.500000
O O13 0.842179 0.199390 0.561372
O O14 0.087342 0.000000 0.404318
#
# Coordination Sequence:
#
# PCOD9187217 Si02
#       5
#     8   8   8   8   8
#     4   9  18  32  53  82 115 151 189 236 290 344
#     4   9  17  31  54  86 120 152 190 240 296 350
#     4  11  21  36  56  83 120 157 198 244 293 352
#     4  12  24  38  57  83 115 154 199 245 299 360
#     4  10  19  35  58  83 117 154 191 241 294 350
#
# _framework density 21.569654
#
# number of rings (size 3 to 8) (size 9 to 14) (size 15 to 20)
#    0.000    1.800    2.000    3.600    0.000    2.400 
#    0.000    5.000    0.000    0.600    0.000    1.400 
#    0.000    0.000    0.000    0.000    0.000    0.000 
#
# Total GULP energy -111760.397593 kJ/mol
# GULP energy per Si atom -5588.019880 kJ/mol
# Density = 2.152056 g / cm^3
# Si number density = 21.569654 Si / 1000 Ang^3
#
#
#
# Elastic Constant Matrix: (Units=GPa)
#
#
# Indices 1 2 3 4 5 6 
#
# 1 139.2718 -9.8974 81.1035 0.0000 -9.5484 0.0000
# 2 -9.8974 44.1187 -3.0505 0.0000 2.7417 0.0000
# 3 81.1035 -3.0505 195.7446 0.0000 -18.7915 0.0000
# 4 0.0000 0.0000 0.0000 10.3182 0.0000 -0.3795
# 5 -9.5484 2.7417 -18.7915 0.0000 30.8825 0.0000
# 6 0.0000 0.0000 0.0000 -0.3795 0.0000 13.6112
#
#
#
# Elastic Compliance Matrix: (Units=1/GPa)
#
#
# Indices 1 2 3 4 5 6 
#
# 1 0.009623 0.001861 -0.003917 0.000000 0.000426 0.000000
# 2 0.001861 0.023157 -0.000587 0.000000 -0.001837 0.000000
# 3 -0.003917 -0.000587 0.007021 0.000000 0.003113 0.000000
# 4 0.000000 0.000000 0.000000 0.097016 0.000000 0.002705
# 5 0.000426 -0.001837 0.003113 0.000000 0.034570 0.000000
# 6 0.000000 0.000000 0.000000 0.002705 0.000000 0.073544
#
#
# Mechanical properties :
#
#
# Convention : Reuss Voigt Hill
#
# Bulk Modulus (GPa) = 28.97152 57.27182 43.12167
# Shear Modulus (GPa) = 19.10421 31.69434 25.39928
#
# Velocity S-wave (km/s) = 2.97930 3.83743 3.43526
# Velocity P-wave (km/s) = 5.02949 6.80030 5.98080
#
# Compressibility (1/GPa) = 0.03451666
#
# Stress axis : x y z
#
# Youngs Moduli (GPa) = 103.91982 43.18288 142.42124
#
# Poissons Ratio (x) = -0.08038 0.55788
# Poissons Ratio (y) = -0.19344 0.08357
# Poissons Ratio (z) = 0.40706 0.02534
#
# Static dielectric constant tensor:
#      x y z
#    x 1.746300 0.000000 0.000340 
#    y 0.000000 1.871680 0.000000 
#    z 0.000340 0.000000 1.775070 
# 
# From -- ./inp_files/101019.got.cif
#   From: 2010.05.17/outbox.cif.g08.bks.cpg/sg12_51_cif.got.tgz:101019.got - 2010.06.03 13:09:07.
