data_PCOD9187383
_publ_section_title
;
Structure prediction by ZEFSAII (Michael W. Deem and Ramdas Pophale) SiO2 
 PCOD9187383
Probable space group: C 2/M
;
_chemical_formula_sum "Si O2"
_cell_formula_units_Z 56
_cell_length_a 14.893688
_cell_length_b 15.791680
_cell_length_c 16.642204
_cell_angle_alpha 90.000000
_cell_angle_beta 50.297544
_cell_angle_gamma 90.000000
_cell_volume 3011.465573
_symmetry_space_group_name_H-M "C 2/M"
_symmetry_group_IT_number 12
_symmetry_cell_setting 'monoclinic'
loop_
_space_group_symop_operation_xyz
x,y,z
-x,y,-z
-x,-y,-z
x,-y,z
1/2+x,1/2+y,z
1/2-x,1/2+y,-z
1/2-x,1/2-y,-z
1/2+x,1/2-y,z
loop_
_atom_site_type_symbol
_atom_site_label
_atom_site_fract_x
_atom_site_fract_y
_atom_site_fract_z
Si Si1 0.168360 0.098855 0.576603
Si Si2 0.578473 0.401592 0.032112
Si Si3 0.639234 0.595907 0.411363
Si Si4 0.135205 0.402063 0.402130
Si Si5 0.283275 0.207963 0.896343
Si Si6 0.753404 0.743519 0.253288
Si Si7 0.476815 0.282631 0.228052
O O1 0.189098 0.117239 0.471281
O O2 0.284883 0.105129 0.563641
O O3 0.076842 0.164614 0.667174
O O4 0.127779 0.000000 0.604723
O O5 0.560611 0.500000 0.056374
O O6 0.534852 0.350250 0.134126
O O7 0.500000 0.376687 0.000000
O O8 0.713307 0.379946 0.936978
O O9 0.500000 0.597368 0.500000
O O10 0.674367 0.500000 0.369931
O O11 0.677896 0.664805 0.325700
O O12 0.146343 0.500000 0.367184
O O13 0.187431 0.331802 0.312561
O O14 0.000000 0.386051 0.500000
O O15 0.229434 0.258189 0.851631
O O16 0.422422 0.215889 0.807336
O O17 0.250000 0.250000 0.000000
O O18 0.871307 0.742856 0.237722
#
# Coordination Sequence:
#
# PCOD9187383 Si02
#       7
#     8   8   8   8   8   8   8
#     4   9  18  33  53  80 109 140 184 229 269 320
#     4  10  19  35  59  83 108 138 177 227 282 334
#     4  10  21  36  54  76 105 145 190 230 263 311
#     4   9  19  33  52  79 113 144 173 220 280 336
#     4  10  22  37  54  80 109 140 177 224 279 329
#     4  11  21  35  55  80 108 145 187 225 275 329
#     4  10  20  34  56  82 111 144 178 222 280 333
#
# _framework density 18.595596
#
# number of rings (size 3 to 8) (size 9 to 14) (size 15 to 20)
#    0.000    2.143    1.429    1.714    0.000    4.571 
#    0.000    3.571    0.000    0.000    0.000    6.000 
#    0.000    0.000    0.000    0.000    0.000    0.000 
#
# Total GULP energy -156178.969424 kJ/mol
# GULP energy per Si atom -5577.820337 kJ/mol
# Density = 1.855327 g / cm^3
# Si number density = 18.595596 Si / 1000 Ang^3
#
#
#
# Elastic Constant Matrix: (Units=GPa)
#
#
# Indices 1 2 3 4 5 6 
#
# 1 57.7500 18.4677 9.5370 0.0000 -6.2212 0.0000
# 2 18.4677 50.8826 24.2397 0.0000 0.2210 0.0000
# 3 9.5370 24.2397 34.9242 0.0000 1.4578 0.0000
# 4 0.0000 0.0000 0.0000 14.7696 0.0000 -7.7426
# 5 -6.2212 0.2210 1.4578 0.0000 41.7867 0.0000
# 6 0.0000 0.0000 0.0000 -7.7426 0.0000 17.5117
#
#
#
# Elastic Compliance Matrix: (Units=1/GPa)
#
#
# Indices 1 2 3 4 5 6 
#
# 1 0.019976 -0.006879 -0.000808 0.000000 0.003039 0.000000
# 2 -0.006879 0.031743 -0.020133 0.000000 -0.000490 0.000000
# 3 -0.000808 -0.020133 0.042890 0.000000 -0.001510 0.000000
# 4 0.000000 0.000000 0.000000 0.088135 0.000000 0.038968
# 5 0.003039 -0.000490 -0.001510 0.000000 0.024439 0.000000
# 6 0.000000 0.000000 0.000000 0.038968 0.000000 0.074334
#
#
# Mechanical properties :
#
#
# Convention : Reuss Voigt Hill
#
# Bulk Modulus (GPa) = 25.65980 27.56060 26.61020
# Shear Modulus (GPa) = 14.27977 20.90110 17.59043
#
# Velocity S-wave (km/s) = 2.77413 3.35622 3.07896
# Velocity P-wave (km/s) = 4.90814 5.46554 5.19432
#
# Compressibility (1/GPa) = 0.03897146
#
# Stress axis : x y z
#
# Youngs Moduli (GPa) = 50.05884 31.50321 23.31524
#
# Poissons Ratio (x) = 0.21671 0.01883
# Poissons Ratio (y) = 0.34435 0.46940
# Poissons Ratio (z) = 0.04042 0.63424
#
# Static dielectric constant tensor:
#      x y z
#    x 1.666780 0.000000 -0.013000 
#    y 0.000000 1.622170 0.000000 
#    z -0.013000 0.000000 1.626490 
# 
# From -- ./inp_files/145689.got.cif
#   From: 2010.05.17/outbox.cif.g08.bks.cpg/sg12_73_cif.got.tgz:145689.got - 2010.06.03 13:09:07.
