data_PCOD9187524
_publ_section_title
;
Structure prediction by ZEFSAII (Michael W. Deem and Ramdas Pophale) SiO2 
 PCOD9187524
Probable space group: C 2/M
;
_chemical_formula_sum "Si O2"
_cell_formula_units_Z 44
_cell_length_a 12.124935
_cell_length_b 25.125747
_cell_length_c 12.397520
_cell_angle_alpha 90.000000
_cell_angle_beta 35.843380
_cell_angle_gamma 90.000000
_cell_volume 2211.633766
_symmetry_space_group_name_H-M "C 2/M"
_symmetry_group_IT_number 12
_symmetry_cell_setting 'monoclinic'
loop_
_space_group_symop_operation_xyz
x,y,z
-x,y,-z
-x,-y,-z
x,-y,z
1/2+x,1/2+y,z
1/2-x,1/2+y,-z
1/2-x,1/2-y,-z
1/2+x,1/2-y,z
loop_
_atom_site_type_symbol
_atom_site_label
_atom_site_fract_x
_atom_site_fract_y
_atom_site_fract_z
Si Si1 0.849985 0.318625 0.027501
Si Si2 0.468122 0.241337 0.747359
Si Si3 0.549570 0.000000 0.090227
Si Si4 0.117557 0.915864 0.163626
Si Si5 0.089469 0.165521 0.815692
Si Si6 0.881166 0.000000 0.483180
Si Si7 0.000000 0.692566 0.500000
O O1 0.736512 0.263951 0.120700
O O2 0.701568 0.365472 0.160280
O O3 0.949128 0.312757 0.832076
O O4 0.000000 0.322784 0.000000
O O5 0.556213 0.287724 0.752454
O O6 0.545151 0.228470 0.568872
O O7 0.343960 0.000000 0.312201
O O8 0.500000 0.000000 0.000000
O O9 0.692492 0.951084 0.003864
O O10 0.015656 0.887433 0.143754
O O11 0.962180 0.949682 0.351563
O O12 0.310775 0.158685 0.662056
O O13 0.000000 0.181044 0.000000
O O14 0.000000 0.000000 0.500000
#
# Coordination Sequence:
#
# PCOD9187524 Si02
#       7
#     8   8   4   8   8   4   4
#     4  10  19  35  59  87 124 168 212 253 310 374
#     4  10  21  37  57  91 129 174 216 258 305 373
#     4  11  21  44  69  87 128 169 194 260 335 379
#     4  10  23  40  63  98 119 163 214 258 327 384
#     4  11  24  43  64  91 131 171 223 264 309 380
#     4  11  23  42  65  94 130 152 202 265 321 393
#     4  12  22  38  62  89 132 175 212 268 320 360
#
# _framework density 19.894794999999998
#
# number of rings (size 3 to 8) (size 9 to 14) (size 15 to 20)
#    0.000    1.455    1.818    6.000    0.000    2.909 
#    6.545    1.818    0.000    3.273    0.000    0.000 
#    0.000    0.000    0.000    0.000    0.000    0.000 
#
# Total GULP energy -122511.188782 kJ/mol
# GULP energy per Si atom -5568.690399 kJ/mol
# Density = 1.984951 g / cm^3
# Si number density = 19.894795 Si / 1000 Ang^3
#
#
#
# Elastic Constant Matrix: (Units=GPa)
#
#
# Indices 1 2 3 4 5 6 
#
# 1 136.9769 54.5540 76.0988 0.0000 -15.7490 0.0000
# 2 54.5540 89.6532 45.9107 0.0000 -5.2621 0.0000
# 3 76.0988 45.9107 135.5513 0.0000 -19.5571 0.0000
# 4 0.0000 0.0000 0.0000 9.7799 0.0000 -1.2320
# 5 -15.7490 -5.2621 -19.5571 0.0000 49.5156 0.0000
# 6 0.0000 0.0000 0.0000 -1.2320 0.0000 50.6887
#
#
#
# Elastic Compliance Matrix: (Units=1/GPa)
#
#
# Indices 1 2 3 4 5 6 
#
# 1 0.012125 -0.004734 -0.005005 0.000000 0.001377 0.000000
# 2 -0.004734 0.015350 -0.002676 0.000000 -0.000931 0.000000
# 3 -0.005005 -0.002676 0.011477 0.000000 0.002657 0.000000
# 4 0.000000 0.000000 0.000000 0.102564 0.000000 0.002493
# 5 0.001377 -0.000931 0.002657 0.000000 0.021584 0.000000
# 6 0.000000 0.000000 0.000000 0.002493 0.000000 0.019789
#
#
# Mechanical properties :
#
#
# Convention : Reuss Voigt Hill
#
# Bulk Modulus (GPa) = 70.80998 79.47870 75.14434
# Shear Modulus (GPa) = 23.53768 34.37139 28.95453
#
# Velocity S-wave (km/s) = 3.44336 4.16102 3.81909
# Velocity P-wave (km/s) = 7.17485 7.94491 7.56968
#
# Compressibility (1/GPa) = 0.01412230
#
# Stress axis : x y z
#
# Youngs Moduli (GPa) = 82.47620 65.14498 87.13448
#
# Poissons Ratio (x) = 0.30841 0.43609
# Poissons Ratio (y) = 0.39046 0.23314
# Poissons Ratio (z) = 0.41277 0.17431
#
# Static dielectric constant tensor:
#      x y z
#    x 1.695690 0.000000 0.001930 
#    y 0.000000 1.733130 0.000000 
#    z 0.001930 0.000000 1.868780 
# 
# From -- ./inp_files/136879.got.cif
#   From: 2010.05.17/outbox.cif.g08.bks.cpg/sg12_69_cif.got.tgz:136879.got - 2010.06.03 13:09:07.
