data_PCOD9187141
_publ_section_title
;
Structure prediction by ZEFSAII (Michael W. Deem and Ramdas Pophale) SiO2 
 PCOD9187141
Probable space group: C 2/M
;
_chemical_formula_sum "Si O2"
_cell_formula_units_Z 50
_cell_length_a 9.523083
_cell_length_b 15.515224
_cell_length_c 13.681109
_cell_angle_alpha 90.000000
_cell_angle_beta 75.736076
_cell_angle_gamma 90.000000
_cell_volume 1959.103409
_symmetry_space_group_name_H-M "C 2/M"
_symmetry_group_IT_number 12
_symmetry_cell_setting 'monoclinic'
loop_
_space_group_symop_operation_xyz
x,y,z
-x,y,-z
-x,-y,-z
x,-y,z
1/2+x,1/2+y,z
1/2-x,1/2+y,-z
1/2-x,1/2-y,-z
1/2+x,1/2-y,z
loop_
_atom_site_type_symbol
_atom_site_label
_atom_site_fract_x
_atom_site_fract_y
_atom_site_fract_z
Si Si1 0.252447 0.593862 0.821376
Si Si2 0.577026 0.402948 0.741137
Si Si3 0.500000 0.000000 0.500000
Si Si4 0.163785 0.099477 0.510477
Si Si5 0.956501 0.673467 0.407873
Si Si6 0.853098 0.403628 0.959161
Si Si7 0.988119 0.726942 0.192796
O O1 0.184186 0.500000 0.816876
O O2 0.406333 0.591831 0.744216
O O3 0.148628 0.666119 0.801346
O O4 0.268487 0.605234 0.936066
O O5 0.618089 0.500000 0.766340
O O6 0.658235 0.380003 0.627050
O O7 0.568771 0.323437 0.817341
O O8 0.519262 0.077787 0.414249
O O9 0.282983 0.158067 0.437556
O O10 0.000000 0.096149 0.500000
O O11 0.224587 0.000000 0.495137
O O12 0.018086 0.718552 0.302662
O O13 0.000000 0.721795 0.500000
O O14 0.838446 0.500000 0.916807
O O15 0.881676 0.320507 0.887060
O O16 0.000000 0.405539 0.000000
#
# Coordination Sequence:
#
# PCOD9187141 Si02
#       7
#     8   8   2   8   8   8   8
#     4   9  19  38  61  87 117 147 191 255 306 348
#     4  10  23  38  54  81 118 155 195 245 299 349
#     4   8  20  36  50  84 128 166 174 252 312 368
#     4  10  19  35  58  80 108 158 208 246 291 354
#     4  10  21  34  54  85 126 154 193 243 309 355
#     4   8  16  31  57  89 115 141 189 252 305 348
#     4  11  21  33  60  86 110 156 201 240 294 365
#
# _framework density 25.521878999999998
#
# number of rings (size 3 to 8) (size 9 to 14) (size 15 to 20)
#    0.480    1.920    0.800    2.400    2.240    4.480 
#    0.000    0.000    0.000    6.240    0.000    0.000 
#    0.000    0.000    0.000    0.000    0.000    0.000 
#
# Total GULP energy -139362.695629 kJ/mol
# GULP energy per Si atom -5574.507825 kJ/mol
# Density = 2.546379 g / cm^3
# Si number density = 25.521879 Si / 1000 Ang^3
#
#
#
# Elastic Constant Matrix: (Units=GPa)
#
#
# Indices 1 2 3 4 5 6 
#
# 1 56.5080 -8.1234 9.8537 0.0000 -6.1741 0.0000
# 2 -8.1234 188.1680 32.8961 0.0000 4.3156 0.0000
# 3 9.8537 32.8961 93.5308 0.0000 -12.4320 0.0000
# 4 0.0000 0.0000 0.0000 11.2982 0.0000 -2.2294
# 5 -6.1741 4.3156 -12.4320 0.0000 27.7713 0.0000
# 6 0.0000 0.0000 0.0000 -2.2294 0.0000 23.8829
#
#
#
# Elastic Compliance Matrix: (Units=1/GPa)
#
#
# Indices 1 2 3 4 5 6 
#
# 1 0.018521 0.001063 -0.001914 0.000000 0.003096 0.000000
# 2 0.001063 0.005818 -0.002389 0.000000 -0.001737 0.000000
# 3 -0.001914 -0.002389 0.012468 0.000000 0.005527 0.000000
# 4 0.000000 0.000000 0.000000 0.090170 0.000000 0.008417
# 5 0.003096 -0.001737 0.005527 0.000000 0.039441 0.000000
# 6 0.000000 0.000000 0.000000 0.008417 0.000000 0.042657
#
#
# Mechanical properties :
#
#
# Convention : Reuss Voigt Hill
#
# Bulk Modulus (GPa) = 32.97274 45.27328 39.12301
# Shear Modulus (GPa) = 22.15682 32.82919 27.49300
#
# Velocity S-wave (km/s) = 2.94964 3.59041 3.28568
# Velocity P-wave (km/s) = 4.95458 5.91317 5.45498
#
# Compressibility (1/GPa) = 0.03032809
#
# Stress axis : x y z
#
# Youngs Moduli (GPa) = 53.99161 171.88589 80.20374
#
# Poissons Ratio (x) = -0.18274 0.15349
# Poissons Ratio (y) = -0.05740 0.19162
# Poissons Ratio (z) = 0.10332 0.41066
#
# Static dielectric constant tensor:
#      x y z
#    x 2.971880 0.000000 -0.222520 
#    y 0.000000 2.083430 0.000000 
#    z -0.222520 0.000000 2.141160 
# 
# From -- ./inp_files/214139.got.cif
#   From: 2010.05.17/outbox.cif.g08.bks.cpg/sg12_108_cif.got.tgz:214139.got - 2010.06.03 13:09:07.
