data_PCOD9187400
_publ_section_title
;
Structure prediction by ZEFSAII (Michael W. Deem and Ramdas Pophale) SiO2 
 PCOD9187400
Probable space group: C 2/M
;
_chemical_formula_sum "Si O2"
_cell_formula_units_Z 44
_cell_length_a 30.227989
_cell_length_b 7.724485
_cell_length_c 17.509928
_cell_angle_alpha 90.000000
_cell_angle_beta 155.528028
_cell_angle_gamma 90.000000
_cell_volume 1693.649860
_symmetry_space_group_name_H-M "C 2/M"
_symmetry_group_IT_number 12
_symmetry_cell_setting 'monoclinic'
loop_
_space_group_symop_operation_xyz
x,y,z
-x,y,-z
-x,-y,-z
x,-y,z
1/2+x,1/2+y,z
1/2-x,1/2+y,-z
1/2-x,1/2-y,-z
1/2+x,1/2-y,z
loop_
_atom_site_type_symbol
_atom_site_label
_atom_site_fract_x
_atom_site_fract_y
_atom_site_fract_z
Si Si1 0.564934 0.298656 0.755267
Si Si2 0.676537 0.000000 0.849649
Si Si3 0.886693 0.296510 0.789250
Si Si4 0.134601 0.809165 0.664009
Si Si5 0.980077 0.206656 0.785851
Si Si6 0.707435 0.702202 0.211764
O O1 0.608664 0.500000 0.831787
O O2 0.651727 0.153663 0.875420
O O3 0.484651 0.291033 0.557561
O O4 0.495234 0.251823 0.720638
O O5 0.669705 0.151992 0.771841
O O6 0.885234 0.500000 0.800847
O O7 0.796841 0.222318 0.703825
O O8 0.890675 0.268834 0.704874
O O9 0.000000 0.222828 0.000000
O O10 0.205429 0.803074 0.698582
O O11 0.145114 0.000000 0.715881
O O12 0.973432 0.000000 0.778207
O O13 0.092856 0.263393 0.999829
O O14 0.718858 0.500000 0.212080
#
# Coordination Sequence:
#
# PCOD9187400 Si02
#       6
#     8   4   8   8   8   8
#     4  10  22  39  61  86 113 149 192 238 285 337
#     4  12  23  40  64  86 110 150 197 236 285 346
#     4   9  17  30  52  84 113 150 192 230 274 341
#     4  11  22  38  61  86 114 149 192 238 284 339
#     4   9  19  36  58  83 116 150 191 235 284 336
#     4  10  19  35  59  83 117 153 190 234 285 336
#
# _framework density 25.979396000000001
#
# number of rings (size 3 to 8) (size 9 to 14) (size 15 to 20)
#    0.000    2.000    0.909    3.273    1.273    4.364 
#    0.000    1.818    0.000    0.000    0.000    0.000 
#    0.000    0.000    0.000    0.000    0.000    0.000 
#
# Total GULP energy -122625.877189 kJ/mol
# GULP energy per Si atom -5573.903509 kJ/mol
# Density = 2.592027 g / cm^3
# Si number density = 25.979396 Si / 1000 Ang^3
#
#
#
# Elastic Constant Matrix: (Units=GPa)
#
#
# Indices 1 2 3 4 5 6 
#
# 1 215.0601 51.4783 5.3384 0.0000 -9.7884 0.0000
# 2 51.4783 157.4607 34.5370 0.0000 -0.2417 0.0000
# 3 5.3384 34.5370 74.8686 0.0000 -26.8401 0.0000
# 4 0.0000 0.0000 0.0000 -3.8205 0.0000 4.3270
# 5 -9.7884 -0.2417 -26.8401 0.0000 32.8814 0.0000
# 6 0.0000 0.0000 0.0000 4.3270 0.0000 53.6046
#
#
#
# Elastic Compliance Matrix: (Units=1/GPa)
#
#
# Indices 1 2 3 4 5 6 
#
# 1 0.005232 -0.002056 0.001595 0.000000 0.002844 0.000000
# 2 -0.002056 0.008205 -0.005423 0.000000 -0.004978 0.000000
# 3 0.001595 -0.005423 0.022478 0.000000 0.018783 0.000000
# 4 0.000000 0.000000 0.000000 -0.239822 0.000000 0.019359
# 5 0.002844 -0.004978 0.018783 0.000000 0.046555 0.000000
# 6 0.000000 0.000000 0.000000 0.019359 0.000000 0.017092
#
#
# Mechanical properties :
#
#
# Convention : Reuss Voigt Hill
#
# Bulk Modulus (GPa) = 41.41251 70.01076 55.71163
# Shear Modulus (GPa) = -41.51352 40.26881 -0.62235
#
# Velocity S-wave (km/s) = -4.00176 3.94131 -0.48998
# Velocity P-wave (km/s) = 2.31883 6.90789 4.60120
#
# Compressibility (1/GPa) = 0.02414729
#
# Stress axis : x y z
#
# Youngs Moduli (GPa) = 191.13706 121.88059 44.48702
#
# Poissons Ratio (x) = 0.25058 -0.07096
# Poissons Ratio (y) = 0.39296 0.24125
# Poissons Ratio (z) = -0.30487 0.66096
#
# Static dielectric constant tensor:
#      x y z
#    x 2.092500 0.000000 0.040000 
#    y 0.000000 1.935190 0.000000 
#    z 0.040000 0.000000 2.206040 
# 
# From -- ./inp_files/295255.got.cif
#   From: 2010.05.17/outbox.cif.g08.bks.cpg/sg12_148_cif.got.tgz:295255.got - 2010.06.03 13:09:07.
