data_PCOD9187972
_publ_section_title
;
Structure prediction by ZEFSAII (Michael W. Deem and Ramdas Pophale) SiO2 
 PCOD9187972
Probable space group: C 2/M
;
_chemical_formula_sum "Si O2"
_cell_formula_units_Z 36
_cell_length_a 5.354699
_cell_length_b 30.985276
_cell_length_c 10.928974
_cell_angle_alpha 90.000000
_cell_angle_beta 106.453881
_cell_angle_gamma 90.000000
_cell_volume 1739.042458
_symmetry_space_group_name_H-M "C 2/M"
_symmetry_group_IT_number 12
_symmetry_cell_setting 'monoclinic'
loop_
_space_group_symop_operation_xyz
x,y,z
-x,y,-z
-x,-y,-z
x,-y,z
1/2+x,1/2+y,z
1/2-x,1/2+y,-z
1/2-x,1/2-y,-z
1/2+x,1/2-y,z
loop_
_atom_site_type_symbol
_atom_site_label
_atom_site_fract_x
_atom_site_fract_y
_atom_site_fract_z
Si Si1 0.078507 0.906090 0.755724
Si Si2 0.522377 0.132613 0.643829
Si Si3 0.500000 0.572034 0.000000
Si Si4 0.903183 0.000000 0.346553
Si Si5 0.612236 0.000000 0.876971
Si Si6 0.871020 0.732592 0.645149
O O1 0.316184 0.891033 0.703176
O O2 0.007965 0.954444 0.698886
O O3 0.822924 0.876422 0.713973
O O4 0.147750 0.905368 0.909243
O O5 0.500000 0.118097 0.500000
O O6 0.448249 0.182980 0.641981
O O7 0.292346 0.541836 0.902803
O O8 0.598788 0.000000 0.260010
O O9 0.000000 0.000000 0.500000
O O10 0.500000 0.000000 0.000000
O O11 0.750000 0.750000 0.500000
O O12 0.634364 0.740721 0.705062
#
# Coordination Sequence:
#
# PCOD9187972 Si02
#       6
#     8   8   4   4   4   8
#     4  12  27  41  66  93 138 190 229 296 329 416
#     4  12  24  40  62 103 140 166 217 283 368 415
#     4  11  24  44  66  98 122 188 268 290 338 392
#     4  12  24  44  65 100 143 191 230 290 372 395
#     4  11  20  43  75  89 125 185 272 305 323 419
#     4  10  19  35  64  93 131 166 211 270 339 451
#
# _framework density 20.701048
#
# number of rings (size 3 to 8) (size 9 to 14) (size 15 to 20)
#    0.000    0.667    4.444    5.333    3.111    0.889 
#    0.000    5.556    0.000    0.000    0.000   15.556 
#    0.000    0.000    0.000    0.000    0.000    0.000 
#
# Total GULP energy -100444.616571 kJ/mol
# GULP energy per Si atom -5580.256476 kJ/mol
# Density = 2.065393 g / cm^3
# Si number density = 20.701048 Si / 1000 Ang^3
#
#
#
# Elastic Constant Matrix: (Units=GPa)
#
#
# Indices 1 2 3 4 5 6 
#
# 1 171.7506 31.5048 56.7461 0.0000 -8.7102 0.0000
# 2 31.5048 79.0648 18.6660 0.0000 0.5932 0.0000
# 3 56.7461 18.6660 132.0119 0.0000 -8.8088 0.0000
# 4 0.0000 0.0000 0.0000 42.3295 0.0000 39.1300
# 5 -8.7102 0.5932 -8.8088 0.0000 45.0617 0.0000
# 6 0.0000 0.0000 0.0000 39.1300 0.0000 49.1284
#
#
#
# Elastic Compliance Matrix: (Units=1/GPa)
#
#
# Indices 1 2 3 4 5 6 
#
# 1 0.007170 -0.002224 -0.002709 0.000000 0.000886 0.000000
# 2 -0.002224 0.013788 -0.001048 0.000000 -0.000816 0.000000
# 3 -0.002709 -0.001048 0.008971 0.000000 0.001244 0.000000
# 4 0.000000 0.000000 0.000000 0.089581 0.000000 -0.071350
# 5 0.000886 -0.000816 0.001244 0.000000 0.022617 0.000000
# 6 0.000000 0.000000 0.000000 -0.071350 0.000000 0.077184
#
#
# Mechanical properties :
#
#
# Convention : Reuss Voigt Hill
#
# Bulk Modulus (GPa) = 55.65764 66.29569 60.97667
# Shear Modulus (GPa) = 21.07383 45.69794 33.38589
#
# Velocity S-wave (km/s) = 3.19409 4.70352 4.02028
# Velocity P-wave (km/s) = 6.36770 7.84807 7.14633
#
# Compressibility (1/GPa) = 0.01796698
#
# Stress axis : x y z
#
# Youngs Moduli (GPa) = 139.46549 72.52854 111.47623
#
# Poissons Ratio (x) = 0.16133 0.30194
# Poissons Ratio (y) = 0.31021 0.11681
# Poissons Ratio (z) = 0.37775 0.07600
#
# Static dielectric constant tensor:
#      x y z
#    x 1.631230 0.000000 0.235070 
#    y 0.000000 1.763080 0.000000 
#    z 0.235070 0.000000 1.488810 
# 
# From -- ./inp_files/115587.got.cif
#   From: 2010.05.17/outbox.cif.g08.bks.cpg/sg12_58_cif.got.tgz:115587.got - 2010.06.03 13:09:07.
