data_PCOD9187973
_publ_section_title
;
Structure prediction by ZEFSAII (Michael W. Deem and Ramdas Pophale) SiO2 
 PCOD9187973
Probable space group: C 2/M
;
_chemical_formula_sum "Si O2"
_cell_formula_units_Z 64
_cell_length_a 15.808243
_cell_length_b 31.920886
_cell_length_c 11.309057
_cell_angle_alpha 90.000000
_cell_angle_beta 150.254321
_cell_angle_gamma 90.000000
_cell_volume 2831.384352
_symmetry_space_group_name_H-M "C 2/M"
_symmetry_group_IT_number 12
_symmetry_cell_setting 'monoclinic'
loop_
_space_group_symop_operation_xyz
x,y,z
-x,y,-z
-x,-y,-z
x,-y,z
1/2+x,1/2+y,z
1/2-x,1/2+y,-z
1/2-x,1/2-y,-z
1/2+x,1/2-y,z
loop_
_atom_site_type_symbol
_atom_site_label
_atom_site_fract_x
_atom_site_fract_y
_atom_site_fract_z
Si Si1 0.227310 0.696266 0.327425
Si Si2 0.753523 0.073586 0.593403
Si Si3 0.100633 0.663482 0.393457
Si Si4 0.872211 0.924332 0.007203
Si Si5 0.716436 0.131974 0.112579
Si Si6 0.869232 0.547111 0.070953
Si Si7 0.688742 0.285700 0.172349
Si Si8 0.585115 0.667395 0.840394
O O1 0.101864 0.696364 0.286603
O O2 0.188840 0.656253 0.199601
O O3 0.221770 0.737636 0.243717
O O4 0.403675 0.689171 0.607760
O O5 0.721489 0.122712 0.524181
O O6 0.572517 0.052463 0.341956
O O7 0.931852 0.059078 0.750598
O O8 0.792105 0.069497 0.780263
O O9 0.167715 0.686861 0.588641
O O10 0.915579 0.643510 0.154317
O O11 0.894604 0.874486 0.056442
O O12 0.744469 0.943178 0.949734
O O13 0.882274 0.150275 0.251642
O O14 0.694798 0.082538 0.098267
O O15 0.837065 0.500000 0.992751
O O16 0.500000 0.295911 0.000000
O O17 0.692860 0.297586 0.040039
#
# Coordination Sequence:
#
# PCOD9187973 Si02
#       8
#     8   8   8   8   8   8   8   8
#     4  12  24  40  65  89 127 174 216 270 312 379
#     4  10  19  35  64  94 127 169 208 258 326 390
#     4  11  21  40  64  91 126 169 218 262 316 380
#     4  10  19  37  63  93 127 170 208 259 325 387
#     4  10  25  43  63  91 127 169 217 256 332 390
#     4  10  23  41  64  95 129 162 211 272 327 392
#     4  12  23  38  64  93 128 166 220 270 317 371
#     4  11  23  42  62  89 128 168 218 266 318 380
#
# _framework density 22.603784000000001
#
# number of rings (size 3 to 8) (size 9 to 14) (size 15 to 20)
#    0.000    1.250    3.750    2.250    1.750    2.500 
#    2.250    1.250    0.000   12.000    0.000    0.000 
#    0.000    0.000    0.000    0.000    0.000    0.000 
#
# Total GULP energy -178603.275942 kJ/mol
# GULP energy per Si atom -5581.352373 kJ/mol
# Density = 2.255234 g / cm^3
# Si number density = 22.603784 Si / 1000 Ang^3
#
#
#
# Elastic Constant Matrix: (Units=GPa)
#
#
# Indices 1 2 3 4 5 6 
#
# 1 35.5766 13.7249 18.4621 0.0000 0.9777 0.0000
# 2 13.7249 127.6858 35.8577 0.0000 -8.4408 0.0000
# 3 18.4621 35.8577 56.2296 0.0000 -15.9622 0.0000
# 4 0.0000 0.0000 0.0000 -0.4883 0.0000 5.7591
# 5 0.9777 -8.4408 -15.9622 0.0000 31.0707 0.0000
# 6 0.0000 0.0000 0.0000 5.7591 0.0000 14.4606
#
#
#
# Elastic Compliance Matrix: (Units=1/GPa)
#
#
# Indices 1 2 3 4 5 6 
#
# 1 0.035670 -0.000526 -0.013739 0.000000 -0.008324 0.000000
# 2 -0.000526 0.009558 -0.006065 0.000000 -0.000503 0.000000
# 3 -0.013739 -0.006065 0.030226 0.000000 0.014313 0.000000
# 4 0.000000 0.000000 0.000000 -0.359458 0.000000 0.143160
# 5 -0.008324 -0.000503 0.014313 0.000000 0.039663 0.000000
# 6 0.000000 0.000000 0.000000 0.143160 0.000000 0.012138
#
#
# Mechanical properties :
#
#
# Convention : Reuss Voigt Hill
#
# Bulk Modulus (GPa) = 28.74105 39.50903 34.12504
# Shear Modulus (GPa) = -27.78651 19.10508 -4.34071
#
# Velocity S-wave (km/s) = -3.50992 2.91041 -1.38727
# Velocity P-wave (km/s) = 1.91919 5.36758 3.54455
#
# Compressibility (1/GPa) = 0.03479344
#
# Stress axis : x y z
#
# Youngs Moduli (GPa) = 28.03491 104.62048 33.08383
#
# Poissons Ratio (x) = 0.05504 0.45454
# Poissons Ratio (y) = 0.01475 0.20067
# Poissons Ratio (z) = 0.38517 0.63456
#
# Static dielectric constant tensor:
#      x y z
#    x 1.927330 0.000000 0.089000 
#    y 0.000000 1.842410 0.000000 
#    z 0.089000 0.000000 1.853050 
# 
# From -- ./inp_files/80693.got.cif
#   From: 2010.05.17/outbox.cif.g08.bks.cpg/sg12_41_cif.got.tgz:80693.got - 2010.06.03 13:09:07.
