data_PCOD9187394
_publ_section_title
;
Structure prediction by ZEFSAII (Michael W. Deem and Ramdas Pophale) SiO2 
 PCOD9187394
Probable space group: C 2/M
;
_chemical_formula_sum "Si O2"
_cell_formula_units_Z 64
_cell_length_a 15.848826
_cell_length_b 7.646584
_cell_length_c 24.173184
_cell_angle_alpha 90.000000
_cell_angle_beta 76.421142
_cell_angle_gamma 90.000000
_cell_volume 2847.645979
_symmetry_space_group_name_H-M "C 2/M"
_symmetry_group_IT_number 12
_symmetry_cell_setting 'monoclinic'
loop_
_space_group_symop_operation_xyz
x,y,z
-x,y,-z
-x,-y,-z
x,-y,z
1/2+x,1/2+y,z
1/2-x,1/2+y,-z
1/2-x,1/2-y,-z
1/2+x,1/2-y,z
loop_
_atom_site_type_symbol
_atom_site_label
_atom_site_fract_x
_atom_site_fract_y
_atom_site_fract_z
Si Si1 0.899798 0.714987 0.684821
Si Si2 0.811646 0.207656 0.439420
Si Si3 0.469279 0.201838 0.242452
Si Si4 0.884076 0.205954 0.952791
Si Si5 0.284047 0.288320 0.078036
Si Si6 0.060296 0.795609 0.877457
Si Si7 0.002484 0.700141 0.438419
Si Si8 0.715054 0.710931 0.680083
O O1 0.904512 0.500000 0.683558
O O2 0.799238 0.765264 0.701723
O O3 0.958747 0.775559 0.726682
O O4 0.940361 0.775810 0.620060
O O5 0.750000 0.250000 0.500000
O O6 0.903988 0.298984 0.432469
O O7 0.771149 0.255504 0.386535
O O8 0.827741 0.000000 0.436261
O O9 0.459515 0.285039 0.184053
O O10 0.375965 0.213981 0.286230
O O11 0.491569 0.000000 0.229156
O O12 0.814278 0.225256 0.914136
O O13 0.977803 0.281505 0.922972
O O14 0.895815 0.000000 0.961131
O O15 0.837223 0.273846 0.015240
O O16 0.277113 0.500000 0.078643
O O17 0.344846 0.228640 0.119279
O O18 0.063314 0.000000 0.892170
O O19 0.034554 0.500000 0.441281
O O20 0.000000 0.782518 0.500000
O O21 0.708274 0.500000 0.685230
#
# Coordination Sequence:
#
# PCOD9187394 Si02
#       8
#     8   8   8   8   8   8   8   8
#     4   9  19  37  59  80 107 144 184 225 280 341
#     4  11  22  35  56  85 117 147 184 231 281 342
#     4  11  23  39  58  82 112 147 190 242 286 331
#     4   9  18  34  57  85 116 149 189 237 283 329
#     4   9  18  34  57  84 115 152 190 231 283 338
#     4  10  21  37  57  80 112 153 194 231 278 342
#     4  10  19  35  59  83 112 147 184 226 281 345
#     4  10  21  40  62  82 108 148 190 228 280 345
#
# _framework density 22.474703999999999
#
# number of rings (size 3 to 8) (size 9 to 14) (size 15 to 20)
#    0.000    2.125    1.250    1.875    0.000    6.250 
#    0.000    5.625    0.000    3.750    0.000    0.000 
#    0.000    0.000    0.000    0.000    0.000    0.000 
#
# Total GULP energy -178702.860336 kJ/mol
# GULP energy per Si atom -5584.464385 kJ/mol
# Density = 2.242355 g / cm^3
# Si number density = 22.474704 Si / 1000 Ang^3
#
#
#
# Elastic Constant Matrix: (Units=GPa)
#
#
# Indices 1 2 3 4 5 6 
#
# 1 84.0968 -6.5022 6.2126 0.0000 32.1425 0.0000
# 2 -6.5022 41.0816 -3.4727 -0.0001 2.3844 0.0000
# 3 6.2126 -3.4727 44.4857 0.0000 27.0585 0.0000
# 4 0.0000 -0.0001 0.0000 -16.1508 0.0000 9.2287
# 5 32.1425 2.3844 27.0585 0.0000 36.3491 0.0000
# 6 0.0000 0.0000 0.0000 9.2287 0.0000 17.2359
#
#
#
# Elastic Compliance Matrix: (Units=1/GPa)
#
#
# Indices 1 2 3 4 5 6 
#
# 1 0.025706 0.008029 0.020437 0.000000 -0.038471 0.000000
# 2 0.008029 0.027637 0.011801 0.000000 -0.017697 0.000000
# 3 0.020437 0.011801 0.058495 0.000000 -0.062390 0.000000
# 4 0.000000 0.000000 0.000000 -0.047411 0.000000 0.025385
# 5 -0.038471 -0.017697 -0.062390 0.000000 0.109135 0.000000
# 6 0.000000 0.000000 0.000000 0.025385 0.000000 0.044426
#
#
# Mechanical properties :
#
#
# Convention : Reuss Voigt Hill
#
# Bulk Modulus (GPa) = 5.19826 18.01551 11.60689
# Shear Modulus (GPa) = 24.80416 19.04859 21.92638
#
# Velocity S-wave (km/s) = 3.32572 2.91444 3.12685
# Velocity P-wave (km/s) = 4.13101 4.39984 4.26754
#
# Compressibility (1/GPa) = 0.19237217
#
# Stress axis : x y z
#
# Youngs Moduli (GPa) = 38.90117 36.18299 17.09544
#
# Poissons Ratio (x) = -0.29052 -0.34938
# Poissons Ratio (y) = -0.31234 -0.20174
# Poissons Ratio (z) = -0.79503 -0.42698
#
# Static dielectric constant tensor:
#      x y z
#    x 1.777190 0.000000 0.046140 
#    y 0.000000 1.885450 0.000000 
#    z 0.046140 0.000000 1.811230 
# 
# From -- ./inp_files/338709.got.cif
#   From: 2010.05.17/outbox.cif.g08.bks.cpg/sg12_170_cif.got.tgz:338709.got - 2010.06.03 13:09:07.
