data_PCOD9187108
_publ_section_title
;
Structure prediction by ZEFSAII (Michael W. Deem and Ramdas Pophale) SiO2 
 PCOD9187108
Probable space group: C 2/M
;
_chemical_formula_sum "Si O2"
_cell_formula_units_Z 64
_cell_length_a 11.479265
_cell_length_b 21.651894
_cell_length_c 22.995646
_cell_angle_alpha 90.000000
_cell_angle_beta 146.620977
_cell_angle_gamma 90.000000
_cell_volume 3144.535344
_symmetry_space_group_name_H-M "C 2/M"
_symmetry_group_IT_number 12
_symmetry_cell_setting 'monoclinic'
loop_
_space_group_symop_operation_xyz
x,y,z
-x,y,-z
-x,-y,-z
x,-y,z
1/2+x,1/2+y,z
1/2-x,1/2+y,-z
1/2-x,1/2-y,-z
1/2+x,1/2-y,z
loop_
_atom_site_type_symbol
_atom_site_label
_atom_site_fract_x
_atom_site_fract_y
_atom_site_fract_z
Si Si1 0.530531 0.649484 0.221493
Si Si2 0.942368 0.829040 0.541954
Si Si3 0.237126 0.626896 0.875361
Si Si4 0.484655 0.571575 0.088277
Si Si5 0.676184 0.928561 0.119222
Si Si6 0.285060 0.249724 0.187581
Si Si7 0.991067 0.306760 0.387231
Si Si8 0.657154 0.856107 0.216765
O O1 0.466145 0.619370 0.133167
O O2 0.408087 0.602137 0.212418
O O3 0.420146 0.713089 0.195766
O O4 0.782862 0.659018 0.325300
O O5 0.706448 0.843982 0.466211
O O6 0.000000 0.847308 0.500000
O O7 0.962446 0.754055 0.554896
O O8 0.112271 0.854784 0.658590
O O9 0.279692 0.579611 0.840636
O O10 0.327486 0.692028 0.889096
O O11 0.003076 0.644589 0.796821
O O12 0.341514 0.596042 0.975598
O O13 0.441509 0.500000 0.085022
O O14 0.604275 0.914318 0.154350
O O15 0.695632 0.000000 0.114969
O O16 0.500000 0.903115 0.000000
O O17 0.429830 0.219718 0.298051
O O18 0.143961 0.298324 0.165853
#
# Coordination Sequence:
#
# PCOD9187108 Si02
#       8
#     8   8   8   8   8   8   8   8
#     4  11  21  37  62  89 125 158 204 265 311 372
#     4  10  20  34  59  87 126 162 199 241 306 389
#     4  11  21  38  57  81 121 160 200 256 304 371
#     4  11  25  41  57  84 115 165 218 254 299 360
#     4  10  22  42  65  88 117 164 219 262 308 365
#     4  10  20  37  56  90 127 153 195 244 327 370
#     4  10  19  35  57  90 122 160 195 246 306 376
#     4  10  22  37  60  91 122 160 200 256 309 376
#
# _framework density 20.352768000000001
#
# number of rings (size 3 to 8) (size 9 to 14) (size 15 to 20)
#    0.000    1.625    1.250    4.875    0.000    3.500 
#   11.250    0.000    0.000    2.625    0.000    0.000 
#    0.000    0.000    0.000    0.000    0.000    0.000 
#
# Total GULP energy -178311.720551 kJ/mol
# GULP energy per Si atom -5572.241267 kJ/mol
# Density = 2.030644 g / cm^3
# Si number density = 20.352768 Si / 1000 Ang^3
#
#
#
# Elastic Constant Matrix: (Units=GPa)
#
#
# Indices 1 2 3 4 5 6 
#
# 1 99.8493 24.3313 19.0220 0.0002 0.7728 0.0000
# 2 24.3313 66.0603 30.2922 0.0000 12.3436 0.0000
# 3 19.0220 30.2922 49.8913 0.0007 4.2928 0.0001
# 4 0.0002 0.0000 0.0007 7.3909 0.0002 -1.1793
# 5 0.7728 12.3436 4.2928 0.0002 27.4658 -0.0001
# 6 0.0000 0.0000 0.0001 -1.1793 -0.0001 12.2395
#
#
#
# Elastic Compliance Matrix: (Units=1/GPa)
#
#
# Indices 1 2 3 4 5 6 
#
# 1 0.011275 -0.003342 -0.002404 0.000000 0.001561 0.000000
# 2 -0.003342 0.023631 -0.012334 0.000002 -0.008598 0.000000
# 3 -0.002404 -0.012334 0.028347 -0.000003 0.001180 -0.000001
# 4 0.000000 0.000002 -0.000003 0.137414 -0.000001 0.013240
# 5 0.001561 -0.008598 0.001180 -0.000001 0.040045 0.000000
# 6 0.000000 0.000000 -0.000001 0.013240 0.000000 0.082978
#
#
# Mechanical properties :
#
#
# Convention : Reuss Voigt Hill
#
# Bulk Modulus (GPa) = 36.90893 40.34357 38.62625
# Shear Modulus (GPa) = 13.55445 18.89627 16.22536
#
# Velocity S-wave (km/s) = 2.58345 3.05033 2.82655
# Velocity P-wave (km/s) = 5.20316 5.68078 5.44721
#
# Compressibility (1/GPa) = 0.02709371
#
# Stress axis : x y z
#
# Youngs Moduli (GPa) = 88.68851 42.31720 35.27682
#
# Poissons Ratio (x) = 0.14143 0.08480
# Poissons Ratio (y) = 0.29641 0.43510
# Poissons Ratio (z) = 0.21321 0.52193
#
# Static dielectric constant tensor:
#      x y z
#    x 1.824260 0.000000 0.026110 
#    y 0.000000 1.746270 0.000000 
#    z 0.026110 0.000000 1.761010 
# 
# From -- ./inp_files/337136.got.cif
#   From: 2010.05.17/outbox.cif.g08.bks.cpg/sg12_169_cif.got.tgz:337136.got - 2010.06.03 13:09:07.
