data_PCOD9187652
_publ_section_title
;
Structure prediction by ZEFSAII (Michael W. Deem and Ramdas Pophale) SiO2 
 PCOD9187652
Probable space group: C 2/M
;
_chemical_formula_sum "Si O2"
_cell_formula_units_Z 64
_cell_length_a 29.675929
_cell_length_b 7.795778
_cell_length_c 12.740245
_cell_angle_alpha 90.000000
_cell_angle_beta 89.277604
_cell_angle_gamma 90.000000
_cell_volume 2947.182612
_symmetry_space_group_name_H-M "C 2/M"
_symmetry_group_IT_number 12
_symmetry_cell_setting 'monoclinic'
loop_
_space_group_symop_operation_xyz
x,y,z
-x,y,-z
-x,-y,-z
x,-y,z
1/2+x,1/2+y,z
1/2-x,1/2+y,-z
1/2-x,1/2-y,-z
1/2+x,1/2-y,z
loop_
_atom_site_type_symbol
_atom_site_label
_atom_site_fract_x
_atom_site_fract_y
_atom_site_fract_z
Si Si1 0.733914 0.793019 0.618276
Si Si2 0.988960 0.695702 0.613798
Si Si3 0.103103 0.201142 0.450031
Si Si4 0.603514 0.700066 0.123850
Si Si5 0.503133 0.302505 0.159157
Si Si6 0.823017 0.207707 0.714145
Si Si7 0.867020 0.707595 0.326904
Si Si8 0.906069 0.699854 0.103966
O O1 0.750000 0.750000 0.500000
O O2 0.772272 0.729710 0.698355
O O3 0.683897 0.730964 0.648384
O O4 0.732429 0.000000 0.624422
O O5 0.006216 0.500000 0.617138
O O6 0.934959 0.697993 0.611368
O O7 0.005068 0.791230 0.715818
O O8 0.000000 0.773228 0.500000
O O9 0.150575 0.244093 0.395100
O O10 0.103840 0.239460 0.572985
O O11 0.094805 0.000000 0.432923
O O12 0.599048 0.500000 0.155676
O O13 0.553061 0.774908 0.141158
O O14 0.644294 0.770823 0.193504
O O15 0.612404 0.712114 0.999953
O O16 0.503693 0.500000 0.124884
O O17 0.460316 0.217449 0.106197
O O18 0.820197 0.000000 0.725278
O O19 0.867374 0.500000 0.324716
O O20 0.886351 0.767564 0.214725
O O21 0.894530 0.500000 0.096729
#
# Coordination Sequence:
#
# PCOD9187652 Si02
#       8
#     8   8   8   8   8   8   8   8
#     4  10  19  35  60  87 115 149 186 229 285 343
#     4  11  23  36  51  78 118 157 189 228 284 344
#     4  11  20  34  57  84 113 148 190 233 280 338
#     4  10  21  40  61  82 111 147 192 242 288 333
#     4  11  22  38  60  85 111 147 196 243 285 335
#     4   9  18  35  58  85 113 141 179 232 285 332
#     4  10  22  38  56  83 120 155 186 232 290 344
#     4  11  24  40  56  81 117 154 194 236 285 341
#
# _framework density 21.715655999999999
#
# number of rings (size 3 to 8) (size 9 to 14) (size 15 to 20)
#    0.000    1.625    2.500    2.625    0.000    7.500 
#    0.000    1.250    0.000    0.000    0.000    0.000 
#    0.000    0.000    0.000    0.000    0.000    0.000 
#
# Total GULP energy -178769.851474 kJ/mol
# GULP energy per Si atom -5586.557859 kJ/mol
# Density = 2.166623 g / cm^3
# Si number density = 21.715656 Si / 1000 Ang^3
#
#
#
# Elastic Constant Matrix: (Units=GPa)
#
#
# Indices 1 2 3 4 5 6 
#
# 1 98.9829 -0.9284 40.1596 0.0000 17.7976 0.0000
# 2 -0.9284 34.1045 0.3708 0.0000 -1.6700 0.0000
# 3 40.1596 0.3708 144.4862 0.0000 20.4617 0.0000
# 4 0.0000 0.0000 0.0000 -118.6180 0.0000 -85.5469
# 5 17.7976 -1.6700 20.4617 0.0000 27.7790 0.0000
# 6 0.0000 0.0000 0.0000 -85.5469 0.0000 -38.7944
#
#
#
# Elastic Compliance Matrix: (Units=1/GPa)
#
#
# Indices 1 2 3 4 5 6 
#
# 1 0.012206 0.000069 -0.002552 0.000000 -0.005936 0.000000
# 2 0.000069 0.029426 -0.000378 0.000000 0.002003 0.000000
# 3 -0.002552 -0.000378 0.008265 0.000000 -0.004476 0.000000
# 4 0.000000 0.000000 0.000000 0.014281 0.000000 -0.031491
# 5 -0.005936 0.002003 -0.004476 0.000000 0.043219 0.000000
# 6 0.000000 0.000000 0.000000 -0.031491 0.000000 0.043665
#
#
# Mechanical properties :
#
#
# Convention : Reuss Voigt Hill
#
# Bulk Modulus (GPa) = 22.63749 39.64194 31.13971
# Shear Modulus (GPa) = 29.15299 -10.06188 9.54556
#
# Velocity S-wave (km/s) = 3.66797 -2.15488 2.09887
# Velocity P-wave (km/s) = 5.32783 3.47897 4.49939
#
# Compressibility (1/GPa) = 0.04417452
#
# Stress axis : x y z
#
# Youngs Moduli (GPa) = 81.92522 33.98387 120.98835
#
# Poissons Ratio (x) = -0.00236 0.30879
# Poissons Ratio (y) = -0.00568 0.04579
# Poissons Ratio (z) = 0.20909 0.01286
#
# Static dielectric constant tensor:
#      x y z
#    x 1.831970 0.000000 -0.022800 
#    y 0.000000 1.792760 0.000000 
#    z -0.022800 0.000000 1.782680 
# 
# From -- ./inp_files/187528.got.cif
#   From: 2010.05.17/outbox.cif.g08.bks.cpg/sg12_94_cif.got.tgz:187528.got - 2010.06.03 13:09:07.
