data_PCOD9187965
_publ_section_title
;
Structure prediction by ZEFSAII (Michael W. Deem and Ramdas Pophale) SiO2 
 PCOD9187965
Probable space group: C 2/M
;
_chemical_formula_sum "Si O2"
_cell_formula_units_Z 40
_cell_length_a 10.382789
_cell_length_b 15.265462
_cell_length_c 13.122708
_cell_angle_alpha 90.000000
_cell_angle_beta 91.319875
_cell_angle_gamma 90.000000
_cell_volume 2079.372057
_symmetry_space_group_name_H-M "C 2/M"
_symmetry_group_IT_number 12
_symmetry_cell_setting 'monoclinic'
loop_
_space_group_symop_operation_xyz
x,y,z
-x,y,-z
-x,-y,-z
x,-y,z
1/2+x,1/2+y,z
1/2-x,1/2+y,-z
1/2-x,1/2-y,-z
1/2+x,1/2-y,z
loop_
_atom_site_type_symbol
_atom_site_label
_atom_site_fract_x
_atom_site_fract_y
_atom_site_fract_z
Si Si1 0.278798 0.098537 0.721730
Si Si2 0.633736 0.861684 0.051819
Si Si3 0.879253 0.740579 0.568255
Si Si4 0.527172 0.398329 0.293947
Si Si5 0.619300 0.349752 0.072690
O O1 0.332387 0.101094 0.837310
O O2 0.351773 0.168738 0.654235
O O3 0.125947 0.119705 0.721117
O O4 0.292738 0.000000 0.680907
O O5 0.624956 0.756270 0.068717
O O6 0.500000 0.890635 0.000000
O O7 0.748929 0.881201 0.975812
O O8 0.750000 0.750000 0.500000
O O9 0.914869 0.832158 0.622874
O O10 0.000000 0.715504 0.500000
O O11 0.542684 0.500000 0.322668
O O12 0.594269 0.380867 0.186462
O O13 0.500000 0.378179 0.000000
#
# Coordination Sequence:
#
# PCOD9187965 Si02
#       5
#     8   8   8   8   8
#     4  11  24  43  68  99 134 173 220 270 330 394
#     4  10  21  35  62  96 138 175 209 261 323 384
#     4  12  26  46  72  95 129 171 218 282 341 386
#     4  11  24  42  70 101 131 171 224 270 321 400
#     4  10  19  35  63  96 129 176 218 253 312 398
#
# _framework density 19.236575999999999
#
# number of rings (size 3 to 8) (size 9 to 14) (size 15 to 20)
#    0.000    1.200    6.000    0.000    0.000    4.800 
#    0.000    2.000    0.000    0.000    0.000    0.000 
#    0.000    0.000    0.000    0.000    0.000    0.000 
#
# Total GULP energy -111828.444302 kJ/mol
# GULP energy per Si atom -5591.422215 kJ/mol
# Density = 1.919279 g / cm^3
# Si number density = 19.236576 Si / 1000 Ang^3
#
#
#
# Elastic Constant Matrix: (Units=GPa)
#
#
# Indices 1 2 3 4 5 6 
#
# 1 171.9820 63.7214 79.2108 0.0000 -1.7683 0.0000
# 2 63.7214 97.0931 59.5436 0.0000 -6.8223 0.0000
# 3 79.2108 59.5436 122.2377 0.0000 -6.8818 0.0000
# 4 0.0000 0.0000 0.0000 -13.0559 0.0000 4.8620
# 5 -1.7683 -6.8223 -6.8818 0.0000 47.9006 0.0000
# 6 0.0000 0.0000 0.0000 4.8620 0.0000 13.6636
#
#
#
# Elastic Compliance Matrix: (Units=1/GPa)
#
#
# Indices 1 2 3 4 5 6 
#
# 1 0.009006 -0.003363 -0.004240 0.000000 -0.000756 0.000000
# 2 -0.003363 0.015998 -0.005537 0.000000 0.001359 0.000000
# 3 -0.004240 -0.005537 0.013683 0.000000 0.001021 0.000000
# 4 0.000000 0.000000 0.000000 -0.067632 0.000000 0.024066
# 5 -0.000756 0.001359 0.001021 0.000000 0.021189 0.000000
# 6 0.000000 0.000000 0.000000 0.024066 0.000000 0.064624
#
#
# Mechanical properties :
#
#
# Convention : Reuss Voigt Hill
#
# Bulk Modulus (GPa) = 80.60524 88.47383 84.53953
# Shear Modulus (GPa) = 57.28528 22.29081 39.78805
#
# Velocity S-wave (km/s) = 5.46297 3.40777 4.55285
# Velocity P-wave (km/s) = 9.04351 7.84705 8.46644
#
# Compressibility (1/GPa) = 0.01240614
#
# Stress axis : x y z
#
# Youngs Moduli (GPa) = 111.03971 62.50929 73.08415
#
# Poissons Ratio (x) = 0.21023 0.30988
# Poissons Ratio (y) = 0.37345 0.40465
# Poissons Ratio (z) = 0.47082 0.34610
#
# Static dielectric constant tensor:
#      x y z
#    x 1.644880 0.000000 0.000880 
#    y 0.000000 1.686160 0.000000 
#    z 0.000880 0.000000 1.632730 
# 
# From -- ./inp_files/119051.got.cif
#   From: 2010.05.17/outbox.cif.g08.bks.cpg/sg12_60_cif.got.tgz:119051.got - 2010.06.03 13:09:07.
