data_PCOD9187756
_publ_section_title
;
Structure prediction by ZEFSAII (Michael W. Deem and Ramdas Pophale) SiO2 
 PCOD9187756
Probable space group: C 2/M
;
_chemical_formula_sum "Si O2"
_cell_formula_units_Z 56
_cell_length_a 29.671979
_cell_length_b 18.077668
_cell_length_c 8.177708
_cell_angle_alpha 90.000000
_cell_angle_beta 38.328282
_cell_angle_gamma 90.000000
_cell_volume 2720.374557
_symmetry_space_group_name_H-M "C 2/M"
_symmetry_group_IT_number 12
_symmetry_cell_setting 'monoclinic'
loop_
_space_group_symop_operation_xyz
x,y,z
-x,y,-z
-x,-y,-z
x,-y,z
1/2+x,1/2+y,z
1/2-x,1/2+y,-z
1/2-x,1/2-y,-z
1/2+x,1/2-y,z
loop_
_atom_site_type_symbol
_atom_site_label
_atom_site_fract_x
_atom_site_fract_y
_atom_site_fract_z
Si Si1 0.658353 0.680848 0.031293
Si Si2 0.287961 0.914089 0.785531
Si Si3 0.040837 0.084907 0.205647
Si Si4 0.783036 0.914938 0.652323
Si Si5 0.811228 0.690889 0.270584
Si Si6 0.916201 0.827285 0.402170
Si Si7 0.919690 0.337260 0.258697
O O1 0.612564 0.632313 0.033815
O O2 0.620571 0.676278 0.314376
O O3 0.736483 0.642595 0.832491
O O4 0.658239 0.765139 0.973309
O O5 0.369389 0.886970 0.519593
O O6 0.277933 0.000000 0.764085
O O7 0.260345 0.909110 0.051164
O O8 0.000000 0.083889 0.500000
O O9 0.988632 0.125280 0.225536
O O10 0.054990 0.000000 0.121300
O O11 0.730731 0.882059 0.664513
O O12 0.856461 0.867494 0.460292
O O13 0.801435 0.000000 0.573803
O O14 0.750000 0.750000 0.500000
O O15 0.873374 0.674629 0.224526
O O16 0.929616 0.744496 0.305730
O O17 0.000000 0.368473 0.000000
#
# Coordination Sequence:
#
# PCOD9187756 Si02
#       7
#     8   8   8   8   8   8   8
#     4  10  19  35  61  87 117 156 199 244 285 348
#     4  10  21  39  62  88 114 154 207 252 295 346
#     4   9  17  30  53  88 122 149 183 231 286 344
#     4  10  21  39  65  90 116 151 198 251 300 351
#     4  12  22  39  59  87 121 153 193 241 294 356
#     4  10  19  36  60  87 119 158 196 236 292 353
#     4  12  25  40  59  84 122 160 196 244 295 354
#
# _framework density 20.585401000000001
#
# number of rings (size 3 to 8) (size 9 to 14) (size 15 to 20)
#    0.000    1.571    2.857    2.571    0.000    6.571 
#    0.000    2.143    0.000    3.429    0.000    0.000 
#    0.000    0.000    0.000    0.000    0.000    0.000 
#
# Total GULP energy -156561.869612 kJ/mol
# GULP energy per Si atom -5591.495343 kJ/mol
# Density = 2.053855 g / cm^3
# Si number density = 20.585401 Si / 1000 Ang^3
#
#
#
# Elastic Constant Matrix: (Units=GPa)
#
#
# Indices 1 2 3 4 5 6 
#
# 1 88.1009 -8.4761 17.9731 0.0000 -7.4531 0.0000
# 2 -8.4761 29.0717 -1.4605 0.0000 10.7539 0.0000
# 3 17.9731 -1.4605 78.1269 0.0000 -17.9416 0.0000
# 4 0.0000 0.0000 0.0000 2.5591 0.0000 4.2955
# 5 -7.4531 10.7539 -17.9416 0.0000 26.1541 0.0000
# 6 0.0000 0.0000 0.0000 4.2955 0.0000 23.6232
#
#
#
# Elastic Compliance Matrix: (Units=1/GPa)
#
#
# Indices 1 2 3 4 5 6 
#
# 1 0.012244 0.003334 -0.002692 0.000000 0.000271 0.000000
# 2 0.003334 0.042370 -0.004460 0.000000 -0.019531 0.000000
# 3 -0.002692 -0.004460 0.016120 0.000000 0.012125 0.000000
# 4 0.000000 0.000000 0.000000 0.562427 0.000000 -0.102269
# 5 0.000271 -0.019531 0.012125 0.000000 0.054661 0.000000
# 6 0.000000 0.000000 0.000000 -0.102269 0.000000 0.060927
#
#
# Mechanical properties :
#
#
# Convention : Reuss Voigt Hill
#
# Bulk Modulus (GPa) = 15.84841 23.48584 19.66712
# Shear Modulus (GPa) = 6.43154 22.95148 14.69151
#
# Velocity S-wave (km/s) = 1.76949 3.34269 2.67439
# Velocity P-wave (km/s) = 3.44824 5.13146 4.37163
#
# Compressibility (1/GPa) = 0.06309780
#
# Stress axis : x y z
#
# Youngs Moduli (GPa) = 81.67579 23.60136 62.03434
#
# Poissons Ratio (x) = -0.07869 0.16699
# Poissons Ratio (y) = -0.27231 0.27669
# Poissons Ratio (z) = 0.21987 0.10527
#
# Static dielectric constant tensor:
#      x y z
#    x 1.712070 0.000000 0.036240 
#    y 0.000000 1.696940 0.000000 
#    z 0.036240 0.000000 1.807570 
# 
# From -- ./inp_files/75996.got.cif
#   From: 2010.05.17/outbox.cif.g08.bks.cpg/sg12_38_cif.got.tgz:75996.got - 2010.06.03 13:09:07.
