data_PCOD9187438
_publ_section_title
;
Structure prediction by ZEFSAII (Michael W. Deem and Ramdas Pophale) SiO2 
 PCOD9187438
Probable space group: C 2/M
;
_chemical_formula_sum "Si O2"
_cell_formula_units_Z 56
_cell_length_a 18.843872
_cell_length_b 9.168992
_cell_length_c 21.096402
_cell_angle_alpha 90.000000
_cell_angle_beta 59.782512
_cell_angle_gamma 90.000000
_cell_volume 3149.740728
_symmetry_space_group_name_H-M "C 2/M"
_symmetry_group_IT_number 12
_symmetry_cell_setting 'monoclinic'
loop_
_space_group_symop_operation_xyz
x,y,z
-x,y,-z
-x,-y,-z
x,-y,z
1/2+x,1/2+y,z
1/2-x,1/2+y,-z
1/2-x,1/2-y,-z
1/2+x,1/2-y,z
loop_
_atom_site_type_symbol
_atom_site_label
_atom_site_fract_x
_atom_site_fract_y
_atom_site_fract_z
Si Si1 0.967570 0.666916 0.323285
Si Si2 0.117324 0.824917 0.757657
Si Si3 0.332797 0.832864 0.947249
Si Si4 0.506417 0.324395 0.071957
Si Si5 0.160305 0.658104 0.206101
Si Si6 0.786956 0.828585 0.706184
Si Si7 0.026947 0.825283 0.416621
O O1 0.936514 0.500000 0.340502
O O2 0.925955 0.754440 0.284559
O O3 0.064152 0.660929 0.264126
O O4 0.969572 0.746340 0.390539
O O5 0.067766 0.786122 0.845441
O O6 0.209368 0.762254 0.717490
O O7 0.116696 0.000000 0.752970
O O8 0.412002 0.750769 0.938134
O O9 0.334233 0.833698 0.870863
O O10 0.332051 0.000000 0.970313
O O11 0.250000 0.750000 0.000000
O O12 0.514407 0.500000 0.070993
O O13 0.500000 0.285115 0.000000
O O14 0.194330 0.500000 0.212567
O O15 0.203318 0.787311 0.224232
O O16 0.876283 0.788006 0.636812
O O17 0.773689 0.000000 0.702403
O O18 0.000000 0.790313 0.500000
O O19 0.020586 0.000000 0.409797
#
# Coordination Sequence:
#
# PCOD9187438 Si02
#       7
#     8   8   8   8   8   8   8
#     4  10  19  35  59  85 112 145 189 232 277 333
#     4  11  22  37  58  82 115 153 191 235 285 340
#     4  11  23  38  56  80 110 145 188 237 287 338
#     4  10  23  41  58  79 110 151 194 239 291 341
#     4   9  19  36  55  76 107 144 183 230 280 331
#     4  10  21  35  57  86 114 145 186 230 276 333
#     4   9  19  38  62  88 118 150 185 227 279 338
#
# _framework density 17.779240999999999
#
# number of rings (size 3 to 8) (size 9 to 14) (size 15 to 20)
#    0.000    2.000    1.429    1.714    2.000    3.429 
#    0.000    0.714    0.000    0.000    0.000    0.000 
#    0.000    0.000    0.000    0.000    0.000    0.000 
#
# Total GULP energy -156087.608176 kJ/mol
# GULP energy per Si atom -5574.557435 kJ/mol
# Density = 1.773877 g / cm^3
# Si number density = 17.779241 Si / 1000 Ang^3
#
#
#
# Elastic Constant Matrix: (Units=GPa)
#
#
# Indices 1 2 3 4 5 6 
#
# 1 94.4985 56.0068 56.8595 0.0000 8.6008 0.0001
# 2 56.0068 69.1216 53.9631 0.0000 6.0112 0.0003
# 3 56.8595 53.9631 104.6717 0.0000 16.4063 0.0000
# 4 0.0000 0.0000 0.0000 17.5655 0.0000 4.5420
# 5 8.6008 6.0112 16.4063 0.0000 23.1750 0.0000
# 6 0.0001 0.0003 0.0000 4.5420 0.0000 38.2752
#
#
#
# Elastic Compliance Matrix: (Units=1/GPa)
#
#
# Indices 1 2 3 4 5 6 
#
# 1 0.021607 -0.014044 -0.004287 0.000000 -0.001341 0.000000
# 2 -0.014044 0.033513 -0.010239 0.000000 0.003768 0.000000
# 3 -0.004287 -0.010239 0.018554 0.000000 -0.008888 0.000000
# 4 0.000000 0.000000 0.000000 0.058732 0.000000 -0.006970
# 5 -0.001341 0.003768 -0.008888 0.000000 0.048963 0.000000
# 6 0.000000 0.000000 0.000000 -0.006970 0.000000 0.026954
#
#
# Mechanical properties :
#
#
# Convention : Reuss Voigt Hill
#
# Bulk Modulus (GPa) = 60.48035 66.88342 63.68188
# Shear Modulus (GPa) = 18.45203 22.56731 20.50967
#
# Velocity S-wave (km/s) = 3.22505 3.56660 3.40012
# Velocity P-wave (km/s) = 6.92526 7.39333 7.16312
#
# Compressibility (1/GPa) = 0.01653430
#
# Stress axis : x y z
#
# Youngs Moduli (GPa) = 46.28067 29.83952 53.89687
#
# Poissons Ratio (x) = 0.41908 0.23104
# Poissons Ratio (y) = 0.64998 0.55184
# Poissons Ratio (z) = 0.19839 0.30552
#
# Static dielectric constant tensor:
#      x y z
#    x 1.581120 0.000000 0.007110 
#    y 0.000000 1.622670 0.000000 
#    z 0.007110 0.000000 1.595430 
# 
# From -- ./inp_files/275157.got.cif
#   From: 2010.05.17/outbox.cif.g08.bks.cpg/sg12_138_cif.got.tgz:275157.got - 2010.06.03 13:09:07.
