data_PCOD9187275
_publ_section_title
;
Structure prediction by ZEFSAII (Michael W. Deem and Ramdas Pophale) SiO2 
 PCOD9187275
Probable space group: C 2/M
;
_chemical_formula_sum "Si O2"
_cell_formula_units_Z 32
_cell_length_a 18.562427
_cell_length_b 19.189633
_cell_length_c 9.806240
_cell_angle_alpha 90.000000
_cell_angle_beta 150.219859
_cell_angle_gamma 90.000000
_cell_volume 1734.900758
_symmetry_space_group_name_H-M "C 2/M"
_symmetry_group_IT_number 12
_symmetry_cell_setting 'monoclinic'
loop_
_space_group_symop_operation_xyz
x,y,z
-x,y,-z
-x,-y,-z
x,-y,z
1/2+x,1/2+y,z
1/2-x,1/2+y,-z
1/2-x,1/2-y,-z
1/2+x,1/2-y,z
loop_
_atom_site_type_symbol
_atom_site_label
_atom_site_fract_x
_atom_site_fract_y
_atom_site_fract_z
Si Si1 0.639460 0.418653 0.131803
Si Si2 0.127742 0.141012 0.809532
Si Si3 0.329545 0.789863 0.510003
Si Si4 0.654746 0.213521 0.990519
O O1 0.674313 0.500000 0.200553
O O2 0.617554 0.398978 0.936157
O O3 0.500000 0.404979 0.000000
O O4 0.763268 0.366391 0.384273
O O5 0.281371 0.145832 0.981500
O O6 0.000000 0.117995 0.500000
O O7 0.114105 0.223139 0.822513
O O8 0.250000 0.750000 0.500000
O O9 0.498784 0.796716 0.188201
O O10 0.277078 0.745146 0.291790
#
# Coordination Sequence:
#
# PCOD9187275 Si02
#       4
#     8   8   8   8
#     4  10  23  40  58  82 118 161 200 240 295 363
#     4  10  19  35  58  85 120 154 188 245 299 345
#     4  11  20  36  60  91 118 155 195 245 294 350
#     4  10  20  32  56  90 120 146 192 249 294 340
#
# _framework density 18.444858
#
# number of rings (size 3 to 8) (size 9 to 14) (size 15 to 20)
#    0.000    1.750    2.500    3.750    0.000    0.500 
#    0.000    2.500    0.000    3.000    0.000    0.000 
#    0.000    0.000    0.000    0.000    0.000    0.000 
#
# Total GULP energy -89129.629887 kJ/mol
# GULP energy per Si atom -5570.601868 kJ/mol
# Density = 1.840288 g / cm^3
# Si number density = 18.444858 Si / 1000 Ang^3
#
#
#
# Elastic Constant Matrix: (Units=GPa)
#
#
# Indices 1 2 3 4 5 6 
#
# 1 126.9637 32.6069 35.7053 0.0000 8.4822 0.0000
# 2 32.6069 60.9462 16.0033 0.0000 1.8978 0.0000
# 3 35.7053 16.0033 64.7166 0.0000 5.3616 0.0000
# 4 0.0000 0.0000 0.0000 6.8638 0.0000 -3.7972
# 5 8.4822 1.8978 5.3616 0.0000 36.7676 0.0000
# 6 0.0000 0.0000 0.0000 -3.7972 0.0000 21.0918
#
#
#
# Elastic Compliance Matrix: (Units=1/GPa)
#
#
# Indices 1 2 3 4 5 6 
#
# 1 0.010355 -0.004305 -0.004523 0.000000 -0.001507 0.000000
# 2 -0.004305 0.019340 -0.002436 0.000000 0.000350 0.000000
# 3 -0.004523 -0.002436 0.018679 0.000000 -0.001555 0.000000
# 4 0.000000 0.000000 0.000000 0.161807 0.000000 0.029130
# 5 -0.001507 0.000350 -0.001555 0.000000 0.027754 0.000000
# 6 0.000000 0.000000 0.000000 0.029130 0.000000 0.052656
#
#
# Mechanical properties :
#
#
# Convention : Reuss Voigt Hill
#
# Bulk Modulus (GPa) = 38.69379 46.80638 42.75009
# Shear Modulus (GPa) = 15.54072 24.16537 19.85304
#
# Velocity S-wave (km/s) = 2.90582 3.62351 3.28433
# Velocity P-wave (km/s) = 5.68173 6.55271 6.13270
#
# Compressibility (1/GPa) = 0.02584394
#
# Stress axis : x y z
#
# Youngs Moduli (GPa) = 96.57446 51.70619 53.53641
#
# Poissons Ratio (x) = 0.22260 0.24217
# Poissons Ratio (y) = 0.41577 0.13043
# Poissons Ratio (z) = 0.43685 0.12597
#
# Static dielectric constant tensor:
#      x y z
#    x 1.786250 0.000000 -0.010480 
#    y 0.000000 1.595600 0.000000 
#    z -0.010480 0.000000 1.655500 
# 
# From -- ./inp_files/46136.got.cif
#   From: 2010.05.17/outbox.cif.g08.bks.cpg/sg12_24_cif.got.tgz:46136.got - 2010.06.03 13:09:07.
