data_PCOD9187953
_publ_section_title
;
Structure prediction by ZEFSAII (Michael W. Deem and Ramdas Pophale) SiO2 
 PCOD9187953
Probable space group: C 2/M
;
_chemical_formula_sum "Si O2"
_cell_formula_units_Z 48
_cell_length_a 23.829839
_cell_length_b 14.335018
_cell_length_c 15.259553
_cell_angle_alpha 90.000000
_cell_angle_beta 155.060466
_cell_angle_gamma 90.000000
_cell_volume 2197.987338
_symmetry_space_group_name_H-M "C 2/M"
_symmetry_group_IT_number 12
_symmetry_cell_setting 'monoclinic'
loop_
_space_group_symop_operation_xyz
x,y,z
-x,y,-z
-x,-y,-z
x,-y,z
1/2+x,1/2+y,z
1/2-x,1/2+y,-z
1/2-x,1/2-y,-z
1/2+x,1/2-y,z
loop_
_atom_site_type_symbol
_atom_site_label
_atom_site_fract_x
_atom_site_fract_y
_atom_site_fract_z
Si Si1 0.431562 0.308009 0.987503
Si Si2 0.088096 0.891563 0.478474
Si Si3 0.806837 0.888244 0.553918
Si Si4 0.571625 0.788213 0.736303
Si Si5 0.759659 0.799324 0.156079
Si Si6 0.678079 0.108508 0.542619
O O1 0.351432 0.240224 0.936591
O O2 0.320908 0.377763 0.790989
O O3 0.500000 0.260966 0.000000
O O4 0.548521 0.358637 0.205807
O O5 0.191487 0.864651 0.546582
O O6 0.155055 0.871962 0.667231
O O7 0.965452 0.820398 0.296417
O O8 0.053175 0.000000 0.419262
O O9 0.698937 0.852402 0.472337
O O10 0.796087 0.000000 0.543842
O O11 0.641200 0.780835 0.740497
O O12 0.433860 0.839378 0.560451
O O13 0.678215 0.829728 0.955143
O O14 0.643611 0.000000 0.489317
#
# Coordination Sequence:
#
# PCOD9187953 Si02
#       6
#     8   8   8   8   8   8
#     4  10  19  35  63  93 123 163 206 259 314 371
#     4  11  23  41  68  94 124 168 216 264 318 377
#     4   9  19  37  62  97 126 159 216 267 308 376
#     4  11  24  42  63  87 130 168 211 260 318 383
#     4  11  24  41  60  92 127 160 210 268 312 378
#     4  10  21  38  63  94 130 167 207 261 321 379
#
# _framework density 21.838159999999998
#
# number of rings (size 3 to 8) (size 9 to 14) (size 15 to 20)
#    0.000    1.667    3.333    1.000    0.000    6.000 
#    0.000    5.000    0.000    3.500    0.000    0.000 
#    0.000    0.000    0.000    0.000    0.000    0.000 
#
# Total GULP energy -133967.100530 kJ/mol
# GULP energy per Si atom -5581.962522 kJ/mol
# Density = 2.178846 g / cm^3
# Si number density = 21.838160 Si / 1000 Ang^3
#
#
#
# Elastic Constant Matrix: (Units=GPa)
#
#
# Indices 1 2 3 4 5 6 
#
# 1 157.2788 29.9587 37.1641 0.0000 15.2800 0.0000
# 2 29.9587 46.5085 9.6016 0.0000 5.8616 0.0000
# 3 37.1641 9.6016 80.7405 0.0000 1.0396 0.0000
# 4 0.0000 0.0000 0.0000 9.1424 0.0000 -7.3523
# 5 15.2800 5.8616 1.0396 0.0000 42.4334 0.0000
# 6 0.0000 0.0000 0.0000 -7.3523 0.0000 26.4872
#
#
#
# Elastic Compliance Matrix: (Units=1/GPa)
#
#
# Indices 1 2 3 4 5 6 
#
# 1 0.008158 -0.004306 -0.003214 0.000000 -0.002264 0.000000
# 2 -0.004306 0.024699 -0.000932 0.000000 -0.001838 0.000000
# 3 -0.003214 -0.000932 0.013963 0.000000 0.000944 0.000000
# 4 0.000000 0.000000 0.000000 0.140815 0.000000 0.039087
# 5 -0.002264 -0.001838 0.000944 0.000000 0.024612 0.000000
# 6 0.000000 0.000000 0.000000 0.039087 0.000000 0.048604
#
#
# Mechanical properties :
#
#
# Convention : Reuss Voigt Hill
#
# Bulk Modulus (GPa) = 33.42507 48.66406 41.04456
# Shear Modulus (GPa) = 17.37761 29.46614 23.42188
#
# Velocity S-wave (km/s) = 2.82396 3.67726 3.27849
# Velocity P-wave (km/s) = 5.09627 6.35311 5.75908
#
# Compressibility (1/GPa) = 0.02991766
#
# Stress axis : x y z
#
# Youngs Moduli (GPa) = 122.58386 40.48711 71.61673
#
# Poissons Ratio (x) = 0.17434 0.23015
# Poissons Ratio (y) = 0.52785 0.06671
# Poissons Ratio (z) = 0.39395 0.03771
#
# Static dielectric constant tensor:
#      x y z
#    x 1.880010 0.000000 -0.026800 
#    y 0.000000 1.766810 0.000000 
#    z -0.026800 0.000000 1.829550 
# 
# From -- ./inp_files/240762.got.cif
#   From: 2010.05.17/outbox.cif.g08.bks.cpg/sg12_121_cif.got.tgz:240762.got - 2010.06.03 13:09:07.
