data_PCOD9187656
_publ_section_title
;
Structure prediction by ZEFSAII (Michael W. Deem and Ramdas Pophale) SiO2 
 PCOD9187656
Probable space group: C 2/M
;
_chemical_formula_sum "Si O2"
_cell_formula_units_Z 56
_cell_length_a 19.221624
_cell_length_b 14.792719
_cell_length_c 22.821047
_cell_angle_alpha 90.000000
_cell_angle_beta 153.994853
_cell_angle_gamma 90.000000
_cell_volume 2845.087272
_symmetry_space_group_name_H-M "C 2/M"
_symmetry_group_IT_number 12
_symmetry_cell_setting 'monoclinic'
loop_
_space_group_symop_operation_xyz
x,y,z
-x,y,-z
-x,-y,-z
x,-y,z
1/2+x,1/2+y,z
1/2-x,1/2+y,-z
1/2-x,1/2-y,-z
1/2+x,1/2-y,z
loop_
_atom_site_type_symbol
_atom_site_label
_atom_site_fract_x
_atom_site_fract_y
_atom_site_fract_z
Si Si1 0.341917 0.604434 0.963789
Si Si2 0.169753 0.901918 0.828899
Si Si3 0.193184 0.106218 0.464126
Si Si4 0.736851 0.242729 0.790416
Si Si5 0.109118 0.235405 0.213764
Si Si6 0.631895 0.224347 0.496799
Si Si7 0.152349 0.656832 0.925427
O O1 0.376661 0.500000 0.981372
O O2 0.309837 0.657203 0.879446
O O3 0.185744 0.615522 0.887227
O O4 0.484602 0.654921 0.106102
O O5 0.230574 0.822530 0.833465
O O6 0.982302 0.887939 0.698520
O O7 0.185561 0.000000 0.811886
O O8 0.266114 0.900345 0.961847
O O9 0.318777 0.152338 0.515793
O O10 0.175059 0.175117 0.504857
O O11 0.223791 0.000000 0.499935
O O12 0.835867 0.268561 0.808295
O O13 0.555610 0.222637 0.635377
O O14 0.261113 0.205235 0.365812
O O15 0.020384 0.312569 0.184426
O O16 0.250000 0.750000 0.000000
#
# Coordination Sequence:
#
# PCOD9187656 Si02
#       7
#     8   8   8   8   8   8   8
#     4  11  24  41  66  92 122 162 204 254 308 361
#     4  10  19  36  61  88 121 161 202 250 306 363
#     4   9  19  36  61  90 120 157 202 253 304 357
#     4  11  23  41  60  89 128 162 204 252 300 365
#     4  11  23  40  63  86 127 166 200 245 308 370
#     4  10  22  37  62  88 121 162 203 247 303 359
#     4  10  19  35  60  87 117 149 200 254 295 348
#
# _framework density 19.683052
#
# number of rings (size 3 to 8) (size 9 to 14) (size 15 to 20)
#    0.000    1.714    2.857    3.000    4.000    3.429 
#    0.000    3.571    0.000    6.000    0.000    0.000 
#    0.000    0.000    0.000    0.000    0.000    0.000 
#
# Total GULP energy -156292.699181 kJ/mol
# GULP energy per Si atom -5581.882114 kJ/mol
# Density = 1.963825 g / cm^3
# Si number density = 19.683052 Si / 1000 Ang^3
#
#
#
# Elastic Constant Matrix: (Units=GPa)
#
#
# Indices 1 2 3 4 5 6 
#
# 1 56.3807 0.7569 14.1048 0.0054 8.2755 0.0025
# 2 0.7569 100.5815 15.7139 0.0077 11.6631 0.0018
# 3 14.1048 15.7139 89.5681 0.0033 -2.7577 0.0022
# 4 0.0054 0.0077 0.0033 17.8661 0.0007 0.3937
# 5 8.2755 11.6631 -2.7577 0.0007 22.3110 0.0014
# 6 0.0025 0.0018 0.0022 0.3937 0.0014 -0.5419
#
#
#
# Elastic Compliance Matrix: (Units=1/GPa)
#
#
# Indices 1 2 3 4 5 6 
#
# 1 0.019886 0.001413 -0.003643 -0.000007 -0.008565 0.000055
# 2 0.001413 0.011067 -0.002367 -0.000005 -0.006602 0.000012
# 3 -0.003643 -0.002367 0.012280 -0.000001 0.004107 0.000036
# 4 -0.000007 -0.000005 -0.000001 0.055090 0.000000 0.040020
# 5 -0.008565 -0.006602 0.004107 0.000000 0.051956 0.000094
# 6 0.000055 0.000012 0.000036 0.040020 0.000094 -1.816138
#
#
# Mechanical properties :
#
#
# Convention : Reuss Voigt Hill
#
# Bulk Modulus (GPa) = 29.37919 34.18682 31.78301
# Shear Modulus (GPa) = -3.03893 22.32401 9.64254
#
# Velocity S-wave (km/s) = -1.24390 3.37140 2.21575
# Velocity P-wave (km/s) = 3.59103 5.70627 4.76744
#
# Compressibility (1/GPa) = 0.03403770
#
# Stress axis : x y z
#
# Youngs Moduli (GPa) = 50.28621 90.35926 81.43212
#
# Poissons Ratio (x) = -0.12765 0.29667
# Poissons Ratio (y) = -0.07104 0.19278
# Poissons Ratio (z) = 0.18320 0.21391
#
# Static dielectric constant tensor:
#      x y z
#    x 1.705190 0.000000 0.020500 
#    y 0.000000 1.621790 0.000000 
#    z 0.020500 0.000000 1.706340 
# 
# From -- ./inp_files/316748.got.cif
#   From: 2010.05.17/outbox.cif.g08.bks.cpg/sg12_159_cif.got.tgz:316748.got - 2010.06.03 13:09:07.
