data_PCOD9187057
_publ_section_title
;
Structure prediction by ZEFSAII (Michael W. Deem and Ramdas Pophale) SiO2 
 PCOD9187057
Probable space group: C 2/M
;
_chemical_formula_sum "Si O2"
_cell_formula_units_Z 48
_cell_length_a 14.266051
_cell_length_b 11.839978
_cell_length_c 27.410721
_cell_angle_alpha 90.000000
_cell_angle_beta 149.961292
_cell_angle_gamma 90.000000
_cell_volume 2317.677056
_symmetry_space_group_name_H-M "C 2/M"
_symmetry_group_IT_number 12
_symmetry_cell_setting 'monoclinic'
loop_
_space_group_symop_operation_xyz
x,y,z
-x,y,-z
-x,-y,-z
x,-y,z
1/2+x,1/2+y,z
1/2-x,1/2+y,-z
1/2-x,1/2-y,-z
1/2+x,1/2-y,z
loop_
_atom_site_type_symbol
_atom_site_label
_atom_site_fract_x
_atom_site_fract_y
_atom_site_fract_z
Si Si1 0.121885 0.281871 0.708471
Si Si2 0.741361 0.365590 0.927286
Si Si3 0.488037 0.197475 0.118339
Si Si4 0.588468 0.131514 0.589459
Si Si5 0.804092 0.000000 0.844815
Si Si6 0.747486 0.000000 0.935381
Si Si7 0.006970 0.869227 0.271197
O O1 0.291780 0.193124 0.777245
O O2 0.042566 0.313540 0.620186
O O3 0.216038 0.390660 0.777589
O O4 0.977675 0.219112 0.678601
O O5 0.751193 0.500000 0.934575
O O6 0.584195 0.315183 0.892322
O O7 0.673399 0.337141 0.842696
O O8 0.928731 0.315618 0.035117
O O9 0.368174 0.105733 0.094576
O O10 0.500000 0.179518 0.500000
O O11 0.812039 0.135869 0.681911
O O12 0.531355 0.000000 0.566487
O O13 0.744663 0.000000 0.875243
O O14 0.032725 0.000000 0.949768
O O15 0.989963 0.000000 0.279391
#
# Coordination Sequence:
#
# PCOD9187057 Si02
#       7
#     8   8   8   8   4   4   8
#     4  12  24  39  64  93 124 164 205 257 314 361
#     4  10  19  35  57  83 120 166 210 246 287 347
#     4  11  22  33  61  83 124 168 208 246 301 354
#     4  10  22  44  72  94 116 155 206 258 318 378
#     4  11  24  38  59  89 128 167 213 260 296 348
#     4  11  24  40  54  90 131 172 212 252 296 359
#     4  10  23  40  63  93 128 161 205 257 304 372
#
# _framework density 20.710391999999999
#
# number of rings (size 3 to 8) (size 9 to 14) (size 15 to 20)
#    0.000    1.333    3.333    3.000    2.333    2.667 
#    0.000    1.667    0.000    0.500    0.000    0.000 
#    0.000    0.000    0.000    0.000    0.000    0.000 
#
# Total GULP energy -134026.696534 kJ/mol
# GULP energy per Si atom -5584.445689 kJ/mol
# Density = 2.066325 g / cm^3
# Si number density = 20.710392 Si / 1000 Ang^3
#
#
#
# Elastic Constant Matrix: (Units=GPa)
#
#
# Indices 1 2 3 4 5 6 
#
# 1 69.8699 34.7962 17.2530 0.0001 -32.1621 0.0001
# 2 34.7962 58.3863 19.6218 0.0000 -23.2512 0.0000
# 3 17.2530 19.6218 75.3547 -0.0001 -42.7533 0.0001
# 4 0.0001 0.0000 -0.0001 14.0151 0.0001 -8.6148
# 5 -32.1621 -23.2512 -42.7533 0.0001 43.4127 0.0001
# 6 0.0001 0.0000 0.0001 -8.6148 0.0001 33.8450
#
#
#
# Elastic Compliance Matrix: (Units=1/GPa)
#
#
# Indices 1 2 3 4 5 6 
#
# 1 0.029351 -0.010393 0.011705 0.000000 0.027706 0.000000
# 2 -0.010393 0.025605 -0.001984 0.000000 0.004060 0.000000
# 3 0.011705 -0.001984 0.034955 0.000000 0.042033 0.000000
# 4 0.000000 0.000000 0.000000 0.084586 -0.000001 0.021530
# 5 0.027706 0.004060 0.042033 -0.000001 0.087130 0.000000
# 6 0.000000 0.000000 0.000000 0.021530 0.000000 0.035027
#
#
# Mechanical properties :
#
#
# Convention : Reuss Voigt Hill
#
# Bulk Modulus (GPa) = 11.29081 38.55032 24.92056
# Shear Modulus (GPa) = 15.26626 27.05056 21.15841
#
# Velocity S-wave (km/s) = 2.71796 3.61797 3.19977
# Velocity P-wave (km/s) = 3.91323 6.00894 5.07054
#
# Compressibility (1/GPa) = 0.08856759
#
# Stress axis : x y z
#
# Youngs Moduli (GPa) = 34.07031 39.05552 28.60785
#
# Poissons Ratio (x) = 0.40589 -0.33486
# Poissons Ratio (y) = 0.35408 0.05677
# Poissons Ratio (z) = -0.39880 0.07750
#
# Static dielectric constant tensor:
#      x y z
#    x 1.749780 0.000000 -0.009290 
#    y 0.000000 1.761470 0.000000 
#    z -0.009290 0.000000 1.782330 
# 
# From -- ./inp_files/361101.got.cif
#   From: 2010.05.17/outbox.cif.g08.bks.cpg/sg12_181_cif.got.tgz:361101.got - 2010.06.03 13:09:07.
