data_PCOD9187503
_publ_section_title
;
Structure prediction by ZEFSAII (Michael W. Deem and Ramdas Pophale) SiO2 
 PCOD9187503
Probable space group: C 2/M
;
_chemical_formula_sum "Si O2"
_cell_formula_units_Z 64
_cell_length_a 24.409102
_cell_length_b 12.684307
_cell_length_c 22.977624
_cell_angle_alpha 90.000000
_cell_angle_beta 150.015639
_cell_angle_gamma 90.000000
_cell_volume 3555.398502
_symmetry_space_group_name_H-M "C 2/M"
_symmetry_group_IT_number 12
_symmetry_cell_setting 'monoclinic'
loop_
_space_group_symop_operation_xyz
x,y,z
-x,y,-z
-x,-y,-z
x,-y,z
1/2+x,1/2+y,z
1/2-x,1/2+y,-z
1/2-x,1/2-y,-z
1/2+x,1/2-y,z
loop_
_atom_site_type_symbol
_atom_site_label
_atom_site_fract_x
_atom_site_fract_y
_atom_site_fract_z
Si Si1 0.127512 0.622147 0.635358
Si Si2 0.380864 0.743729 0.255445
Si Si3 0.933920 0.875695 0.725151
Si Si4 0.046135 0.377858 0.107205
Si Si5 0.162228 0.382488 0.022768
Si Si6 0.373651 0.210071 0.123149
Si Si7 0.275463 0.268053 0.674267
Si Si8 0.392498 0.623913 0.551778
O O1 0.153479 0.500000 0.671601
O O2 0.139046 0.692289 0.704076
O O3 0.201646 0.662463 0.649959
O O4 0.000000 0.629192 0.500000
O O5 0.274083 0.675139 0.141318
O O6 0.396795 0.814138 0.211728
O O7 0.488202 0.669693 0.356580
O O8 0.852803 0.834068 0.701004
O O9 0.882108 0.866885 0.612448
O O10 0.041539 0.801290 0.819015
O O11 0.960483 0.000000 0.758396
O O12 0.066960 0.500000 0.144386
O O13 0.149948 0.307061 0.216670
O O14 0.000000 0.379890 0.000000
O O15 0.943315 0.329066 0.046591
O O16 0.171002 0.500000 0.054751
O O17 0.128268 0.384250 0.924057
O O18 0.250000 0.250000 0.000000
O O19 0.197526 0.193687 0.563605
O O20 0.384667 0.500000 0.529842
#
# Coordination Sequence:
#
# PCOD9187503 Si02
#       8
#     8   8   8   8   8   8   8   8
#     4  11  24  42  60  83 117 161 207 248 292 353
#     4  10  20  39  61  84 119 157 195 250 298 352
#     4  10  21  38  60  89 123 158 199 245 301 361
#     4  10  21  36  57  84 119 157 191 238 295 352
#     4  10  19  35  59  87 115 149 193 238 294 359
#     4   9  19  35  60  87 116 152 191 241 300 347
#     4  12  21  39  64  85 121 161 198 249 302 357
#     4  10  21  37  60  93 123 150 193 252 308 362
#
# _framework density 18.000795
#
# number of rings (size 3 to 8) (size 9 to 14) (size 15 to 20)
#    0.000    1.750    2.500    2.250    0.000    3.500 
#    0.000    4.375    0.000    1.500    0.000    0.000 
#    0.000    0.000    0.000    0.000    0.000    0.000 
#
# Total GULP energy -178243.854540 kJ/mol
# GULP energy per Si atom -5570.120454 kJ/mol
# Density = 1.795982 g / cm^3
# Si number density = 18.000795 Si / 1000 Ang^3
#
#
#
# Elastic Constant Matrix: (Units=GPa)
#
#
# Indices 1 2 3 4 5 6 
#
# 1 123.0467 50.4667 34.9651 0.0000 4.6526 0.0000
# 2 50.4667 94.4775 50.8917 0.0000 -1.8693 0.0000
# 3 34.9651 50.8917 89.2413 0.0000 6.8607 0.0000
# 4 0.0000 0.0000 0.0000 37.9255 0.0000 7.2624
# 5 4.6526 -1.8693 6.8607 0.0000 30.2201 0.0000
# 6 0.0000 0.0000 0.0000 7.2624 0.0000 30.8262
#
#
#
# Elastic Compliance Matrix: (Units=1/GPa)
#
#
# Indices 1 2 3 4 5 6 
#
# 1 0.010597 -0.005092 -0.001118 0.000000 -0.001693 0.000000
# 2 -0.005092 0.017991 -0.008560 0.000000 0.003840 0.000000
# 3 -0.001118 -0.008560 0.016847 0.000000 -0.004182 0.000000
# 4 0.000000 0.000000 0.000000 0.027613 0.000000 -0.006505
# 5 -0.001693 0.003840 -0.004182 0.000000 0.034538 0.000000
# 6 0.000000 0.000000 0.000000 -0.006505 0.000000 0.033973
#
#
# Mechanical properties :
#
#
# Convention : Reuss Voigt Hill
#
# Bulk Modulus (GPa) = 62.91286 64.37917 63.64601
# Shear Modulus (GPa) = 28.34497 31.15715 29.75106
#
# Velocity S-wave (km/s) = 3.97249 4.16489 4.06983
# Velocity P-wave (km/s) = 7.48778 7.67924 7.58411
#
# Compressibility (1/GPa) = 0.01589500
#
# Stress axis : x y z
#
# Youngs Moduli (GPa) = 94.36557 55.58184 59.35824
#
# Poissons Ratio (x) = 0.28301 0.06637
# Poissons Ratio (y) = 0.48049 0.50812
# Poissons Ratio (z) = 0.10552 0.47580
#
# Static dielectric constant tensor:
#      x y z
#    x 1.736140 0.000000 -0.015990 
#    y 0.000000 1.603340 0.000000 
#    z -0.015990 0.000000 1.607690 
# 
# From -- ./inp_files/349388.got.cif
#   From: 2010.05.17/outbox.cif.g08.bks.cpg/sg12_175_cif.got.tgz:349388.got - 2010.06.03 13:09:07.
