data_PCOD9187419
_publ_section_title
;
Structure prediction by ZEFSAII (Michael W. Deem and Ramdas Pophale) SiO2 
 PCOD9187419
Probable space group: C 2/M
;
_chemical_formula_sum "Si O2"
_cell_formula_units_Z 48
_cell_length_a 28.221759
_cell_length_b 11.438407
_cell_length_c 20.443492
_cell_angle_alpha 90.000000
_cell_angle_beta 160.163799
_cell_angle_gamma 90.000000
_cell_volume 2239.391056
_symmetry_space_group_name_H-M "C 2/M"
_symmetry_group_IT_number 12
_symmetry_cell_setting 'monoclinic'
loop_
_space_group_symop_operation_xyz
x,y,z
-x,y,-z
-x,-y,-z
x,-y,z
1/2+x,1/2+y,z
1/2-x,1/2+y,-z
1/2-x,1/2-y,-z
1/2+x,1/2-y,z
loop_
_atom_site_type_symbol
_atom_site_label
_atom_site_fract_x
_atom_site_fract_y
_atom_site_fract_z
Si Si1 0.483525 0.365153 0.146243
Si Si2 0.239738 0.710306 0.732236
Si Si3 0.458497 0.172375 0.206901
Si Si4 0.280718 0.634729 0.643514
Si Si5 0.072707 0.367675 0.683457
Si Si6 0.698163 0.627965 0.784398
O O1 0.505532 0.500000 0.185087
O O2 0.461424 0.306378 0.187616
O O3 0.618201 0.318324 0.281632
O O4 0.353518 0.344120 0.928861
O O5 0.290989 0.705343 0.724453
O O6 0.209118 0.838121 0.722340
O O7 0.094214 0.639408 0.544433
O O8 0.618780 0.132927 0.412573
O O9 0.404549 0.146397 0.209256
O O10 0.351667 0.121983 0.015518
O O11 0.322619 0.500000 0.712463
O O12 0.120728 0.500000 0.726486
O O13 0.130576 0.247147 0.726874
O O14 0.633301 0.500000 0.711666
#
# Coordination Sequence:
#
# PCOD9187419 Si02
#       6
#     8   8   8   8   8   8
#     4  10  20  34  57  88 116 147 188 235 285 337
#     4  10  21  36  58  84 116 148 187 237 285 335
#     4  10  21  37  57  82 116 150 188 234 286 339
#     4  10  19  35  59  84 113 149 192 237 279 332
#     4  11  23  39  61  85 112 151 197 239 281 336
#     4  11  24  40  59  84 117 153 190 237 290 342
#
# _framework density 21.434398999999999
#
# number of rings (size 3 to 8) (size 9 to 14) (size 15 to 20)
#    0.000    1.667    0.000    6.000    0.000    8.000 
#    0.000    2.500    0.000   10.000    0.000    0.000 
#    0.000    0.000    0.000    0.000    0.000    0.000 
#
# Total GULP energy -133883.420824 kJ/mol
# GULP energy per Si atom -5578.475868 kJ/mol
# Density = 2.138561 g / cm^3
# Si number density = 21.434399 Si / 1000 Ang^3
#
#
#
# Elastic Constant Matrix: (Units=GPa)
#
#
# Indices 1 2 3 4 5 6 
#
# 1 63.9472 54.4393 18.6901 0.0000 -6.0816 0.0000
# 2 54.4393 142.4316 9.2419 0.0000 -4.8409 0.0000
# 3 18.6901 9.2419 76.2392 0.0000 -11.4186 0.0000
# 4 0.0000 0.0000 0.0000 7.4138 0.0000 2.1528
# 5 -6.0816 -4.8409 -11.4186 0.0000 30.0827 0.0000
# 6 0.0000 0.0000 0.0000 2.1528 0.0000 30.8523
#
#
#
# Elastic Compliance Matrix: (Units=1/GPa)
#
#
# Indices 1 2 3 4 5 6 
#
# 1 0.025025 -0.009196 -0.004754 0.000000 0.001775 0.000000
# 2 -0.009196 0.010477 0.001016 0.000000 0.000213 0.000000
# 3 -0.004754 0.001016 0.014886 0.000000 0.004853 0.000000
# 4 0.000000 0.000000 0.000000 0.137672 0.000000 -0.009606
# 5 0.001775 0.000213 0.004853 0.000000 0.035477 0.000000
# 6 0.000000 0.000000 0.000000 -0.009606 0.000000 0.033083
#
#
# Mechanical properties :
#
#
# Convention : Reuss Voigt Hill
#
# Bulk Modulus (GPa) = 40.78397 49.70670 45.24534
# Shear Modulus (GPa) = 17.20218 27.01956 22.11087
#
# Velocity S-wave (km/s) = 2.83600 3.55430 3.21527
# Velocity P-wave (km/s) = 5.45826 6.33124 5.91089
#
# Compressibility (1/GPa) = 0.02451944
#
# Stress axis : x y z
#
# Youngs Moduli (GPa) = 39.96000 95.44653 67.17832
#
# Poissons Ratio (x) = 0.87773 0.31939
# Poissons Ratio (y) = 0.36748 -0.06827
# Poissons Ratio (z) = 0.18998 -0.09699
#
# Static dielectric constant tensor:
#      x y z
#    x 1.819020 0.000000 0.041040 
#    y 0.000000 1.812440 0.000000 
#    z 0.041040 0.000000 1.797230 
# 
# From -- ./inp_files/330075.got.cif
#   From: 2010.05.17/outbox.cif.g08.bks.cpg/sg12_166_cif.got.tgz:330075.got - 2010.06.03 13:09:07.
