data_PCOD9187717
_publ_section_title
;
Structure prediction by ZEFSAII (Michael W. Deem and Ramdas Pophale) SiO2 
 PCOD9187717
Probable space group: C 2/M
;
_chemical_formula_sum "Si O2"
_cell_formula_units_Z 40
_cell_length_a 20.848946
_cell_length_b 11.657451
_cell_length_c 7.978027
_cell_angle_alpha 90.000000
_cell_angle_beta 58.510125
_cell_angle_gamma 90.000000
_cell_volume 1653.468830
_symmetry_space_group_name_H-M "C 2/M"
_symmetry_group_IT_number 12
_symmetry_cell_setting 'monoclinic'
loop_
_space_group_symop_operation_xyz
x,y,z
-x,y,-z
-x,-y,-z
x,-y,z
1/2+x,1/2+y,z
1/2-x,1/2+y,-z
1/2-x,1/2-y,-z
1/2+x,1/2-y,z
loop_
_atom_site_type_symbol
_atom_site_label
_atom_site_fract_x
_atom_site_fract_y
_atom_site_fract_z
Si Si1 0.175801 0.631523 0.942012
Si Si2 0.306097 0.725919 0.576464
Si Si3 0.950169 0.241944 0.734214
Si Si4 0.421921 0.868901 0.268155
Si Si5 0.109054 0.000000 0.674510
Si Si6 0.572589 0.500000 0.106454
O O1 0.197834 0.500000 0.930815
O O2 0.251126 0.703344 0.806043
O O3 0.124225 0.640888 0.842158
O O4 0.118924 0.671368 0.161810
O O5 0.250000 0.750000 0.500000
O O6 0.362580 0.832295 0.491641
O O7 0.353350 0.611771 0.461091
O O8 0.000000 0.240170 0.500000
O O9 0.009051 0.282322 0.797910
O O10 0.913488 0.118389 0.818043
O O11 0.448421 0.000000 0.248793
O O12 0.018949 0.000000 0.778624
O O13 0.114992 0.000000 0.869620
#
# Coordination Sequence:
#
# PCOD9187717 Si02
#       6
#     8   8   8   8   4   4
#     4  10  21  38  63  92 121 154 198 254 298 351
#     4  10  19  35  60  94 127 145 193 250 310 353
#     4  12  25  41  59  85 124 166 203 244 294 355
#     4  10  21  38  62  90 123 151 200 257 298 347
#     4  11  20  36  68  96 114 154 195 254 308 354
#     4  11  23  38  62  90 122 152 206 246 299 355
#
# _framework density 24.191565000000001
#
# number of rings (size 3 to 8) (size 9 to 14) (size 15 to 20)
#    0.000    1.400    3.000    3.900    4.200    3.200 
#    1.800    1.000    0.000    0.000    0.000    0.000 
#    0.000    0.000    0.000    0.000    0.000    0.000 
#
# Total GULP energy -111830.140347 kJ/mol
# GULP energy per Si atom -5591.507017 kJ/mol
# Density = 2.413650 g / cm^3
# Si number density = 24.191565 Si / 1000 Ang^3
#
#
#
# Elastic Constant Matrix: (Units=GPa)
#
#
# Indices 1 2 3 4 5 6 
#
# 1 48.3828 5.3233 -0.1689 0.0000 0.9145 0.0000
# 2 5.3233 77.8884 13.7921 0.0000 2.1468 0.0000
# 3 -0.1689 13.7921 153.5653 0.0000 -3.5036 0.0000
# 4 0.0000 0.0000 0.0000 32.7272 0.0000 -24.0754
# 5 0.9145 2.1468 -3.5036 0.0000 36.2595 0.0000
# 6 0.0000 0.0000 0.0000 -24.0754 0.0000 -1.7250
#
#
#
# Elastic Compliance Matrix: (Units=1/GPa)
#
#
# Indices 1 2 3 4 5 6 
#
# 1 0.020835 -0.001437 0.000142 0.000000 -0.000427 0.000000
# 2 -0.001437 0.013174 -0.001204 0.000000 -0.000860 0.000000
# 3 0.000142 -0.001204 0.006636 0.000000 0.000709 0.000000
# 4 0.000000 0.000000 0.000000 0.002712 0.000000 -0.037850
# 5 -0.000427 -0.000860 0.000709 0.000000 0.027709 0.000000
# 6 0.000000 0.000000 0.000000 -0.037850 0.000000 -0.051451
#
#
# Mechanical properties :
#
#
# Convention : Reuss Voigt Hill
#
# Bulk Modulus (GPa) = 28.05315 35.30327 31.67821
# Shear Modulus (GPa) = 136.99926 30.84502 83.92214
#
# Velocity S-wave (km/s) = 7.53352 3.57463 5.89627
# Velocity P-wave (km/s) = 9.34309 5.62692 7.71218
#
# Compressibility (1/GPa) = 0.03564662
#
# Stress axis : x y z
#
# Youngs Moduli (GPa) = 47.99570 75.90655 150.68431
#
# Poissons Ratio (x) = 0.10911 -0.02144
# Poissons Ratio (y) = 0.06899 0.18148
# Poissons Ratio (z) = -0.00683 0.09142
#
# Static dielectric constant tensor:
#      x y z
#    x 2.027320 0.000000 0.068180 
#    y 0.000000 1.902620 0.000000 
#    z 0.068180 0.000000 1.933800 
# 
# From -- ./inp_files/102361.got.cif
#   From: 2010.05.17/outbox.cif.g08.bks.cpg/sg12_52_cif.got.tgz:102361.got - 2010.06.03 13:09:07.
