data_PCOD9187948
_publ_section_title
;
Structure prediction by ZEFSAII (Michael W. Deem and Ramdas Pophale) SiO2 
 PCOD9187948
Probable space group: C 2/M
;
_chemical_formula_sum "Si O2"
_cell_formula_units_Z 58
_cell_length_a 14.631297
_cell_length_b 14.501214
_cell_length_c 25.033350
_cell_angle_alpha 90.000000
_cell_angle_beta 151.102374
_cell_angle_gamma 90.000000
_cell_volume 2566.696538
_symmetry_space_group_name_H-M "C 2/M"
_symmetry_group_IT_number 12
_symmetry_cell_setting 'monoclinic'
loop_
_space_group_symop_operation_xyz
x,y,z
-x,y,-z
-x,-y,-z
x,-y,z
1/2+x,1/2+y,z
1/2-x,1/2+y,-z
1/2-x,1/2-y,-z
1/2+x,1/2-y,z
loop_
_atom_site_type_symbol
_atom_site_label
_atom_site_fract_x
_atom_site_fract_y
_atom_site_fract_z
Si Si1 0.892656 0.106832 0.068548
Si Si2 0.477850 0.113610 0.652221
Si Si3 0.446840 0.112812 0.032843
Si Si4 0.719810 0.147302 0.679473
Si Si5 0.071456 0.106543 0.481027
Si Si6 0.824382 0.653313 0.748661
Si Si7 0.000000 0.500000 0.500000
Si Si8 0.676177 0.104403 0.858822
O O1 0.108346 0.109980 0.196054
O O2 0.841244 0.000000 0.035155
O O3 0.761767 0.137675 0.051311
O O4 0.825323 0.148223 0.977035
O O5 0.543630 0.153061 0.629746
O O6 0.617294 0.144509 0.771432
O O7 0.264672 0.143992 0.556391
O O8 0.484329 0.000000 0.650936
O O9 0.583115 0.159235 0.145981
O O10 0.468267 0.000000 0.047026
O O11 0.500000 0.139126 0.000000
O O12 0.793181 0.248648 0.704587
O O13 0.651191 0.080542 0.597896
O O14 0.881487 0.109312 0.349488
O O15 0.000000 0.148788 0.500000
O O16 0.120230 0.000000 0.517717
O O17 0.977952 0.601677 0.790590
O O18 0.739039 0.000000 0.878218
#
# Coordination Sequence:
#
# PCOD9187948 Si02
#       8
#     8   8   8   8   8   8   2   8
#     4   9  18  39  64  88 120 168 215 249 323 390
#     4  10  20  39  62  93 122 157 212 267 316 383
#     4   9  19  39  64  97 138 170 209 262 316 400
#     4  12  26  44  62  85 123 176 221 270 310 392
#     4  10  19  35  63  92 124 159 200 261 338 390
#     4  11  22  38  61  97 127 165 214 269 331 375
#     4  12  28  52  64  70 130 184 236 254 310 400
#     4   9  18  35  69  98 127 156 196 275 330 389
#
# _framework density 22.597138999999999
#
# number of rings (size 3 to 8) (size 9 to 14) (size 15 to 20)
#    0.000    1.931    2.759    2.069    0.966    3.310 
#    7.448    2.069    0.000    0.000    0.000    0.000 
#    0.000    0.000    0.000    0.000    0.000    0.000 
#
# Total GULP energy -161455.813300 kJ/mol
# GULP energy per Si atom -5567.441838 kJ/mol
# Density = 2.254571 g / cm^3
# Si number density = 22.597139 Si / 1000 Ang^3
#
#
#
# Elastic Constant Matrix: (Units=GPa)
#
#
# Indices 1 2 3 4 5 6 
#
# 1 32.6739 -14.7818 5.8729 0.0003 7.4867 0.0001
# 2 -14.7818 61.3697 1.8618 0.0002 -6.9812 0.0001
# 3 5.8729 1.8618 108.1471 0.0001 9.1418 0.0004
# 4 0.0003 0.0002 0.0001 17.8761 0.0002 1.5796
# 5 7.4867 -6.9812 9.1418 0.0002 27.4829 0.0001
# 6 0.0001 0.0001 0.0004 1.5796 0.0001 8.3520
#
#
#
# Elastic Compliance Matrix: (Units=1/GPa)
#
#
# Indices 1 2 3 4 5 6 
#
# 1 0.036133 0.007913 -0.001478 0.000000 -0.007341 0.000000
# 2 0.007913 0.018559 -0.000993 0.000000 0.002889 0.000000
# 3 -0.001478 -0.000993 0.009601 0.000000 -0.003043 0.000000
# 4 0.000000 0.000000 0.000000 0.056891 0.000000 -0.010760
# 5 -0.007341 0.002889 -0.003043 0.000000 0.040132 0.000000
# 6 0.000000 0.000000 0.000000 -0.010760 0.000000 0.121767
#
#
# Mechanical properties :
#
#
# Convention : Reuss Voigt Hill
#
# Bulk Modulus (GPa) = 13.30192 20.89958 17.10075
# Shear Modulus (GPa) = 16.82029 24.69141 20.75585
#
# Velocity S-wave (km/s) = 2.73125 3.30915 3.03399
# Velocity P-wave (km/s) = 3.98065 4.88565 4.45618
#
# Compressibility (1/GPa) = 0.07517711
#
# Stress axis : x y z
#
# Youngs Moduli (GPa) = 27.67547 53.88092 104.15267
#
# Poissons Ratio (x) = -0.42636 0.15392
# Poissons Ratio (y) = -0.21899 0.10347
# Poissons Ratio (z) = 0.04090 0.05353
#
# Static dielectric constant tensor:
#      x y z
#    x 1.836450 0.000000 -0.013800 
#    y 0.000000 1.872900 0.000000 
#    z -0.013800 0.000000 1.905430 
# 
# From -- ./inp_files/361728.got.cif
#   From: 2010.05.17/outbox.cif.g08.bks.cpg/sg12_181_cif.got.tgz:361728.got - 2010.06.03 13:09:07.
