data_PCOD9187582
_publ_section_title
;
Structure prediction by ZEFSAII (Michael W. Deem and Ramdas Pophale) SiO2 
 PCOD9187582
Probable space group: C 2/M
;
_chemical_formula_sum "Si O2"
_cell_formula_units_Z 60
_cell_length_a 19.844337
_cell_length_b 22.585413
_cell_length_c 7.781229
_cell_angle_alpha 90.000000
_cell_angle_beta 52.177591
_cell_angle_gamma 90.000000
_cell_volume 2754.820577
_symmetry_space_group_name_H-M "C 2/M"
_symmetry_group_IT_number 12
_symmetry_cell_setting 'monoclinic'
loop_
_space_group_symop_operation_xyz
x,y,z
-x,y,-z
-x,-y,-z
x,-y,z
1/2+x,1/2+y,z
1/2-x,1/2+y,-z
1/2-x,1/2-y,-z
1/2+x,1/2-y,z
loop_
_atom_site_type_symbol
_atom_site_label
_atom_site_fract_x
_atom_site_fract_y
_atom_site_fract_z
Si Si1 0.490216 0.736567 0.205411
Si Si2 0.156120 0.069426 0.377823
Si Si3 0.903459 0.566228 0.180594
Si Si4 0.589989 0.813346 0.258910
Si Si5 0.327100 0.064279 0.918309
Si Si6 0.000000 0.147901 0.500000
Si Si7 0.199710 0.743611 0.354616
Si Si8 0.256239 0.148943 0.465632
O O1 0.556161 0.791472 0.127123
O O2 0.517209 0.690141 0.310173
O O3 0.390531 0.751393 0.397836
O O4 0.500000 0.712494 0.000000
O O5 0.077273 0.106862 0.435947
O O6 0.191413 0.098810 0.499576
O O7 0.139009 0.000000 0.430991
O O8 0.228013 0.073836 0.116047
O O9 0.901589 0.500000 0.263222
O O10 0.844732 0.614908 0.359680
O O11 0.864593 0.560585 0.051859
O O12 0.000000 0.584228 0.000000
O O13 0.500000 0.809173 0.500000
O O14 0.626444 0.878809 0.228403
O O15 0.662670 0.770897 0.225473
O O16 0.340465 0.000000 0.812261
O O17 0.249743 0.804092 0.316733
O O18 0.254507 0.690303 0.351093
#
# Coordination Sequence:
#
# PCOD9187582 Si02
#       8
#     8   8   8   8   8   4   8   8
#     4  11  23  39  65  95 130 171 214 267 325 387
#     4  10  21  40  68  94 123 171 223 276 330 387
#     4   9  19  33  54  84 114 151 205 253 294 368
#     4  10  21  39  61  87 133 172 210 263 320 388
#     4   9  20  37  56  86 120 158 213 261 308 379
#     4  12  21  48  66  98 131 164 224 280 326 402
#     4  10  21  38  56  90 128 166 206 262 318 382
#     4  10  19  35  60  82 124 159 205 256 313 379
#
# _framework density 21.780002
#
# number of rings (size 3 to 8) (size 9 to 14) (size 15 to 20)
#    0.000    2.000    3.333    1.400    7.467    0.267 
#    4.800    4.667    0.000    3.200    0.000    0.000 
#    0.000    0.000    0.000    0.000    0.000    0.000 
#
# Total GULP energy -167345.290986 kJ/mol
# GULP energy per Si atom -5578.176366 kJ/mol
# Density = 2.173043 g / cm^3
# Si number density = 21.780002 Si / 1000 Ang^3
#
#
#
# Elastic Constant Matrix: (Units=GPa)
#
#
# Indices 1 2 3 4 5 6 
#
# 1 82.0907 53.6584 20.9853 0.0000 -15.2559 0.0000
# 2 53.6584 149.3731 22.4288 0.0000 -12.6685 0.0000
# 3 20.9853 22.4288 27.0345 0.0000 -4.5903 0.0000
# 4 0.0000 0.0000 0.0000 14.2104 0.0000 -1.0873
# 5 -15.2559 -12.6685 -4.5903 0.0000 34.4894 0.0000
# 6 0.0000 0.0000 0.0000 -1.0873 0.0000 32.2328
#
#
#
# Elastic Compliance Matrix: (Units=1/GPa)
#
#
# Indices 1 2 3 4 5 6 
#
# 1 0.018805 -0.004857 -0.009677 0.000000 0.005246 0.000000
# 2 -0.004857 0.009041 -0.003612 0.000000 0.000691 0.000000
# 3 -0.009677 -0.003612 0.047623 0.000000 0.000731 0.000000
# 4 0.000000 0.000000 0.000000 0.070553 0.000000 0.002380
# 5 0.005246 0.000691 0.000731 0.000000 0.031666 0.000000
# 6 0.000000 0.000000 0.000000 0.002380 0.000000 0.031105
#
#
# Mechanical properties :
#
#
# Convention : Reuss Voigt Hill
#
# Bulk Modulus (GPa) = 25.52649 50.29370 37.91010
# Shear Modulus (GPa) = 19.36898 26.94824 23.15861
#
# Velocity S-wave (km/s) = 2.98535 3.52133 3.26436
# Velocity P-wave (km/s) = 4.86093 6.29880 5.62599
#
# Compressibility (1/GPa) = 0.03917498
#
# Stress axis : x y z
#
# Youngs Moduli (GPa) = 53.17619 110.61221 20.99840
#
# Poissons Ratio (x) = 0.53729 0.20320
# Poissons Ratio (y) = 0.25830 0.07586
# Poissons Ratio (z) = 0.51458 0.39959
#
# Static dielectric constant tensor:
#      x y z
#    x 1.930700 0.000000 -0.075340 
#    y 0.000000 1.860900 0.000000 
#    z -0.075340 0.000000 1.874000 
# 
# From -- ./inp_files/89837.got.cif
#   From: 2010.05.17/outbox.cif.g08.bks.cpg/sg12_45_cif.got.tgz:89837.got - 2010.06.03 13:09:07.
