data_PCOD9187351
_publ_section_title
;
Structure prediction by ZEFSAII (Michael W. Deem and Ramdas Pophale) SiO2 
 PCOD9187351
Probable space group: C 2/M
;
_chemical_formula_sum "Si O2"
_cell_formula_units_Z 48
_cell_length_a 30.177567
_cell_length_b 17.794644
_cell_length_c 10.243310
_cell_angle_alpha 90.000000
_cell_angle_beta 149.899034
_cell_angle_gamma 90.000000
_cell_volume 2758.714196
_symmetry_space_group_name_H-M "C 2/M"
_symmetry_group_IT_number 12
_symmetry_cell_setting 'monoclinic'
loop_
_space_group_symop_operation_xyz
x,y,z
-x,y,-z
-x,-y,-z
x,-y,z
1/2+x,1/2+y,z
1/2-x,1/2+y,-z
1/2-x,1/2-y,-z
1/2+x,1/2-y,z
loop_
_atom_site_type_symbol
_atom_site_label
_atom_site_fract_x
_atom_site_fract_y
_atom_site_fract_z
Si Si1 0.899415 0.697482 0.240876
Si Si2 0.394849 0.784793 0.720406
Si Si3 0.887628 0.196658 0.964284
Si Si4 0.761592 0.588847 0.313352
Si Si5 0.093269 0.186271 0.502877
Si Si6 0.747489 0.912630 0.023974
O O1 0.896523 0.762494 0.342828
O O2 0.000000 0.667153 0.500000
O O3 0.881422 0.738042 0.057826
O O4 0.827343 0.636552 0.096518
O O5 0.366420 0.735361 0.772276
O O6 0.343604 0.862924 0.576589
O O7 0.378122 0.736196 0.547787
O O8 0.500000 0.797379 0.000000
O O9 0.823549 0.129378 0.841375
O O10 0.989525 0.169417 0.222260
O O11 0.765926 0.500000 0.352561
O O12 0.758367 0.598127 0.147759
O O13 0.157535 0.116362 0.685316
O O14 0.735329 0.000000 0.020725
#
# Coordination Sequence:
#
# PCOD9187351 Si02
#       6
#     8   8   8   8   8   8
#     4  10  19  35  59  80 106 144 190 233 264 316
#     4  10  21  38  60  82 108 147 191 229 272 326
#     4  10  21  36  59  87 108 144 191 229 271 323
#     4  11  22  36  56  83 117 149 180 226 280 334
#     4  10  19  37  60  82 111 145 186 231 270 322
#     4  11  22  35  56  85 116 148 180 226 284 330
#
# _framework density 17.399411000000001
#
# number of rings (size 3 to 8) (size 9 to 14) (size 15 to 20)
#    0.000    1.667    3.333    2.000    0.000    1.333 
#    0.000    5.000    0.000    3.000    0.000    0.000 
#    0.000    0.000    0.000    0.000    0.000    0.000 
#
# Total GULP energy -134003.155403 kJ/mol
# GULP energy per Si atom -5583.464808 kJ/mol
# Density = 1.735981 g / cm^3
# Si number density = 17.399411 Si / 1000 Ang^3
#
#
#
# Elastic Constant Matrix: (Units=GPa)
#
#
# Indices 1 2 3 4 5 6 
#
# 1 89.7024 25.2595 13.8264 0.0000 0.0134 0.0000
# 2 25.2595 54.5020 14.5181 0.0000 13.6178 0.0000
# 3 13.8264 14.5181 29.9630 0.0000 5.6121 0.0000
# 4 0.0000 0.0000 0.0000 8.4764 0.0000 -12.9130
# 5 0.0134 13.6178 5.6121 0.0000 22.7836 0.0000
# 6 0.0000 0.0000 0.0000 -12.9130 0.0000 10.9541
#
#
#
# Elastic Compliance Matrix: (Units=1/GPa)
#
#
# Indices 1 2 3 4 5 6 
#
# 1 0.013581 -0.006419 -0.004061 0.000000 0.004829 0.000000
# 2 -0.006419 0.026842 -0.007380 0.000000 -0.014222 0.000000
# 3 -0.004061 -0.007380 0.039836 0.000000 -0.005399 0.000000
# 4 0.000000 0.000000 0.000000 -0.148240 0.000000 -0.174749
# 5 0.004829 -0.014222 -0.005399 0.000000 0.053719 0.000000
# 6 0.000000 0.000000 0.000000 -0.174749 0.000000 -0.114709
#
#
# Mechanical properties :
#
#
# Convention : Reuss Voigt Hill
#
# Bulk Modulus (GPa) = 22.45259 31.26391 26.85825
# Shear Modulus (GPa) = -63.77105 16.48037 -23.64534
#
# Velocity S-wave (km/s) = -6.06060 3.08097 -3.69043
# Velocity P-wave (km/s) = 6.00352 5.53750 1.63987
#
# Compressibility (1/GPa) = 0.04453828
#
# Stress axis : x y z
#
# Youngs Moduli (GPa) = 73.63375 37.25462 25.10313
#
# Poissons Ratio (x) = 0.23913 0.10195
# Poissons Ratio (y) = 0.47265 0.18527
# Poissons Ratio (z) = 0.29903 0.27495
#
# Static dielectric constant tensor:
#      x y z
#    x 1.596760 0.000000 0.014230 
#    y 0.000000 1.539800 0.000000 
#    z 0.014230 0.000000 1.600140 
# 
# From -- ./inp_files/74476.got.cif
#   From: 2010.05.17/outbox.cif.g08.bks.cpg/sg12_38_cif.got.tgz:74476.got - 2010.06.03 13:09:07.
