data_PCOD9187150
_publ_section_title
;
Structure prediction by ZEFSAII (Michael W. Deem and Ramdas Pophale) SiO2 
 PCOD9187150
Probable space group: C 2/M
;
_chemical_formula_sum "Si O2"
_cell_formula_units_Z 64
_cell_length_a 21.071747
_cell_length_b 8.625193
_cell_length_c 19.543910
_cell_angle_alpha 90.000000
_cell_angle_beta 90.033286
_cell_angle_gamma 90.000000
_cell_volume 3552.063702
_symmetry_space_group_name_H-M "C 2/M"
_symmetry_group_IT_number 12
_symmetry_cell_setting 'monoclinic'
loop_
_space_group_symop_operation_xyz
x,y,z
-x,y,-z
-x,-y,-z
x,-y,z
1/2+x,1/2+y,z
1/2-x,1/2+y,-z
1/2-x,1/2-y,-z
1/2+x,1/2-y,z
loop_
_atom_site_type_symbol
_atom_site_label
_atom_site_fract_x
_atom_site_fract_y
_atom_site_fract_z
Si Si1 0.127566 0.688969 0.924553
Si Si2 0.624321 0.812682 0.082137
Si Si3 0.252708 0.685243 0.842589
Si Si4 0.448005 0.314530 0.296996
Si Si5 0.301112 0.686022 0.292535
Si Si6 0.996728 0.687545 0.159736
Si Si7 0.803798 0.813849 0.449948
Si Si8 0.555300 0.185989 0.552534
O O1 0.127321 0.500000 0.924769
O O2 0.191065 0.739545 0.885616
O O3 0.065091 0.738149 0.883281
O O4 0.126223 0.740482 0.003274
O O5 0.684798 0.753953 0.123423
O O6 0.559870 0.763951 0.119910
O O7 0.625049 0.000000 0.081245
O O8 0.255087 0.500000 0.845966
O O9 0.242210 0.736977 0.764587
O O10 0.451073 0.500000 0.301967
O O11 0.374847 0.271442 0.279410
O O12 0.491376 0.253503 0.235953
O O13 0.461459 0.243198 0.371168
O O14 0.295603 0.500000 0.287142
O O15 0.288129 0.730404 0.371151
O O16 0.995926 0.500000 0.163372
O O17 0.750000 0.750000 0.500000
O O18 0.874831 0.752151 0.464913
O O19 0.805443 0.000000 0.453231
O O20 0.500000 0.234328 0.500000
O O21 0.559233 0.000000 0.552028
#
# Coordination Sequence:
#
# PCOD9187150 Si02
#       8
#     8   8   8   8   8   8   8   8
#     4   9  18  34  57  82 104 139 190 231 272 331
#     4  10  21  36  54  78 112 148 180 227 284 334
#     4  11  21  34  55  81 110 142 183 233 277 327
#     4  10  20  35  58  85 113 146 184 232 280 331
#     4   9  19  36  57  81 109 145 186 225 271 330
#     4  10  19  35  58  81 107 144 188 231 274 330
#     4  10  21  38  61  89 119 151 189 234 282 335
#     4  10  21  38  61  88 117 151 190 232 277 334
#
# _framework density 18.017696000000001
#
# number of rings (size 3 to 8) (size 9 to 14) (size 15 to 20)
#    0.000    2.125    1.250    3.000    0.000    5.500 
#    2.250    1.250    0.000    1.500    0.000    0.000 
#    0.000    0.000    0.000    0.000    0.000    0.000 
#
# Total GULP energy -178643.478943 kJ/mol
# GULP energy per Si atom -5582.608717 kJ/mol
# Density = 1.797669 g / cm^3
# Si number density = 18.017696 Si / 1000 Ang^3
#
#
#
# Elastic Constant Matrix: (Units=GPa)
#
#
# Indices 1 2 3 4 5 6 
#
# 1 135.4755 28.5736 89.6049 0.0000 2.2559 0.0000
# 2 28.5736 23.8387 31.5164 0.0000 -0.2341 0.0000
# 3 89.6049 31.5164 146.3640 0.0000 2.1581 0.0000
# 4 0.0000 0.0000 0.0000 21.5845 0.0000 0.5476
# 5 2.2559 -0.2341 2.1581 0.0000 32.3472 0.0000
# 6 0.0000 0.0000 0.0000 0.5476 0.0000 27.6638
#
#
#
# Elastic Compliance Matrix: (Units=1/GPa)
#
#
# Indices 1 2 3 4 5 6 
#
# 1 0.013242 -0.007228 -0.006543 0.000000 -0.000539 0.000000
# 2 -0.007228 0.062640 -0.009086 0.000000 0.001564 0.000000
# 3 -0.006543 -0.009086 0.012801 0.000000 -0.000464 0.000000
# 4 0.000000 0.000000 0.000000 0.046353 0.000000 -0.000918
# 5 -0.000539 0.001564 -0.000464 0.000000 0.030994 0.000000
# 6 0.000000 0.000000 0.000000 -0.000918 0.000000 0.036166
#
#
# Mechanical properties :
#
#
# Convention : Reuss Voigt Hill
#
# Bulk Modulus (GPa) = 23.27214 67.22979 45.25097
# Shear Modulus (GPa) = 19.06691 26.71800 22.89245
#
# Velocity S-wave (km/s) = 3.25658 3.85499 3.56835
# Velocity P-wave (km/s) = 5.20430 7.56365 6.49205
#
# Compressibility (1/GPa) = 0.04296983
#
# Stress axis : x y z
#
# Youngs Moduli (GPa) = 75.51608 15.96415 78.11828
#
# Poissons Ratio (x) = 0.11539 0.51110
# Poissons Ratio (y) = 0.54582 0.70981
# Poissons Ratio (z) = 0.49407 0.14506
#
# Static dielectric constant tensor:
#      x y z
#    x 1.593440 0.000000 -0.005910 
#    y 0.000000 1.610680 0.000000 
#    z -0.005910 0.000000 1.601970 
# 
# From -- ./inp_files/281321.got.cif
#   From: 2010.05.17/outbox.cif.g08.bks.cpg/sg12_141_cif.got.tgz:281321.got - 2010.06.03 13:09:07.
