data_PCOD9187745
_publ_section_title
;
Structure prediction by ZEFSAII (Michael W. Deem and Ramdas Pophale) SiO2 
 PCOD9187745
Probable space group: C 2/M
;
_chemical_formula_sum "Si O2"
_cell_formula_units_Z 64
_cell_length_a 22.533476
_cell_length_b 15.654979
_cell_length_c 12.564179
_cell_angle_alpha 90.000000
_cell_angle_beta 130.744863
_cell_angle_gamma 90.000000
_cell_volume 3357.903693
_symmetry_space_group_name_H-M "C 2/M"
_symmetry_group_IT_number 12
_symmetry_cell_setting 'monoclinic'
loop_
_space_group_symop_operation_xyz
x,y,z
-x,y,-z
-x,-y,-z
x,-y,z
1/2+x,1/2+y,z
1/2-x,1/2+y,-z
1/2-x,1/2-y,-z
1/2+x,1/2-y,z
loop_
_atom_site_type_symbol
_atom_site_label
_atom_site_fract_x
_atom_site_fract_y
_atom_site_fract_z
Si Si1 0.385759 0.096175 0.407056
Si Si2 0.531825 0.227328 0.338719
Si Si3 0.801245 0.594639 0.723640
Si Si4 0.299003 0.597533 0.773752
Si Si5 0.527868 0.096635 0.153759
Si Si6 0.791479 0.734829 0.890760
Si Si7 0.130323 0.278935 0.791171
Si Si8 0.816317 0.824580 0.565836
O O1 0.432822 0.162606 0.533330
O O2 0.295790 0.096554 0.341086
O O3 0.385634 0.131330 0.286569
O O4 0.415327 0.000000 0.450909
O O5 0.502976 0.169184 0.205808
O O6 0.452866 0.267790 0.294158
O O7 0.602364 0.286976 0.382355
O O8 0.800940 0.500000 0.771351
O O9 0.877466 0.599010 0.737382
O O10 0.810587 0.667273 0.822312
O O11 0.724086 0.611531 0.564641
O O12 0.324519 0.500000 0.826086
O O13 0.317249 0.670528 0.882264
O O14 0.327686 0.631183 0.693224
O O15 0.503203 0.000000 0.154320
O O16 0.500000 0.111416 0.000000
O O17 0.697348 0.735492 0.797584
O O18 0.830477 0.712033 0.047947
O O19 0.750000 0.750000 0.500000
#
# Coordination Sequence:
#
# PCOD9187745 Si02
#       8
#     8   8   8   8   8   8   8   8
#     4  10  20  34  53  82 116 146 183 228 277 342
#     4  12  21  33  55  80 111 150 185 222 282 329
#     4  11  21  35  57  83 111 148 185 221 276 334
#     4  10  19  35  61  86 110 146 186 229 282 333
#     4  10  20  32  49  81 118 143 172 217 273 346
#     4  10  20  41  58  78 110 144 191 234 275 328
#     4  10  23  36  55  78 106 148 190 232 277 328
#     4  12  19  34  56  81 115 147 177 226 265 328
#
# _framework density 19.05951
#
# number of rings (size 3 to 8) (size 9 to 14) (size 15 to 20)
#    0.000    1.375    3.750    2.625    0.000    4.000 
#    0.000    1.875    0.000    4.500    0.000    0.000 
#    0.000    0.000    0.000    0.000    0.000    0.000 
#
# Total GULP energy -178646.750196 kJ/mol
# GULP energy per Si atom -5582.710944 kJ/mol
# Density = 1.901613 g / cm^3
# Si number density = 19.059510 Si / 1000 Ang^3
#
#
#
# Elastic Constant Matrix: (Units=GPa)
#
#
# Indices 1 2 3 4 5 6 
#
# 1 87.7360 40.1121 10.2459 0.0000 11.7924 0.0000
# 2 40.1121 85.4724 17.8168 0.0000 -7.8121 0.0000
# 3 10.2459 17.8168 49.0201 0.0000 -9.5567 0.0000
# 4 0.0000 0.0000 0.0000 14.5626 0.0000 0.4938
# 5 11.7924 -7.8121 -9.5567 0.0000 28.7695 0.0000
# 6 0.0000 0.0000 0.0000 0.4938 0.0000 11.1623
#
#
#
# Elastic Compliance Matrix: (Units=1/GPa)
#
#
# Indices 1 2 3 4 5 6 
#
# 1 0.016811 -0.008290 -0.002441 0.000000 -0.009953 0.000000
# 2 -0.008290 0.016860 -0.003037 0.000000 0.006967 0.000000
# 3 -0.002441 -0.003037 0.023575 0.000000 0.008007 0.000000
# 4 0.000000 0.000000 0.000000 0.068772 0.000000 -0.003042
# 5 -0.009953 0.006967 0.008007 0.000000 0.043390 0.000000
# 6 0.000000 0.000000 0.000000 -0.003042 0.000000 0.089722
#
#
# Mechanical properties :
#
#
# Convention : Reuss Voigt Hill
#
# Bulk Modulus (GPa) = 33.65884 39.84202 36.75043
# Shear Modulus (GPa) = 16.85950 21.16913 19.01432
#
# Velocity S-wave (km/s) = 2.97740 3.33631 3.16195
# Velocity P-wave (km/s) = 5.43306 5.98253 5.71440
#
# Compressibility (1/GPa) = 0.02970988
#
# Stress axis : x y z
#
# Youngs Moduli (GPa) = 59.48585 59.31179 42.41835
#
# Poissons Ratio (x) = 0.49170 0.10354
# Poissons Ratio (y) = 0.49314 0.12882
# Poissons Ratio (z) = 0.14520 0.18012
#
# Static dielectric constant tensor:
#      x y z
#    x 1.697650 0.000000 0.010570 
#    y 0.000000 1.661900 0.000000 
#    z 0.010570 0.000000 1.668810 
# 
# From -- ./inp_files/177146.got.cif
#   From: 2010.05.17/outbox.cif.g08.bks.cpg/sg12_89_cif.got.tgz:177146.got - 2010.06.03 13:09:07.
