data_PCOD9187133
_publ_section_title
;
Structure prediction by ZEFSAII (Michael W. Deem and Ramdas Pophale) SiO2 
 PCOD9187133
Probable space group: C 2/M
;
_chemical_formula_sum "Si O2"
_cell_formula_units_Z 56
_cell_length_a 16.324488
_cell_length_b 25.773927
_cell_length_c 9.281687
_cell_angle_alpha 90.000000
_cell_angle_beta 124.858936
_cell_angle_gamma 90.000000
_cell_volume 3204.485691
_symmetry_space_group_name_H-M "C 2/M"
_symmetry_group_IT_number 12
_symmetry_cell_setting 'monoclinic'
loop_
_space_group_symop_operation_xyz
x,y,z
-x,y,-z
-x,-y,-z
x,-y,z
1/2+x,1/2+y,z
1/2-x,1/2+y,-z
1/2-x,1/2-y,-z
1/2+x,1/2-y,z
loop_
_atom_site_type_symbol
_atom_site_label
_atom_site_fract_x
_atom_site_fract_y
_atom_site_fract_z
Si Si1 0.995540 0.710949 0.323527
Si Si2 0.702296 0.802812 0.392826
Si Si3 0.606590 0.153685 0.025560
Si Si4 0.465510 0.670445 0.297844
Si Si5 0.146005 0.102231 0.446538
Si Si6 0.120000 0.000000 0.267927
Si Si7 0.699495 0.405174 0.824026
Si Si8 0.113323 0.000000 0.917238
O O1 0.981134 0.771083 0.261424
O O2 0.000000 0.708729 0.500000
O O3 0.102077 0.690286 0.380758
O O4 0.916519 0.677848 0.153405
O O5 0.750000 0.750000 0.500000
O O6 0.666032 0.806041 0.190014
O O7 0.777154 0.850382 0.489094
O O8 0.683235 0.105897 0.081732
O O9 0.500000 0.142707 0.000000
O O10 0.500000 0.672140 0.500000
O O11 0.539243 0.628059 0.302801
O O12 0.354274 0.648195 0.179150
O O13 0.168616 0.052879 0.372820
O O14 0.151536 0.084168 0.618525
O O15 0.007288 0.000000 0.222375
O O16 0.122286 0.000000 0.098450
O O17 0.665995 0.450356 0.897277
#
# Coordination Sequence:
#
# PCOD9187133 Si02
#       8
#     8   8   8   8   8   4   8   4
#     4  10  20  35  54  80 116 151 190 230 279 333
#     4  10  19  36  56  82 114 150 188 233 281 331
#     4   9  21  38  55  82 113 146 190 238 277 336
#     4   9  17  30  51  82 110 143 188 225 263 332
#     4  10  19  35  58  79 110 152 190 226 270 340
#     4  11  23  37  51  84 121 144 177 231 294 338
#     4  10  20  36  59  78 106 150 192 228 277 330
#     4  11  23  37  52  82 116 144 182 239 284 335
#
# _framework density 17.475503
#
# number of rings (size 3 to 8) (size 9 to 14) (size 15 to 20)
#    0.000    2.143    2.857    0.429    2.000    2.286 
#    2.571    0.357    0.000    2.571    0.000   10.000 
#    0.000    0.000    0.000    0.000    0.000    0.000 
#
# Total GULP energy -155940.875450 kJ/mol
# GULP energy per Si atom -5569.316980 kJ/mol
# Density = 1.743573 g / cm^3
# Si number density = 17.475503 Si / 1000 Ang^3
#
#
#
# Elastic Constant Matrix: (Units=GPa)
#
#
# Indices 1 2 3 4 5 6 
#
# 1 71.7848 37.7636 33.3372 0.0000 3.8250 0.0000
# 2 37.7636 68.4750 36.9376 0.0000 -7.0616 0.0000
# 3 33.3372 36.9376 77.5543 0.0000 -1.8643 0.0000
# 4 0.0000 0.0000 0.0000 16.5256 0.0000 -7.2731
# 5 3.8250 -7.0616 -1.8643 0.0000 26.2211 0.0000
# 6 0.0000 0.0000 0.0000 -7.2731 0.0000 26.7811
#
#
#
# Elastic Compliance Matrix: (Units=1/GPa)
#
#
# Indices 1 2 3 4 5 6 
#
# 1 0.021760 -0.010116 -0.004686 0.000000 -0.006232 0.000000
# 2 -0.010116 0.024935 -0.007343 0.000000 0.007669 0.000000
# 3 -0.004686 -0.007343 0.018406 0.000000 0.000015 0.000000
# 4 0.000000 0.000000 0.000000 0.068727 0.000000 0.018665
# 5 -0.006232 0.007669 0.000015 0.000000 0.041112 0.000000
# 6 0.000000 0.000000 0.000000 0.018665 0.000000 0.042409
#
#
# Mechanical properties :
#
#
# Convention : Reuss Voigt Hill
#
# Bulk Modulus (GPa) = 48.04969 48.21011 48.12990
# Shear Modulus (GPa) = 18.61679 21.22396 19.92038
#
# Velocity S-wave (km/s) = 3.26745 3.48875 3.37991
# Velocity P-wave (km/s) = 6.46452 6.62387 6.54468
#
# Compressibility (1/GPa) = 0.02081179
#
# Stress axis : x y z
#
# Youngs Moduli (GPa) = 45.95567 40.10489 54.32967
#
# Poissons Ratio (x) = 0.40569 0.25457
# Poissons Ratio (y) = 0.46487 0.39896
# Poissons Ratio (z) = 0.21533 0.29450
#
# Static dielectric constant tensor:
#      x y z
#    x 1.616630 0.000000 0.008040 
#    y 0.000000 1.594390 0.000000 
#    z 0.008040 0.000000 1.612780 
# 
# From -- ./inp_files/67095.got.cif
#   From: 2010.05.17/outbox.cif.g08.bks.cpg/sg12_34_cif.got.tgz:67095.got - 2010.06.03 13:09:07.
