data_PCOD9187872
_publ_section_title
;
Structure prediction by ZEFSAII (Michael W. Deem and Ramdas Pophale) SiO2 
 PCOD9187872
Probable space group: C 2/M
;
_chemical_formula_sum "Si O2"
_cell_formula_units_Z 52
_cell_length_a 15.914600
_cell_length_b 15.357020
_cell_length_c 14.682094
_cell_angle_alpha 90.000000
_cell_angle_beta 48.417447
_cell_angle_gamma 90.000000
_cell_volume 2684.061156
_symmetry_space_group_name_H-M "C 2/M"
_symmetry_group_IT_number 12
_symmetry_cell_setting 'monoclinic'
loop_
_space_group_symop_operation_xyz
x,y,z
-x,y,-z
-x,-y,-z
x,-y,z
1/2+x,1/2+y,z
1/2-x,1/2+y,-z
1/2-x,1/2-y,-z
1/2+x,1/2-y,z
loop_
_atom_site_type_symbol
_atom_site_label
_atom_site_fract_x
_atom_site_fract_y
_atom_site_fract_z
Si Si1 0.545354 0.102357 0.562967
Si Si2 0.728044 0.307681 0.603357
Si Si3 0.000000 0.160679 0.000000
Si Si4 0.749099 0.395475 0.082829
Si Si5 0.340055 0.196929 0.189922
Si Si6 0.027388 0.606150 0.183535
Si Si7 0.506886 0.600473 0.195806
O O1 0.500000 0.140068 0.500000
O O2 0.678592 0.117717 0.464895
O O3 0.496617 0.134874 0.695001
O O4 0.518600 0.000000 0.582067
O O5 0.750000 0.250000 0.500000
O O6 0.741070 0.244706 0.680897
O O7 0.602442 0.345596 0.696650
O O8 0.103494 0.225579 0.908473
O O9 0.986134 0.106087 0.918703
O O10 0.744289 0.500000 0.080768
O O11 0.784087 0.367081 0.158559
O O12 0.624788 0.363065 0.147828
O O13 0.848929 0.368969 0.941809
O O14 0.436135 0.148915 0.181015
O O15 0.017014 0.500000 0.186255
O O16 0.493583 0.500000 0.233542
#
# Coordination Sequence:
#
# PCOD9187872 Si02
#       7
#     8   8   4   8   8   8   8
#     4  10  22  40  63  88 114 154 206 248 287 345
#     4  11  23  40  60  84 120 159 198 241 294 349
#     4  10  21  36  57  86 118 154 192 242 297 350
#     4  10  21  38  62  92 122 152 196 245 298 362
#     4  11  20  36  58  90 120 156 196 244 302 347
#     4  10  19  35  62  88 120 157 193 247 298 349
#     4  10  23  41  60  85 120 161 197 237 294 360
#
# _framework density 19.373626999999999
#
# number of rings (size 3 to 8) (size 9 to 14) (size 15 to 20)
#    0.000    1.692    3.077    1.154    0.000    5.538 
#    0.000    4.615    0.000    1.846    0.000    0.000 
#    0.000    0.000    0.000    0.000    0.000    0.000 
#
# Total GULP energy -145093.818967 kJ/mol
# GULP energy per Si atom -5580.531499 kJ/mol
# Density = 1.932953 g / cm^3
# Si number density = 19.373627 Si / 1000 Ang^3
#
#
#
# Elastic Constant Matrix: (Units=GPa)
#
#
# Indices 1 2 3 4 5 6 
#
# 1 128.2660 14.2487 70.5306 0.0000 -2.7025 0.0000
# 2 14.2487 31.4635 21.7767 0.0000 0.2423 0.0000
# 3 70.5306 21.7767 149.2950 0.0000 11.3131 0.0000
# 4 0.0000 0.0000 0.0000 14.5648 0.0000 15.7914
# 5 -2.7025 0.2423 11.3131 0.0000 19.3009 0.0000
# 6 0.0000 0.0000 0.0000 15.7914 0.0000 -15.3064
#
#
#
# Elastic Compliance Matrix: (Units=1/GPa)
#
#
# Indices 1 2 3 4 5 6 
#
# 1 0.010985 -0.001304 -0.005355 0.000000 0.004693 0.000000
# 2 -0.001304 0.035642 -0.004746 0.000000 0.002151 0.000000
# 3 -0.005355 -0.004746 0.010436 0.000000 -0.006807 0.000000
# 4 0.000000 0.000000 0.000000 0.032408 0.000000 0.033435
# 5 0.004693 0.002151 -0.006807 0.000000 0.056431 0.000000
# 6 0.000000 0.000000 0.000000 0.033435 0.000000 -0.030838
#
#
# Mechanical properties :
#
#
# Convention : Reuss Voigt Hill
#
# Bulk Modulus (GPa) = 29.19499 58.01517 43.60508
# Shear Modulus (GPa) = 33.49178 17.20975 25.35076
#
# Velocity S-wave (km/s) = 4.16231 2.98368 3.62127
# Velocity P-wave (km/s) = 6.18077 6.47150 6.32780
#
# Compressibility (1/GPa) = 0.03425245
#
# Stress axis : x y z
#
# Youngs Moduli (GPa) = 91.03718 28.05710 95.82338
#
# Poissons Ratio (x) = 0.03660 0.51311
# Poissons Ratio (y) = 0.11876 0.45474
# Poissons Ratio (z) = 0.48748 0.13315
#
# Static dielectric constant tensor:
#      x y z
#    x 1.689990 0.000000 0.027480 
#    y 0.000000 1.676640 0.000000 
#    z 0.027480 0.000000 1.709630 
# 
# From -- ./inp_files/225638.got.cif
#   From: 2010.05.17/outbox.cif.g08.bks.cpg/sg12_113_cif.got.tgz:225638.got - 2010.06.03 13:09:07.
