data_PCOD9187764
_publ_section_title
;
Structure prediction by ZEFSAII (Michael W. Deem and Ramdas Pophale) SiO2 
 PCOD9187764
Probable space group: C 2/M
;
_chemical_formula_sum "Si O2"
_cell_formula_units_Z 46
_cell_length_a 25.564953
_cell_length_b 13.912694
_cell_length_c 19.344331
_cell_angle_alpha 90.000000
_cell_angle_beta 20.059686
_cell_angle_gamma 90.000000
_cell_volume 2359.948972
_symmetry_space_group_name_H-M "C 2/M"
_symmetry_group_IT_number 12
_symmetry_cell_setting 'monoclinic'
loop_
_space_group_symop_operation_xyz
x,y,z
-x,y,-z
-x,-y,-z
x,-y,z
1/2+x,1/2+y,z
1/2-x,1/2+y,-z
1/2-x,1/2-y,-z
1/2+x,1/2-y,z
loop_
_atom_site_type_symbol
_atom_site_label
_atom_site_fract_x
_atom_site_fract_y
_atom_site_fract_z
Si Si1 0.301861 0.891424 0.192672
Si Si2 0.545723 0.886373 0.639357
Si Si3 0.000000 0.166495 0.500000
Si Si4 0.520405 0.230538 0.142837
Si Si5 0.849210 0.208236 0.227680
Si Si6 0.173111 0.332146 0.207620
Si Si7 0.000000 0.500000 0.500000
O O1 0.317455 0.813737 0.234660
O O2 0.128596 0.890499 0.380965
O O3 0.345891 0.000000 0.155214
O O4 0.400670 0.845983 0.007546
O O5 0.540563 0.825858 0.715638
O O6 0.696896 0.854463 0.409310
O O7 0.395540 0.862301 0.780956
O O8 0.551428 0.000000 0.644243
O O9 0.086615 0.235636 0.338761
O O10 0.395555 0.281971 0.250045
O O11 0.649638 0.306075 0.006622
O O12 0.000000 0.171237 0.000000
O O13 0.119781 0.415863 0.325252
#
# Coordination Sequence:
#
# PCOD9187764 Si02
#       7
#     8   8   4   8   8   8   2
#     4  10  19  35  61  88 114 153 202 244 296 360
#     4  12  23  40  62  88 119 163 204 248 307 371
#     4   9  17  33  57  86 118 146 192 252 296 334
#     4  10  23  39  60  85 126 159 193 250 310 360
#     4  10  23  41  60  87 120 158 202 255 307 357
#     4  10  20  37  63  86 121 157 198 250 296 356
#     4  10  20  36  66  98 114 160 208 238 302 350
#
# _framework density 19.491947
#
# number of rings (size 3 to 8) (size 9 to 14) (size 15 to 20)
#    0.000    1.739    2.609    1.826    2.435    4.174 
#    1.565    0.000    1.913    0.000    0.000    0.000 
#    0.000    0.000    0.000    0.000    0.000    0.000 
#
# Total GULP energy -128111.959270 kJ/mol
# GULP energy per Si atom -5570.085186 kJ/mol
# Density = 1.944758 g / cm^3
# Si number density = 19.491947 Si / 1000 Ang^3
#
#
#
# Elastic Constant Matrix: (Units=GPa)
#
#
# Indices 1 2 3 4 5 6 
#
# 1 89.7625 20.2858 43.3621 0.0007 -12.8415 -0.0003
# 2 20.2858 83.1670 32.7443 0.0005 2.4382 -0.0002
# 3 43.3621 32.7443 65.6926 0.0013 -15.1246 -0.0008
# 4 0.0007 0.0005 0.0013 2.3300 -0.0008 7.5394
# 5 -12.8415 2.4382 -15.1246 -0.0008 28.8399 0.0004
# 6 -0.0003 -0.0002 -0.0008 7.5394 0.0004 5.1427
#
#
#
# Elastic Compliance Matrix: (Units=1/GPa)
#
#
# Indices 1 2 3 4 5 6 
#
# 1 0.016443 0.000053 -0.010458 -0.000001 0.001832 0.000001
# 2 0.000053 0.015893 -0.009395 0.000000 -0.006247 0.000000
# 3 -0.010458 -0.009395 0.029479 0.000004 0.011597 -0.000004
# 4 -0.000001 0.000000 0.000004 -0.114637 -0.000003 0.168063
# 5 0.001832 -0.006247 0.011597 -0.000003 0.042100 0.000003
# 6 0.000001 0.000000 -0.000004 0.168063 0.000003 -0.051938
#
#
# Mechanical properties :
#
#
# Convention : Reuss Voigt Hill
#
# Bulk Modulus (GPa) = 45.01637 47.93405 46.47521
# Shear Modulus (GPa) = -319.37400 16.74452 -151.31474
#
# Velocity S-wave (km/s) = -12.81425 2.93413 -8.82031
# Velocity P-wave (km/s) = 13.99267 6.01032 8.93507
#
# Compressibility (1/GPa) = 0.02221414
#
# Stress axis : x y z
#
# Youngs Moduli (GPa) = 60.81742 62.91957 33.92280
#
# Poissons Ratio (x) = -0.00334 0.35477
# Poissons Ratio (y) = -0.00323 0.31872
# Poissons Ratio (z) = 0.63603 0.59115
#
# Static dielectric constant tensor:
#      x y z
#    x 1.714030 0.000000 -0.011900 
#    y 0.000000 1.639610 0.000000 
#    z -0.011900 0.000000 1.692900 
# 
# From -- ./inp_files/327971.got.cif
#   From: 2010.05.17/outbox.cif.g08.bks.cpg/sg12_164_cif.got.tgz:327971.got - 2010.06.03 13:09:07.
