data_PCOD9187125
_publ_section_title
;
Structure prediction by ZEFSAII (Michael W. Deem and Ramdas Pophale) SiO2 
 PCOD9187125
Probable space group: C 2/M
;
_chemical_formula_sum "Si O2"
_cell_formula_units_Z 56
_cell_length_a 22.547518
_cell_length_b 13.933603
_cell_length_c 7.012818
_cell_angle_alpha 90.000000
_cell_angle_beta 81.008720
_cell_angle_gamma 90.000000
_cell_volume 2176.131489
_symmetry_space_group_name_H-M "C 2/M"
_symmetry_group_IT_number 12
_symmetry_cell_setting 'monoclinic'
loop_
_space_group_symop_operation_xyz
x,y,z
-x,y,-z
-x,-y,-z
x,-y,z
1/2+x,1/2+y,z
1/2-x,1/2+y,-z
1/2-x,1/2-y,-z
1/2+x,1/2-y,z
loop_
_atom_site_type_symbol
_atom_site_label
_atom_site_fract_x
_atom_site_fract_y
_atom_site_fract_z
Si Si1 0.393514 0.190298 0.312972
Si Si2 0.137113 0.893234 0.575842
Si Si3 0.947540 0.765269 0.916450
Si Si4 0.423843 0.892327 0.685297
Si Si5 0.834798 0.891677 0.982582
Si Si6 0.788192 0.384706 0.838798
Si Si7 0.768549 0.385479 0.412064
O O1 0.399548 0.295141 0.409458
O O2 0.428429 0.194969 0.099207
O O3 0.411126 0.115215 0.466423
O O4 0.323619 0.170387 0.290285
O O5 0.155600 0.896827 0.791357
O O6 0.197197 0.876883 0.419782
O O7 0.112270 0.000000 0.545597
O O8 0.891270 0.830392 0.886417
O O9 0.964501 0.694810 0.736336
O O10 0.000000 0.823665 0.000000
O O11 0.359285 0.872403 0.820988
O O12 0.443957 0.000000 0.721337
O O13 0.766564 0.852516 0.998163
O O14 0.838413 0.000000 0.908321
O O15 0.780022 0.500000 0.844928
O O16 0.775876 0.352649 0.628965
O O17 0.781047 0.500000 0.388233
#
# Coordination Sequence:
#
# PCOD9187125 Si02
#       7
#     8   8   8   8   8   8   8
#     4  10  19  35  58  78 106 148 187 226 280 331
#     4   8  14  26  49  83 117 145 176 220 274 336
#     4  11  25  40  56  83 113 147 197 239 265 317
#     4  10  22  40  61  85 113 143 181 234 288 335
#     4   8  15  32  58  85 116 150 179 220 281 336
#     4   7  12  27  53  84 113 139 172 219 277 338
#     4   8  13  24  47  79 110 141 180 221 270 336
#
# _framework density 25.733740000000001
#
# number of rings (size 3 to 8) (size 9 to 14) (size 15 to 20)
#    0.000    3.143    0.000    3.429    0.000    4.000 
#    0.000    1.429    0.000    3.429    0.000    5.000 
#    0.000    0.000    0.000    0.000    0.000    0.000 
#
# Total GULP energy -156295.592016 kJ/mol
# GULP energy per Si atom -5581.985429 kJ/mol
# Density = 2.567517 g / cm^3
# Si number density = 25.733740 Si / 1000 Ang^3
#
#
#
# Elastic Constant Matrix: (Units=GPa)
#
#
# Indices 1 2 3 4 5 6 
#
# 1 76.2952 17.5127 4.9474 0.0000 3.1796 0.0000
# 2 17.5127 123.0148 -0.5674 0.0000 2.9505 0.0000
# 3 4.9474 -0.5674 79.3046 0.0000 -0.5101 0.0000
# 4 0.0000 0.0000 0.0000 21.9534 0.0000 3.8641
# 5 3.1796 2.9505 -0.5101 0.0000 24.1387 0.0000
# 6 0.0000 0.0000 0.0000 3.8641 0.0000 21.2301
#
#
#
# Elastic Compliance Matrix: (Units=1/GPa)
#
#
# Indices 1 2 3 4 5 6 
#
# 1 0.013669 -0.001912 -0.000877 0.000000 -0.001585 0.000000
# 2 -0.001912 0.008421 0.000175 0.000000 -0.000774 0.000000
# 3 -0.000877 0.000175 0.012668 0.000000 0.000362 0.000000
# 4 0.000000 0.000000 0.000000 0.047059 0.000000 -0.008565
# 5 -0.001585 -0.000774 0.000362 0.000000 0.041738 0.000000
# 6 0.000000 0.000000 0.000000 -0.008565 0.000000 0.048662
#
#
# Mechanical properties :
#
#
# Convention : Reuss Voigt Hill
#
# Bulk Modulus (GPa) = 33.86468 35.82223 34.84346
# Shear Modulus (GPa) = 26.69698 30.57923 28.63811
#
# Velocity S-wave (km/s) = 3.22441 3.45090 3.33958
# Velocity P-wave (km/s) = 5.20102 5.46158 5.33289
#
# Compressibility (1/GPa) = 0.02952929
#
# Stress axis : x y z
#
# Youngs Moduli (GPa) = 73.15955 118.75567 78.93987
#
# Poissons Ratio (x) = 0.22705 0.06920
# Poissons Ratio (y) = 0.13988 -0.01378
# Poissons Ratio (z) = 0.06413 -0.02073
#
# Static dielectric constant tensor:
#      x y z
#    x 2.190220 0.000000 0.007430 
#    y 0.000000 1.984140 0.000000 
#    z 0.007430 0.000000 2.043850 
# 
# From -- ./inp_files/166640.got.cif
#   From: 2010.05.17/outbox.cif.g08.bks.cpg/sg12_84_cif.got.tgz:166640.got - 2010.06.03 13:09:07.
