data_PCOD9187954
_publ_section_title
;
Structure prediction by ZEFSAII (Michael W. Deem and Ramdas Pophale) SiO2 
 PCOD9187954
Probable space group: C 2/M
;
_chemical_formula_sum "Si O2"
_cell_formula_units_Z 56
_cell_length_a 29.002913
_cell_length_b 21.778859
_cell_length_c 9.460621
_cell_angle_alpha 90.000000
_cell_angle_beta 151.487484
_cell_angle_gamma 90.000000
_cell_volume 2852.554639
_symmetry_space_group_name_H-M "C 2/M"
_symmetry_group_IT_number 12
_symmetry_cell_setting 'monoclinic'
loop_
_space_group_symop_operation_xyz
x,y,z
-x,y,-z
-x,-y,-z
x,-y,z
1/2+x,1/2+y,z
1/2-x,1/2+y,-z
1/2-x,1/2-y,-z
1/2+x,1/2-y,z
loop_
_atom_site_type_symbol
_atom_site_label
_atom_site_fract_x
_atom_site_fract_y
_atom_site_fract_z
Si Si1 0.511054 0.224644 0.805030
Si Si2 0.817250 0.350474 0.355046
Si Si3 0.238473 0.926111 0.880970
Si Si4 0.812183 0.250955 0.528432
Si Si5 0.912228 0.375781 0.160800
Si Si6 0.576053 0.349336 0.324194
Si Si7 0.399458 0.931115 0.814799
O O1 0.418094 0.179796 0.571024
O O2 0.570150 0.196360 0.831564
O O3 0.472292 0.295067 0.708913
O O4 0.585181 0.221612 0.137522
O O5 0.764614 0.290835 0.276355
O O6 0.831383 0.391171 0.532624
O O7 0.768904 0.391545 0.106718
O O8 0.130909 0.903316 0.551894
O O9 0.246236 0.000000 0.910052
O O10 0.315601 0.898963 0.976031
O O11 0.750000 0.250000 0.500000
O O12 0.841356 0.186643 0.541387
O O13 0.000000 0.394486 0.500000
O O14 0.915178 0.406624 0.014370
O O15 0.500000 0.369713 0.000000
O O16 0.362243 0.000000 0.724110
O O17 0.500000 0.931554 0.000000
#
# Coordination Sequence:
#
# PCOD9187954 Si02
#       7
#     8   8   8   8   8   8   8
#     4  10  19  38  60  86 129 158 201 259 325 384
#     4  11  20  38  57  85 124 165 202 250 319 389
#     4  12  26  42  60  92 131 173 220 258 308 385
#     4  10  19  35  63  93 124 156 210 272 320 377
#     4  12  22  37  57  93 133 164 204 260 318 378
#     4   9  22  41  65  88 116 162 215 270 325 369
#     4  11  20  32  53  78 116 171 209 236 301 382
#
# _framework density 19.631526000000001
#
# number of rings (size 3 to 8) (size 9 to 14) (size 15 to 20)
#    0.000    1.286    4.286    3.000    0.000    4.857 
#    2.571    0.000    0.000    0.000    0.000    4.000 
#    0.000    0.000    0.000    0.000    0.000    0.000 
#
# Total GULP energy -156072.363567 kJ/mol
# GULP energy per Si atom -5574.012985 kJ/mol
# Density = 1.958684 g / cm^3
# Si number density = 19.631526 Si / 1000 Ang^3
#
#
#
# Elastic Constant Matrix: (Units=GPa)
#
#
# Indices 1 2 3 4 5 6 
#
# 1 93.9026 39.1024 29.6219 0.0000 -12.6120 0.0000
# 2 39.1024 79.5737 70.4028 0.0000 1.4703 0.0000
# 3 29.6219 70.4028 115.1563 0.0000 -18.6820 0.0000
# 4 0.0000 0.0000 0.0000 27.8548 0.0000 -4.8462
# 5 -12.6120 1.4703 -18.6820 0.0000 27.9208 0.0000
# 6 0.0000 0.0000 0.0000 -4.8462 0.0000 18.5768
#
#
#
# Elastic Compliance Matrix: (Units=1/GPa)
#
#
# Indices 1 2 3 4 5 6 
#
# 1 0.015914 -0.013345 0.005996 0.000000 0.011903 0.000000
# 2 -0.013345 0.044687 -0.028321 0.000000 -0.027331 0.000000
# 3 0.005996 -0.028321 0.028199 0.000000 0.023068 0.000000
# 4 0.000000 0.000000 0.000000 0.037607 0.000000 0.009811
# 5 0.011903 -0.027331 0.023068 0.000000 0.058066 0.000000
# 6 0.000000 0.000000 0.000000 0.009811 0.000000 0.056390
#
#
# Mechanical properties :
#
#
# Convention : Reuss Voigt Hill
#
# Bulk Modulus (GPa) = 57.27770 62.98742 60.13256
# Shear Modulus (GPa) = 15.72212 24.83750 20.27981
#
# Velocity S-wave (km/s) = 2.83302 3.56080 3.21755
# Velocity P-wave (km/s) = 6.31989 7.00430 6.67088
#
# Compressibility (1/GPa) = 0.01745880
#
# Stress axis : x y z
#
# Youngs Moduli (GPa) = 62.83943 22.37778 35.46284
#
# Poissons Ratio (x) = 0.29863 -0.21265
# Poissons Ratio (y) = 0.83860 1.00436
# Poissons Ratio (z) = -0.37681 0.63377
#
# Static dielectric constant tensor:
#      x y z
#    x 1.727930 0.000000 0.029110 
#    y 0.000000 1.755710 0.000000 
#    z 0.029110 0.000000 1.722500 
# 
# From -- ./inp_files/113389.got.cif
#   From: 2010.05.17/outbox.cif.g08.bks.cpg/sg12_57_cif.got.tgz:113389.got - 2010.06.03 13:09:07.
