data_PCOD9187072
_publ_section_title
;
Structure prediction by ZEFSAII (Michael W. Deem and Ramdas Pophale) SiO2 
 PCOD9187072
Probable space group: C 2/M
;
_chemical_formula_sum "Si O2"
_cell_formula_units_Z 64
_cell_length_a 22.411630
_cell_length_b 8.278467
_cell_length_c 22.633194
_cell_angle_alpha 90.000000
_cell_angle_beta 131.757815
_cell_angle_gamma 90.000000
_cell_volume 3132.481839
_symmetry_space_group_name_H-M "C 2/M"
_symmetry_group_IT_number 12
_symmetry_cell_setting 'monoclinic'
loop_
_space_group_symop_operation_xyz
x,y,z
-x,y,-z
-x,-y,-z
x,-y,z
1/2+x,1/2+y,z
1/2-x,1/2+y,-z
1/2-x,1/2-y,-z
1/2+x,1/2-y,z
loop_
_atom_site_type_symbol
_atom_site_label
_atom_site_fract_x
_atom_site_fract_y
_atom_site_fract_z
Si Si1 0.472227 0.685117 0.669873
Si Si2 0.090333 0.698205 0.044656
Si Si3 0.742924 0.806840 0.665512
Si Si4 0.679737 0.194043 0.498205
Si Si5 0.139196 0.689885 0.818722
Si Si6 0.747959 0.810355 0.206746
Si Si7 0.078930 0.187725 0.228598
Si Si8 0.408555 0.809258 0.084960
O O1 0.495033 0.500000 0.672226
O O2 0.405872 0.744808 0.580618
O O3 0.552657 0.787156 0.730867
O O4 0.430872 0.688889 0.707050
O O5 0.090577 0.500000 0.044675
O O6 0.158020 0.753005 0.134982
O O7 0.114513 0.754261 0.994626
O O8 0.000000 0.748971 0.000000
O O9 0.698936 0.748310 0.577572
O O10 0.710386 0.767679 0.708782
O O11 0.833946 0.742831 0.726592
O O12 0.748602 0.000000 0.663180
O O13 0.750000 0.250000 0.500000
O O14 0.679391 0.000000 0.497222
O O15 0.158146 0.500000 0.833576
O O16 0.203017 0.778617 0.820446
O O17 0.130131 0.756397 0.879973
O O18 0.743492 0.000000 0.214840
O O19 0.003968 0.282721 0.153217
O O20 0.073259 0.000000 0.205649
O O21 0.392459 0.000000 0.074698
#
# Coordination Sequence:
#
# PCOD9187072 Si02
#       8
#     8   8   8   8   8   8   8   8
#     4  10  19  35  57  84 116 148 185 234 281 334
#     4   9  18  34  56  84 118 146 180 233 287 336
#     4  10  21  37  54  78 115 152 184 228 286 339
#     4  11  21  35  56  86 120 152 186 230 285 340
#     4  10  21  38  58  81 111 151 195 238 282 334
#     4  11  23  38  58  82 108 149 195 237 284 338
#     4   9  17  31  51  79 114 147 178 223 282 334
#     4   9  18  33  55  82 109 147 193 232 274 332
#
# _framework density 20.431083999999998
#
# number of rings (size 3 to 8) (size 9 to 14) (size 15 to 20)
#    0.000    2.125    1.250    2.250    0.000    4.000 
#    0.000    1.875    0.000    7.125    0.000    0.000 
#    0.000    0.000    0.000    0.000    0.000    0.000 
#
# Total GULP energy -178592.913417 kJ/mol
# GULP energy per Si atom -5581.028544 kJ/mol
# Density = 2.038458 g / cm^3
# Si number density = 20.431084 Si / 1000 Ang^3
#
#
#
# Elastic Constant Matrix: (Units=GPa)
#
#
# Indices 1 2 3 4 5 6 
#
# 1 47.8447 -6.2860 22.1973 0.0000 -8.8091 0.0000
# 2 -6.2860 18.6599 2.8454 0.0000 -6.4020 0.0000
# 3 22.1973 2.8454 129.3559 0.0000 -25.7692 0.0000
# 4 0.0000 0.0000 0.0000 13.3629 0.0000 1.4034
# 5 -8.8091 -6.4020 -25.7692 0.0000 21.5094 0.0000
# 6 0.0000 0.0000 0.0000 1.4034 0.0000 24.8299
#
#
#
# Elastic Compliance Matrix: (Units=1/GPa)
#
#
# Indices 1 2 3 4 5 6 
#
# 1 0.025872 0.013059 -0.002419 0.000000 0.011584 0.000000
# 2 0.013059 0.067131 0.001745 0.000000 0.027419 0.000000
# 3 -0.002419 0.001745 0.010525 0.000000 0.012139 0.000000
# 4 0.000000 0.000000 0.000000 0.075281 0.000000 -0.004255
# 5 0.011584 0.027419 0.012139 0.000000 0.073939 0.000000
# 6 0.000000 0.000000 0.000000 -0.004255 0.000000 0.040515
#
#
# Mechanical properties :
#
#
# Convention : Reuss Voigt Hill
#
# Bulk Modulus (GPa) = 7.79438 25.93042 16.86240
# Shear Modulus (GPa) = 16.06373 23.74735 19.90554
#
# Velocity S-wave (km/s) = 2.80704 3.41297 3.12473
# Velocity P-wave (km/s) = 3.78539 5.31511 4.61409
#
# Compressibility (1/GPa) = 0.12829752
#
# Stress axis : x y z
#
# Youngs Moduli (GPa) = 38.65196 14.89620 95.00746
#
# Poissons Ratio (x) = -0.19453 0.22983
# Poissons Ratio (y) = -0.50475 -0.16576
# Poissons Ratio (z) = 0.09350 -0.02599
#
# Static dielectric constant tensor:
#      x y z
#    x 1.740490 0.000000 -0.018220 
#    y 0.000000 1.711810 0.000000 
#    z -0.018220 0.000000 1.737520 
# 
# From -- ./inp_files/324334.got.cif
#   From: 2010.05.17/outbox.cif.g08.bks.cpg/sg12_163_cif.got.tgz:324334.got - 2010.06.03 13:09:07.
