data_PCOD9187353
_publ_section_title
;
Structure prediction by ZEFSAII (Michael W. Deem and Ramdas Pophale) SiO2 
 PCOD9187353
Probable space group: C 2/M
;
_chemical_formula_sum "Si O2"
_cell_formula_units_Z 56
_cell_length_a 20.593195
_cell_length_b 7.522095
_cell_length_c 18.879303
_cell_angle_alpha 90.000000
_cell_angle_beta 118.870208
_cell_angle_gamma 90.000000
_cell_volume 2561.012149
_symmetry_space_group_name_H-M "C 2/M"
_symmetry_group_IT_number 12
_symmetry_cell_setting 'monoclinic'
loop_
_space_group_symop_operation_xyz
x,y,z
-x,y,-z
-x,-y,-z
x,-y,z
1/2+x,1/2+y,z
1/2-x,1/2+y,-z
1/2-x,1/2-y,-z
1/2+x,1/2-y,z
loop_
_atom_site_type_symbol
_atom_site_label
_atom_site_fract_x
_atom_site_fract_y
_atom_site_fract_z
Si Si1 0.510111 0.291177 0.792114
Si Si2 0.847040 0.216255 0.736378
Si Si3 0.922056 0.206454 0.433878
Si Si4 0.133057 0.781128 0.747121
Si Si5 0.063281 0.715576 0.977695
Si Si6 0.703503 0.792294 0.132870
Si Si7 0.720299 0.210922 0.562257
O O1 0.502987 0.500000 0.772286
O O2 0.426448 0.219380 0.749692
O O3 0.567896 0.220859 0.765134
O O4 0.542707 0.271214 0.887967
O O5 0.833592 0.277610 0.809225
O O6 0.779916 0.277081 0.651239
O O7 0.847588 0.000000 0.737444
O O8 0.885828 0.279031 0.342579
O O9 0.860456 0.214939 0.462407
O O10 0.000000 0.286520 0.500000
O O11 0.937414 0.000000 0.425296
O O12 0.213677 0.717835 0.815826
O O13 0.136350 0.000000 0.748935
O O14 0.063795 0.500000 0.979830
O O15 0.143606 0.781689 0.046135
O O16 0.000000 0.774302 0.000000
O O17 0.712075 0.000000 0.119558
O O18 0.750000 0.250000 0.500000
O O19 0.714894 0.000000 0.567648
#
# Coordination Sequence:
#
# PCOD9187353 Si02
#       7
#     8   8   8   8   8   8   8
#     4  10  21  36  56  82 112 146 188 234 281 335
#     4  10  21  36  57  83 112 145 187 237 279 328
#     4  10  21  38  64  89 115 154 194 233 288 352
#     4   9  19  36  57  82 111 147 187 228 278 339
#     4  10  20  34  53  81 114 146 185 233 283 336
#     4  10  19  35  59  80 108 149 190 228 277 342
#     4  11  24  40  60  88 121 152 192 242 290 343
#
# _framework density 21.866354999999999
#
# number of rings (size 3 to 8) (size 9 to 14) (size 15 to 20)
#    0.000    2.000    2.857    0.429    2.000    2.286 
#    0.000    1.429    0.000    0.000    0.000    0.000 
#    0.000    0.000    0.000    0.000    0.000    0.000 
#
# Total GULP energy -156444.165435 kJ/mol
# GULP energy per Si atom -5587.291623 kJ/mol
# Density = 2.181659 g / cm^3
# Si number density = 21.866355 Si / 1000 Ang^3
#
#
#
# Elastic Constant Matrix: (Units=GPa)
#
#
# Indices 1 2 3 4 5 6 
#
# 1 156.3401 -10.2116 38.6907 0.0000 23.9113 0.0000
# 2 -10.2116 55.9782 -8.8542 0.0000 9.9206 0.0000
# 3 38.6907 -8.8542 68.6744 0.0000 24.4427 0.0000
# 4 0.0000 0.0000 0.0000 9.9854 0.0000 -5.7709
# 5 23.9113 9.9206 24.4427 0.0000 48.4144 0.0000
# 6 0.0000 0.0000 0.0000 -5.7709 0.0000 9.0163
#
#
#
# Elastic Compliance Matrix: (Units=1/GPa)
#
#
# Indices 1 2 3 4 5 6 
#
# 1 0.007663 0.001298 -0.003301 0.000000 -0.002384 0.000000
# 2 0.001298 0.020009 0.004310 0.000000 -0.006917 0.000000
# 3 -0.003301 0.004310 0.020372 0.000000 -0.009538 0.000000
# 4 0.000000 0.000000 0.000000 0.158939 0.000000 0.101730
# 5 -0.002384 -0.006917 -0.009538 0.000000 0.028065 0.000000
# 6 0.000000 0.000000 0.000000 0.101730 0.000000 0.176022
#
#
# Mechanical properties :
#
#
# Convention : Reuss Voigt Hill
#
# Bulk Modulus (GPa) = 18.99067 35.58251 27.28659
# Shear Modulus (GPa) = 11.79223 30.90775 21.34999
#
# Velocity S-wave (km/s) = 2.32477 3.76371 3.12811
# Velocity P-wave (km/s) = 3.98871 5.93257 5.05496
#
# Compressibility (1/GPa) = 0.05265744
#
# Stress axis : x y z
#
# Youngs Moduli (GPa) = 130.50252 49.97861 49.08741
#
# Poissons Ratio (x) = -0.06488 0.16205
# Poissons Ratio (y) = -0.16941 -0.21158
# Poissons Ratio (z) = 0.43083 -0.21542
#
# Static dielectric constant tensor:
#      x y z
#    x 1.786170 0.000000 0.029910 
#    y 0.000000 1.837550 0.000000 
#    z 0.029910 0.000000 1.769090 
# 
# From -- ./inp_files/275648.got.cif
#   From: 2010.05.17/outbox.cif.g08.bks.cpg/sg12_138_cif.got.tgz:275648.got - 2010.06.03 13:09:07.
