data_PCOD9187158
_publ_section_title
;
Structure prediction by ZEFSAII (Michael W. Deem and Ramdas Pophale) SiO2 
 PCOD9187158
Probable space group: C 2/M
;
_chemical_formula_sum "Si O2"
_cell_formula_units_Z 40
_cell_length_a 13.365788
_cell_length_b 10.773045
_cell_length_c 23.820274
_cell_angle_alpha 90.000000
_cell_angle_beta 32.313337
_cell_angle_gamma 90.000000
_cell_volume 1833.442904
_symmetry_space_group_name_H-M "C 2/M"
_symmetry_group_IT_number 12
_symmetry_cell_setting 'monoclinic'
loop_
_space_group_symop_operation_xyz
x,y,z
-x,y,-z
-x,-y,-z
x,-y,z
1/2+x,1/2+y,z
1/2-x,1/2+y,-z
1/2-x,1/2-y,-z
1/2+x,1/2-y,z
loop_
_atom_site_type_symbol
_atom_site_label
_atom_site_fract_x
_atom_site_fract_y
_atom_site_fract_z
Si Si1 0.821863 0.140833 0.543463
Si Si2 0.605490 0.637892 0.067433
Si Si3 0.062326 0.280341 0.757362
Si Si4 0.617787 0.639770 0.312384
Si Si5 0.743310 0.138968 0.173834
O O1 0.678379 0.229737 0.643983
O O2 0.000000 0.133891 0.500000
O O3 0.924877 0.171104 0.436401
O O4 0.742308 0.000000 0.577537
O O5 0.687814 0.500000 0.030061
O O6 0.484404 0.661542 0.182116
O O7 0.465385 0.646927 0.080612
O O8 0.750000 0.750000 0.000000
O O9 0.866121 0.344255 0.832914
O O10 0.205828 0.358222 0.727941
O O11 0.602583 0.500000 0.296702
O O12 0.666860 0.746737 0.246087
O O13 0.696182 0.000000 0.216719
#
# Coordination Sequence:
#
# PCOD9187158 Si02
#       5
#     8   8   8   8   8
#     4   8  14  27  50  80 111 146 186 220 255 308
#     4  10  24  43  60  81 109 139 178 230 284 336
#     4  10  19  35  58  81 109 146 183 222 267 320
#     4   9  18  33  54  82 115 151 189 222 255 310
#     4  10  21  36  56  84 113 143 181 225 275 326
#
# _framework density 21.816877999999999
#
# number of rings (size 3 to 8) (size 9 to 14) (size 15 to 20)
#    0.000    2.600    0.000    3.000    0.000    7.200 
#    0.000    4.000    0.000    6.000    0.000    0.000 
#    0.000    0.000    0.000    0.000    0.000    0.000 
#
# Total GULP energy -111345.072376 kJ/mol
# GULP energy per Si atom -5567.253619 kJ/mol
# Density = 2.176722 g / cm^3
# Si number density = 21.816878 Si / 1000 Ang^3
#
#
#
# Elastic Constant Matrix: (Units=GPa)
#
#
# Indices 1 2 3 4 5 6 
#
# 1 95.6793 45.6489 31.9118 0.0000 -27.1087 0.0000
# 2 45.6489 138.6256 53.2332 -0.0001 5.2962 0.0000
# 3 31.9118 53.2332 85.7700 -0.0003 -9.8404 0.0000
# 4 0.0000 -0.0001 -0.0003 20.4651 0.0000 -1.7047
# 5 -27.1087 5.2962 -9.8404 0.0000 43.2376 0.0000
# 6 0.0000 0.0000 0.0000 -1.7047 0.0000 8.9810
#
#
#
# Elastic Compliance Matrix: (Units=1/GPa)
#
#
# Indices 1 2 3 4 5 6 
#
# 1 0.016491 -0.005180 -0.001707 0.000000 0.010586 0.000000
# 2 -0.005180 0.011383 -0.005822 0.000000 -0.005967 0.000000
# 3 -0.001707 -0.005822 0.016292 0.000000 0.003351 0.000000
# 4 0.000000 0.000000 0.000000 0.049649 0.000000 0.009424
# 5 0.010586 -0.005967 0.003351 0.000000 0.031258 0.000000
# 6 0.000000 0.000000 0.000000 0.009424 0.000000 0.113135
#
#
# Mechanical properties :
#
#
# Convention : Reuss Voigt Hill
#
# Bulk Modulus (GPa) = 53.33503 64.62920 58.98211
# Shear Modulus (GPa) = 18.52705 27.15545 22.84125
#
# Velocity S-wave (km/s) = 2.91728 3.53186 3.23918
# Velocity P-wave (km/s) = 5.98724 6.80587 6.40964
#
# Compressibility (1/GPa) = 0.01874940
#
# Stress axis : x y z
#
# Youngs Moduli (GPa) = 60.63859 87.84972 61.37913
#
# Poissons Ratio (x) = 0.45502 0.10475
# Poissons Ratio (y) = 0.31408 0.35737
# Poissons Ratio (z) = 0.10348 0.51149
#
# Static dielectric constant tensor:
#      x y z
#    x 1.846640 0.000000 0.016000 
#    y 0.000000 1.738610 0.000000 
#    z 0.016000 0.000000 1.893360 
# 
# From -- ./inp_files/360513.got.cif
#   From: 2010.05.17/outbox.cif.g08.bks.cpg/sg12_181_cif.got.tgz:360513.got - 2010.06.03 13:09:07.
