data_PCOD9187765
_publ_section_title
;
Structure prediction by ZEFSAII (Michael W. Deem and Ramdas Pophale) SiO2 
 PCOD9187765
Probable space group: C 2/M
;
_chemical_formula_sum "Si O2"
_cell_formula_units_Z 64
_cell_length_a 29.775869
_cell_length_b 8.891676
_cell_length_c 17.731730
_cell_angle_alpha 90.000000
_cell_angle_beta 134.091493
_cell_angle_gamma 90.000000
_cell_volume 3371.805331
_symmetry_space_group_name_H-M "C 2/M"
_symmetry_group_IT_number 12
_symmetry_cell_setting 'monoclinic'
loop_
_space_group_symop_operation_xyz
x,y,z
-x,y,-z
-x,-y,-z
x,-y,z
1/2+x,1/2+y,z
1/2-x,1/2+y,-z
1/2-x,1/2-y,-z
1/2+x,1/2-y,z
loop_
_atom_site_type_symbol
_atom_site_label
_atom_site_fract_x
_atom_site_fract_y
_atom_site_fract_z
Si Si1 0.809369 0.322151 0.029455
Si Si2 0.859435 0.319623 0.500258
Si Si3 0.968222 0.181077 0.540717
Si Si4 0.214282 0.818890 0.310685
Si Si5 0.067071 0.826276 0.782402
Si Si6 0.110160 0.319104 0.293422
Si Si7 0.518445 0.674404 0.897359
Si Si8 0.853087 0.318790 0.912209
O O1 0.802153 0.500000 0.021386
O O2 0.822757 0.276492 0.958008
O O3 0.750000 0.250000 0.000000
O O4 0.871374 0.273306 0.146324
O O5 0.863268 0.500000 0.500482
O O6 0.901680 0.249613 0.484187
O O7 0.786763 0.277533 0.407638
O O8 0.886299 0.275056 0.614001
O O9 0.000000 0.229320 0.500000
O O10 0.015621 0.223664 0.662854
O O11 0.962467 0.000000 0.532955
O O12 0.171079 0.748000 0.324784
O O13 0.187256 0.753953 0.201140
O O14 0.209126 0.000000 0.305577
O O15 0.038579 0.821410 0.832823
O O16 0.083887 0.000000 0.785697
O O17 0.109941 0.500000 0.288415
O O18 0.048635 0.254572 0.180263
O O19 0.513743 0.500000 0.915389
O O20 0.575683 0.756702 0.006152
O O21 0.854174 0.500000 0.907478
#
# Coordination Sequence:
#
# PCOD9187765 Si02
#       8
#     8   8   8   8   8   8   8   8
#     4  10  21  36  58  84 112 150 194 240 291 350
#     4  10  23  41  61  86 120 158 200 248 296 351
#     4  10  21  37  59  88 119 154 196 242 295 352
#     4  11  24  41  60  87 122 159 199 245 298 357
#     4   9  18  34  55  81 113 148 189 238 289 345
#     4  11  22  38  62  90 118 155 201 246 296 356
#     4  10  19  35  61  88 115 152 193 242 295 348
#     4  10  22  40  59  85 119 155 196 245 299 353
#
# _framework density 18.980930000000001
#
# number of rings (size 3 to 8) (size 9 to 14) (size 15 to 20)
#    0.000    1.875    1.250    2.250    0.000    5.750 
#    0.000    6.250    0.000    0.000    0.000    0.000 
#    0.000    0.000    0.000    0.000    0.000    0.000 
#
# Total GULP energy -178739.398649 kJ/mol
# GULP energy per Si atom -5585.606208 kJ/mol
# Density = 1.893773 g / cm^3
# Si number density = 18.980930 Si / 1000 Ang^3
#
#
#
# Elastic Constant Matrix: (Units=GPa)
#
#
# Indices 1 2 3 4 5 6 
#
# 1 124.6889 41.0046 43.7919 0.0000 25.5205 0.0000
# 2 41.0046 50.2426 29.8165 0.0000 10.1311 0.0000
# 3 43.7919 29.8165 81.2699 0.0000 13.5332 0.0000
# 4 0.0000 0.0000 0.0000 29.3203 0.0000 6.9947
# 5 25.5205 10.1311 13.5332 0.0000 28.5992 0.0000
# 6 0.0000 0.0000 0.0000 6.9947 0.0000 33.7730
#
#
#
# Elastic Compliance Matrix: (Units=1/GPa)
#
#
# Indices 1 2 3 4 5 6 
#
# 1 0.013062 -0.007288 -0.003098 0.000000 -0.007608 0.000000
# 2 -0.007288 0.030182 -0.007001 0.000000 -0.000876 0.000000
# 3 -0.003098 -0.007001 0.017009 0.000000 -0.002805 0.000000
# 4 0.000000 0.000000 0.000000 0.035879 0.000000 -0.007431
# 5 -0.007608 -0.000876 -0.002805 0.000000 0.043393 0.000000
# 6 0.000000 0.000000 0.000000 -0.007431 0.000000 0.031148
#
#
# Mechanical properties :
#
#
# Convention : Reuss Voigt Hill
#
# Bulk Modulus (GPa) = 39.24397 53.93638 46.59018
# Shear Modulus (GPa) = 23.37123 27.77772 25.57447
#
# Velocity S-wave (km/s) = 3.51280 3.82966 3.67465
# Velocity P-wave (km/s) = 6.09699 6.93057 6.52710
#
# Compressibility (1/GPa) = 0.02548162
#
# Stress axis : x y z
#
# Youngs Moduli (GPa) = 76.56020 33.13213 58.79167
#
# Poissons Ratio (x) = 0.24145 0.18211
# Poissons Ratio (y) = 0.55794 0.41157
# Poissons Ratio (z) = 0.23715 0.23194
#
# Static dielectric constant tensor:
#      x y z
#    x 1.654980 0.000000 -0.015610 
#    y 0.000000 1.647770 0.000000 
#    z -0.015610 0.000000 1.646760 
# 
# From -- ./inp_files/295751.got.cif
#   From: 2010.05.17/outbox.cif.g08.bks.cpg/sg12_148_cif.got.tgz:295751.got - 2010.06.03 13:09:07.
