data_PCOD9187083
_publ_section_title
;
Structure prediction by ZEFSAII (Michael W. Deem and Ramdas Pophale) SiO2 
 PCOD9187083
Probable space group: C 2/M
;
_chemical_formula_sum "Si O2"
_cell_formula_units_Z 64
_cell_length_a 15.222978
_cell_length_b 14.905910
_cell_length_c 17.347420
_cell_angle_alpha 90.000000
_cell_angle_beta 117.976645
_cell_angle_gamma 90.000000
_cell_volume 3476.338160
_symmetry_space_group_name_H-M "C 2/M"
_symmetry_group_IT_number 12
_symmetry_cell_setting 'monoclinic'
loop_
_space_group_symop_operation_xyz
x,y,z
-x,y,-z
-x,-y,-z
x,-y,z
1/2+x,1/2+y,z
1/2-x,1/2+y,-z
1/2-x,1/2-y,-z
1/2+x,1/2-y,z
loop_
_atom_site_type_symbol
_atom_site_label
_atom_site_fract_x
_atom_site_fract_y
_atom_site_fract_z
Si Si1 0.718767 0.103690 0.008562
Si Si2 0.155352 0.606695 0.435052
Si Si3 0.266109 0.230365 0.842321
Si Si4 0.582403 0.832599 0.812614
Si Si5 0.881650 0.104663 0.952520
Si Si6 0.142681 0.719080 0.278275
Si Si7 0.063343 0.601275 0.637974
Si Si8 0.762310 0.893992 0.636550
O O1 0.701627 0.166828 0.074265
O O2 0.711539 0.000000 0.027279
O O3 0.640106 0.125724 0.908612
O O4 0.826876 0.118755 0.012592
O O5 0.144790 0.500000 0.413556
O O6 0.175353 0.662100 0.366342
O O7 0.235691 0.615372 0.535452
O O8 0.046705 0.639364 0.421346
O O9 0.150892 0.251619 0.809910
O O10 0.325418 0.324796 0.875192
O O11 0.292248 0.194740 0.769352
O O12 0.471571 0.803618 0.786707
O O13 0.576322 0.896670 0.735592
O O14 0.863474 0.000000 0.924064
O O15 0.000000 0.119826 0.000000
O O16 0.154535 0.824036 0.303811
O O17 0.060576 0.500000 0.606712
O O18 0.162532 0.638684 0.640422
O O19 0.780601 0.000000 0.660817
#
# Coordination Sequence:
#
# PCOD9187083 Si02
#       8
#     8   8   8   8   8   8   8   8
#     4  10  22  39  57  79 110 152 190 229 273 323
#     4   9  19  35  57  82 113 147 183 223 273 334
#     4  11  23  36  56  80 115 148 187 229 275 326
#     4  10  20  37  54  78 115 145 185 229 276 322
#     4   9  19  35  59  83 105 139 185 232 280 325
#     4  11  23  35  57  84 112 150 184 226 279 325
#     4   9  16  30  55  85 111 138 174 227 286 329
#     4  10  19  35  57  85 114 141 179 229 280 335
#
# _framework density 18.410177000000001
#
# number of rings (size 3 to 8) (size 9 to 14) (size 15 to 20)
#    0.000    2.125    1.250    2.625    3.500    3.500 
#    0.000    1.250    0.000    0.000    0.000    1.750 
#    0.000    0.000    0.000    0.000    0.000    0.000 
#
# Total GULP energy -178439.372697 kJ/mol
# GULP energy per Si atom -5576.230397 kJ/mol
# Density = 1.836827 g / cm^3
# Si number density = 18.410177 Si / 1000 Ang^3
#
#
#
# Elastic Constant Matrix: (Units=GPa)
#
#
# Indices 1 2 3 4 5 6 
#
# 1 46.6114 30.2595 21.2439 0.0000 -7.8753 0.0000
# 2 30.2595 61.1895 27.5771 0.0000 -6.1242 0.0000
# 3 21.2439 27.5771 53.8644 0.0000 -4.6138 0.0000
# 4 0.0000 0.0000 0.0000 13.8496 0.0000 -0.5287
# 5 -7.8753 -6.1242 -4.6138 0.0000 19.6772 0.0000
# 6 0.0000 0.0000 0.0000 -0.5287 0.0000 20.3202
#
#
#
# Elastic Compliance Matrix: (Units=1/GPa)
#
#
# Indices 1 2 3 4 5 6 
#
# 1 0.034269 -0.013461 -0.005927 0.000000 0.008136 0.000000
# 2 -0.013461 0.026869 -0.008360 0.000000 0.001015 0.000000
# 3 -0.005927 -0.008360 0.025264 0.000000 0.000950 0.000000
# 4 0.000000 0.000000 0.000000 0.072276 0.000000 0.001881
# 5 0.008136 0.001015 0.000950 0.000000 0.054615 0.000000
# 6 0.000000 0.000000 0.000000 0.001881 0.000000 0.049261
#
#
# Mechanical properties :
#
#
# Convention : Reuss Voigt Hill
#
# Bulk Modulus (GPa) = 32.35679 35.53626 33.94653
# Shear Modulus (GPa) = 15.22757 16.27505 15.75131
#
# Velocity S-wave (km/s) = 2.87910 2.97648 2.92820
# Velocity P-wave (km/s) = 5.35406 5.58185 5.46914
#
# Compressibility (1/GPa) = 0.03090542
#
# Stress axis : x y z
#
# Youngs Moduli (GPa) = 29.18123 37.21774 39.58175
#
# Poissons Ratio (x) = 0.50099 0.23459
# Poissons Ratio (y) = 0.39281 0.33091
# Poissons Ratio (z) = 0.17295 0.31115
#
# Static dielectric constant tensor:
#      x y z
#    x 1.648350 0.000000 0.002030 
#    y 0.000000 1.644030 0.000000 
#    z 0.002030 0.000000 1.646880 
# 
# From -- ./inp_files/270327.got.cif
#   From: 2010.05.17/outbox.cif.g08.bks.cpg/sg12_136_cif.got.tgz:270327.got - 2010.06.03 13:09:07.
