data_PCOD9187287
_publ_section_title
;
Structure prediction by ZEFSAII (Michael W. Deem and Ramdas Pophale) SiO2 
 PCOD9187287
Probable space group: C 2/M
;
_chemical_formula_sum "Si O2"
_cell_formula_units_Z 50
_cell_length_a 24.365471
_cell_length_b 12.906332
_cell_length_c 10.597596
_cell_angle_alpha 90.000000
_cell_angle_beta 36.406779
_cell_angle_gamma 90.000000
_cell_volume 1977.953394
_symmetry_space_group_name_H-M "C 2/M"
_symmetry_group_IT_number 12
_symmetry_cell_setting 'monoclinic'
loop_
_space_group_symop_operation_xyz
x,y,z
-x,y,-z
-x,-y,-z
x,-y,z
1/2+x,1/2+y,z
1/2-x,1/2+y,-z
1/2-x,1/2-y,-z
1/2+x,1/2-y,z
loop_
_atom_site_type_symbol
_atom_site_label
_atom_site_fract_x
_atom_site_fract_y
_atom_site_fract_z
Si Si1 0.301881 0.382555 0.130839
Si Si2 0.800146 0.124923 0.415323
Si Si3 0.107176 0.664484 0.405840
Si Si4 0.500000 0.000000 0.500000
Si Si5 0.124857 0.118197 0.456499
Si Si6 0.097390 0.377782 0.869434
Si Si7 0.333314 0.164855 0.985107
O O1 0.322487 0.500000 0.054147
O O2 0.338191 0.361085 0.204200
O O3 0.190519 0.366674 0.343645
O O4 0.334336 0.290359 0.981743
O O5 0.865386 0.147222 0.413698
O O6 0.694453 0.165010 0.631895
O O7 0.789527 0.000000 0.445002
O O8 0.078518 0.783113 0.475828
O O9 0.022163 0.589181 0.565572
O O10 0.148405 0.632779 0.191801
O O11 0.230172 0.125019 0.209839
O O12 0.090354 0.000000 0.504737
O O13 0.095891 0.500000 0.841243
O O14 0.109554 0.366570 0.997230
O O15 0.000000 0.333604 0.000000
#
# Coordination Sequence:
#
# PCOD9187287 Si02
#       7
#     8   8   8   2   8   8   8
#     4  10  19  35  58  86 115 151 197 253 304 349
#     4   8  16  31  54  86 117 144 194 249 297 348
#     4  11  24  38  55  83 117 164 195 239 304 351
#     4  12  28  44  54  80 130 160 202 240 278 368
#     4   9  18  35  61  89 115 150 196 254 299 342
#     4   9  18  32  50  76 110 155 193 230 291 358
#     4  10  21  33  55  85 114 150 197 249 298 343
#
# _framework density 25.278654
#
# number of rings (size 3 to 8) (size 9 to 14) (size 15 to 20)
#    0.000    2.400    0.800    3.360    2.240    8.960 
#    2.880    0.400    0.000    0.480    0.000    0.000 
#    0.000    0.000    0.000    0.000    0.000    0.000 
#
# Total GULP energy -139404.208296 kJ/mol
# GULP energy per Si atom -5576.168332 kJ/mol
# Density = 2.522112 g / cm^3
# Si number density = 25.278654 Si / 1000 Ang^3
#
#
#
# Elastic Constant Matrix: (Units=GPa)
#
#
# Indices 1 2 3 4 5 6 
#
# 1 84.6431 8.4070 16.2282 0.0000 3.5452 0.0000
# 2 8.4070 107.7741 -5.2653 0.0000 -11.5899 0.0000
# 3 16.2282 -5.2653 48.0001 0.0000 17.6236 0.0000
# 4 0.0000 0.0000 0.0000 -22.7275 0.0000 7.0678
# 5 3.5452 -11.5899 17.6236 0.0000 29.2611 0.0000
# 6 0.0000 0.0000 0.0000 7.0678 0.0000 43.0322
#
#
#
# Elastic Compliance Matrix: (Units=1/GPa)
#
#
# Indices 1 2 3 4 5 6 
#
# 1 0.012806 -0.001138 -0.004775 0.000000 0.000874 0.000000
# 2 -0.001138 0.009800 -0.000021 0.000000 0.004032 0.000000
# 3 -0.004775 -0.000021 0.028549 0.000000 -0.016624 0.000000
# 4 0.000000 0.000000 0.000000 -0.041861 0.000000 0.006876
# 5 0.000874 0.004032 -0.016624 0.000000 0.045679 0.000000
# 6 0.000000 0.000000 0.000000 0.006876 0.000000 0.022109
#
#
# Mechanical properties :
#
#
# Convention : Reuss Voigt Hill
#
# Bulk Modulus (GPa) = 25.45340 31.01746 28.23543
# Shear Modulus (GPa) = 48.99734 24.64965 36.82350
#
# Velocity S-wave (km/s) = 4.40738 3.12607 3.82082
# Velocity P-wave (km/s) = 5.99925 5.03256 5.53704
#
# Compressibility (1/GPa) = 0.03928748
#
# Stress axis : x y z
#
# Youngs Moduli (GPa) = 78.08638 102.04032 35.02711
#
# Poissons Ratio (x) = 0.11615 0.16726
# Poissons Ratio (y) = 0.08889 0.00072
# Poissons Ratio (z) = 0.37289 0.00209
#
# Static dielectric constant tensor:
#      x y z
#    x 1.990400 0.000000 -0.090270 
#    y 0.000000 2.086560 0.000000 
#    z -0.090270 0.000000 2.065110 
# 
# From -- ./inp_files/183205.got.cif
#   From: 2010.05.17/outbox.cif.g08.bks.cpg/sg12_92_cif.got.tgz:183205.got - 2010.06.03 13:09:07.
