data_PCOD9187510
_publ_section_title
;
Structure prediction by ZEFSAII (Michael W. Deem and Ramdas Pophale) SiO2 
 PCOD9187510
Probable space group: C 2/M
;
_chemical_formula_sum "Si O2"
_cell_formula_units_Z 56
_cell_length_a 29.189606
_cell_length_b 8.601562
_cell_length_c 19.994476
_cell_angle_alpha 90.000000
_cell_angle_beta 143.254710
_cell_angle_gamma 90.000000
_cell_volume 3003.340895
_symmetry_space_group_name_H-M "C 2/M"
_symmetry_group_IT_number 12
_symmetry_cell_setting 'monoclinic'
loop_
_space_group_symop_operation_xyz
x,y,z
-x,y,-z
-x,-y,-z
x,-y,z
1/2+x,1/2+y,z
1/2-x,1/2+y,-z
1/2-x,1/2-y,-z
1/2+x,1/2-y,z
loop_
_atom_site_type_symbol
_atom_site_label
_atom_site_fract_x
_atom_site_fract_y
_atom_site_fract_z
Si Si1 0.049396 0.686860 0.773447
Si Si2 0.744884 0.686520 0.333385
Si Si3 0.228424 0.686293 0.173648
Si Si4 0.377679 0.811753 0.587697
Si Si5 0.902370 0.686742 0.769585
Si Si6 0.933046 0.814470 0.055979
Si Si7 0.695379 0.313566 0.877450
O O1 0.054648 0.500000 0.783439
O O2 0.068726 0.754325 0.869372
O O3 0.110803 0.750467 0.793305
O O4 0.961171 0.730747 0.656572
O O5 0.742042 0.500000 0.331988
O O6 0.765073 0.742662 0.282900
O O7 0.807343 0.743474 0.460659
O O8 0.662275 0.753580 0.256424
O O9 0.228797 0.500000 0.177988
O O10 0.271392 0.733710 0.155681
O O11 0.141267 0.745382 0.066503
O O12 0.377317 0.762697 0.664898
O O13 0.374387 0.000000 0.584389
O O14 0.906874 0.500000 0.776140
O O15 0.986709 0.754875 0.880075
O O16 0.930475 0.000000 0.051761
O O17 0.695558 0.500000 0.881028
O O18 0.750000 0.250000 0.000000
#
# Coordination Sequence:
#
# PCOD9187510 Si02
#       7
#     8   8   8   8   8   8   8
#     4  10  19  35  59  87 117 147 184 233 286 336
#     4  11  22  38  58  83 114 150 194 237 278 333
#     4  11  24  40  56  80 116 154 188 230 288 343
#     4   8  18  36  59  85 114 149 189 233 279 330
#     4  10  20  37  60  85 115 150 188 232 286 337
#     4  11  21  35  57  86 115 146 189 235 282 335
#     4  11  22  36  59  86 114 147 189 234 285 340
#
# _framework density 18.645902
#
# number of rings (size 3 to 8) (size 9 to 14) (size 15 to 20)
#    0.000    1.714    1.429    4.714    0.000    2.286 
#    0.000   11.429    0.000    4.286    0.000    0.000 
#    0.000    0.000    0.000    0.000    0.000    0.000 
#
# Total GULP energy -156438.672980 kJ/mol
# GULP energy per Si atom -5587.095464 kJ/mol
# Density = 1.860346 g / cm^3
# Si number density = 18.645902 Si / 1000 Ang^3
#
#
#
# Elastic Constant Matrix: (Units=GPa)
#
#
# Indices 1 2 3 4 5 6 
#
# 1 97.1145 15.8646 13.6337 0.0000 11.3478 0.0000
# 2 15.8646 50.3015 -0.5964 0.0000 4.2966 0.0000
# 3 13.6337 -0.5964 23.3422 0.0000 7.9670 0.0000
# 4 0.0000 0.0000 0.0000 23.3637 0.0000 1.9355
# 5 11.3478 4.2966 7.9670 0.0000 20.4037 0.0000
# 6 0.0000 0.0000 0.0000 1.9355 0.0000 32.7432
#
#
#
# Elastic Compliance Matrix: (Units=1/GPa)
#
#
# Indices 1 2 3 4 5 6 
#
# 1 0.012146 -0.003586 -0.005928 0.000000 -0.003685 0.000000
# 2 -0.003586 0.021408 0.004038 0.000000 -0.004090 0.000000
# 3 -0.005928 0.004038 0.052579 0.000000 -0.018084 0.000000
# 4 0.000000 0.000000 0.000000 0.043012 0.000000 -0.002543
# 5 -0.003685 -0.004090 -0.018084 0.000000 0.058983 0.000000
# 6 0.000000 0.000000 0.000000 -0.002543 0.000000 0.030691
#
#
# Mechanical properties :
#
#
# Convention : Reuss Voigt Hill
#
# Bulk Modulus (GPa) = 13.30142 25.39576 19.34859
# Shear Modulus (GPa) = 19.62083 24.75922 22.19003
#
# Velocity S-wave (km/s) = 3.24742 3.64794 3.45349
# Velocity P-wave (km/s) = 4.60545 5.60294 5.12850
#
# Compressibility (1/GPa) = 0.07517996
#
# Stress axis : x y z
#
# Youngs Moduli (GPa) = 82.33319 46.71062 19.01916
#
# Poissons Ratio (x) = 0.16751 0.11274
# Poissons Ratio (y) = 0.29526 -0.07679
# Poissons Ratio (z) = 0.48806 -0.18860
#
# Static dielectric constant tensor:
#      x y z
#    x 1.646370 0.000000 -0.004870 
#    y 0.000000 1.627790 0.000000 
#    z -0.004870 0.000000 1.645730 
# 
# From -- ./inp_files/292553.got.cif
#   From: 2010.05.17/outbox.cif.g08.bks.cpg/sg12_147_cif.got.tgz:292553.got - 2010.06.03 13:09:07.
