data_PCOD9187025
_publ_section_title
;
Structure prediction by ZEFSAII (Michael W. Deem and Ramdas Pophale) SiO2 
 PCOD9187025
Probable space group: C 2/M
;
_chemical_formula_sum "Si O2"
_cell_formula_units_Z 56
_cell_length_a 26.649207
_cell_length_b 13.939503
_cell_length_c 7.844061
_cell_angle_alpha 90.000000
_cell_angle_beta 117.679098
_cell_angle_gamma 90.000000
_cell_volume 2580.429964
_symmetry_space_group_name_H-M "C 2/M"
_symmetry_group_IT_number 12
_symmetry_cell_setting 'monoclinic'
loop_
_space_group_symop_operation_xyz
x,y,z
-x,y,-z
-x,-y,-z
x,-y,z
1/2+x,1/2+y,z
1/2-x,1/2+y,-z
1/2-x,1/2-y,-z
1/2+x,1/2-y,z
loop_
_atom_site_type_symbol
_atom_site_label
_atom_site_fract_x
_atom_site_fract_y
_atom_site_fract_z
Si Si1 0.358400 0.890512 0.364065
Si Si2 0.545876 0.670472 0.952288
Si Si3 0.225194 0.390435 0.455514
Si Si4 0.833247 0.793494 0.749185
Si Si5 0.814355 0.217770 0.096959
Si Si6 0.412219 0.608333 0.356412
Si Si7 0.468333 0.790662 0.616901
O O1 0.303862 0.883964 0.402492
O O2 0.350001 0.813880 0.199387
O O3 0.413392 0.856269 0.557781
O O4 0.364349 0.000000 0.317139
O O5 0.400098 0.692475 0.842230
O O6 0.566626 0.621491 0.807933
O O7 0.513896 0.766636 0.833640
O O8 0.500000 0.618959 0.000000
O O9 0.222785 0.500000 0.395562
O O10 0.187392 0.316275 0.290439
O O11 0.289453 0.351226 0.562603
O O12 0.821409 0.825126 0.922025
O O13 0.845859 0.138886 0.262364
O O14 0.750000 0.250000 0.000000
O O15 0.421946 0.500000 0.425174
O O16 0.445110 0.686300 0.519985
O O17 0.500000 0.831581 0.500000
#
# Coordination Sequence:
#
# PCOD9187025 Si02
#       7
#     8   8   8   8   8   8   8
#     4  10  20  35  58  84 110 144 184 228 278 332
#     4  10  20  35  57  81 109 148 188 227 272 323
#     4  10  21  38  58  79 109 146 183 225 282 336
#     4  10  21  37  59  80 113 147 181 234 275 329
#     4  10  19  35  57  83 110 141 182 229 279 328
#     4   9  20  36  55  79 111 149 183 222 273 330
#     4   9  19  36  56  79 113 148 184 222 274 331
#
# _framework density 21.701809999999998
#
# number of rings (size 3 to 8) (size 9 to 14) (size 15 to 20)
#    0.000    2.286    1.429    1.714    0.000    6.571 
#    0.000    0.714    0.000    2.571    0.000    0.000 
#    0.000    0.000    0.000    0.000    0.000    0.000 
#
# Total GULP energy -156050.187440 kJ/mol
# GULP energy per Si atom -5573.220980 kJ/mol
# Density = 2.165242 g / cm^3
# Si number density = 21.701810 Si / 1000 Ang^3
#
#
#
# Elastic Constant Matrix: (Units=GPa)
#
#
# Indices 1 2 3 4 5 6 
#
# 1 100.0912 6.0997 33.7481 0.0000 33.6212 0.0000
# 2 6.0997 78.6506 8.5582 0.0000 24.9583 0.0000
# 3 33.7481 8.5582 44.6149 0.0000 21.2998 0.0000
# 4 0.0000 0.0000 0.0000 7.5055 0.0000 -6.9022
# 5 33.6212 24.9583 21.2998 0.0000 44.4319 0.0000
# 6 0.0000 0.0000 0.0000 -6.9022 0.0000 5.7312
#
#
#
# Elastic Compliance Matrix: (Units=1/GPa)
#
#
# Indices 1 2 3 4 5 6 
#
# 1 0.015694 0.002695 -0.007776 0.000000 -0.009662 0.000000
# 2 0.002695 0.016016 0.000205 0.000000 -0.011134 0.000000
# 3 -0.007776 0.000205 0.033071 0.000000 -0.010085 0.000000
# 4 0.000000 0.000000 0.000000 -1.239236 0.000000 -1.492433
# 5 -0.009662 -0.011134 -0.010085 0.000000 0.040906 0.000000
# 6 0.000000 0.000000 0.000000 -1.492433 0.000000 -1.622881
#
#
# Mechanical properties :
#
#
# Convention : Reuss Voigt Hill
#
# Bulk Modulus (GPa) = 18.17214 35.57432 26.87323
# Shear Modulus (GPa) = -1.83262 23.19711 10.68224
#
# Velocity S-wave (km/s) = -0.91994 3.27295 2.22103
# Velocity P-wave (km/s) = 2.69506 5.54174 4.35742
#
# Compressibility (1/GPa) = 0.05502928
#
# Stress axis : x y z
#
# Youngs Moduli (GPa) = 63.71934 62.43616 30.23783
#
# Poissons Ratio (x) = -0.16826 0.23512
# Poissons Ratio (y) = -0.17172 -0.00619
# Poissons Ratio (z) = 0.49546 -0.01278
#
# Static dielectric constant tensor:
#      x y z
#    x 1.904430 0.000000 0.004740 
#    y 0.000000 1.741710 0.000000 
#    z 0.004740 0.000000 1.840810 
# 
# From -- ./inp_files/104717.got.cif
#   From: 2010.05.17/outbox.cif.g08.bks.cpg/sg12_53_cif.got.tgz:104717.got - 2010.06.03 13:09:07.
