data_PCOD9187346
_publ_section_title
;
Structure prediction by ZEFSAII (Michael W. Deem and Ramdas Pophale) SiO2 
 PCOD9187346
Probable space group: C 2/M
;
_chemical_formula_sum "Si O2"
_cell_formula_units_Z 40
_cell_length_a 12.786484
_cell_length_b 15.060337
_cell_length_c 9.943271
_cell_angle_alpha 90.000000
_cell_angle_beta 115.504095
_cell_angle_gamma 90.000000
_cell_volume 1728.178301
_symmetry_space_group_name_H-M "C 2/M"
_symmetry_group_IT_number 12
_symmetry_cell_setting 'monoclinic'
loop_
_space_group_symop_operation_xyz
x,y,z
-x,y,-z
-x,-y,-z
x,-y,z
1/2+x,1/2+y,z
1/2-x,1/2+y,-z
1/2-x,1/2-y,-z
1/2+x,1/2-y,z
loop_
_atom_site_type_symbol
_atom_site_label
_atom_site_fract_x
_atom_site_fract_y
_atom_site_fract_z
Si Si1 0.418655 0.500000 0.586424
Si Si2 0.031458 0.822229 0.671484
Si Si3 0.845264 0.500000 0.635870
Si Si4 0.136335 0.000000 0.054778
Si Si5 0.524441 0.136260 0.803750
Si Si6 0.356036 0.000000 0.329408
Si Si7 0.750305 0.651920 0.937201
O O1 0.500000 0.500000 0.500000
O O2 0.456714 0.407629 0.675249
O O3 0.290907 0.500000 0.455394
O O4 0.007096 0.737816 0.752228
O O5 0.000000 0.801111 0.500000
O O6 0.168786 0.843629 0.761456
O O7 0.884283 0.500000 0.500909
O O8 0.904062 0.584180 0.739299
O O9 0.216848 0.000000 0.232278
O O10 0.179620 0.915420 0.993282
O O11 0.000000 0.000000 0.000000
O O12 0.614209 0.126219 0.977437
O O13 0.594715 0.085595 0.722269
O O14 0.750000 0.750000 0.000000
#
# Coordination Sequence:
#
# PCOD9187346 Si02
#       7
#     4   8   4   4   8   4   8
#     4  10  24  37  50  75 109 152 198 238 272 337
#     4  10  19  35  59  79 112 153 190 227 283 336
#     4  11  20  33  58  83 112 143 193 237 289 345
#     4  10  20  33  57  87 120 152 185 241 302 342
#     4   9  18  35  57  87 115 144 178 237 296 351
#     4   9  18  31  54  91 113 132 181 236 294 348
#     4   9  19  35  59  87 116 153 188 235 295 360
#
# _framework density 23.145759999999999
#
# number of rings (size 3 to 8) (size 9 to 14) (size 15 to 20)
#    0.000    2.400    0.000    3.600    2.800    0.800 
#    0.000    0.000   26.400    4.800    0.000    0.000 
#    0.000    0.000    0.000    0.000    0.000    0.000 
#
# Total GULP energy -111696.317021 kJ/mol
# GULP energy per Si atom -5584.815851 kJ/mol
# Density = 2.309308 g / cm^3
# Si number density = 23.145760 Si / 1000 Ang^3
#
#
#
# Elastic Constant Matrix: (Units=GPa)
#
#
# Indices 1 2 3 4 5 6 
#
# 1 69.6305 42.0854 50.7469 0.0000 30.7920 0.0000
# 2 42.0854 185.1599 55.2352 0.0000 25.8698 0.0000
# 3 50.7469 55.2352 255.8906 0.0000 38.8476 0.0000
# 4 0.0000 0.0000 0.0000 33.9944 0.0000 11.6130
# 5 30.7920 25.8698 38.8476 0.0000 60.2197 0.0000
# 6 0.0000 0.0000 0.0000 11.6130 0.0000 -9.0503
#
#
#
# Elastic Compliance Matrix: (Units=1/GPa)
#
#
# Indices 1 2 3 4 5 6 
#
# 1 0.021550 -0.003047 -0.002374 0.000000 -0.008179 0.000000
# 2 -0.003047 0.006397 -0.000661 0.000000 -0.000764 0.000000
# 3 -0.002374 -0.000661 0.004760 0.000000 -0.001573 0.000000
# 4 0.000000 0.000000 0.000000 0.020452 0.000000 0.026243
# 5 -0.008179 -0.000764 -0.001573 0.000000 0.022131 0.000000
# 6 0.000000 0.000000 0.000000 0.026243 0.000000 -0.076820
#
#
# Mechanical properties :
#
#
# Convention : Reuss Voigt Hill
#
# Bulk Modulus (GPa) = 48.67764 89.64622 69.16193
# Shear Modulus (GPa) = 285.99583 41.20699 163.60141
#
# Velocity S-wave (km/s) = 11.12795 4.22397 8.41645
# Velocity P-wave (km/s) = 13.64496 7.91230 11.15323
#
# Compressibility (1/GPa) = 0.02054331
#
# Stress axis : x y z
#
# Youngs Moduli (GPa) = 46.40264 156.31984 210.07636
#
# Poissons Ratio (x) = 0.47635 0.49881
# Poissons Ratio (y) = 0.14140 0.13877
# Poissons Ratio (z) = 0.11018 0.10326
#
# Static dielectric constant tensor:
#      x y z
#    x 1.905170 0.000000 0.009680 
#    y 0.000000 1.854260 0.000000 
#    z 0.009680 0.000000 1.916290 
# 
# From -- ./inp_files/215122.got.cif
#   From: 2010.05.17/outbox.cif.g08.bks.cpg/sg12_108_cif.got.tgz:215122.got - 2010.06.03 13:09:07.
