data_PCOD9187798
_publ_section_title
;
Structure prediction by ZEFSAII (Michael W. Deem and Ramdas Pophale) SiO2 
 PCOD9187798
Probable space group: C 2/M
;
_chemical_formula_sum "Si O2"
_cell_formula_units_Z 48
_cell_length_a 29.934215
_cell_length_b 7.766033
_cell_length_c 12.652182
_cell_angle_alpha 90.000000
_cell_angle_beta 46.674136
_cell_angle_gamma 90.000000
_cell_volume 2139.653768
_symmetry_space_group_name_H-M "C 2/M"
_symmetry_group_IT_number 12
_symmetry_cell_setting 'monoclinic'
loop_
_space_group_symop_operation_xyz
x,y,z
-x,y,-z
-x,-y,-z
x,-y,z
1/2+x,1/2+y,z
1/2-x,1/2+y,-z
1/2-x,1/2-y,-z
1/2+x,1/2-y,z
loop_
_atom_site_type_symbol
_atom_site_label
_atom_site_fract_x
_atom_site_fract_y
_atom_site_fract_z
Si Si1 0.319314 0.804896 0.900351
Si Si2 0.648348 0.701865 0.383875
Si Si3 0.572663 0.709638 0.875422
Si Si4 0.507422 0.295270 0.606355
Si Si5 0.409597 0.696977 0.922670
Si Si6 0.313857 0.292003 0.455114
O O1 0.346534 0.786336 0.738950
O O2 0.352395 0.697250 0.937107
O O3 0.324277 0.000000 0.928232
O O4 0.250000 0.750000 0.000000
O O5 0.663532 0.500000 0.342245
O O6 0.576995 0.714258 0.530009
O O7 0.686083 0.769875 0.422751
O O8 0.571589 0.500000 0.865026
O O9 0.623499 0.768346 0.706474
O O10 0.500000 0.761574 0.000000
O O11 0.599760 0.765834 0.945353
O O12 0.500000 0.223998 0.500000
O O13 0.491107 0.500000 0.623670
O O14 0.462725 0.217541 0.766096
O O15 0.429436 0.500000 0.910518
O O16 0.318050 0.500000 0.453391
O O17 0.250000 0.250000 0.500000
#
# Coordination Sequence:
#
# PCOD9187798 Si02
#       6
#     8   8   8   8   8   8
#     4  12  26  41  58  83 116 153 196 246 300 359
#     4  10  20  38  61  86 117 155 196 240 292 351
#     4   9  18  35  61  92 121 155 204 251 290 343
#     4   9  15  28  55  86 115 147 189 233 281 342
#     4  10  19  35  61  90 120 155 195 242 292 349
#     4  10  22  38  59  88 121 157 199 250 299 351
#
# _framework density 22.433536
#
# number of rings (size 3 to 8) (size 9 to 14) (size 15 to 20)
#    0.000    2.000    1.667    2.500    2.333    4.667 
#    0.000    1.667    0.000    4.000    0.000    0.000 
#    0.000    0.000    0.000    0.000    0.000    0.000 
#
# Total GULP energy -133876.969398 kJ/mol
# GULP energy per Si atom -5578.207058 kJ/mol
# Density = 2.238248 g / cm^3
# Si number density = 22.433536 Si / 1000 Ang^3
#
#
#
# Elastic Constant Matrix: (Units=GPa)
#
#
# Indices 1 2 3 4 5 6 
#
# 1 80.7483 -5.8459 22.1497 0.0000 21.9280 0.0000
# 2 -5.8459 39.8901 0.5486 0.0000 1.1372 0.0000
# 3 22.1497 0.5486 70.1806 0.0000 6.1829 0.0000
# 4 0.0000 0.0000 0.0000 -6.9851 0.0000 -5.4758
# 5 21.9280 1.1372 6.1829 0.0000 40.8476 0.0000
# 6 0.0000 0.0000 0.0000 -5.4758 0.0000 16.9629
#
#
#
# Elastic Compliance Matrix: (Units=1/GPa)
#
#
# Indices 1 2 3 4 5 6 
#
# 1 0.015929 0.002621 -0.004346 0.000000 -0.007966 0.000000
# 2 0.002621 0.025521 -0.000852 0.000000 -0.001989 0.000000
# 3 -0.004346 -0.000852 0.015628 0.000000 -0.000009 0.000000
# 4 0.000000 0.000000 0.000000 -0.114249 0.000000 -0.036881
# 5 -0.007966 -0.001989 -0.000009 0.000000 0.028815 0.000000
# 6 0.000000 0.000000 0.000000 -0.036881 0.000000 0.047047
#
#
# Mechanical properties :
#
#
# Convention : Reuss Voigt Hill
#
# Bulk Modulus (GPa) = 19.25814 24.94711 22.10263
# Shear Modulus (GPa) = 121.49934 21.76284 71.63109
#
# Velocity S-wave (km/s) = 7.36731 3.11803 5.65683
# Velocity P-wave (km/s) = 8.99849 4.90993 7.24846
#
# Compressibility (1/GPa) = 0.05192609
#
# Stress axis : x y z
#
# Youngs Moduli (GPa) = 62.77666 39.18279 63.98742
#
# Poissons Ratio (x) = -0.10271 0.27810
# Poissons Ratio (y) = -0.16456 0.05449
# Poissons Ratio (z) = 0.27284 0.03337
#
# Static dielectric constant tensor:
#      x y z
#    x 1.820920 0.000000 0.018630 
#    y 0.000000 1.865030 0.000000 
#    z 0.018630 0.000000 1.890040 
# 
# From -- ./inp_files/179753.got.cif
#   From: 2010.05.17/outbox.cif.g08.bks.cpg/sg12_90_cif.got.tgz:179753.got - 2010.06.03 13:09:07.
