data_PCOD9187196
_publ_section_title
;
Structure prediction by ZEFSAII (Michael W. Deem and Ramdas Pophale) SiO2 
 PCOD9187196
Probable space group: C 2/M
;
_chemical_formula_sum "Si O2"
_cell_formula_units_Z 48
_cell_length_a 8.180966
_cell_length_b 29.346350
_cell_length_c 19.479425
_cell_angle_alpha 90.000000
_cell_angle_beta 147.053020
_cell_angle_gamma 90.000000
_cell_volume 2543.455260
_symmetry_space_group_name_H-M "C 2/M"
_symmetry_group_IT_number 12
_symmetry_cell_setting 'monoclinic'
loop_
_space_group_symop_operation_xyz
x,y,z
-x,y,-z
-x,-y,-z
x,-y,z
1/2+x,1/2+y,z
1/2-x,1/2+y,-z
1/2-x,1/2-y,-z
1/2+x,1/2-y,z
loop_
_atom_site_type_symbol
_atom_site_label
_atom_site_fract_x
_atom_site_fract_y
_atom_site_fract_z
Si Si1 0.198594 0.447777 0.999485
Si Si2 0.300880 0.605323 0.749482
Si Si3 0.095842 0.300167 0.146308
Si Si4 0.305703 0.394616 0.251449
Si Si5 0.804374 0.052149 0.499569
Si Si6 0.011005 0.199812 0.854082
O O1 0.251887 0.500000 0.999423
O O2 0.997580 0.422117 0.872848
O O3 0.503949 0.422067 0.125811
O O4 0.000000 0.447246 0.000000
O O5 0.497036 0.605591 0.748737
O O6 0.284348 0.657565 0.768981
O O7 0.995984 0.579674 0.624517
O O8 0.210689 0.342392 0.231785
O O9 0.287503 0.301255 0.143655
O O10 0.126036 0.249958 0.187901
O O11 0.748068 0.306575 0.000302
O O12 0.501833 0.420159 0.376815
O O13 0.000000 0.049400 0.500000
O O14 0.738967 0.000000 0.499658
#
# Coordination Sequence:
#
# PCOD9187196 Si02
#       6
#     8   8   8   8   8   8
#     4   9  16  28  52  83 107 129 171 231 278 313
#     4  10  19  35  58  83 108 140 185 229 269 320
#     4   9  17  31  53  83 115 142 174 220 272 325
#     4  10  19  35  58  83 108 140 185 229 269 320
#     4  11  25  41  54  75 112 151 184 223 274 331
#     4   9  17  31  53  83 115 142 174 220 272 325
#
# _framework density 18.871964999999999
#
# number of rings (size 3 to 8) (size 9 to 14) (size 15 to 20)
#    0.000    2.333    1.667    1.500    0.000    4.000 
#    0.000    1.667    0.000    3.000    0.000    0.000 
#    0.000    0.000    0.000    0.000    0.000    0.000 
#
# Total GULP energy -133914.917982 kJ/mol
# GULP energy per Si atom -5579.788249 kJ/mol
# Density = 1.882901 g / cm^3
# Si number density = 18.871965 Si / 1000 Ang^3
#
#
#
# Elastic Constant Matrix: (Units=GPa)
#
#
# Indices 1 2 3 4 5 6 
#
# 1 12.8306 24.6253 16.3090 0.0000 0.4274 0.0000
# 2 24.6253 230.9331 116.7870 -0.0001 0.1575 0.0000
# 3 16.3090 116.7870 161.3010 0.0001 -0.1040 0.0001
# 4 0.0000 -0.0001 0.0001 29.3630 0.0000 -0.0070
# 5 0.4274 0.1575 -0.1040 0.0000 1.9769 0.0000
# 6 0.0000 0.0000 0.0001 -0.0070 0.0000 25.3022
#
#
#
# Elastic Compliance Matrix: (Units=1/GPa)
#
#
# Indices 1 2 3 4 5 6 
#
# 1 0.100290 -0.008748 -0.003820 0.000000 -0.021188 0.000000
# 2 -0.008748 0.007596 -0.004615 0.000000 0.001043 0.000000
# 3 -0.003820 -0.004615 0.009928 0.000000 0.001716 0.000000
# 4 0.000000 0.000000 0.000000 0.034056 0.000001 0.000009
# 5 -0.021188 0.001043 0.001716 0.000001 0.510421 0.000000
# 6 0.000000 0.000000 0.000000 0.000009 0.000000 0.039522
#
#
# Mechanical properties :
#
#
# Convention : Reuss Voigt Hill
#
# Bulk Modulus (GPa) = 11.98338 80.05636 46.01987
# Shear Modulus (GPa) = 6.54453 27.81799 17.18126
#
# Velocity S-wave (km/s) = 1.86424 3.84348 3.02058
# Velocity P-wave (km/s) = 3.31624 7.88729 6.05008
#
# Compressibility (1/GPa) = 0.08344888
#
# Stress axis : x y z
#
# Youngs Moduli (GPa) = 9.97107 131.64696 100.72443
#
# Poissons Ratio (x) = 1.15164 0.38478
# Poissons Ratio (y) = 0.08723 0.46481
# Poissons Ratio (z) = 0.03809 0.60750
#
# Static dielectric constant tensor:
#      x y z
#    x 1.672060 0.000000 0.000320 
#    y 0.000000 1.668670 0.000000 
#    z 0.000320 0.000000 1.619360 
# 
# From -- ./inp_files/91180.got.cif
#   From: 2010.05.17/outbox.cif.g08.bks.cpg/sg12_46_cif.got.tgz:91180.got - 2010.06.03 13:09:07.
