data_PCOD9187530
_publ_section_title
;
Structure prediction by ZEFSAII (Michael W. Deem and Ramdas Pophale) SiO2 
 PCOD9187530
Probable space group: C 2/M
;
_chemical_formula_sum "Si O2"
_cell_formula_units_Z 64
_cell_length_a 27.099495
_cell_length_b 8.218941
_cell_length_c 15.309566
_cell_angle_alpha 90.000000
_cell_angle_beta 64.195483
_cell_angle_gamma 90.000000
_cell_volume 3069.867932
_symmetry_space_group_name_H-M "C 2/M"
_symmetry_group_IT_number 12
_symmetry_cell_setting 'monoclinic'
loop_
_space_group_symop_operation_xyz
x,y,z
-x,y,-z
-x,-y,-z
x,-y,z
1/2+x,1/2+y,z
1/2-x,1/2+y,-z
1/2-x,1/2-y,-z
1/2+x,1/2-y,z
loop_
_atom_site_type_symbol
_atom_site_label
_atom_site_fract_x
_atom_site_fract_y
_atom_site_fract_z
Si Si1 0.159086 0.686602 0.425256
Si Si2 0.110788 0.804842 0.137123
Si Si3 0.191479 0.815702 0.575600
Si Si4 0.324095 0.694811 0.083387
Si Si5 0.617731 0.809399 0.785707
Si Si6 0.536214 0.811173 0.544202
Si Si7 0.700609 0.802917 0.207801
Si Si8 0.484709 0.803788 0.245021
O O1 0.176055 0.500000 0.435468
O O2 0.160851 0.800066 0.507618
O O3 0.095236 0.679423 0.454697
O O4 0.192208 0.743205 0.315738
O O5 0.150227 0.756678 0.187401
O O6 0.048493 0.740605 0.186546
O O7 0.107564 0.000000 0.137378
O O8 0.141789 0.744037 0.025963
O O9 0.250000 0.750000 0.500000
O O10 0.160684 0.714022 0.673147
O O11 0.194729 0.000000 0.604734
O O12 0.320312 0.500000 0.078289
O O13 0.356224 0.731487 0.148114
O O14 0.261023 0.755410 0.132364
O O15 0.559209 0.743845 0.793898
O O16 0.611368 0.000000 0.809190
O O17 0.500000 0.723793 0.500000
O O18 0.534296 0.745653 0.643963
O O19 0.516838 0.000000 0.570184
O O20 0.699456 0.000000 0.206511
O O21 0.479631 0.000000 0.246081
#
# Coordination Sequence:
#
# PCOD9187530 Si02
#       8
#     8   8   8   8   8   8   8   8
#     4  10  19  35  59  88 119 153 198 245 297 358
#     4  11  24  40  61  89 125 163 206 262 316 369
#     4  12  24  38  59  87 124 164 203 247 297 359
#     4  10  23  42  62  90 124 163 207 257 319 378
#     4  11  23  41  65  92 123 161 207 263 313 367
#     4   9  16  30  55  84 115 151 191 239 292 352
#     4  10  21  39  65  91 120 159 205 256 313 377
#     4  10  21  39  61  87 123 162 208 256 304 373
#
# _framework density 20.847801
#
# number of rings (size 3 to 8) (size 9 to 14) (size 15 to 20)
#    0.000    1.625    1.250    3.750    0.000    6.500 
#    0.000    2.500    0.000    1.500    0.000    0.000 
#    0.000    0.000    0.000    0.000    0.000    0.000 
#
# Total GULP energy -178537.414582 kJ/mol
# GULP energy per Si atom -5579.294206 kJ/mol
# Density = 2.080035 g / cm^3
# Si number density = 20.847801 Si / 1000 Ang^3
#
#
#
# Elastic Constant Matrix: (Units=GPa)
#
#
# Indices 1 2 3 4 5 6 
#
# 1 94.8526 -4.3889 6.5924 0.0000 -11.1707 0.0000
# 2 -4.3889 10.0152 -8.1084 0.0000 -1.7154 0.0000
# 3 6.5924 -8.1084 79.4333 0.0000 -15.3384 0.0000
# 4 0.0000 0.0000 0.0000 23.2039 0.0000 1.8128
# 5 -11.1707 -1.7154 -15.3384 0.0000 35.0218 0.0000
# 6 0.0000 0.0000 0.0000 1.8128 0.0000 29.6947
#
#
#
# Elastic Compliance Matrix: (Units=1/GPa)
#
#
# Indices 1 2 3 4 5 6 
#
# 1 0.011271 0.006021 0.000470 0.000000 0.004096 0.000000
# 2 0.006021 0.116189 0.014016 0.000000 0.013750 0.000000
# 3 0.000470 0.014016 0.015449 0.000000 0.007603 0.000000
# 4 0.000000 0.000000 0.000000 0.043303 0.000000 -0.002644
# 5 0.004096 0.013750 0.007603 0.000000 0.033863 0.000000
# 6 0.000000 0.000000 0.000000 -0.002644 0.000000 0.033837
#
#
# Mechanical properties :
#
#
# Convention : Reuss Voigt Hill
#
# Bulk Modulus (GPa) = 5.43706 19.16571 12.30138
# Shear Modulus (GPa) = 18.23451 30.26448 24.24950
#
# Velocity S-wave (km/s) = 2.96066 3.81423 3.41423
# Velocity P-wave (km/s) = 3.78166 5.34892 4.63206
#
# Compressibility (1/GPa) = 0.18392300
#
# Stress axis : x y z
#
# Youngs Moduli (GPa) = 88.72349 8.60669 64.72954
#
# Poissons Ratio (x) = -0.05182 -0.03043
# Poissons Ratio (y) = -0.53423 -0.90723
# Poissons Ratio (z) = -0.04171 -0.12063
#
# Static dielectric constant tensor:
#      x y z
#    x 1.286390 0.000000 0.079000 
#    y 0.000000 1.787360 0.000000 
#    z 0.079000 0.000000 1.733970 
# 
# From -- ./inp_files/243829.got.cif
#   From: 2010.05.17/outbox.cif.g08.bks.cpg/sg12_122_cif.got.tgz:243829.got - 2010.06.03 13:09:07.
