data_PCOD9187159
_publ_section_title
;
Structure prediction by ZEFSAII (Michael W. Deem and Ramdas Pophale) SiO2 
 PCOD9187159
Probable space group: C 2/M
;
_chemical_formula_sum "Si O2"
_cell_formula_units_Z 56
_cell_length_a 16.414116
_cell_length_b 7.645526
_cell_length_c 23.488630
_cell_angle_alpha 90.000000
_cell_angle_beta 121.280304
_cell_angle_gamma 90.000000
_cell_volume 2519.210358
_symmetry_space_group_name_H-M "C 2/M"
_symmetry_group_IT_number 12
_symmetry_cell_setting 'monoclinic'
loop_
_space_group_symop_operation_xyz
x,y,z
-x,y,-z
-x,-y,-z
x,-y,z
1/2+x,1/2+y,z
1/2-x,1/2+y,-z
1/2-x,1/2-y,-z
1/2+x,1/2-y,z
loop_
_atom_site_type_symbol
_atom_site_label
_atom_site_fract_x
_atom_site_fract_y
_atom_site_fract_z
Si Si1 0.980199 0.714076 0.428937
Si Si2 0.179324 0.298924 0.711810
Si Si3 0.215141 0.289167 0.847938
Si Si4 0.164084 0.709511 0.426403
Si Si5 0.972614 0.792427 0.161256
Si Si6 0.065961 0.213896 0.076499
Si Si7 0.647342 0.204059 0.293406
O O1 0.978239 0.500000 0.431610
O O2 0.067225 0.769330 0.420722
O O3 0.000000 0.776398 0.500000
O O4 0.884536 0.774814 0.362592
O O5 0.147517 0.500000 0.706363
O O6 0.174763 0.219454 0.772813
O O7 0.288145 0.295155 0.730632
O O8 0.219706 0.500000 0.845787
O O9 0.324506 0.228586 0.892606
O O10 0.138347 0.247165 0.868521
O O11 0.157731 0.500000 0.419249
O O12 0.250000 0.750000 0.500000
O O13 0.171284 0.776896 0.364622
O O14 0.018506 0.726913 0.118750
O O15 0.037220 0.720840 0.236343
O O16 0.983622 0.000000 0.165752
O O17 0.066628 0.000000 0.077857
O O18 0.000000 0.267853 0.000000
O O19 0.672866 0.000000 0.301001
#
# Coordination Sequence:
#
# PCOD9187159 Si02
#       7
#     8   8   8   8   8   8   8
#     4   9  17  30  50  74 101 137 183 231 280 339
#     4  10  19  35  58  81 109 150 197 239 290 356
#     4  10  20  37  60  87 119 157 198 246 299 350
#     4  10  21  36  53  77 108 145 189 239 295 351
#     4  11  22  38  61  90 119 156 203 244 292 358
#     4   9  19  38  62  87 120 160 199 242 296 357
#     4  11  22  36  56  83 117 153 192 245 301 348
#
# _framework density 22.229185999999999
#
# number of rings (size 3 to 8) (size 9 to 14) (size 15 to 20)
#    0.000    2.000    1.429    2.571    0.000    5.714 
#    0.000    0.714    0.000    5.571    0.000    0.000 
#    0.000    0.000    0.000    0.000    0.000    0.000 
#
# Total GULP energy -156396.058147 kJ/mol
# GULP energy per Si atom -5585.573505 kJ/mol
# Density = 2.217859 g / cm^3
# Si number density = 22.229186 Si / 1000 Ang^3
#
#
#
# Elastic Constant Matrix: (Units=GPa)
#
#
# Indices 1 2 3 4 5 6 
#
# 1 139.1351 -4.8272 52.4501 0.0000 10.2048 0.0000
# 2 -4.8272 45.7130 4.6856 0.0000 -0.7625 0.0000
# 3 52.4501 4.6856 133.1916 0.0000 9.7752 0.0000
# 4 0.0000 0.0000 0.0000 3.8065 0.0000 5.9074
# 5 10.2048 -0.7625 9.7752 0.0000 30.8630 0.0000
# 6 0.0000 0.0000 0.0000 5.9074 0.0000 19.9893
#
#
#
# Elastic Compliance Matrix: (Units=1/GPa)
#
#
# Indices 1 2 3 4 5 6 
#
# 1 0.008604 0.001217 -0.003301 0.000000 -0.001769 0.000000
# 2 0.001217 0.022147 -0.001299 0.000000 0.000556 0.000000
# 3 -0.003301 -0.001299 0.008985 0.000000 -0.001786 0.000000
# 4 0.000000 0.000000 0.000000 0.485278 0.000000 -0.143413
# 5 -0.001769 0.000556 -0.001786 0.000000 0.033566 0.000000
# 6 0.000000 0.000000 0.000000 -0.143413 0.000000 0.092409
#
#
# Mechanical properties :
#
#
# Convention : Reuss Voigt Hill
#
# Bulk Modulus (GPa) = 30.33149 46.96186 38.64668
# Shear Modulus (GPa) = 7.47671 28.64716 18.06193
#
# Velocity S-wave (km/s) = 1.83596 3.59377 2.85359
# Velocity P-wave (km/s) = 4.26250 6.19615 5.31795
#
# Compressibility (1/GPa) = 0.03296904
#
# Stress axis : x y z
#
# Youngs Moduli (GPa) = 116.22959 45.15357 111.29993
#
# Poissons Ratio (x) = -0.05497 0.36741
# Poissons Ratio (y) = -0.14150 0.14461
# Poissons Ratio (z) = 0.38368 0.05867
#
# Static dielectric constant tensor:
#      x y z
#    x 1.811180 0.000000 0.002190 
#    y 0.000000 1.825670 0.000000 
#    z 0.002190 0.000000 1.843910 
# 
# From -- ./inp_files/339055.got.cif
#   From: 2010.05.17/outbox.cif.g08.bks.cpg/sg12_170_cif.got.tgz:339055.got - 2010.06.03 13:09:07.
