data_PCOD9187654
_publ_section_title
;
Structure prediction by ZEFSAII (Michael W. Deem and Ramdas Pophale) SiO2 
 PCOD9187654
Probable space group: C 2/M
;
_chemical_formula_sum "Si O2"
_cell_formula_units_Z 56
_cell_length_a 16.850134
_cell_length_b 13.072448
_cell_length_c 13.764296
_cell_angle_alpha 90.000000
_cell_angle_beta 123.686182
_cell_angle_gamma 90.000000
_cell_volume 2522.803919
_symmetry_space_group_name_H-M "C 2/M"
_symmetry_group_IT_number 12
_symmetry_cell_setting 'monoclinic'
loop_
_space_group_symop_operation_xyz
x,y,z
-x,y,-z
-x,-y,-z
x,-y,z
1/2+x,1/2+y,z
1/2-x,1/2+y,-z
1/2-x,1/2-y,-z
1/2+x,1/2-y,z
loop_
_atom_site_type_symbol
_atom_site_label
_atom_site_fract_x
_atom_site_fract_y
_atom_site_fract_z
Si Si1 0.919830 0.120271 0.818076
Si Si2 0.479416 0.304050 0.283056
Si Si3 0.100407 0.117711 0.523992
Si Si4 0.107029 0.615721 0.665596
Si Si5 0.777271 0.113871 0.118512
Si Si6 0.729106 0.785034 0.596831
Si Si7 0.198787 0.166256 0.089812
O O1 0.820363 0.160973 0.703377
O O2 0.894303 0.132932 0.914185
O O3 0.997866 0.190407 0.816320
O O4 0.937606 0.000000 0.810322
O O5 0.570300 0.359652 0.392671
O O6 0.459865 0.194881 0.320327
O O7 0.382574 0.367418 0.234482
O O8 0.194279 0.177438 0.618100
O O9 0.000000 0.153741 0.500000
O O10 0.112121 0.000000 0.550098
O O11 0.071712 0.500000 0.642651
O O12 0.138488 0.648128 0.576345
O O13 0.206902 0.623206 0.792237
O O14 0.711163 0.210497 0.099351
O O15 0.742804 0.000000 0.118252
O O16 0.794458 0.125268 0.014498
O O17 0.750000 0.750000 0.500000
#
# Coordination Sequence:
#
# PCOD9187654 Si02
#       7
#     8   8   8   8   8   8   8
#     4  11  22  39  60  82 117 152 184 236 292 337
#     4  11  22  37  57  85 112 148 195 235 279 346
#     4  11  22  38  57  79 114 152 183 232 288 331
#     4  10  21  40  59  79 114 155 190 234 287 342
#     4  10  19  35  60  87 116 150 191 237 282 335
#     4  11  21  35  58  82 109 143 195 226 270 344
#     4   9  20  36  58  88 116 149 191 232 284 348
#
# _framework density 22.197524999999999
#
# number of rings (size 3 to 8) (size 9 to 14) (size 15 to 20)
#    0.000    1.571    2.857    3.857    0.000    1.143 
#    0.000    5.000    0.000    0.000    0.000    6.000 
#    0.000    0.000    0.000    0.000    0.000    0.000 
#
# Total GULP energy -156085.628850 kJ/mol
# GULP energy per Si atom -5574.486745 kJ/mol
# Density = 2.214700 g / cm^3
# Si number density = 22.197525 Si / 1000 Ang^3
#
#
#
# Elastic Constant Matrix: (Units=GPa)
#
#
# Indices 1 2 3 4 5 6 
#
# 1 110.4540 44.6831 7.9052 0.0000 -24.3173 0.0000
# 2 44.6831 166.4055 4.7505 0.0000 -6.4745 0.0000
# 3 7.9052 4.7505 64.7855 0.0000 -11.9385 0.0000
# 4 0.0000 0.0000 0.0000 24.8767 0.0000 -1.5805
# 5 -24.3173 -6.4745 -11.9385 0.0000 37.3317 0.0000
# 6 0.0000 0.0000 0.0000 -1.5805 0.0000 20.0074
#
#
#
# Elastic Compliance Matrix: (Units=1/GPa)
#
#
# Indices 1 2 3 4 5 6 
#
# 1 0.011806 -0.002892 0.000102 0.000000 0.007221 0.000000
# 2 -0.002892 0.006763 -0.000291 0.000000 -0.000804 0.000000
# 3 0.000102 -0.000291 0.016415 0.000000 0.005265 0.000000
# 4 0.000000 0.000000 0.000000 0.040401 0.000000 0.003192
# 5 0.007221 -0.000804 0.005265 0.000000 0.033035 0.000000
# 6 0.000000 0.000000 0.000000 0.003192 0.000000 0.050234
#
#
# Mechanical properties :
#
#
# Convention : Reuss Voigt Hill
#
# Bulk Modulus (GPa) = 34.69614 50.70253 42.69933
# Shear Modulus (GPa) = 28.66597 35.39691 32.03144
#
# Velocity S-wave (km/s) = 3.59751 3.99762 3.80283
# Velocity P-wave (km/s) = 5.73765 6.64824 6.20966
#
# Compressibility (1/GPa) = 0.02882165
#
# Stress axis : x y z
#
# Youngs Moduli (GPa) = 84.70241 147.86267 60.92086
#
# Poissons Ratio (x) = 0.42763 -0.00623
# Poissons Ratio (y) = 0.24497 0.01774
# Poissons Ratio (z) = -0.00866 0.04306
#
# Static dielectric constant tensor:
#      x y z
#    x 1.886720 0.000000 -0.086560 
#    y 0.000000 1.787590 0.000000 
#    z -0.086560 0.000000 2.054390 
# 
# From -- ./inp_files/223910.got.cif
#   From: 2010.05.17/outbox.cif.g08.bks.cpg/sg12_112_cif.got.tgz:223910.got - 2010.06.03 13:09:07.
