data_PCOD9187271
_publ_section_title
;
Structure prediction by ZEFSAII (Michael W. Deem and Ramdas Pophale) SiO2 
 PCOD9187271
Probable space group: C 2/M
;
_chemical_formula_sum "Si O2"
_cell_formula_units_Z 58
_cell_length_a 9.326449
_cell_length_b 16.596960
_cell_length_c 26.543761
_cell_angle_alpha 90.000000
_cell_angle_beta 38.515842
_cell_angle_gamma 90.000000
_cell_volume 2558.631906
_symmetry_space_group_name_H-M "C 2/M"
_symmetry_group_IT_number 12
_symmetry_cell_setting 'monoclinic'
loop_
_space_group_symop_operation_xyz
x,y,z
-x,y,-z
-x,-y,-z
x,-y,z
1/2+x,1/2+y,z
1/2-x,1/2+y,-z
1/2-x,1/2-y,-z
1/2+x,1/2-y,z
loop_
_atom_site_type_symbol
_atom_site_label
_atom_site_fract_x
_atom_site_fract_y
_atom_site_fract_z
Si Si1 0.979399 0.777104 0.649218
Si Si2 0.946184 0.588029 0.761061
Si Si3 0.759220 0.910570 0.946841
Si Si4 0.912213 0.800775 0.184839
Si Si5 0.144502 0.359278 0.081069
Si Si6 0.294757 0.587752 0.760526
Si Si7 0.327808 0.648040 0.587208
Si Si8 0.000000 0.000000 0.000000
O O1 0.746273 0.725614 0.725033
O O2 0.969245 0.842442 0.697555
O O3 0.957583 0.819365 0.601371
O O4 0.201734 0.722391 0.594156
O O5 0.832436 0.500000 0.790772
O O6 0.775956 0.664591 0.803943
O O7 0.115931 0.590371 0.762106
O O8 0.118789 0.595370 0.666244
O O9 0.924621 0.878102 0.858170
O O10 0.822861 0.000000 0.949263
O O11 0.500000 0.913182 0.000000
O O12 0.763421 0.852253 0.993951
O O13 0.076978 0.726115 0.124374
O O14 0.887768 0.396558 0.145267
O O15 0.303327 0.427139 0.063727
O O16 0.400334 0.500000 0.735404
O O17 0.500000 0.609278 0.500000
#
# Coordination Sequence:
#
# PCOD9187271 Si02
#       8
#     8   8   8   8   8   8   8   2
#     4   9  20  35  55  84 109 145 190 229 284 343
#     4   9  19  34  57  86 116 146 186 225 284 339
#     4  11  24  39  51  73 112 152 188 230 288 339
#     4  10  22  37  56  80 110 149 191 234 279 341
#     4  11  23  36  54  82 103 143 192 239 290 323
#     4   9  17  33  55  81 107 143 186 240 280 329
#     4  10  19  35  58  85 117 148 181 230 285 343
#     4  12  24  36  58  80 110 132 196 254 298 324
#
# _framework density 22.668364
#
# number of rings (size 3 to 8) (size 9 to 14) (size 15 to 20)
#    0.000    2.069    1.379    1.241    2.897    5.793 
#    0.000    0.000    0.000    3.724    0.000    0.000 
#    0.000    0.000    0.000    0.000    0.000    0.000 
#
# Total GULP energy -161473.874883 kJ/mol
# GULP energy per Si atom -5568.064651 kJ/mol
# Density = 2.261677 g / cm^3
# Si number density = 22.668364 Si / 1000 Ang^3
#
#
#
# Elastic Constant Matrix: (Units=GPa)
#
#
# Indices 1 2 3 4 5 6 
#
# 1 38.2088 9.3359 3.2775 0.0079 1.6471 -0.0031
# 2 9.3359 86.1438 15.2291 -0.0036 -0.7107 -0.0008
# 3 3.2775 15.2291 96.1886 0.0290 3.7560 -0.0134
# 4 0.0079 -0.0036 0.0290 21.0940 -0.0193 -7.7787
# 5 1.6471 -0.7107 3.7560 -0.0193 23.4046 0.0034
# 6 -0.0031 -0.0008 -0.0134 -7.7787 0.0034 13.9423
#
#
#
# Elastic Compliance Matrix: (Units=1/GPa)
#
#
# Indices 1 2 3 4 5 6 
#
# 1 0.026990 -0.002872 -0.000390 -0.000012 -0.001924 -0.000001
# 2 -0.002872 0.012259 -0.001877 0.000007 0.000876 0.000002
# 3 -0.000390 -0.001877 0.010775 -0.000016 -0.001759 0.000002
# 4 -0.000012 0.000007 -0.000016 0.059687 0.000048 0.033301
# 5 -0.001924 0.000876 -0.001759 0.000048 0.043171 0.000014
# 6 -0.000001 0.000002 0.000002 0.033301 0.000014 0.090303
#
#
# Mechanical properties :
#
#
# Convention : Reuss Voigt Hill
#
# Bulk Modulus (GPa) = 25.15956 30.69177 27.92566
# Shear Modulus (GPa) = 18.74678 24.53476 21.64077
#
# Velocity S-wave (km/s) = 2.87888 3.29345 3.09312
# Velocity P-wave (km/s) = 4.70890 5.29446 5.01024
#
# Compressibility (1/GPa) = 0.03974633
#
# Stress axis : x y z
#
# Youngs Moduli (GPa) = 37.05056 81.57373 92.80381
#
# Poissons Ratio (x) = 0.23428 0.03617
# Poissons Ratio (y) = 0.10641 0.17421
# Poissons Ratio (z) = 0.01444 0.15313
#
# Static dielectric constant tensor:
#      x y z
#    x 1.943900 0.000000 0.053450 
#    y 0.000000 1.872700 0.000000 
#    z 0.053450 0.000000 1.902740 
# 
# From -- ./inp_files/374351.got.cif
#   From: 2010.05.17/outbox.cif.g08.bks.cpg/sg12_188_cif.got.tgz:374351.got - 2010.06.03 13:09:07.
