data_PCOD9187631
_publ_section_title
;
Structure prediction by ZEFSAII (Michael W. Deem and Ramdas Pophale) SiO2 
 PCOD9187631
Probable space group: C 2/M
;
_chemical_formula_sum "Si O2"
_cell_formula_units_Z 56
_cell_length_a 19.489460
_cell_length_b 8.367432
_cell_length_c 26.000541
_cell_angle_alpha 90.000000
_cell_angle_beta 135.426671
_cell_angle_gamma 90.000000
_cell_volume 2975.781710
_symmetry_space_group_name_H-M "C 2/M"
_symmetry_group_IT_number 12
_symmetry_cell_setting 'monoclinic'
loop_
_space_group_symop_operation_xyz
x,y,z
-x,y,-z
-x,-y,-z
x,-y,z
1/2+x,1/2+y,z
1/2-x,1/2+y,-z
1/2-x,1/2-y,-z
1/2+x,1/2-y,z
loop_
_atom_site_type_symbol
_atom_site_label
_atom_site_fract_x
_atom_site_fract_y
_atom_site_fract_z
Si Si1 0.505950 0.317188 0.447828
Si Si2 0.914004 0.308381 0.917294
Si Si3 0.817817 0.319951 0.312276
Si Si4 0.993331 0.312213 0.738880
Si Si5 0.905901 0.812529 0.795893
Si Si6 0.194731 0.188894 0.805495
Si Si7 0.640723 0.693167 0.426891
O O1 0.500000 0.235173 0.500000
O O2 0.540450 0.500000 0.473352
O O3 0.394808 0.309877 0.370770
O O4 0.572053 0.249376 0.437602
O O5 0.923734 0.500000 0.918248
O O6 0.921487 0.242519 0.863114
O O7 0.805782 0.278385 0.883354
O O8 0.000000 0.247302 0.000000
O O9 0.850179 0.500000 0.342477
O O10 0.710007 0.293724 0.276072
O O11 0.812808 0.298746 0.248673
O O12 0.005547 0.500000 0.736648
O O13 0.960212 0.279422 0.779551
O O14 0.911628 0.251515 0.653831
O O15 0.098070 0.227057 0.786158
O O16 0.929707 0.000000 0.804866
O O17 0.191906 0.000000 0.790330
O O18 0.640019 0.500000 0.424466
O O19 0.750000 0.750000 0.500000
#
# Coordination Sequence:
#
# PCOD9187631 Si02
#       7
#     8   8   8   8   8   8   8
#     4  10  22  38  56  79 109 147 192 238 289 346
#     4   9  19  38  64  93 123 155 192 235 288 351
#     4  10  20  35  56  82 109 144 190 238 285 341
#     4  12  24  39  60  85 117 157 201 247 293 349
#     4  10  22  38  58  88 120 152 195 242 291 346
#     4  10  19  35  60  86 115 152 189 233 286 344
#     4  11  24  41  59  83 117 156 196 246 301 352
#
# _framework density 18.818584000000001
#
# number of rings (size 3 to 8) (size 9 to 14) (size 15 to 20)
#    0.000    1.714    1.429    3.000    2.000    3.429 
#    0.000    0.714    0.000    0.000    0.000    0.000 
#    0.000    0.000    0.000    0.000    0.000    0.000 
#
# Total GULP energy -156044.732592 kJ/mol
# GULP energy per Si atom -5573.026164 kJ/mol
# Density = 1.877575 g / cm^3
# Si number density = 18.818584 Si / 1000 Ang^3
#
#
#
# Elastic Constant Matrix: (Units=GPa)
#
#
# Indices 1 2 3 4 5 6 
#
# 1 97.9018 22.9297 44.5703 0.0000 1.2050 0.0000
# 2 22.9297 48.2359 28.5224 0.0000 9.5972 0.0000
# 3 44.5703 28.5224 116.2505 0.0000 6.5637 0.0000
# 4 0.0000 0.0000 0.0000 33.9983 0.0000 14.9931
# 5 1.2050 9.5972 6.5637 0.0000 16.5598 0.0000
# 6 0.0000 0.0000 0.0000 14.9931 0.0000 40.3260
#
#
#
# Elastic Compliance Matrix: (Units=1/GPa)
#
#
# Indices 1 2 3 4 5 6 
#
# 1 0.013085 -0.004435 -0.004112 0.000000 0.003248 0.000000
# 2 -0.004435 0.028314 -0.004438 0.000000 -0.014328 0.000000
# 3 -0.004112 -0.004438 0.011360 0.000000 -0.001631 0.000000
# 4 0.000000 0.000000 0.000000 0.035182 0.000000 -0.013080
# 5 0.003248 -0.014328 -0.001631 0.000000 0.069101 0.000000
# 6 0.000000 0.000000 0.000000 -0.013080 0.000000 0.029661
#
#
# Mechanical properties :
#
#
# Convention : Reuss Voigt Hill
#
# Bulk Modulus (GPa) = 37.32772 50.49253 43.91013
# Shear Modulus (GPa) = 22.56291 29.26787 25.91539
#
# Velocity S-wave (km/s) = 3.46637 3.94796 3.71498
# Velocity P-wave (km/s) = 5.99163 6.90444 6.46417
#
# Compressibility (1/GPa) = 0.02678974
#
# Stress axis : x y z
#
# Youngs Moduli (GPa) = 76.42281 35.31764 88.03131
#
# Poissons Ratio (x) = 0.15663 0.36199
# Poissons Ratio (y) = 0.33893 0.39066
# Poissons Ratio (z) = 0.31426 0.15673
#
# Static dielectric constant tensor:
#      x y z
#    x 1.660530 0.000000 0.002860 
#    y 0.000000 1.673660 0.000000 
#    z 0.002860 0.000000 1.721760 
# 
# From -- ./inp_files/362993.got.cif
#   From: 2010.05.17/outbox.cif.g08.bks.cpg/sg12_182_cif.got.tgz:362993.got - 2010.06.03 13:09:07.
