data_PCOD9187135
_publ_section_title
;
Structure prediction by ZEFSAII (Michael W. Deem and Ramdas Pophale) SiO2 
 PCOD9187135
Probable space group: C 2/M
;
_chemical_formula_sum "Si O2"
_cell_formula_units_Z 48
_cell_length_a 19.310005
_cell_length_b 7.506710
_cell_length_c 14.331772
_cell_angle_alpha 90.000000
_cell_angle_beta 102.452118
_cell_angle_gamma 90.000000
_cell_volume 2028.587434
_symmetry_space_group_name_H-M "C 2/M"
_symmetry_group_IT_number 12
_symmetry_cell_setting 'monoclinic'
loop_
_space_group_symop_operation_xyz
x,y,z
-x,y,-z
-x,-y,-z
x,-y,z
1/2+x,1/2+y,z
1/2-x,1/2+y,-z
1/2-x,1/2-y,-z
1/2+x,1/2-y,z
loop_
_atom_site_type_symbol
_atom_site_label
_atom_site_fract_x
_atom_site_fract_y
_atom_site_fract_z
Si Si1 0.887832 0.717702 0.926691
Si Si2 0.992587 0.710922 0.341092
Si Si3 0.353132 0.285437 0.397952
Si Si4 0.964224 0.283617 0.128743
Si Si5 0.267705 0.797474 0.760756
Si Si6 0.345553 0.296310 0.598895
O O1 0.885366 0.500000 0.923847
O O2 0.816757 0.783571 0.855686
O O3 0.958016 0.767523 0.887911
O O4 0.905099 0.774866 0.037202
O O5 0.005322 0.500000 0.338189
O O6 0.934709 0.743499 0.403271
O O7 0.958937 0.775232 0.233391
O O8 0.069090 0.795749 0.374907
O O9 0.345665 0.500000 0.398438
O O10 0.304915 0.215209 0.299084
O O11 0.327533 0.220154 0.491554
O O12 0.962431 0.500000 0.127089
O O13 0.315892 0.801060 0.680909
O O14 0.251619 0.000000 0.785079
O O15 0.321275 0.500000 0.599323
#
# Coordination Sequence:
#
# PCOD9187135 Si02
#       6
#     8   8   8   8   8   8
#     4   8  13  26  51  79 103 127 164 214 259 304
#     4  11  21  35  56  80 104 136 180 219 253 306
#     4  10  23  38  51  74 110 145 172 210 266 314
#     4   8  14  26  49  80 104 126 165 215 260 300
#     4  10  19  35  58  80 103 136 179 215 252 312
#     4  11  22  36  54  76 106 140 175 218 265 307
#
# _framework density 23.661784999999998
#
# number of rings (size 3 to 8) (size 9 to 14) (size 15 to 20)
#    0.000    2.333    1.667    3.000    0.000    4.000 
#    0.000    0.833    0.000    3.000    0.000    0.000 
#    0.000    0.000    0.000    0.000    0.000    0.000 
#
# Total GULP energy -134087.432775 kJ/mol
# GULP energy per Si atom -5586.976366 kJ/mol
# Density = 2.360793 g / cm^3
# Si number density = 23.661785 Si / 1000 Ang^3
#
#
#
# Elastic Constant Matrix: (Units=GPa)
#
#
# Indices 1 2 3 4 5 6 
#
# 1 71.4347 -2.8722 0.9618 0.0000 19.6211 0.0000
# 2 -2.8722 75.8157 7.0687 0.0000 4.0684 0.0000
# 3 0.9618 7.0687 100.8986 0.0000 28.2845 0.0000
# 4 0.0000 0.0000 0.0000 6.4525 0.0000 0.1587
# 5 19.6211 4.0684 28.2845 0.0000 43.4930 0.0000
# 6 0.0000 0.0000 0.0000 0.1587 0.0000 4.9024
#
#
#
# Elastic Compliance Matrix: (Units=1/GPa)
#
#
# Indices 1 2 3 4 5 6 
#
# 1 0.016481 0.000893 0.002309 0.000000 -0.009020 0.000000
# 2 0.000893 0.013347 -0.000588 0.000000 -0.001269 0.000000
# 3 0.002309 -0.000588 0.012482 0.000000 -0.009104 0.000000
# 4 0.000000 0.000000 0.000000 0.155103 0.000000 -0.005020
# 5 -0.009020 -0.001269 -0.009104 0.000000 0.033101 0.000000
# 6 0.000000 0.000000 0.000000 -0.005020 0.000000 0.204145
#
#
# Mechanical properties :
#
#
# Convention : Reuss Voigt Hill
#
# Bulk Modulus (GPa) = 21.03544 28.71840 24.87692
# Shear Modulus (GPa) = 11.22899 27.16896 19.19897
#
# Velocity S-wave (km/s) = 2.18081 3.39222 2.85158
# Velocity P-wave (km/s) = 3.90520 5.24464 4.62368
#
# Compressibility (1/GPa) = 0.04753883
#
# Stress axis : x y z
#
# Youngs Moduli (GPa) = 60.67496 74.92536 80.11377
#
# Poissons Ratio (x) = -0.06692 -0.18498
# Poissons Ratio (y) = -0.05419 0.04709
# Poissons Ratio (z) = -0.14010 0.04404
#
# Static dielectric constant tensor:
#      x y z
#    x 1.852980 0.000000 0.046850 
#    y 0.000000 1.902240 0.000000 
#    z 0.046850 0.000000 1.930030 
# 
# From -- ./inp_files/229966.got.cif
#   From: 2010.05.17/outbox.cif.g08.bks.cpg/sg12_115_cif.got.tgz:229966.got - 2010.06.03 13:09:07.
