data_PCOD9187005
_publ_section_title
;
Structure prediction by ZEFSAII (Michael W. Deem and Ramdas Pophale) SiO2 
 PCOD9187005
Probable space group: C 2/M
;
_chemical_formula_sum "Si O2"
_cell_formula_units_Z 56
_cell_length_a 11.695894
_cell_length_b 18.874352
_cell_length_c 14.934139
_cell_angle_alpha 90.000000
_cell_angle_beta 66.469743
_cell_angle_gamma 90.000000
_cell_volume 3022.620723
_symmetry_space_group_name_H-M "C 2/M"
_symmetry_group_IT_number 12
_symmetry_cell_setting 'monoclinic'
loop_
_space_group_symop_operation_xyz
x,y,z
-x,y,-z
-x,-y,-z
x,-y,z
1/2+x,1/2+y,z
1/2-x,1/2+y,-z
1/2-x,1/2-y,-z
1/2+x,1/2-y,z
loop_
_atom_site_type_symbol
_atom_site_label
_atom_site_fract_x
_atom_site_fract_y
_atom_site_fract_z
Si Si1 0.708799 0.290797 0.274260
Si Si2 0.740214 0.828952 0.551234
Si Si3 0.037469 0.674227 0.388229
Si Si4 0.348631 0.420636 0.054923
Si Si5 0.903081 0.826047 0.196202
Si Si6 0.720713 0.416091 0.631397
Si Si7 0.810334 0.814479 0.924309
O O1 0.698136 0.333170 0.370287
O O2 0.591440 0.237630 0.312372
O O3 0.828445 0.241013 0.254276
O O4 0.725673 0.319763 0.168968
O O5 0.750000 0.750000 0.500000
O O6 0.594443 0.849804 0.608530
O O7 0.793148 0.883405 0.462493
O O8 0.149980 0.618182 0.368981
O O9 0.000000 0.699752 0.500000
O O10 0.304995 0.500000 0.089896
O O11 0.328546 0.362134 0.137482
O O12 0.500000 0.424430 0.000000
O O13 0.290709 0.387852 0.983595
O O14 0.894167 0.886338 0.274299
O O15 0.039969 0.805460 0.123016
O O16 0.728022 0.500000 0.630812
O O17 0.750000 0.750000 0.000000
#
# Coordination Sequence:
#
# PCOD9187005 Si02
#       7
#     8   8   8   8   8   8   8
#     4  11  20  32  54  82 112 148 184 237 286 339
#     4  11  19  34  53  83 118 155 186 231 285 343
#     4   9  18  32  54  80 111 147 190 234 280 327
#     4   9  18  34  54  76 107 142 179 230 284 326
#     4  10  19  35  57  82 113 140 187 244 290 329
#     4  10  21  36  58  87 115 149 194 240 285 337
#     4  11  22  34  55  84 112 146 192 238 286 344
#
# _framework density 18.526969000000001
#
# number of rings (size 3 to 8) (size 9 to 14) (size 15 to 20)
#    0.000    1.857    5.714    1.286    0.000    3.143 
#    0.000    0.714    0.000    0.857    0.000    2.000 
#    0.000    0.000    0.000    0.000    0.000    0.000 
#
# Total GULP energy -155909.448400 kJ/mol
# GULP energy per Si atom -5568.194586 kJ/mol
# Density = 1.848480 g / cm^3
# Si number density = 18.526969 Si / 1000 Ang^3
#
#
#
# Elastic Constant Matrix: (Units=GPa)
#
#
# Indices 1 2 3 4 5 6 
#
# 1 33.0799 21.7539 29.7591 0.0000 3.1166 0.0000
# 2 21.7539 70.7736 35.7334 0.0000 7.3219 0.0000
# 3 29.7591 35.7334 109.9061 0.0000 15.5756 0.0000
# 4 0.0000 0.0000 0.0000 15.8246 0.0000 5.3030
# 5 3.1166 7.3219 15.5756 0.0000 43.1076 0.0000
# 6 0.0000 0.0000 0.0000 5.3030 0.0000 12.2746
#
#
#
# Elastic Compliance Matrix: (Units=1/GPa)
#
#
# Indices 1 2 3 4 5 6 
#
# 1 0.044452 -0.009141 -0.009305 0.000000 0.001701 0.000000
# 2 -0.009141 0.018820 -0.003462 0.000000 -0.001285 0.000000
# 3 -0.009305 -0.003462 0.013243 0.000000 -0.003524 0.000000
# 4 0.000000 0.000000 0.000000 0.073890 0.000000 -0.031923
# 5 0.001701 -0.001285 -0.003524 0.000000 0.024566 0.000000
# 6 0.000000 0.000000 0.000000 -0.031923 0.000000 0.095261
#
#
# Mechanical properties :
#
#
# Convention : Reuss Voigt Hill
#
# Bulk Modulus (GPa) = 30.58182 43.13915 36.86048
# Shear Modulus (GPa) = 15.38706 22.67558 19.03132
#
# Velocity S-wave (km/s) = 2.88500 3.50226 3.20851
# Velocity P-wave (km/s) = 5.25739 6.29996 5.80214
#
# Compressibility (1/GPa) = 0.03269916
#
# Stress axis : x y z
#
# Youngs Moduli (GPa) = 22.49617 53.13497 75.51061
#
# Poissons Ratio (x) = 0.48571 0.70264
# Poissons Ratio (y) = 0.20564 0.26139
# Poissons Ratio (z) = 0.20933 0.18394
#
# Static dielectric constant tensor:
#      x y z
#    x 1.691090 0.000000 0.023310 
#    y 0.000000 1.622400 0.000000 
#    z 0.023310 0.000000 1.701650 
# 
# From -- ./inp_files/206098.got.cif
#   From: 2010.05.17/outbox.cif.g08.bks.cpg/sg12_104_cif.got.tgz:206098.got - 2010.06.03 13:09:07.
