data_PCOD9187366
_publ_section_title
;
Structure prediction by ZEFSAII (Michael W. Deem and Ramdas Pophale) SiO2 
 PCOD9187366
Probable space group: C 2/M
;
_chemical_formula_sum "Si O2"
_cell_formula_units_Z 64
_cell_length_a 29.594047
_cell_length_b 7.535451
_cell_length_c 23.677298
_cell_angle_alpha 90.000000
_cell_angle_beta 32.109003
_cell_angle_gamma 90.000000
_cell_volume 2806.563715
_symmetry_space_group_name_H-M "C 2/M"
_symmetry_group_IT_number 12
_symmetry_cell_setting 'monoclinic'
loop_
_space_group_symop_operation_xyz
x,y,z
-x,y,-z
-x,-y,-z
x,-y,z
1/2+x,1/2+y,z
1/2-x,1/2+y,-z
1/2-x,1/2-y,-z
1/2+x,1/2-y,z
loop_
_atom_site_type_symbol
_atom_site_label
_atom_site_fract_x
_atom_site_fract_y
_atom_site_fract_z
Si Si1 0.788532 0.287671 0.897961
Si Si2 0.237156 0.785008 0.332860
Si Si3 0.473790 0.784971 0.231304
Si Si4 0.092868 0.701627 0.905553
Si Si5 0.946369 0.291084 0.504071
Si Si6 0.288997 0.212155 0.397651
Si Si7 0.516880 0.782777 0.310736
Si Si8 0.136651 0.791649 0.983114
O O1 0.791780 0.500000 0.887983
O O2 0.884868 0.224204 0.791943
O O3 0.750000 0.250000 0.000000
O O4 0.721785 0.220598 0.922527
O O5 0.326528 0.721277 0.212494
O O6 0.154994 0.726670 0.384895
O O7 0.236124 0.723663 0.399402
O O8 0.236414 0.000000 0.331666
O O9 0.386598 0.723461 0.294572
O O10 0.476725 0.726560 0.293625
O O11 0.558015 0.726707 0.109437
O O12 0.474160 0.000000 0.230302
O O13 0.083310 0.500000 0.892784
O O14 0.116104 0.698192 0.946554
O O15 0.000000 0.787785 0.000000
O O16 0.967114 0.500000 0.479969
O O17 0.000000 0.216893 0.500000
O O18 0.972189 0.218783 0.415134
O O19 0.250000 0.250000 0.500000
O O20 0.292412 0.000000 0.388423
O O21 0.514839 0.000000 0.312164
O O22 0.147859 0.000000 0.958769
#
# Coordination Sequence:
#
# PCOD9187366 Si02
#       8
#     8   8   8   8   8   8   8   8
#     4  10  20  35  55  82 117 151 190 237 287 343
#     4  10  22  40  60  86 120 153 192 244 292 340
#     4  10  19  35  59  81 111 155 195 229 277 352
#     4  10  22  42  65  85 113 158 202 234 280 354
#     4  10  22  39  62  86 112 154 202 243 289 346
#     4  10  21  37  60  88 115 148 190 236 287 341
#     4   9  18  34  56  81 111 150 196 237 277 337
#     4  11  23  35  55  88 120 145 184 243 298 338
#
# _framework density 22.803685000000002
#
# number of rings (size 3 to 8) (size 9 to 14) (size 15 to 20)
#    0.000    2.000    1.250    1.875    1.750    5.500 
#    0.000    2.500    0.000    0.000    0.000    0.000 
#    0.000    0.000    0.000    0.000    0.000    0.000 
#
# Total GULP energy -178855.424744 kJ/mol
# GULP energy per Si atom -5589.232023 kJ/mol
# Density = 2.275178 g / cm^3
# Si number density = 22.803685 Si / 1000 Ang^3
#
#
#
# Elastic Constant Matrix: (Units=GPa)
#
#
# Indices 1 2 3 4 5 6 
#
# 1 152.1576 -2.4715 32.9018 -0.0041 -10.5846 0.0005
# 2 -2.4715 57.6660 -12.1700 -0.0247 0.8872 0.0096
# 3 32.9018 -12.1700 89.8480 -0.0250 -3.8213 0.0048
# 4 -0.0041 -0.0247 -0.0250 9.6429 0.0023 4.1775
# 5 -10.5846 0.8872 -3.8213 0.0023 42.7079 0.0050
# 6 0.0005 0.0096 0.0048 4.1775 0.0050 5.7560
#
#
#
# Elastic Compliance Matrix: (Units=1/GPa)
#
#
# Indices 1 2 3 4 5 6 
#
# 1 0.007244 -0.000267 -0.002622 -0.000007 0.001566 0.000006
# 2 -0.000267 0.017862 0.002508 0.000096 -0.000213 -0.000101
# 3 -0.002622 0.002508 0.012447 0.000064 0.000412 -0.000061
# 4 -0.000007 0.000096 0.000064 0.151262 0.000006 -0.109780
# 5 0.001566 -0.000213 0.000412 0.000006 0.023844 -0.000025
# 6 0.000006 -0.000101 -0.000061 -0.109780 -0.000025 0.253404
#
#
# Mechanical properties :
#
#
# Convention : Reuss Voigt Hill
#
# Bulk Modulus (GPa) = 27.18002 37.35470 32.26736
# Shear Modulus (GPa) = 10.43645 30.38211 20.40928
#
# Velocity S-wave (km/s) = 2.14163 3.65407 2.99490
# Velocity P-wave (km/s) = 4.24976 5.84975 5.11273
#
# Compressibility (1/GPa) = 0.03679173
#
# Stress axis : x y z
#
# Youngs Moduli (GPa) = 138.04994 55.98329 80.33789
#
# Poissons Ratio (x) = 0.01495 0.21066
# Poissons Ratio (y) = 0.03687 -0.20151
# Poissons Ratio (z) = 0.36199 -0.14042
#
# Static dielectric constant tensor:
#      x y z
#    x 1.832720 -0.000010 -0.012760 
#    y -0.000010 1.919760 0.000010 
#    z -0.012760 0.000010 1.825600 
# 
# From -- ./inp_files/353334.got.cif
#   From: 2010.05.17/outbox.cif.g08.bks.cpg/sg12_177_cif.got.tgz:353334.got - 2010.06.03 13:09:07.
