data_PCOD9187975
_publ_section_title
;
Structure prediction by ZEFSAII (Michael W. Deem and Ramdas Pophale) SiO2 
 PCOD9187975
Probable space group: C 2/M
;
_chemical_formula_sum "Si O2"
_cell_formula_units_Z 64
_cell_length_a 14.851984
_cell_length_b 17.172880
_cell_length_c 14.992319
_cell_angle_alpha 90.000000
_cell_angle_beta 123.863493
_cell_angle_gamma 90.000000
_cell_volume 3175.168385
_symmetry_space_group_name_H-M "C 2/M"
_symmetry_group_IT_number 12
_symmetry_cell_setting 'monoclinic'
loop_
_space_group_symop_operation_xyz
x,y,z
-x,y,-z
-x,-y,-z
x,-y,z
1/2+x,1/2+y,z
1/2-x,1/2+y,-z
1/2-x,1/2-y,-z
1/2+x,1/2-y,z
loop_
_atom_site_type_symbol
_atom_site_label
_atom_site_fract_x
_atom_site_fract_y
_atom_site_fract_z
Si Si1 0.290697 0.588416 0.591813
Si Si2 0.996071 0.586920 0.902124
Si Si3 0.108856 0.592018 0.777656
Si Si4 0.372806 0.412083 0.434041
Si Si5 0.303392 0.752468 0.126594
Si Si6 0.798902 0.670418 0.768386
Si Si7 0.438056 0.828127 0.555746
Si Si8 0.442331 0.281541 0.725277
O O1 0.277230 0.500000 0.616286
O O2 0.327057 0.586704 0.508671
O O3 0.176492 0.633421 0.532787
O O4 0.386173 0.634645 0.693873
O O5 0.037031 0.500000 0.940010
O O6 0.060059 0.610229 0.849347
O O7 0.870271 0.592230 0.807935
O O8 0.000000 0.629680 0.000000
O O9 0.138083 0.500000 0.788392
O O10 0.195945 0.662149 0.824031
O O11 0.016021 0.611717 0.653581
O O12 0.500000 0.396754 0.500000
O O13 0.357207 0.500000 0.388106
O O14 0.308303 0.346499 0.345974
O O15 0.235771 0.696849 0.153758
O O16 0.428281 0.722628 0.191120
O O17 0.250000 0.750000 0.000000
O O18 0.877942 0.731146 0.763045
O O19 0.500000 0.804936 0.500000
O O20 0.420296 0.758685 0.616546
#
# Coordination Sequence:
#
# PCOD9187975 Si02
#       8
#     8   8   8   8   8   8   8   8
#     4  11  23  40  60  92 132 169 206 250 306 374
#     4  10  19  35  64  95 120 151 198 266 333 373
#     4  10  21  41  61  92 131 159 204 264 310 370
#     4  10  21  38  61  92 129 167 202 248 310 375
#     4  11  25  43  64  94 123 163 210 261 324 376
#     4  12  22  38  66  86 124 165 205 257 309 369
#     4  11  23  39  66  93 127 168 214 262 308 368
#     4  11  25  42  61  95 122 162 218 258 308 374
#
# _framework density 20.156412
#
# number of rings (size 3 to 8) (size 9 to 14) (size 15 to 20)
#    0.000    1.250    3.750    2.625    3.500    3.500 
#    0.000    1.875    0.000    0.000    0.000    1.750 
#    0.000    0.000    0.000    0.000    0.000    0.000 
#
# Total GULP energy -178553.005130 kJ/mol
# GULP energy per Si atom -5579.781410 kJ/mol
# Density = 2.011053 g / cm^3
# Si number density = 20.156412 Si / 1000 Ang^3
#
#
#
# Elastic Constant Matrix: (Units=GPa)
#
#
# Indices 1 2 3 4 5 6 
#
# 1 94.3533 -2.2827 17.2501 0.0000 0.9986 0.0000
# 2 -2.2827 54.3956 7.9228 0.0000 18.4749 0.0000
# 3 17.2501 7.9228 62.8752 0.0000 5.2573 0.0000
# 4 0.0000 0.0000 0.0000 24.9707 0.0000 0.5272
# 5 0.9986 18.4749 5.2573 0.0000 34.8716 0.0000
# 6 0.0000 0.0000 0.0000 0.5272 0.0000 16.4115
#
#
#
# Elastic Compliance Matrix: (Units=1/GPa)
#
#
# Indices 1 2 3 4 5 6 
#
# 1 0.011209 0.001072 -0.003176 0.000000 -0.000410 0.000000
# 2 0.001072 0.022736 -0.002177 0.000000 -0.011748 0.000000
# 3 -0.003176 -0.002177 0.017163 0.000000 -0.001343 0.000000
# 4 0.000000 0.000000 0.000000 0.040074 0.000000 -0.001287
# 5 -0.000410 -0.011748 -0.001343 0.000000 0.035115 0.000000
# 6 0.000000 0.000000 0.000000 -0.001287 0.000000 0.060974
#
#
# Mechanical properties :
#
#
# Convention : Reuss Voigt Hill
#
# Bulk Modulus (GPa) = 23.50359 28.60051 26.05205
# Shear Modulus (GPa) = 23.80786 27.83304 25.82045
#
# Velocity S-wave (km/s) = 3.44052 3.72001 3.58299
# Velocity P-wave (km/s) = 5.24107 5.71589 5.48362
#
# Compressibility (1/GPa) = 0.04254669
#
# Stress axis : x y z
#
# Youngs Moduli (GPa) = 89.21063 43.98310 58.26651
#
# Poissons Ratio (x) = -0.04717 0.18506
# Poissons Ratio (y) = -0.09567 0.12684
# Poissons Ratio (z) = 0.28335 0.09574
#
# Static dielectric constant tensor:
#      x y z
#    x 1.706240 0.000000 -0.020790 
#    y 0.000000 1.794700 0.000000 
#    z -0.020790 0.000000 1.743530 
# 
# From -- ./inp_files/216825.got.cif
#   From: 2010.05.17/outbox.cif.g08.bks.cpg/sg12_109_cif.got.tgz:216825.got - 2010.06.03 13:09:07.
