data_PCOD9187845
_publ_section_title
;
Structure prediction by ZEFSAII (Michael W. Deem and Ramdas Pophale) SiO2 
 PCOD9187845
Probable space group: C 2/M
;
_chemical_formula_sum "Si O2"
_cell_formula_units_Z 56
_cell_length_a 16.966243
_cell_length_b 16.224692
_cell_length_c 15.514850
_cell_angle_alpha 90.000000
_cell_angle_beta 40.762479
_cell_angle_gamma 90.000000
_cell_volume 2788.514109
_symmetry_space_group_name_H-M "C 2/M"
_symmetry_group_IT_number 12
_symmetry_cell_setting 'monoclinic'
loop_
_space_group_symop_operation_xyz
x,y,z
-x,y,-z
-x,-y,-z
x,-y,z
1/2+x,1/2+y,z
1/2-x,1/2+y,-z
1/2-x,1/2-y,-z
1/2+x,1/2-y,z
loop_
_atom_site_type_symbol
_atom_site_label
_atom_site_fract_x
_atom_site_fract_y
_atom_site_fract_z
Si Si1 0.543374 0.189571 0.064111
Si Si2 0.146167 0.865446 0.021942
Si Si3 0.874055 0.771183 0.639953
Si Si4 0.180565 0.254046 0.648288
Si Si5 0.391191 0.586818 0.222195
Si Si6 0.673970 0.908160 0.264711
Si Si7 0.724755 0.594424 0.144557
O O1 0.625512 0.268534 0.022471
O O2 0.431425 0.188662 0.224825
O O3 0.500000 0.202381 0.000000
O O4 0.633398 0.112673 0.989885
O O5 0.153651 0.889708 0.114856
O O6 0.028355 0.906896 0.077120
O O7 0.267246 0.897104 0.877289
O O8 0.780585 0.764437 0.639120
O O9 0.894171 0.677565 0.659488
O O10 0.819965 0.835647 0.752408
O O11 0.000000 0.802686 0.500000
O O12 0.250000 0.250000 0.500000
O O13 0.123862 0.163661 0.703934
O O14 0.372872 0.500000 0.282466
O O15 0.289920 0.593338 0.232746
O O16 0.617140 0.000000 0.320612
O O17 0.707546 0.500000 0.187355
#
# Coordination Sequence:
#
# PCOD9187845 Si02
#       7
#     8   8   8   8   8   8   8
#     4  11  21  43  70  92 125 171 221 272 327 380
#     4  11  20  35  62  97 127 156 206 268 324 379
#     4  11  25  42  61  87 128 173 214 265 336 388
#     4  10  22  40  63  92 120 164 221 263 316 388
#     4   9  18  33  57  88 125 159 198 261 322 379
#     4  10  19  35  61  94 126 161 207 263 331 395
#     4  12  26  42  63  96 133 175 224 266 317 390
#
# _framework density 20.082380000000001
#
# number of rings (size 3 to 8) (size 9 to 14) (size 15 to 20)
#    0.000    1.429    2.857    3.857    4.000    2.000 
#    0.000    1.429    0.000    0.000    0.000    0.000 
#    0.000    0.000    0.000    0.000    0.000    0.000 
#
# Total GULP energy -156086.235661 kJ/mol
# GULP energy per Si atom -5574.508416 kJ/mol
# Density = 2.003667 g / cm^3
# Si number density = 20.082380 Si / 1000 Ang^3
#
#
#
# Elastic Constant Matrix: (Units=GPa)
#
#
# Indices 1 2 3 4 5 6 
#
# 1 50.3447 22.8596 22.2476 0.0000 10.1604 0.0000
# 2 22.8596 103.8750 32.0571 0.0000 8.9417 0.0000
# 3 22.2476 32.0571 120.3232 0.0000 10.1176 0.0000
# 4 0.0000 0.0000 0.0000 1.0413 0.0000 -3.4256
# 5 10.1604 8.9417 10.1176 0.0000 30.7787 0.0000
# 6 0.0000 0.0000 0.0000 -3.4256 0.0000 9.8866
#
#
#
# Elastic Compliance Matrix: (Units=1/GPa)
#
#
# Indices 1 2 3 4 5 6 
#
# 1 0.024110 -0.003898 -0.002926 0.000000 -0.005865 0.000000
# 2 -0.003898 0.011265 -0.002174 0.000000 -0.001271 0.000000
# 3 -0.002926 -0.002174 0.009561 0.000000 -0.001545 0.000000
# 4 0.000000 0.000000 0.000000 -6.865978 0.000001 -2.378990
# 5 -0.005865 -0.001271 -0.001545 0.000001 0.035303 0.000001
# 6 0.000000 0.000000 0.000000 -2.378990 0.000001 -0.723148
#
#
# Mechanical properties :
#
#
# Convention : Reuss Voigt Hill
#
# Bulk Modulus (GPa) = 37.11920 47.65237 42.38578
# Shear Modulus (GPa) = -0.66828 21.49989 10.41581
#
# Velocity S-wave (km/s) = -0.57749 3.27553 2.27987
# Velocity P-wave (km/s) = 4.25193 6.17134 5.29926
#
# Compressibility (1/GPa) = 0.02694024
#
# Stress axis : x y z
#
# Youngs Moduli (GPa) = 41.47720 88.77037 104.59074
#
# Poissons Ratio (x) = 0.34602 0.30606
# Poissons Ratio (y) = 0.16167 0.22734
# Poissons Ratio (z) = 0.12137 0.19296
#
# Static dielectric constant tensor:
#      x y z
#    x 1.720720 0.000000 -0.011630 
#    y 0.000000 1.754110 0.000000 
#    z -0.011630 0.000000 1.770470 
# 
# From -- ./inp_files/284537.got.cif
#   From: 2010.05.17/outbox.cif.g08.bks.cpg/sg12_143_cif.got.tgz:284537.got - 2010.06.03 13:09:07.
