data_PCOD9187213
_publ_section_title
;
Structure prediction by ZEFSAII (Michael W. Deem and Ramdas Pophale) SiO2 
 PCOD9187213
Probable space group: C 2/M
;
_chemical_formula_sum "Si O2"
_cell_formula_units_Z 48
_cell_length_a 12.994100
_cell_length_b 13.625746
_cell_length_c 13.420907
_cell_angle_alpha 90.000000
_cell_angle_beta 74.447010
_cell_angle_gamma 90.000000
_cell_volume 2289.218713
_symmetry_space_group_name_H-M "C 2/M"
_symmetry_group_IT_number 12
_symmetry_cell_setting 'monoclinic'
loop_
_space_group_symop_operation_xyz
x,y,z
-x,y,-z
-x,-y,-z
x,-y,z
1/2+x,1/2+y,z
1/2-x,1/2+y,-z
1/2-x,1/2-y,-z
1/2+x,1/2-y,z
loop_
_atom_site_type_symbol
_atom_site_label
_atom_site_fract_x
_atom_site_fract_y
_atom_site_fract_z
Si Si1 0.158291 0.291463 0.410976
Si Si2 0.810918 0.386893 0.401653
Si Si3 0.349714 0.615205 0.238881
Si Si4 0.954747 0.388603 0.163549
Si Si5 0.285510 0.220233 0.099860
Si Si6 0.435837 0.721686 0.761169
O O1 0.124911 0.348450 0.518591
O O2 0.210295 0.186014 0.423617
O O3 0.255265 0.355516 0.339095
O O4 0.075862 0.268880 0.344655
O O5 0.781095 0.500000 0.421994
O O6 0.877649 0.378688 0.281832
O O7 0.349210 0.500000 0.218133
O O8 0.324749 0.682925 0.149486
O O9 0.464029 0.649866 0.252651
O O10 0.991420 0.500000 0.146895
O O11 0.882119 0.355795 0.089684
O O12 0.045111 0.310017 0.165274
O O13 0.179924 0.178178 0.182396
O O14 0.250000 0.250000 0.000000
#
# Coordination Sequence:
#
# PCOD9187213 Si02
#       6
#     8   8   8   8   8   8
#     4  10  20  37  57  82 122 154 188 228 281 328
#     4  10  19  35  58  83 116 155 191 229 274 332
#     4  10  21  38  58  86 116 148 190 236 279 334
#     4  10  21  38  57  85 115 146 189 233 277 332
#     4  10  22  41  60  82 113 148 185 234 291 341
#     4  10  20  38  57  84 110 151 183 235 279 336
#
# _framework density 20.967853000000002
#
# number of rings (size 3 to 8) (size 9 to 14) (size 15 to 20)
#    0.000    2.000    5.000    0.500    0.000    8.667 
#    0.000    3.333    0.000    3.000    0.000    0.000 
#    0.000    0.000    0.000    0.000    0.000    0.000 
#
# Total GULP energy -134036.925209 kJ/mol
# GULP energy per Si atom -5584.871884 kJ/mol
# Density = 2.092013 g / cm^3
# Si number density = 20.967853 Si / 1000 Ang^3
#
#
#
# Elastic Constant Matrix: (Units=GPa)
#
#
# Indices 1 2 3 4 5 6 
#
# 1 88.6443 13.0604 17.7643 0.0000 14.9843 0.0000
# 2 13.0604 83.5770 -4.8100 0.0000 -10.4488 0.0000
# 3 17.7643 -4.8100 76.9143 0.0000 24.7059 0.0000
# 4 0.0000 0.0000 0.0000 18.4047 0.0000 -0.0902
# 5 14.9843 -10.4488 24.7059 0.0000 30.6317 0.0000
# 6 0.0000 0.0000 0.0000 -0.0902 0.0000 9.3472
#
#
#
# Elastic Compliance Matrix: (Units=1/GPa)
#
#
# Indices 1 2 3 4 5 6 
#
# 1 0.013026 -0.002908 -0.001113 0.000000 -0.006466 0.000000
# 2 -0.002908 0.013183 -0.000547 0.000000 0.006361 0.000000
# 3 -0.001113 -0.000547 0.017693 0.000000 -0.013912 0.000000
# 4 0.000000 0.000000 0.000000 0.054336 0.000000 0.000524
# 5 -0.006466 0.006361 -0.013912 0.000000 0.049199 0.000000
# 6 0.000000 0.000000 0.000000 0.000524 0.000000 0.106989
#
#
# Mechanical properties :
#
#
# Convention : Reuss Voigt Hill
#
# Bulk Modulus (GPa) = 28.76435 33.46279 31.11357
# Shear Modulus (GPa) = 18.17177 26.55145 22.36161
#
# Velocity S-wave (km/s) = 2.94708 3.56236 3.26923
# Velocity P-wave (km/s) = 5.03274 5.73710 5.39642
#
# Compressibility (1/GPa) = 0.03476525
#
# Stress axis : x y z
#
# Youngs Moduli (GPa) = 76.77224 75.85448 56.51869
#
# Poissons Ratio (x) = 0.22058 0.06293
# Poissons Ratio (y) = 0.22325 0.03092
# Poissons Ratio (z) = 0.08548 0.04150
#
# Static dielectric constant tensor:
#      x y z
#    x 1.770350 0.000000 -0.014110 
#    y 0.000000 1.712190 0.000000 
#    z -0.014110 0.000000 1.816780 
# 
# From -- ./inp_files/204448.got.cif
#   From: 2010.05.17/outbox.cif.g08.bks.cpg/sg12_103_cif.got.tgz:204448.got - 2010.06.03 13:09:07.
