data_PCOD9187436
_publ_section_title
;
Structure prediction by ZEFSAII (Michael W. Deem and Ramdas Pophale) SiO2 
 PCOD9187436
Probable space group: C 2/M
;
_chemical_formula_sum "Si O2"
_cell_formula_units_Z 64
_cell_length_a 16.279238
_cell_length_b 10.530972
_cell_length_c 20.863732
_cell_angle_alpha 90.000000
_cell_angle_beta 107.422224
_cell_angle_gamma 90.000000
_cell_volume 3412.710640
_symmetry_space_group_name_H-M "C 2/M"
_symmetry_group_IT_number 12
_symmetry_cell_setting 'monoclinic'
loop_
_space_group_symop_operation_xyz
x,y,z
-x,y,-z
-x,-y,-z
x,-y,z
1/2+x,1/2+y,z
1/2-x,1/2+y,-z
1/2-x,1/2-y,-z
1/2+x,1/2-y,z
loop_
_atom_site_type_symbol
_atom_site_label
_atom_site_fract_x
_atom_site_fract_y
_atom_site_fract_z
Si Si1 0.704739 0.295736 0.593227
Si Si2 0.350360 0.360870 0.559563
Si Si3 0.102768 0.146605 0.029131
Si Si4 0.806685 0.647059 0.866785
Si Si5 0.626481 0.652384 0.891729
Si Si6 0.459529 0.349179 0.372183
Si Si7 0.012533 0.149257 0.242267
Si Si8 0.155287 0.638358 0.272686
O O1 0.676004 0.363163 0.520862
O O2 0.769121 0.189744 0.579891
O O3 0.616291 0.272558 0.610824
O O4 0.767178 0.362369 0.658652
O O5 0.368250 0.500000 0.589898
O O6 0.444941 0.298395 0.586953
O O7 0.131428 0.246653 0.089060
O O8 0.132420 0.000000 0.047702
O O9 0.133833 0.195544 0.966666
O O10 0.000000 0.141934 0.000000
O O11 0.827820 0.500000 0.890208
O O12 0.712514 0.677589 0.872342
O O13 0.808739 0.651633 0.790666
O O14 0.617000 0.500000 0.894047
O O15 0.543767 0.694313 0.831631
O O16 0.450011 0.500000 0.388961
O O17 0.456470 0.344592 0.294362
O O18 0.092407 0.243379 0.269685
O O19 0.036491 0.000000 0.239166
O O20 0.110591 0.500000 0.266595
#
# Coordination Sequence:
#
# PCOD9187436 Si02
#       8
#     8   8   8   8   8   8   8   8
#     4  11  21  35  60  83 116 152 189 238 297 343
#     4  10  21  37  57  85 115 147 195 243 286 344
#     4  10  20  35  55  81 110 142 182 226 277 332
#     4  10  21  36  55  80 109 144 185 228 276 335
#     4   9  18  34  56  80 108 142 184 231 276 329
#     4  10  19  35  59  85 110 146 197 240 278 339
#     4  10  20  37  60  83 110 148 192 236 279 335
#     4  11  22  36  54  82 115 147 184 232 290 344
#
# _framework density 18.753419999999998
#
# number of rings (size 3 to 8) (size 9 to 14) (size 15 to 20)
#    0.000    1.875    1.250    3.375    0.000    4.750 
#    0.000    1.875    0.000    3.000    0.000    0.000 
#    0.000    0.000    0.000    0.000    0.000    0.000 
#
# Total GULP energy -178256.540911 kJ/mol
# GULP energy per Si atom -5570.516903 kJ/mol
# Density = 1.871074 g / cm^3
# Si number density = 18.753420 Si / 1000 Ang^3
#
#
#
# Elastic Constant Matrix: (Units=GPa)
#
#
# Indices 1 2 3 4 5 6 
#
# 1 88.8692 31.9745 8.6238 0.0000 -14.8251 0.0000
# 2 31.9745 58.8201 28.9639 0.0000 -1.6237 0.0000
# 3 8.6238 28.9639 94.2110 0.0000 -3.8941 0.0000
# 4 0.0000 0.0000 0.0000 6.8674 0.0000 9.6809
# 5 -14.8251 -1.6237 -3.8941 0.0000 32.1588 0.0000
# 6 0.0000 0.0000 0.0000 9.6809 0.0000 7.3542
#
#
#
# Elastic Compliance Matrix: (Units=1/GPa)
#
#
# Indices 1 2 3 4 5 6 
#
# 1 0.015495 -0.009044 0.001647 0.000000 0.006886 0.000000
# 2 -0.009044 0.025315 -0.007110 0.000000 -0.003752 0.000000
# 3 0.001647 -0.007110 0.012730 0.000000 0.001942 0.000000
# 4 0.000000 0.000000 0.000000 -0.170172 0.000000 0.224012
# 5 0.006886 -0.003752 0.001942 0.000000 0.034316 0.000000
# 6 0.000000 0.000000 0.000000 0.224012 0.000000 -0.158909
#
#
# Mechanical properties :
#
#
# Convention : Reuss Voigt Hill
#
# Bulk Modulus (GPa) = 40.77389 42.33607 41.55498
# Shear Modulus (GPa) = -24.50545 20.76530 -1.87007
#
# Velocity S-wave (km/s) = -3.61878 3.33119 -0.99968
# Velocity P-wave (km/s) = 2.08052 6.11718 4.56883
#
# Compressibility (1/GPa) = 0.02452550
#
# Stress axis : x y z
#
# Youngs Moduli (GPa) = 64.53528 39.50269 78.55568
#
# Poissons Ratio (x) = 0.35726 -0.12936
# Poissons Ratio (y) = 0.58366 0.55852
# Poissons Ratio (z) = -0.10627 0.28086
#
# Static dielectric constant tensor:
#      x y z
#    x 1.654010 0.000000 -0.008270 
#    y 0.000000 1.646300 0.000000 
#    z -0.008270 0.000000 1.676700 
# 
# From -- ./inp_files/309962.got.cif
#   From: 2010.05.17/outbox.cif.g08.bks.cpg/sg12_155_cif.got.tgz:309962.got - 2010.06.03 13:09:07.
