data_PCOD9187893
_publ_section_title
;
Structure prediction by ZEFSAII (Michael W. Deem and Ramdas Pophale) SiO2 
 PCOD9187893
Probable space group: C 2/M
;
_chemical_formula_sum "Si O2"
_cell_formula_units_Z 64
_cell_length_a 11.568762
_cell_length_b 16.881731
_cell_length_c 20.889033
_cell_angle_alpha 90.000000
_cell_angle_beta 132.565942
_cell_angle_gamma 90.000000
_cell_volume 3004.654509
_symmetry_space_group_name_H-M "C 2/M"
_symmetry_group_IT_number 12
_symmetry_cell_setting 'monoclinic'
loop_
_space_group_symop_operation_xyz
x,y,z
-x,y,-z
-x,-y,-z
x,-y,z
1/2+x,1/2+y,z
1/2-x,1/2+y,-z
1/2-x,1/2-y,-z
1/2+x,1/2-y,z
loop_
_atom_site_type_symbol
_atom_site_label
_atom_site_fract_x
_atom_site_fract_y
_atom_site_fract_z
Si Si1 0.618228 0.242548 0.897910
Si Si2 0.827301 0.665097 0.288713
Si Si3 0.766435 0.090242 0.381303
Si Si4 0.131849 0.313250 0.104090
Si Si5 0.643435 0.095744 0.464293
Si Si6 0.642061 0.650656 0.716505
Si Si7 0.590742 0.911770 0.805000
Si Si8 0.329121 0.407521 0.660227
O O1 0.706328 0.291045 0.873585
O O2 0.458412 0.250111 0.881835
O O3 0.606645 0.155036 0.863907
O O4 0.750000 0.250000 0.000000
O O5 0.866963 0.754078 0.283464
O O6 0.805642 0.612502 0.217466
O O7 0.687540 0.651468 0.286286
O O8 0.976553 0.631677 0.384078
O O9 0.761808 0.122085 0.451764
O O10 0.851100 0.134664 0.356373
O O11 0.584893 0.090022 0.290071
O O12 0.823322 0.000000 0.403762
O O13 0.202817 0.372991 0.184285
O O14 0.000000 0.333854 0.000000
O O15 0.707169 0.113773 0.558113
O O16 0.632031 0.000000 0.455035
O O17 0.497326 0.604750 0.691796
O O18 0.625592 0.000000 0.840714
O O19 0.304411 0.500000 0.669196
#
# Coordination Sequence:
#
# PCOD9187893 Si02
#       8
#     8   8   8   8   8   8   8   8
#     4  10  20  38  64  94 120 164 209 260 320 394
#     4  11  23  37  62  95 127 167 215 268 319 390
#     4   9  19  37  60  84 117 162 210 255 310 384
#     4  10  22  39  64  94 123 167 212 256 324 397
#     4   9  20  42  65  84 120 175 222 256 317 396
#     4  12  24  36  63  94 130 157 213 268 329 383
#     4  10  19  35  62  91 117 159 213 259 307 385
#     4  11  25  43  63  90 130 175 215 270 333 391
#
# _framework density 21.300286
#
# number of rings (size 3 to 8) (size 9 to 14) (size 15 to 20)
#    0.000    1.750    2.500    2.625    5.250    2.000 
#    2.250    1.875    0.000   14.250    0.000    0.000 
#    0.000    0.000    0.000    0.000    0.000    0.000 
#
# Total GULP energy -178252.230302 kJ/mol
# GULP energy per Si atom -5570.382197 kJ/mol
# Density = 2.125181 g / cm^3
# Si number density = 21.300286 Si / 1000 Ang^3
#
#
#
# Elastic Constant Matrix: (Units=GPa)
#
#
# Indices 1 2 3 4 5 6 
#
# 1 96.7986 -16.8570 15.0165 0.0000 -12.9141 0.0000
# 2 -16.8570 26.4950 12.9035 0.0000 -9.4290 0.0000
# 3 15.0165 12.9035 74.5330 0.0000 -15.9572 0.0000
# 4 0.0000 0.0000 0.0000 -2.1117 0.0000 1.2854
# 5 -12.9141 -9.4290 -15.9572 0.0000 37.9704 0.0000
# 6 0.0000 0.0000 0.0000 1.2854 0.0000 26.3316
#
#
#
# Elastic Compliance Matrix: (Units=1/GPa)
#
#
# Indices 1 2 3 4 5 6 
#
# 1 0.014035 0.013029 -0.003702 0.000000 0.006453 0.000000
# 2 0.013029 0.055620 -0.009174 0.000000 0.014388 0.000000
# 3 -0.003702 -0.009174 0.016476 0.000000 0.003387 0.000000
# 4 0.000000 0.000000 0.000000 -0.459883 0.000000 0.022449
# 5 0.006453 0.014388 0.003387 0.000000 0.033527 0.000000
# 6 0.000000 0.000000 0.000000 0.022449 0.000000 0.036881
#
#
# Mechanical properties :
#
#
# Convention : Reuss Voigt Hill
#
# Bulk Modulus (GPa) = 11.56905 24.43918 18.00411
# Shear Modulus (GPa) = -18.19261 24.88897 3.34818
#
# Velocity S-wave (km/s) = -2.92567 3.42201 1.25511
# Velocity P-wave (km/s) = 2.44327 5.20693 3.25135
#
# Compressibility (1/GPa) = 0.08643752
#
# Stress axis : x y z
#
# Youngs Moduli (GPa) = 71.25156 17.97901 60.69421
#
# Poissons Ratio (x) = -0.23424 0.22467
# Poissons Ratio (y) = -0.92832 0.55680
# Poissons Ratio (z) = 0.26375 0.16494
#
# Static dielectric constant tensor:
#      x y z
#    x 1.896680 0.000000 -0.005440 
#    y 0.000000 1.637330 0.000000 
#    z -0.005440 0.000000 1.723910 
# 
# From -- ./inp_files/306245.got.cif
#   From: 2010.05.17/outbox.cif.g08.bks.cpg/sg12_154_cif.got.tgz:306245.got - 2010.06.03 13:09:07.
