data_PCOD9188757
_publ_section_title
;
Structure prediction by ZEFSAII (Michael W. Deem and Ramdas Pophale) SiO2 
 PCOD9188757
Probable space group: C 2/M
;
_chemical_formula_sum "Si O2"
_cell_formula_units_Z 58
_cell_length_a 21.739310
_cell_length_b 7.617104
_cell_length_c 25.075869
_cell_angle_alpha 90.000000
_cell_angle_beta 142.032288
_cell_angle_gamma 90.000000
_cell_volume 2554.583946
_symmetry_space_group_name_H-M "C 2/M"
_symmetry_group_IT_number 12
_symmetry_cell_setting 'monoclinic'
loop_
_space_group_symop_operation_xyz
x,y,z
-x,y,-z
-x,-y,-z
x,-y,z
1/2+x,1/2+y,z
1/2-x,1/2+y,-z
1/2-x,1/2-y,-z
1/2+x,1/2-y,z
loop_
_atom_site_type_symbol
_atom_site_label
_atom_site_fract_x
_atom_site_fract_y
_atom_site_fract_z
Si Si1 0.088827 0.300939 0.510595
Si Si2 0.135824 0.793135 0.428586
Si Si3 0.996830 0.215186 0.846542
Si Si4 0.203670 0.798096 0.782745
Si Si5 0.910261 0.787280 0.978421
Si Si6 0.547104 0.287627 0.764390
Si Si7 0.000000 0.000000 0.500000
Si Si8 0.767334 0.206329 0.706415
O O1 0.075610 0.500000 0.519876
O O2 0.105247 0.308117 0.459829
O O3 0.001777 0.159109 0.457310
O O4 0.183898 0.220969 0.608224
O O5 0.250000 0.750000 0.500000
O O6 0.065539 0.748801 0.331332
O O7 0.123775 0.000000 0.430032
O O8 0.880657 0.274258 0.775055
O O9 0.049339 0.272940 0.827326
O O10 0.993997 0.000000 0.844021
O O11 0.059267 0.267091 0.941315
O O12 0.307102 0.786593 0.886103
O O13 0.120741 0.722440 0.767445
O O14 0.228488 0.722131 0.740860
O O15 0.176638 0.000000 0.754406
O O16 0.902274 0.000000 0.971691
O O17 0.000000 0.738139 0.000000
O O18 0.561316 0.500000 0.775505
O O19 0.773712 0.000000 0.698131
#
# Coordination Sequence:
#
# PCOD9188757 Si02
#       8
#     8   8   8   8   8   8   2   8
#     4  11  25  42  66  97 129 174 223 274 333 399
#     4  11  22  41  66  93 131 172 222 279 334 400
#     4   9  17  36  63  86 115 159 211 258 307 380
#     4  11  23  36  58  90 127 160 200 257 320 384
#     4  10  19  36  61  88 118 158 206 253 312 377
#     4   9  21  38  59  87 121 166 208 255 323 386
#     4  12  26  44  64  94 140 170 222 270 346 394
#     4  10  21  39  64  90 118 159 215 263 310 377
#
# _framework density 22.704283
#
# number of rings (size 3 to 8) (size 9 to 14) (size 15 to 20)
#    0.000    1.793    2.069    1.862    2.897    3.034 
#    0.000    2.069    0.000    4.138    0.000    0.000 
#    0.000    0.000    0.000    0.000    0.000    0.000 
#
# Total GULP energy -161636.607397 kJ/mol
# GULP energy per Si atom -5573.676117 kJ/mol
# Density = 2.265261 g / cm^3
# Si number density = 22.704283 Si / 1000 Ang^3
#
#
#
# Elastic Constant Matrix: (Units=GPa)
#
#
# Indices 1 2 3 4 5 6 
#
# 1 74.2484 -1.3361 -6.3150 0.0000 -15.7883 0.0001
# 2 -1.3361 69.6076 4.9163 0.0000 4.1818 0.0003
# 3 -6.3150 4.9163 85.0509 0.0000 -17.7740 0.0000
# 4 0.0000 0.0000 0.0000 12.8166 0.0000 -4.7085
# 5 -15.7883 4.1818 -17.7740 0.0000 38.3620 0.0000
# 6 0.0001 0.0003 0.0000 -4.7085 0.0000 18.7906
#
#
#
# Elastic Compliance Matrix: (Units=1/GPa)
#
#
# Indices 1 2 3 4 5 6 
#
# 1 0.015315 -0.000358 0.002749 0.000000 0.007616 0.000000
# 2 -0.000358 0.014598 -0.001366 0.000000 -0.002371 0.000000
# 3 0.002749 -0.001366 0.013628 0.000000 0.007595 0.000000
# 4 0.000000 0.000000 0.000000 0.085935 0.000000 0.021533
# 5 0.007616 -0.002371 0.007595 0.000000 0.032979 0.000000
# 6 0.000000 0.000000 0.000000 0.021533 0.000000 0.058614
#
#
# Mechanical properties :
#
#
# Convention : Reuss Voigt Hill
#
# Bulk Modulus (GPa) = 21.93334 24.82637 23.37985
# Shear Modulus (GPa) = 21.34790 29.43662 25.39226
#
# Velocity S-wave (km/s) = 3.06969 3.60463 3.34786
# Velocity P-wave (km/s) = 4.71650 5.31817 5.02635
#
# Compressibility (1/GPa) = 0.04559270
#
# Stress axis : x y z
#
# Youngs Moduli (GPa) = 65.29464 68.50098 73.37902
#
# Poissons Ratio (x) = 0.02451 -0.20175
# Poissons Ratio (y) = 0.02336 0.10024
# Poissons Ratio (z) = -0.17952 0.09357
#
# Static dielectric constant tensor:
#      x y z
#    x 1.855940 0.000000 0.029740 
#    y 0.000000 1.955320 0.000000 
#    z 0.029740 0.000000 1.849350 
# 
# From -- ./inp_files/346582.got.cif
#   From: 2010.05.17/outbox.cif.g08.bks.cpg/sg12_174_cif.got.tgz:346582.got - 2010.06.03 13:09:07.
