data_PCOD9188582
_publ_section_title
;
Structure prediction by ZEFSAII (Michael W. Deem and Ramdas Pophale) SiO2 
 PCOD9188582
Probable space group: C 2/M
;
_chemical_formula_sum "Si O2"
_cell_formula_units_Z 44
_cell_length_a 10.051390
_cell_length_b 13.678808
_cell_length_c 14.210709
_cell_angle_alpha 90.000000
_cell_angle_beta 121.996632
_cell_angle_gamma 90.000000
_cell_volume 1657.015454
_symmetry_space_group_name_H-M "C 2/M"
_symmetry_group_IT_number 12
_symmetry_cell_setting 'monoclinic'
loop_
_space_group_symop_operation_xyz
x,y,z
-x,y,-z
-x,-y,-z
x,-y,z
1/2+x,1/2+y,z
1/2-x,1/2+y,-z
1/2-x,1/2-y,-z
1/2+x,1/2-y,z
loop_
_atom_site_type_symbol
_atom_site_label
_atom_site_fract_x
_atom_site_fract_y
_atom_site_fract_z
Si Si1 0.508153 0.766152 0.141864
Si Si2 0.693088 0.395334 0.260730
Si Si3 0.235016 0.111713 0.714505
Si Si4 0.209422 0.109180 0.044212
Si Si5 0.570369 0.108104 0.405109
Si Si6 0.000000 0.227248 0.500000
O O1 0.580789 0.693233 0.248803
O O2 0.673020 0.820577 0.174904
O O3 0.388754 0.855322 0.110341
O O4 0.396218 0.692295 0.042394
O O5 0.648731 0.500000 0.285338
O O6 0.666770 0.397894 0.138067
O O7 0.881011 0.384425 0.333415
O O8 0.353967 0.110861 0.669072
O O9 0.084341 0.161278 0.610028
O O10 0.210681 0.000000 0.735690
O O11 0.191805 0.000000 0.996487
O O12 0.615410 0.197650 0.488507
O O13 0.611722 0.000000 0.458331
#
# Coordination Sequence:
#
# PCOD9188582 Si02
#       6
#     8   8   8   8   8   4
#     4  11  20  34  60  87 115 149 196 236 278 338
#     4  10  19  36  60  86 115 152 196 239 284 340
#     4  11  23  40  60  85 118 157 192 232 288 352
#     4  10  21  37  60  87 116 155 196 234 283 343
#     4  10  21  38  61  87 115 148 192 243 292 338
#     4  12  22  40  64  90 112 148 196 244 290 342
#
# _framework density 26.553766
#
# number of rings (size 3 to 8) (size 9 to 14) (size 15 to 20)
#    0.000    1.455    3.636    2.727    0.000    1.455 
#    0.000    0.000    0.000   34.909    0.000    0.000 
#    0.000    0.000    0.000    0.000    0.000    0.000 
#
# Total GULP energy -122804.860457 kJ/mol
# GULP energy per Si atom -5582.039112 kJ/mol
# Density = 2.649333 g / cm^3
# Si number density = 26.553766 Si / 1000 Ang^3
#
#
#
# Elastic Constant Matrix: (Units=GPa)
#
#
# Indices 1 2 3 4 5 6 
#
# 1 47.2349 11.5072 20.9562 0.0000 11.0730 0.0000
# 2 11.5072 215.1967 53.8381 0.0000 12.8739 0.0000
# 3 20.9562 53.8381 103.3419 0.0000 16.2896 0.0000
# 4 0.0000 0.0000 0.0000 36.0366 0.0000 1.8418
# 5 11.0730 12.8739 16.2896 0.0000 32.0156 0.0000
# 6 0.0000 0.0000 0.0000 1.8418 0.0000 16.4819
#
#
#
# Elastic Compliance Matrix: (Units=1/GPa)
#
#
# Indices 1 2 3 4 5 6 
#
# 1 0.024430 0.000074 -0.003975 0.000000 -0.006457 0.000000
# 2 0.000074 0.005362 -0.002680 0.000000 -0.000819 0.000000
# 3 -0.003975 -0.002680 0.012494 0.000000 -0.003905 0.000000
# 4 0.000000 0.000000 0.000000 0.027909 0.000000 -0.003119
# 5 -0.006457 -0.000819 -0.003905 0.000000 0.035784 0.000000
# 6 0.000000 0.000000 0.000000 -0.003119 0.000000 0.061021
#
#
# Mechanical properties :
#
#
# Convention : Reuss Voigt Hill
#
# Bulk Modulus (GPa) = 34.33381 59.81962 47.07672
# Shear Modulus (GPa) = 26.33391 35.53829 30.93610
#
# Velocity S-wave (km/s) = 3.15258 3.66232 3.41697
# Velocity P-wave (km/s) = 5.11953 6.36082 5.77363
#
# Compressibility (1/GPa) = 0.02912581
#
# Stress axis : x y z
#
# Youngs Moduli (GPa) = 40.93363 186.48705 80.03714
#
# Poissons Ratio (x) = -0.01387 0.31815
# Poissons Ratio (y) = -0.00305 0.21447
# Poissons Ratio (z) = 0.16271 0.49972
#
# Static dielectric constant tensor:
#      x y z
#    x 2.120230 0.000000 -0.032540 
#    y 0.000000 2.211280 0.000000 
#    z -0.032540 0.000000 2.171730 
# 
# From -- ./inp_files/296553.got.cif
#   From: 2010.05.17/outbox.cif.g08.bks.cpg/sg12_149_cif.got.tgz:296553.got - 2010.06.03 13:09:07.
