data_PCOD9188762
_publ_section_title
;
Structure prediction by ZEFSAII (Michael W. Deem and Ramdas Pophale) SiO2 
 PCOD9188762
Probable space group: C 2/M
;
_chemical_formula_sum "Si O2"
_cell_formula_units_Z 64
_cell_length_a 22.635820
_cell_length_b 8.589474
_cell_length_c 19.411376
_cell_angle_alpha 90.000000
_cell_angle_beta 124.683136
_cell_angle_gamma 90.000000
_cell_volume 3103.526945
_symmetry_space_group_name_H-M "C 2/M"
_symmetry_group_IT_number 12
_symmetry_cell_setting 'monoclinic'
loop_
_space_group_symop_operation_xyz
x,y,z
-x,y,-z
-x,-y,-z
x,-y,z
1/2+x,1/2+y,z
1/2-x,1/2+y,-z
1/2-x,1/2-y,-z
1/2+x,1/2-y,z
loop_
_atom_site_type_symbol
_atom_site_label
_atom_site_fract_x
_atom_site_fract_y
_atom_site_fract_z
Si Si1 0.160263 0.816895 0.754766
Si Si2 0.646612 0.184017 0.476375
Si Si3 0.489816 0.187167 0.336057
Si Si4 0.822004 0.684946 0.081775
Si Si5 0.285720 0.179225 0.629468
Si Si6 0.941794 0.314286 0.904114
Si Si7 0.476586 0.685590 0.172136
Si Si8 0.204912 0.179299 0.223840
O O1 0.082889 0.754294 0.679573
O O2 0.178123 0.727409 0.837502
O O3 0.225208 0.780094 0.747154
O O4 0.154976 0.000000 0.765630
O O5 0.563217 0.228021 0.424012
O O6 0.671420 0.202066 0.413210
O O7 0.702708 0.282427 0.557676
O O8 0.654629 0.000000 0.498765
O O9 0.492540 0.252635 0.259760
O O10 0.485657 0.000000 0.329318
O O11 0.826997 0.500000 0.075583
O O12 0.894384 0.765039 0.101585
O O13 0.750000 0.750000 0.000000
O O14 0.311312 0.291568 0.706627
O O15 0.295100 0.000000 0.657096
O O16 0.932960 0.500000 0.900494
O O17 0.864709 0.235610 0.863723
O O18 0.972941 0.263880 0.850972
O O19 0.000000 0.267669 0.000000
O O20 0.483947 0.500000 0.175311
O O21 0.220269 0.000000 0.220252
#
# Coordination Sequence:
#
# PCOD9188762 Si02
#       8
#     8   8   8   8   8   8   8   8
#     4  11  23  40  60  85 117 155 201 247 299 358
#     4   9  19  35  59  90 124 157 195 245 296 349
#     4  10  19  36  61  88 120 157 199 246 298 351
#     4  11  22  38  60  85 114 150 195 246 298 348
#     4  10  20  36  60  91 124 160 199 240 294 356
#     4  11  25  43  62  85 116 154 197 244 297 354
#     4  11  22  37  58  86 118 151 194 242 292 351
#     4  12  25  42  63  86 120 159 199 245 298 361
#
# _framework density 20.621697999999999
#
# number of rings (size 3 to 8) (size 9 to 14) (size 15 to 20)
#    0.000    1.375    0.000    7.875    1.750    3.500 
#    0.000    0.625    0.000    3.750    0.000    0.000 
#    0.000    0.000    0.000    0.000    0.000    0.000 
#
# Total GULP energy -178988.620242 kJ/mol
# GULP energy per Si atom -5593.394383 kJ/mol
# Density = 2.057476 g / cm^3
# Si number density = 20.621698 Si / 1000 Ang^3
#
#
#
# Elastic Constant Matrix: (Units=GPa)
#
#
# Indices 1 2 3 4 5 6 
#
# 1 51.5633 -6.2790 11.5715 0.0000 19.9966 0.0000
# 2 -6.2790 51.2133 14.3122 0.0000 9.2856 0.0000
# 3 11.5715 14.3122 56.4623 0.0000 30.5253 0.0000
# 4 0.0000 0.0000 0.0000 29.0433 0.0000 5.8281
# 5 19.9966 9.2856 30.5253 0.0000 33.0185 0.0000
# 6 0.0000 0.0000 0.0000 5.8281 0.0000 26.0657
#
#
#
# Elastic Compliance Matrix: (Units=1/GPa)
#
#
# Indices 1 2 3 4 5 6 
#
# 1 0.028220 0.006246 0.005643 0.000000 -0.024064 0.000000
# 2 0.006246 0.022462 -0.003026 0.000000 -0.007302 0.000000
# 3 0.005643 -0.003026 0.037404 0.000000 -0.037146 0.000000
# 4 0.000000 0.000000 0.000000 0.036049 0.000000 -0.008060
# 5 -0.024064 -0.007302 -0.037146 0.000000 0.081254 0.000000
# 6 0.000000 0.000000 0.000000 -0.008060 0.000000 0.040167
#
#
# Mechanical properties :
#
#
# Convention : Reuss Voigt Hill
#
# Bulk Modulus (GPa) = 9.45081 22.04981 15.75031
# Shear Modulus (GPa) = 19.00423 26.93443 22.96933
#
# Velocity S-wave (km/s) = 3.03902 3.61795 3.34105
# Velocity P-wave (km/s) = 4.11182 5.30740 4.74740
#
# Compressibility (1/GPa) = 0.10581107
#
# Stress axis : x y z
#
# Youngs Moduli (GPa) = 35.43583 44.52049 26.73539
#
# Poissons Ratio (x) = -0.27807 -0.15087
# Poissons Ratio (y) = -0.22133 0.08090
# Poissons Ratio (z) = -0.19996 0.13472
#
# Static dielectric constant tensor:
#      x y z
#    x 1.748830 0.000000 0.010670 
#    y 0.000000 1.685100 0.000000 
#    z 0.010670 0.000000 1.726260 
# 
# From -- ./inp_files/320051.got.cif
#   From: 2010.05.17/outbox.cif.g08.bks.cpg/sg12_161_cif.got.tgz:320051.got - 2010.06.03 13:09:07.
