data_PCOD9188434
_publ_section_title
;
Structure prediction by ZEFSAII (Michael W. Deem and Ramdas Pophale) SiO2 
 PCOD9188434
Probable space group: C 2/M
;
_chemical_formula_sum "Si O2"
_cell_formula_units_Z 56
_cell_length_a 18.432066
_cell_length_b 13.704434
_cell_length_c 11.944949
_cell_angle_alpha 90.000000
_cell_angle_beta 103.352264
_cell_angle_gamma 90.000000
_cell_volume 2935.744492
_symmetry_space_group_name_H-M "C 2/M"
_symmetry_group_IT_number 12
_symmetry_cell_setting 'monoclinic'
loop_
_space_group_symop_operation_xyz
x,y,z
-x,y,-z
-x,-y,-z
x,-y,z
1/2+x,1/2+y,z
1/2-x,1/2+y,-z
1/2-x,1/2-y,-z
1/2+x,1/2-y,z
loop_
_atom_site_type_symbol
_atom_site_label
_atom_site_fract_x
_atom_site_fract_y
_atom_site_fract_z
Si Si1 0.320252 0.385564 0.085536
Si Si2 0.850275 0.384935 0.975873
Si Si3 0.079794 0.706005 0.207263
Si Si4 0.714134 0.885470 0.395407
Si Si5 0.089739 0.710907 0.786124
Si Si6 0.832107 0.886464 0.821378
Si Si7 0.804621 0.301435 0.365709
O O1 0.327847 0.500000 0.115518
O O2 0.234955 0.354432 0.082117
O O3 0.379328 0.317554 0.167982
O O4 0.330050 0.374875 0.955009
O O5 0.854096 0.500000 0.960977
O O6 0.908430 0.333729 0.914283
O O7 0.868755 0.358702 0.109681
O O8 0.140423 0.646322 0.300932
O O9 0.104514 0.818602 0.209067
O O10 0.997408 0.697815 0.224906
O O11 0.778966 0.810381 0.379829
O O12 0.699414 0.859713 0.519876
O O13 0.730268 0.000000 0.384754
O O14 0.117455 0.692533 0.670686
O O15 0.756112 0.847695 0.739698
O O16 0.842123 0.000000 0.800153
#
# Coordination Sequence:
#
# PCOD9188434 Si02
#       7
#     8   8   8   8   8   8   8
#     4  10  20  35  60  86 113 152 197 243 289 340
#     4  11  22  37  56  81 115 157 198 238 285 342
#     4  11  24  37  55  83 123 161 190 233 288 350
#     4  10  22  43  65  87 114 151 198 246 292 343
#     4  12  23  37  56  87 122 153 191 236 291 351
#     4  10  19  36  59  85 115 151 196 243 290 340
#     4  10  22  39  66  90 112 149 198 250 291 336
#
# _framework density 19.075229
#
# number of rings (size 3 to 8) (size 9 to 14) (size 15 to 20)
#    0.000    1.429    2.857    3.429    0.000    5.143 
#    0.000    2.143    0.000    0.000    0.000    7.000 
#    0.000    0.000    0.000    0.000    0.000    0.000 
#
# Total GULP energy -156486.797190 kJ/mol
# GULP energy per Si atom -5588.814185 kJ/mol
# Density = 1.903181 g / cm^3
# Si number density = 19.075229 Si / 1000 Ang^3
#
#
#
# Elastic Constant Matrix: (Units=GPa)
#
#
# Indices 1 2 3 4 5 6 
#
# 1 82.8313 1.5461 12.3576 0.0000 -11.4441 0.0000
# 2 1.5461 100.5912 5.1191 0.0000 -1.4420 0.0000
# 3 12.3576 5.1191 49.0177 0.0000 -20.2639 0.0000
# 4 0.0000 0.0000 0.0000 10.1010 0.0000 -1.4083
# 5 -11.4441 -1.4420 -20.2639 0.0000 21.3230 0.0000
# 6 0.0000 0.0000 0.0000 -1.4083 0.0000 10.8602
#
#
#
# Elastic Compliance Matrix: (Units=1/GPa)
#
#
# Indices 1 2 3 4 5 6 
#
# 1 0.013053 -0.000076 -0.000640 0.000000 0.006392 0.000000
# 2 -0.000076 0.009998 -0.001256 0.000000 -0.000558 0.000000
# 3 -0.000640 -0.001256 0.033792 0.000000 0.031685 0.000000
# 4 0.000000 0.000000 0.000000 0.100823 0.000000 0.013074
# 5 0.006392 -0.000558 0.031685 0.000000 0.080401 0.000000
# 6 0.000000 0.000000 0.000000 0.013074 0.000000 0.093775
#
#
# Mechanical properties :
#
#
# Convention : Reuss Voigt Hill
#
# Bulk Modulus (GPa) = 18.90428 30.05397 24.47912
# Shear Modulus (GPa) = 14.14749 22.68466 18.41608
#
# Velocity S-wave (km/s) = 2.72631 3.45225 3.11053
# Velocity P-wave (km/s) = 4.45447 5.62853 5.07556
#
# Compressibility (1/GPa) = 0.05289808
#
# Stress axis : x y z
#
# Youngs Moduli (GPa) = 76.61203 100.01700 29.59297
#
# Poissons Ratio (x) = 0.00764 0.01895
# Poissons Ratio (y) = 0.00585 0.03716
# Poissons Ratio (z) = 0.04906 0.12558
#
# Static dielectric constant tensor:
#      x y z
#    x 1.651680 0.000000 -0.014430 
#    y 0.000000 1.671170 0.000000 
#    z -0.014430 0.000000 1.671300 
# 
# From -- ./inp_files/156179.got.cif
#   From: 2010.05.17/outbox.cif.g08.bks.cpg/sg12_79_cif.got.tgz:156179.got - 2010.06.03 13:09:07.
