data_PCOD9188096
_publ_section_title
;
Structure prediction by ZEFSAII (Michael W. Deem and Ramdas Pophale) SiO2 
 PCOD9188096
Probable space group: C 2/M
;
_chemical_formula_sum "Si O2"
_cell_formula_units_Z 44
_cell_length_a 12.788665
_cell_length_b 23.284633
_cell_length_c 7.446286
_cell_angle_alpha 90.000000
_cell_angle_beta 56.332655
_cell_angle_gamma 90.000000
_cell_volume 1845.434659
_symmetry_space_group_name_H-M "C 2/M"
_symmetry_group_IT_number 12
_symmetry_cell_setting 'monoclinic'
loop_
_space_group_symop_operation_xyz
x,y,z
-x,y,-z
-x,-y,-z
x,-y,z
1/2+x,1/2+y,z
1/2-x,1/2+y,-z
1/2-x,1/2-y,-z
1/2+x,1/2-y,z
loop_
_atom_site_type_symbol
_atom_site_label
_atom_site_fract_x
_atom_site_fract_y
_atom_site_fract_z
Si Si1 0.854195 0.434035 0.161388
Si Si2 0.226056 0.564649 0.344776
Si Si3 0.185999 0.163972 0.142616
Si Si4 0.925482 0.840603 0.234902
Si Si5 0.000000 0.364358 0.500000
Si Si6 0.704128 0.780475 0.336400
O O1 0.836989 0.500000 0.113389
O O2 0.824815 0.434427 0.402134
O O3 0.763964 0.388267 0.152580
O O4 0.000000 0.417952 0.000000
O O5 0.252442 0.500000 0.263326
O O6 0.351699 0.602785 0.238490
O O7 0.111153 0.591606 0.339604
O O8 0.183094 0.218027 0.278015
O O9 0.039910 0.146365 0.256448
O O10 0.251197 0.186606 0.895216
O O11 0.816942 0.794093 0.366249
O O12 0.000000 0.812726 0.000000
O O13 0.914947 0.317003 0.475939
#
# Coordination Sequence:
#
# PCOD9188096 Si02
#       6
#     8   8   8   8   4   8
#     4  10  22  38  56  81 110 143 185 225 266 322
#     4  10  21  36  56  81 110 145 184 226 270 321
#     4  10  20  37  58  79 111 149 175 220 280 322
#     4   9  20  37  54  80 111 140 183 227 267 325
#     4  10  19  36  56  80 109 140 184 230 270 318
#     4   9  20  35  56  82 108 141 185 225 268 324
#
# _framework density 23.84262
#
# number of rings (size 3 to 8) (size 9 to 14) (size 15 to 20)
#    0.000    2.364    0.000    1.364    0.000    8.364 
#    0.000   14.545    0.000    0.000    0.000    0.000 
#    0.000    0.000    0.000    0.000    0.000    0.000 
#
# Total GULP energy -122637.324524 kJ/mol
# GULP energy per Si atom -5574.423842 kJ/mol
# Density = 2.378835 g / cm^3
# Si number density = 23.842620 Si / 1000 Ang^3
#
#
#
# Elastic Constant Matrix: (Units=GPa)
#
#
# Indices 1 2 3 4 5 6 
#
# 1 193.1936 108.4664 29.8447 0.0000 -47.2867 0.0000
# 2 108.4664 184.8566 1.2236 0.0000 -38.1948 0.0000
# 3 29.8447 1.2236 48.1176 0.0000 5.7351 0.0000
# 4 0.0000 0.0000 0.0000 31.1210 0.0000 -5.3263
# 5 -47.2867 -38.1948 5.7351 0.0000 44.8825 0.0000
# 6 0.0000 0.0000 0.0000 -5.3263 0.0000 16.1414
#
#
#
# Elastic Compliance Matrix: (Units=1/GPa)
#
#
# Indices 1 2 3 4 5 6 
#
# 1 0.011173 -0.004688 -0.007858 0.000000 0.008785 0.000000
# 2 -0.004688 0.008565 0.002447 0.000000 0.002037 0.000000
# 3 -0.007858 0.002447 0.026740 0.000000 -0.009613 0.000000
# 4 0.000000 0.000000 0.000000 0.034056 0.000000 0.011238
# 5 0.008785 0.002037 -0.009613 0.000000 0.034498 0.000000
# 6 0.000000 0.000000 0.000000 0.011238 0.000000 0.065661
#
#
# Mechanical properties :
#
#
# Convention : Reuss Voigt Hill
#
# Bulk Modulus (GPa) = 38.05167 78.35968 58.20567
# Shear Modulus (GPa) = 23.84941 37.53787 30.69364
#
# Velocity S-wave (km/s) = 3.16616 3.97218 3.59185
# Velocity P-wave (km/s) = 5.41851 7.34672 6.45502
#
# Compressibility (1/GPa) = 0.02628006
#
# Stress axis : x y z
#
# Youngs Moduli (GPa) = 89.50492 116.75185 37.39782
#
# Poissons Ratio (x) = 0.54738 0.29386
# Poissons Ratio (y) = 0.41964 -0.09153
# Poissons Ratio (z) = 0.70329 -0.28574
#
# Static dielectric constant tensor:
#      x y z
#    x 1.956430 0.000000 0.067570 
#    y 0.000000 1.942290 0.000000 
#    z 0.067570 0.000000 2.038540 
# 
# From -- ./inp_files/51205.got.cif
#   From: 2010.05.17/outbox.cif.g08.bks.cpg/sg12_26_cif.got.tgz:51205.got - 2010.06.03 13:09:07.
