data_PCOD9188939
_publ_section_title
;
Structure prediction by ZEFSAII (Michael W. Deem and Ramdas Pophale) SiO2 
 PCOD9188939
Probable space group: C 2/M
;
_chemical_formula_sum "Si O2"
_cell_formula_units_Z 44
_cell_length_a 22.105492
_cell_length_b 15.331334
_cell_length_c 14.906223
_cell_angle_alpha 90.000000
_cell_angle_beta 27.074466
_cell_angle_gamma 90.000000
_cell_volume 2299.325806
_symmetry_space_group_name_H-M "C 2/M"
_symmetry_group_IT_number 12
_symmetry_cell_setting 'monoclinic'
loop_
_space_group_symop_operation_xyz
x,y,z
-x,y,-z
-x,-y,-z
x,-y,z
1/2+x,1/2+y,z
1/2-x,1/2+y,-z
1/2-x,1/2-y,-z
1/2+x,1/2-y,z
loop_
_atom_site_type_symbol
_atom_site_label
_atom_site_fract_x
_atom_site_fract_y
_atom_site_fract_z
Si Si1 0.979471 0.349065 0.370625
Si Si2 0.176259 0.500000 0.866639
Si Si3 0.696990 0.832187 0.228171
Si Si4 0.328840 0.500000 0.477228
Si Si5 0.459151 0.653053 0.783631
Si Si6 0.858344 0.129145 0.727232
Si Si7 0.924426 0.500000 0.302944
O O1 0.858027 0.357535 0.601836
O O2 0.995794 0.250429 0.308545
O O3 0.959061 0.416224 0.317571
O O4 0.106788 0.370550 0.266052
O O5 0.239069 0.500000 0.685562
O O6 0.239615 0.580497 0.836723
O O7 0.020159 0.500000 0.089490
O O8 0.662705 0.730231 0.264526
O O9 0.852500 0.843905 0.004541
O O10 0.421165 0.586409 0.356845
O O11 0.227215 0.500000 0.528876
O O12 0.374802 0.616545 0.810765
O O13 0.000000 0.101428 0.500000
#
# Coordination Sequence:
#
# PCOD9188939 Si02
#       7
#     8   4   8   4   8   8   4
#     4  10  21  40  59  89 121 151 194 241 291 360
#     4  12  21  38  60  87 119 152 191 248 304 344
#     4  10  19  36  63  91 120 152 182 240 308 357
#     4  12  26  41  57  84 117 158 210 248 272 342
#     4  11  21  37  62  92 122 150 189 244 303 347
#     4  11  17  34  63  95 122 142 179 242 310 360
#     4  12  27  41  58  79 117 170 207 236 279 335
#
# _framework density 19.136044999999999
#
# number of rings (size 3 to 8) (size 9 to 14) (size 15 to 20)
#    0.000    1.091    5.455    5.455    0.000    3.636 
#    0.000    1.818    0.000    0.000    0.000    0.000 
#    0.000    0.000    0.000    0.000    0.000    0.000 
#
# Total GULP energy -122800.077352 kJ/mol
# GULP energy per Si atom -5581.821698 kJ/mol
# Density = 1.909249 g / cm^3
# Si number density = 19.136045 Si / 1000 Ang^3
#
#
#
# Elastic Constant Matrix: (Units=GPa)
#
#
# Indices 1 2 3 4 5 6 
#
# 1 63.9356 42.7214 44.6903 0.0000 0.8482 0.0000
# 2 42.7214 80.3418 41.0434 0.0000 -1.1811 0.0000
# 3 44.6903 41.0434 172.0571 0.0000 20.5253 0.0000
# 4 0.0000 0.0000 0.0000 53.6404 0.0000 -33.2365
# 5 0.8482 -1.1811 20.5253 0.0000 22.7458 0.0000
# 6 0.0000 0.0000 0.0000 -33.2365 0.0000 43.0097
#
#
#
# Elastic Compliance Matrix: (Units=1/GPa)
#
#
# Indices 1 2 3 4 5 6 
#
# 1 0.026590 -0.011884 -0.004348 0.000000 0.002315 0.000000
# 2 -0.011884 0.019861 -0.002047 0.000000 0.003322 0.000000
# 3 -0.004348 -0.002047 0.008318 0.000000 -0.007451 0.000000
# 4 0.000000 0.000000 0.000000 0.035770 0.000000 0.027642
# 5 0.002315 0.003322 -0.007451 0.000000 0.050774 0.000000
# 6 0.000000 0.000000 0.000000 0.027642 0.000000 0.044611
#
#
# Mechanical properties :
#
#
# Convention : Reuss Voigt Hill
#
# Bulk Modulus (GPa) = 54.91103 63.69387 59.30245
# Shear Modulus (GPa) = 21.87681 36.40446 29.14064
#
# Velocity S-wave (km/s) = 3.38483 4.36639 3.90656
# Velocity P-wave (km/s) = 6.63577 7.66665 7.16976
#
# Compressibility (1/GPa) = 0.01821128
#
# Stress axis : x y z
#
# Youngs Moduli (GPa) = 37.60832 50.35058 120.21437
#
# Poissons Ratio (x) = 0.59836 0.52266
# Poissons Ratio (y) = 0.44694 0.24610
# Poissons Ratio (z) = 0.16351 0.10308
#
# Static dielectric constant tensor:
#      x y z
#    x 1.630560 0.000000 0.029910 
#    y 0.000000 1.798550 0.000000 
#    z 0.029910 0.000000 1.725930 
# 
# From -- ./inp_files/293590.got.cif
#   From: 2010.05.17/outbox.cif.g08.bks.cpg/sg12_147_cif.got.tgz:293590.got - 2010.06.03 13:09:07.
