data_PCOD9188604
_publ_section_title
;
Structure prediction by ZEFSAII (Michael W. Deem and Ramdas Pophale) SiO2 
 PCOD9188604
Probable space group: C 2/M
;
_chemical_formula_sum "Si O2"
_cell_formula_units_Z 58
_cell_length_a 19.514976
_cell_length_b 7.454379
_cell_length_c 16.401855
_cell_angle_alpha 90.000000
_cell_angle_beta 64.081724
_cell_angle_gamma 90.000000
_cell_volume 2146.022293
_symmetry_space_group_name_H-M "C 2/M"
_symmetry_group_IT_number 12
_symmetry_cell_setting 'monoclinic'
loop_
_space_group_symop_operation_xyz
x,y,z
-x,y,-z
-x,-y,-z
x,-y,z
1/2+x,1/2+y,z
1/2-x,1/2+y,-z
1/2-x,1/2-y,-z
1/2+x,1/2-y,z
loop_
_atom_site_type_symbol
_atom_site_label
_atom_site_fract_x
_atom_site_fract_y
_atom_site_fract_z
Si Si1 0.713441 0.717135 0.193353
Si Si2 0.436783 0.794096 0.629285
Si Si3 0.486055 0.782328 0.250813
Si Si4 0.346043 0.788901 0.531702
Si Si5 0.677725 0.783263 0.640395
Si Si6 0.118222 0.700895 0.898345
Si Si7 0.000000 0.000000 0.000000
Si Si8 0.636328 0.290920 0.071138
O O1 0.706965 0.500000 0.199986
O O2 0.644200 0.794151 0.280882
O O3 0.798662 0.760683 0.176274
O O4 0.696211 0.769726 0.108335
O O5 0.493789 0.718380 0.667402
O O6 0.412613 0.713671 0.554729
O O7 0.460046 0.000000 0.604035
O O8 0.399914 0.728947 0.273887
O O9 0.554241 0.719723 0.158139
O O10 0.489843 0.000000 0.250524
O O11 0.335346 0.717905 0.446204
O O12 0.263234 0.771327 0.616925
O O13 0.361353 0.000000 0.515009
O O14 0.679039 0.000000 0.640878
O O15 0.099167 0.500000 0.878316
O O16 0.051828 0.843329 0.929009
O O17 0.133643 0.688765 0.988245
O O18 0.647818 0.500000 0.044033
#
# Coordination Sequence:
#
# PCOD9188604 Si02
#       8
#     8   8   8   8   8   8   2   8
#     4   9  20  36  59  86 113 144 187 238 289 341
#     4   9  18  32  53  79 109 140 181 233 282 335
#     4   9  18  33  52  79 109 142 182 232 285 336
#     4   9  18  33  51  75 103 139 183 227 276 339
#     4   9  18  33  52  73 104 141 182 227 277 339
#     4  11  23  42  62  85 118 159 197 239 289 344
#     4  12  26  44  60  86 124 156 198 238 292 350
#     4  10  19  36  60  87 114 145 189 241 289 341
#
# _framework density 27.026745999999999
#
# number of rings (size 3 to 8) (size 9 to 14) (size 15 to 20)
#    0.000    2.483    0.690    1.034    0.966    2.207 
#    2.483    2.759    0.000    0.000    0.000    7.724 
#    0.000    0.000    0.000    0.000    0.000    0.000 
#
# Total GULP energy -162116.724787 kJ/mol
# GULP energy per Si atom -5590.231889 kJ/mol
# Density = 2.696523 g / cm^3
# Si number density = 27.026746 Si / 1000 Ang^3
#
#
#
# Elastic Constant Matrix: (Units=GPa)
#
#
# Indices 1 2 3 4 5 6 
#
# 1 176.0778 19.4802 29.8767 0.0000 -11.5268 -0.0002
# 2 19.4802 111.0449 4.2495 0.0000 -10.8241 0.0005
# 3 29.8767 4.2495 88.2202 0.0000 -13.3881 -0.0001
# 4 0.0000 0.0000 0.0000 2.0839 0.0001 -1.3759
# 5 -11.5268 -10.8241 -13.3881 0.0001 61.6721 -0.0001
# 6 -0.0002 0.0005 -0.0001 -1.3759 -0.0001 10.2809
#
#
#
# Elastic Compliance Matrix: (Units=1/GPa)
#
#
# Indices 1 2 3 4 5 6 
#
# 1 0.006152 -0.000950 -0.001953 0.000000 0.000559 0.000000
# 2 -0.000950 0.009312 0.000097 -0.000001 0.001478 -0.000001
# 3 -0.001953 0.000097 0.012346 0.000000 0.002332 0.000000
# 4 0.000000 -0.000001 0.000000 0.526397 0.000000 0.070449
# 5 0.000559 0.001478 0.002332 0.000000 0.017085 0.000000
# 6 0.000000 -0.000001 0.000000 0.070449 0.000000 0.106696
#
#
# Mechanical properties :
#
#
# Convention : Reuss Voigt Hill
#
# Bulk Modulus (GPa) = 45.04583 53.61731 49.33157
# Shear Modulus (GPa) = 7.23589 36.25647 21.74618
#
# Velocity S-wave (km/s) = 1.63802 3.66663 2.83965
# Velocity P-wave (km/s) = 4.50342 6.14876 5.38925
#
# Compressibility (1/GPa) = 0.02219961
#
# Stress axis : x y z
#
# Youngs Moduli (GPa) = 162.53826 107.38409 80.99858
#
# Poissons Ratio (x) = 0.10202 0.15819
# Poissons Ratio (y) = 0.15442 -0.00790
# Poissons Ratio (z) = 0.31743 -0.01047
#
# Static dielectric constant tensor:
#      x y z
#    x 2.143420 0.000000 0.070560 
#    y 0.000000 2.012800 0.000000 
#    z 0.070560 0.000000 2.169370 
# 
# From -- ./inp_files/313915.got.cif
#   From: 2010.05.17/outbox.cif.g08.bks.cpg/sg12_157_cif.got.tgz:313915.got - 2010.06.03 13:09:07.
