data_PCOD9188751
_publ_section_title
;
Structure prediction by ZEFSAII (Michael W. Deem and Ramdas Pophale) SiO2 
 PCOD9188751
Probable space group: C 2/M
;
_chemical_formula_sum "Si O2"
_cell_formula_units_Z 44
_cell_length_a 15.180579
_cell_length_b 14.637129
_cell_length_c 11.824964
_cell_angle_alpha 90.000000
_cell_angle_beta 131.558676
_cell_angle_gamma 90.000000
_cell_volume 1966.103213
_symmetry_space_group_name_H-M "C 2/M"
_symmetry_group_IT_number 12
_symmetry_cell_setting 'monoclinic'
loop_
_space_group_symop_operation_xyz
x,y,z
-x,y,-z
-x,-y,-z
x,-y,z
1/2+x,1/2+y,z
1/2-x,1/2+y,-z
1/2-x,1/2-y,-z
1/2+x,1/2-y,z
loop_
_atom_site_type_symbol
_atom_site_label
_atom_site_fract_x
_atom_site_fract_y
_atom_site_fract_z
Si Si1 0.791038 0.607514 0.817019
Si Si2 0.354235 0.729935 0.998013
Si Si3 0.000000 0.332676 0.500000
Si Si4 0.741845 0.605194 0.286345
Si Si5 0.215137 0.895592 0.513359
Si Si6 0.463750 0.666721 0.303234
O O1 0.815897 0.500000 0.845306
O O2 0.876768 0.671593 0.962088
O O3 0.785093 0.639443 0.681543
O O4 0.658349 0.626045 0.752633
O O5 0.312714 0.664601 0.861192
O O6 0.250000 0.750000 0.000000
O O7 0.450814 0.682379 0.158032
O O8 0.882618 0.391047 0.395099
O O9 0.989982 0.263581 0.385180
O O10 0.699134 0.500000 0.244645
O O11 0.724038 0.646507 0.396858
O O12 0.077280 0.893107 0.426489
O O13 0.254962 0.000000 0.533130
#
# Coordination Sequence:
#
# PCOD9188751 Si02
#       6
#     8   8   4   8   8   8
#     4  10  19  36  61  87 121 158 197 248 293 346
#     4  10  21  38  56  86 121 153 199 238 297 357
#     4  12  21  40  61  86 116 156 207 238 291 356
#     4  11  24  41  61  87 121 159 199 245 293 353
#     4  10  21  37  61  91 118 153 200 247 299 347
#     4  11  20  37  60  89 122 154 198 245 294 354
#
# _framework density 22.379294000000002
#
# number of rings (size 3 to 8) (size 9 to 14) (size 15 to 20)
#    0.000    1.455    5.455    0.818    0.000    8.727 
#    0.000    1.818    0.000    0.000    0.000    6.364 
#    0.000    0.000    0.000    0.000    0.000    0.000 
#
# Total GULP energy -122831.447893 kJ/mol
# GULP energy per Si atom -5583.247631 kJ/mol
# Density = 2.232836 g / cm^3
# Si number density = 22.379294 Si / 1000 Ang^3
#
#
#
# Elastic Constant Matrix: (Units=GPa)
#
#
# Indices 1 2 3 4 5 6 
#
# 1 39.9901 2.6938 17.3732 0.0000 -23.5502 0.0000
# 2 2.6938 100.8958 25.0302 0.0000 -24.8962 0.0000
# 3 17.3732 25.0302 110.8152 0.0000 -42.2343 0.0000
# 4 0.0000 0.0000 0.0000 0.0797 0.0000 -24.4831
# 5 -23.5502 -24.8962 -42.2343 0.0000 39.8642 0.0000
# 6 0.0000 0.0000 0.0000 -24.4831 0.0000 -0.7974
#
#
#
# Elastic Compliance Matrix: (Units=1/GPa)
#
#
# Indices 1 2 3 4 5 6 
#
# 1 0.042602 0.006076 0.005010 0.000000 0.034269 0.000000
# 2 0.006076 0.012587 0.000953 0.000000 0.012460 0.000000
# 3 0.005010 0.000953 0.015729 0.000000 0.020219 0.000000
# 4 0.000000 0.000000 0.000000 0.001330 0.000000 -0.040840
# 5 0.034269 0.012460 0.020219 0.000000 0.074534 0.000000
# 6 0.000000 0.000000 0.000000 -0.040840 0.000000 -0.000133
#
#
# Mechanical properties :
#
#
# Convention : Reuss Voigt Hill
#
# Bulk Modulus (GPa) = 10.52678 37.98840 24.25759
# Shear Modulus (GPa) = 32.41765 21.60289 27.01027
#
# Velocity S-wave (km/s) = 3.81012 3.11031 3.47786
# Velocity P-wave (km/s) = 4.90612 5.46904 5.19521
#
# Compressibility (1/GPa) = 0.09499577
#
# Stress axis : x y z
#
# Youngs Moduli (GPa) = 23.47314 79.44628 63.57515
#
# Poissons Ratio (x) = -0.48271 -0.31848
# Poissons Ratio (y) = -0.14262 -0.06060
# Poissons Ratio (z) = -0.11759 -0.07573
#
# Static dielectric constant tensor:
#      x y z
#    x 1.880090 0.000000 -0.025510 
#    y 0.000000 1.848080 0.000000 
#    z -0.025510 0.000000 1.823790 
# 
# From -- ./inp_files/156295.got.cif
#   From: 2010.05.17/outbox.cif.g08.bks.cpg/sg12_79_cif.got.tgz:156295.got - 2010.06.03 13:09:07.
