data_PCOD9188351
_publ_section_title
;
Structure prediction by ZEFSAII (Michael W. Deem and Ramdas Pophale) SiO2 
 PCOD9188351
Probable space group: C 2/M
;
_chemical_formula_sum "Si O2"
_cell_formula_units_Z 56
_cell_length_a 28.760536
_cell_length_b 7.525029
_cell_length_c 12.220602
_cell_angle_alpha 90.000000
_cell_angle_beta 73.654655
_cell_angle_gamma 90.000000
_cell_volume 2537.933502
_symmetry_space_group_name_H-M "C 2/M"
_symmetry_group_IT_number 12
_symmetry_cell_setting 'monoclinic'
loop_
_space_group_symop_operation_xyz
x,y,z
-x,y,-z
-x,-y,-z
x,-y,z
1/2+x,1/2+y,z
1/2-x,1/2+y,-z
1/2-x,1/2-y,-z
1/2+x,1/2-y,z
loop_
_atom_site_type_symbol
_atom_site_label
_atom_site_fract_x
_atom_site_fract_y
_atom_site_fract_z
Si Si1 0.747984 0.707709 0.325727
Si Si2 0.896574 0.781762 0.842643
Si Si3 0.570116 0.208779 0.703443
Si Si4 0.213204 0.213175 0.121267
Si Si5 0.327089 0.215962 0.443075
Si Si6 0.444258 0.285650 0.039314
Si Si7 0.021280 0.796353 0.372824
O O1 0.759496 0.500000 0.303225
O O2 0.736827 0.787310 0.216059
O O3 0.699507 0.723524 0.429966
O O4 0.792283 0.781132 0.367764
O O5 0.841387 0.723063 0.863132
O O6 0.932069 0.720038 0.721185
O O7 0.898170 0.000000 0.841217
O O8 0.916777 0.725341 0.948171
O O9 0.618182 0.275485 0.610769
O O10 0.576609 0.231952 0.829158
O O11 0.521729 0.295912 0.688285
O O12 0.564880 0.000000 0.684404
O O13 0.208823 0.000000 0.136599
O O14 0.250000 0.250000 0.000000
O O15 0.326832 0.000000 0.442947
O O16 0.444424 0.500000 0.036973
O O17 0.500000 0.224224 0.000000
O O18 0.000000 0.716455 0.500000
O O19 0.034382 0.000000 0.391914
#
# Coordination Sequence:
#
# PCOD9188351 Si02
#       7
#     8   8   8   8   8   8   8
#     4   9  19  37  59  80 106 143 189 235 275 325
#     4   9  19  37  57  83 112 143 187 240 281 320
#     4  11  23  36  55  84 119 148 179 226 283 342
#     4  10  22  38  58  83 113 147 187 233 283 334
#     4   9  20  37  55  80 113 146 179 227 283 333
#     4  10  19  36  59  79 108 145 188 234 272 320
#     4  10  21  38  62  86 112 149 194 233 273 331
#
# _framework density 22.065196
#
# number of rings (size 3 to 8) (size 9 to 14) (size 15 to 20)
#    0.000    2.286    1.429    0.429    4.000    2.286 
#    0.000    0.714    0.000    0.000    0.000    0.000 
#    0.000    0.000    0.000    0.000    0.000    0.000 
#
# Total GULP energy -156397.913553 kJ/mol
# GULP energy per Si atom -5585.639770 kJ/mol
# Density = 2.201498 g / cm^3
# Si number density = 22.065196 Si / 1000 Ang^3
#
#
#
# Elastic Constant Matrix: (Units=GPa)
#
#
# Indices 1 2 3 4 5 6 
#
# 1 72.6382 -3.9419 65.7394 0.0000 -19.2867 0.0000
# 2 -3.9419 57.4544 -11.5151 0.0000 4.9581 0.0000
# 3 65.7394 -11.5151 141.3226 0.0000 10.7149 0.0000
# 4 0.0000 0.0000 0.0000 102.9639 0.0000 30.3188
# 5 -19.2867 4.9581 10.7149 0.0000 35.0623 0.0000
# 6 0.0000 0.0000 0.0000 30.3188 0.0000 10.2758
#
#
#
# Elastic Compliance Matrix: (Units=1/GPa)
#
#
# Indices 1 2 3 4 5 6 
#
# 1 0.041145 -0.004110 -0.021738 0.000000 0.029857 0.000000
# 2 -0.004110 0.018421 0.003872 0.000000 -0.006049 0.000000
# 3 -0.021738 0.003872 0.018889 0.000000 -0.018277 0.000000
# 4 0.000000 0.000000 0.000000 0.074027 0.000000 -0.218417
# 5 0.029857 -0.006049 -0.018277 0.000000 0.051385 0.000000
# 6 0.000000 0.000000 0.000000 -0.218417 0.000000 0.741754
#
#
# Mechanical properties :
#
#
# Convention : Reuss Voigt Hill
#
# Bulk Modulus (GPa) = 28.98431 41.33111 35.15771
# Shear Modulus (GPa) = 4.99463 44.40260 24.69862
#
# Velocity S-wave (km/s) = 1.50615 4.49077 3.34929
# Velocity P-wave (km/s) = 4.02355 6.75732 5.56104
#
# Compressibility (1/GPa) = 0.03450142
#
# Stress axis : x y z
#
# Youngs Moduli (GPa) = 24.30451 54.28572 52.94051
#
# Poissons Ratio (x) = 0.22313 1.15082
# Poissons Ratio (y) = 0.09990 -0.20497
# Poissons Ratio (z) = 0.52833 -0.21017
#
# Static dielectric constant tensor:
#      x y z
#    x 1.777520 0.000000 0.011080 
#    y 0.000000 1.832070 0.000000 
#    z 0.011080 0.000000 1.800310 
# 
# From -- ./inp_files/186436.got.cif
#   From: 2010.05.17/outbox.cif.g08.bks.cpg/sg12_94_cif.got.tgz:186436.got - 2010.06.03 13:09:07.
