data_PCOD9188990
_publ_section_title
;
Structure prediction by ZEFSAII (Michael W. Deem and Ramdas Pophale) SiO2 
 PCOD9188990
Probable space group: C 2/M
;
_chemical_formula_sum "Si O2"
_cell_formula_units_Z 44
_cell_length_a 11.036584
_cell_length_b 23.081037
_cell_length_c 9.347291
_cell_angle_alpha 90.000000
_cell_angle_beta 88.550693
_cell_angle_gamma 90.000000
_cell_volume 2380.327960
_symmetry_space_group_name_H-M "C 2/M"
_symmetry_group_IT_number 12
_symmetry_cell_setting 'monoclinic'
loop_
_space_group_symop_operation_xyz
x,y,z
-x,y,-z
-x,-y,-z
x,-y,z
1/2+x,1/2+y,z
1/2-x,1/2+y,-z
1/2-x,1/2-y,-z
1/2+x,1/2-y,z
loop_
_atom_site_type_symbol
_atom_site_label
_atom_site_fract_x
_atom_site_fract_y
_atom_site_fract_z
Si Si1 0.304409 0.270424 0.349146
Si Si2 0.196272 0.932981 0.354368
Si Si3 0.151901 0.344644 0.837721
Si Si4 0.107966 0.564198 0.403974
Si Si5 0.000000 0.150307 0.500000
Si Si6 0.861471 0.647885 0.834528
O O1 0.250000 0.250000 0.500000
O O2 0.324793 0.214113 0.250744
O O3 0.419918 0.309357 0.394921
O O4 0.204693 0.307129 0.266925
O O5 0.278342 0.898294 0.237440
O O6 0.279523 0.936360 0.492979
O O7 0.084603 0.891790 0.401759
O O8 0.166290 0.000000 0.315294
O O9 0.006668 0.348678 0.837003
O O10 0.187216 0.344337 0.003982
O O11 0.060108 0.500000 0.374663
O O12 0.153187 0.588899 0.252994
O O13 0.000000 0.595038 0.500000
#
# Coordination Sequence:
#
# PCOD9188990 Si02
#       6
#     8   8   8   8   4   8
#     4  12  23  41  65  90 123 161 211 265 308 366
#     4  11  23  41  64  92 127 164 212 258 305 371
#     4  11  24  40  61  94 127 165 202 254 324 371
#     4  10  19  36  64  92 120 157 208 262 304 360
#     4  12  23  40  68  94 119 166 212 262 306 366
#     4  11  23  40  62  91 128 161 205 254 320 382
#
# _framework density 18.484848
#
# number of rings (size 3 to 8) (size 9 to 14) (size 15 to 20)
#    0.000    0.909    5.455    1.909    0.000    0.727 
#    0.000    1.818    0.000    1.091    0.000    0.000 
#    0.000    0.000    0.000    0.000    0.000    0.000 
#
# Total GULP energy -122588.319538 kJ/mol
# GULP energy per Si atom -5572.196343 kJ/mol
# Density = 1.844278 g / cm^3
# Si number density = 18.484848 Si / 1000 Ang^3
#
#
#
# Elastic Constant Matrix: (Units=GPa)
#
#
# Indices 1 2 3 4 5 6 
#
# 1 67.4045 36.6011 45.6164 0.0000 -2.0070 0.0000
# 2 36.6011 128.2631 77.4080 0.0000 -9.5890 0.0000
# 3 45.6164 77.4080 165.8368 0.0000 1.7815 0.0000
# 4 0.0000 0.0000 0.0000 198.7592 0.0000 -80.9696
# 5 -2.0070 -9.5890 1.7815 0.0000 27.0480 0.0000
# 6 0.0000 0.0000 0.0000 -80.9696 0.0000 66.3492
#
#
#
# Elastic Compliance Matrix: (Units=1/GPa)
#
#
# Indices 1 2 3 4 5 6 
#
# 1 0.019124 -0.003114 -0.003813 0.000000 0.000566 0.000000
# 2 -0.003114 0.011856 -0.004724 0.000000 0.004283 0.000000
# 3 -0.003813 -0.004724 0.009311 0.000000 -0.002571 0.000000
# 4 0.000000 0.000000 0.000000 0.010005 0.000000 0.012210
# 5 0.000566 0.004283 -0.002571 0.000000 0.038701 0.000000
# 6 0.000000 0.000000 0.000000 0.012210 0.000000 0.029972
#
#
# Mechanical properties :
#
#
# Convention : Reuss Voigt Hill
#
# Bulk Modulus (GPa) = 58.85611 75.63948 67.24780
# Shear Modulus (GPa) = 33.79892 71.88989 52.84441
#
# Velocity S-wave (km/s) = 4.28070 6.24305 5.35257
# Velocity P-wave (km/s) = 7.50612 9.64241 8.64054
#
# Compressibility (1/GPa) = 0.01699059
#
# Stress axis : x y z
#
# Youngs Moduli (GPa) = 52.29056 84.34629 107.39601
#
# Poissons Ratio (x) = 0.26262 0.40951
# Poissons Ratio (y) = 0.16281 0.50729
# Poissons Ratio (z) = 0.19939 0.39841
#
# Static dielectric constant tensor:
#      x y z
#    x 1.620340 0.000000 -0.020640 
#    y 0.000000 1.719210 0.000000 
#    z -0.020640 0.000000 1.639730 
# 
# From -- ./inp_files/49283.got.cif
#   From: 2010.05.17/outbox.cif.g08.bks.cpg/sg12_25_cif.got.tgz:49283.got - 2010.06.03 13:09:07.
