data_PCOD9188321
_publ_section_title
;
Structure prediction by ZEFSAII (Michael W. Deem and Ramdas Pophale) SiO2 
 PCOD9188321
Probable space group: C 2/M
;
_chemical_formula_sum "Si O2"
_cell_formula_units_Z 36
_cell_length_a 9.358198
_cell_length_b 22.252713
_cell_length_c 15.197274
_cell_angle_alpha 90.000000
_cell_angle_beta 39.289077
_cell_angle_gamma 90.000000
_cell_volume 2004.032032
_symmetry_space_group_name_H-M "C 2/M"
_symmetry_group_IT_number 12
_symmetry_cell_setting 'monoclinic'
loop_
_space_group_symop_operation_xyz
x,y,z
-x,y,-z
-x,-y,-z
x,-y,z
1/2+x,1/2+y,z
1/2-x,1/2+y,-z
1/2-x,1/2-y,-z
1/2+x,1/2-y,z
loop_
_atom_site_type_symbol
_atom_site_label
_atom_site_fract_x
_atom_site_fract_y
_atom_site_fract_z
Si Si1 0.897617 0.500000 0.283353
Si Si2 0.246137 0.680326 0.526271
Si Si3 0.211977 0.500000 0.300505
Si Si4 0.749905 0.370244 0.292217
Si Si5 0.220667 0.000000 0.044198
Si Si6 0.000000 0.398454 0.000000
Si Si7 0.500000 0.896280 0.500000
O O1 0.765204 0.439376 0.319913
O O2 0.002077 0.500000 0.331784
O O3 0.118246 0.500000 0.116611
O O4 0.250000 0.750000 0.500000
O O5 0.170868 0.669568 0.662721
O O6 0.494531 0.650918 0.397637
O O7 0.084968 0.644826 0.537884
O O8 0.460745 0.500000 0.142449
O O9 0.187642 0.441416 0.372705
O O10 0.902174 0.364879 0.132171
O O11 0.297749 0.942249 0.064128
#
# Coordination Sequence:
#
# PCOD9188321 Si02
#       7
#     4   8   4   8   4   4   4
#     4  10  19  36  58  88 115 147 192 225 296 348
#     4  11  23  40  59  81 112 158 198 239 288 334
#     4  11  20  32  51  89 123 145 181 236 294 341
#     4  10  21  38  63  85 116 151 189 238 284 351
#     4   9  18  31  54  83 125 156 171 224 290 362
#     4   9  18  36  58  88 114 152 194 225 284 350
#     4  11  22  34  54  84 118 145 192 244 284 339
#
# _framework density 17.963785000000001
#
# number of rings (size 3 to 8) (size 9 to 14) (size 15 to 20)
#    0.000    1.778    2.222    3.667    0.000    3.556 
#    0.000    1.111    0.000    2.667    0.000    0.000 
#    0.000    0.000    0.000    0.000    0.000    0.000 
#
# Total GULP energy -100411.117922 kJ/mol
# GULP energy per Si atom -5578.395440 kJ/mol
# Density = 1.792290 g / cm^3
# Si number density = 17.963785 Si / 1000 Ang^3
#
#
#
# Elastic Constant Matrix: (Units=GPa)
#
#
# Indices 1 2 3 4 5 6 
#
# 1 75.5308 25.2948 39.3948 0.0000 13.4302 0.0000
# 2 25.2948 114.2472 46.7963 0.0000 5.7197 0.0000
# 3 39.3948 46.7963 108.7574 0.0000 18.4772 0.0000
# 4 0.0000 0.0000 0.0000 16.6393 0.0000 3.0841
# 5 13.4302 5.7197 18.4772 0.0000 41.4179 0.0000
# 6 0.0000 0.0000 0.0000 3.0841 0.0000 4.6723
#
#
#
# Elastic Compliance Matrix: (Units=1/GPa)
#
#
# Indices 1 2 3 4 5 6 
#
# 1 0.016874 -0.001569 -0.004917 0.000000 -0.003061 0.000000
# 2 -0.001569 0.010786 -0.004227 0.000000 0.000905 0.000000
# 3 -0.004917 -0.004227 0.013443 0.000000 -0.003819 0.000000
# 4 0.000000 0.000000 0.000000 0.068477 0.000000 -0.045200
# 5 -0.003061 0.000905 -0.003819 0.000000 0.026716 0.000000
# 6 0.000000 0.000000 0.000000 -0.045200 0.000000 0.243861
#
#
# Mechanical properties :
#
#
# Convention : Reuss Voigt Hill
#
# Bulk Modulus (GPa) = 50.81612 57.94526 54.38069
# Shear Modulus (GPa) = 12.25066 25.01588 18.63327
#
# Velocity S-wave (km/s) = 2.61428 3.73577 3.22416
# Velocity P-wave (km/s) = 6.12063 7.13685 6.64819
#
# Compressibility (1/GPa) = 0.01967879
#
# Stress axis : x y z
#
# Youngs Moduli (GPa) = 59.26304 92.71113 74.38607
#
# Poissons Ratio (x) = 0.14543 0.36577
# Poissons Ratio (y) = 0.09296 0.31440
# Poissons Ratio (z) = 0.29141 0.39185
#
# Static dielectric constant tensor:
#      x y z
#    x 1.653680 0.000000 0.023840 
#    y 0.000000 1.597800 0.000000 
#    z 0.023840 0.000000 1.621730 
# 
# From -- ./inp_files/120025.got.cif
#   From: 2010.05.17/outbox.cif.g08.bks.cpg/sg12_61_cif.got.tgz:120025.got - 2010.06.03 13:09:07.
