data_PCOD9188108
_publ_section_title
;
Structure prediction by ZEFSAII (Michael W. Deem and Ramdas Pophale) SiO2 
 PCOD9188108
Probable space group: C 2/M
;
_chemical_formula_sum "Si O2"
_cell_formula_units_Z 40
_cell_length_a 22.667302
_cell_length_b 13.706271
_cell_length_c 8.578555
_cell_angle_alpha 90.000000
_cell_angle_beta 52.326840
_cell_angle_gamma 90.000000
_cell_volume 2109.549129
_symmetry_space_group_name_H-M "C 2/M"
_symmetry_group_IT_number 12
_symmetry_cell_setting 'monoclinic'
loop_
_space_group_symop_operation_xyz
x,y,z
-x,y,-z
-x,-y,-z
x,-y,z
1/2+x,1/2+y,z
1/2-x,1/2+y,-z
1/2-x,1/2-y,-z
1/2+x,1/2-y,z
loop_
_atom_site_type_symbol
_atom_site_label
_atom_site_fract_x
_atom_site_fract_y
_atom_site_fract_z
Si Si1 0.953077 0.247009 0.941048
Si Si2 0.810766 0.672096 0.348056
Si Si3 0.251751 0.890447 0.129070
Si Si4 0.874885 0.253616 0.763373
Si Si5 0.929462 0.387399 0.399076
O O1 0.927561 0.208897 0.813307
O O2 0.003689 0.341260 0.812189
O O3 0.877209 0.273641 0.150157
O O4 0.000000 0.191792 0.000000
O O5 0.750000 0.750000 0.500000
O O6 0.772687 0.607235 0.277367
O O7 0.852998 0.620012 0.422063
O O8 0.175793 0.830290 0.229698
O O9 0.247117 0.000000 0.074230
O O10 0.316803 0.829734 0.937089
O O11 0.917987 0.317009 0.565307
O O12 0.944334 0.500000 0.414492
#
# Coordination Sequence:
#
# PCOD9188108 Si02
#       5
#     8   8   8   8   8
#     4   9  21  35  54  80 112 154 182 230 289 342
#     4  10  19  36  56  82 117 154 188 226 283 341
#     4  10  20  35  57  84 116 152 190 236 286 339
#     4  10  20  35  56  85 117 148 190 237 285 342
#     4  11  21  34  57  89 120 149 186 234 292 350
#
# _framework density 18.961397999999999
#
# number of rings (size 3 to 8) (size 9 to 14) (size 15 to 20)
#    0.000    2.000    2.000    1.800    0.000    8.400 
#    0.000    0.000    0.000    3.000    0.000    0.000 
#    0.000    0.000    0.000    0.000    0.000    0.000 
#
# Total GULP energy -111418.239520 kJ/mol
# GULP energy per Si atom -5570.911976 kJ/mol
# Density = 1.891824 g / cm^3
# Si number density = 18.961398 Si / 1000 Ang^3
#
#
#
# Elastic Constant Matrix: (Units=GPa)
#
#
# Indices 1 2 3 4 5 6 
#
# 1 137.8712 14.8515 30.7819 0.0000 8.8832 0.0000
# 2 14.8515 47.9404 17.6568 0.0000 -11.8272 0.0000
# 3 30.7819 17.6568 93.9703 0.0000 -5.3471 0.0000
# 4 0.0000 0.0000 0.0000 14.1977 0.0000 0.3931
# 5 8.8832 -11.8272 -5.3471 0.0000 34.5357 0.0000
# 6 0.0000 0.0000 0.0000 0.3931 0.0000 9.5123
#
#
#
# Elastic Compliance Matrix: (Units=1/GPa)
#
#
# Indices 1 2 3 4 5 6 
#
# 1 0.008283 -0.002499 -0.002435 0.000000 -0.003363 0.000000
# 2 -0.002499 0.025025 -0.003389 0.000000 0.008688 0.000000
# 3 -0.002435 -0.003389 0.012153 0.000000 0.001347 0.000000
# 4 0.000000 0.000000 0.000000 0.070514 0.000000 -0.002914
# 5 -0.003363 0.008688 0.001347 0.000000 0.033004 0.000000
# 6 0.000000 0.000000 0.000000 -0.002914 0.000000 0.105248
#
#
# Mechanical properties :
#
#
# Convention : Reuss Voigt Hill
#
# Bulk Modulus (GPa) = 34.70486 45.15137 39.92811
# Shear Modulus (GPa) = 17.82670 26.08193 21.95431
#
# Velocity S-wave (km/s) = 3.06952 3.71283 3.40640
# Velocity P-wave (km/s) = 5.55925 6.49955 6.04770
#
# Compressibility (1/GPa) = 0.02881441
#
# Stress axis : x y z
#
# Youngs Moduli (GPa) = 120.73413 39.95997 82.28564
#
# Poissons Ratio (x) = 0.09985 0.20037
# Poissons Ratio (y) = 0.30169 0.27889
# Poissons Ratio (z) = 0.29399 0.13543
#
# Static dielectric constant tensor:
#      x y z
#    x 1.740210 0.000000 0.033540 
#    y 0.000000 1.608390 0.000000 
#    z 0.033540 0.000000 1.659540 
# 
# From -- ./inp_files/71226.got.cif
#   From: 2010.05.17/outbox.cif.g08.bks.cpg/sg12_36_cif.got.tgz:71226.got - 2010.06.03 13:09:07.
