data_PCOD9188739
_publ_section_title
;
Structure prediction by ZEFSAII (Michael W. Deem and Ramdas Pophale) SiO2 
 PCOD9188739
Probable space group: C 2/M
;
_chemical_formula_sum "Si O2"
_cell_formula_units_Z 48
_cell_length_a 24.221625
_cell_length_b 9.429464
_cell_length_c 11.964643
_cell_angle_alpha 90.000000
_cell_angle_beta 120.057567
_cell_angle_gamma 90.000000
_cell_volume 2365.203102
_symmetry_space_group_name_H-M "C 2/M"
_symmetry_group_IT_number 12
_symmetry_cell_setting 'monoclinic'
loop_
_space_group_symop_operation_xyz
x,y,z
-x,y,-z
-x,-y,-z
x,-y,z
1/2+x,1/2+y,z
1/2-x,1/2+y,-z
1/2-x,1/2-y,-z
1/2+x,1/2-y,z
loop_
_atom_site_type_symbol
_atom_site_label
_atom_site_fract_x
_atom_site_fract_y
_atom_site_fract_z
Si Si1 0.420987 0.669710 0.689345
Si Si2 0.640657 0.164029 0.181468
Si Si3 0.462218 0.155042 0.114678
Si Si4 0.146222 0.728247 0.827506
Si Si5 0.425750 0.168878 0.459732
Si Si6 0.285971 0.352367 0.905152
O O1 0.417072 0.500000 0.674905
O O2 0.369884 0.735868 0.723392
O O3 0.489281 0.720005 0.808937
O O4 0.416264 0.752629 0.567331
O O5 0.695780 0.222827 0.156086
O O6 0.650933 0.000000 0.221176
O O7 0.576793 0.172396 0.039442
O O8 0.408663 0.151206 0.157112
O O9 0.495196 0.000000 0.148610
O O10 0.114489 0.750902 0.675652
O O11 0.213118 0.652350 0.869915
O O12 0.169950 0.845084 0.939861
O O13 0.500000 0.174694 0.500000
O O14 0.408242 0.000000 0.445339
O O15 0.299355 0.500000 0.858253
#
# Coordination Sequence:
#
# PCOD9188739 Si02
#       6
#     8   8   8   8   8   8
#     4  12  25  38  56  87 124 157 196 251 309 357
#     4  10  22  40  61  85 116 160 209 247 292 360
#     4  10  19  36  61  87 117 157 203 246 292 357
#     4  10  21  37  63  94 123 158 201 243 297 360
#     4  11  22  40  64  86 118 164 206 242 287 359
#     4  10  21  38  64  94 125 156 196 255 305 346
#
# _framework density 20.294241
#
# number of rings (size 3 to 8) (size 9 to 14) (size 15 to 20)
#    0.000    1.500    1.667    4.000    0.000   11.000 
#    0.000    0.833    0.000    0.000    0.000    0.000 
#    0.000    0.000    0.000    0.000    0.000    0.000 
#
# Total GULP energy -133875.858328 kJ/mol
# GULP energy per Si atom -5578.160764 kJ/mol
# Density = 2.024805 g / cm^3
# Si number density = 20.294241 Si / 1000 Ang^3
#
#
#
# Elastic Constant Matrix: (Units=GPa)
#
#
# Indices 1 2 3 4 5 6 
#
# 1 79.8812 49.0728 24.9708 0.0000 -19.4433 0.0000
# 2 49.0728 105.9189 25.5562 0.0000 -20.6406 0.0000
# 3 24.9708 25.5562 83.3694 0.0000 -25.8587 0.0000
# 4 0.0000 0.0000 0.0000 -39.4115 0.0000 -23.5726
# 5 -19.4433 -20.6406 -25.8587 0.0000 35.8361 0.0000
# 6 0.0000 0.0000 0.0000 -23.5726 0.0000 -1.0947
#
#
#
# Elastic Compliance Matrix: (Units=1/GPa)
#
#
# Indices 1 2 3 4 5 6 
#
# 1 0.018733 -0.007323 -0.001961 0.000000 0.004531 0.000000
# 2 -0.007323 0.013700 -0.001019 0.000000 0.003182 0.000000
# 3 -0.001961 -0.001019 0.015953 0.000000 0.009861 0.000000
# 4 0.000000 0.000000 0.000000 0.002136 0.000000 -0.045993
# 5 0.004531 0.003182 0.009861 0.000000 0.039311 0.000000
# 6 0.000000 0.000000 0.000000 -0.045993 0.000000 0.076897
#
#
# Mechanical properties :
#
#
# Convention : Reuss Voigt Hill
#
# Bulk Modulus (GPa) = 35.99685 52.04100 44.01893
# Shear Modulus (GPa) = 25.43280 10.37062 17.90171
#
# Velocity S-wave (km/s) = 3.54390 2.26301 2.97325
# Velocity P-wave (km/s) = 5.87551 5.70326 5.79003
#
# Compressibility (1/GPa) = 0.02778021
#
# Stress axis : x y z
#
# Youngs Moduli (GPa) = 53.38135 72.99243 62.68423
#
# Poissons Ratio (x) = 0.53453 0.12290
# Poissons Ratio (y) = 0.39092 0.06389
# Poissons Ratio (z) = 0.10466 0.07439
#
# Static dielectric constant tensor:
#      x y z
#    x 1.733600 0.000000 -0.008870 
#    y 0.000000 1.710790 0.000000 
#    z -0.008870 0.000000 1.722130 
# 
# From -- ./inp_files/173061.got.cif
#   From: 2010.05.17/outbox.cif.g08.bks.cpg/sg12_87_cif.got.tgz:173061.got - 2010.06.03 13:09:07.
