data_PCOD9188806
_publ_section_title
;
Structure prediction by ZEFSAII (Michael W. Deem and Ramdas Pophale) SiO2 
 PCOD9188806
Probable space group: C 2/M
;
_chemical_formula_sum "Si O2"
_cell_formula_units_Z 56
_cell_length_a 15.138922
_cell_length_b 21.295309
_cell_length_c 8.714454
_cell_angle_alpha 90.000000
_cell_angle_beta 68.913226
_cell_angle_gamma 90.000000
_cell_volume 2621.306258
_symmetry_space_group_name_H-M "C 2/M"
_symmetry_group_IT_number 12
_symmetry_cell_setting 'monoclinic'
loop_
_space_group_symop_operation_xyz
x,y,z
-x,y,-z
-x,-y,-z
x,-y,z
1/2+x,1/2+y,z
1/2-x,1/2+y,-z
1/2-x,1/2-y,-z
1/2+x,1/2-y,z
loop_
_atom_site_type_symbol
_atom_site_label
_atom_site_fract_x
_atom_site_fract_y
_atom_site_fract_z
Si Si1 0.604840 0.000000 0.866005
Si Si2 0.394171 0.000000 0.500893
Si Si3 0.600630 0.776086 0.992390
Si Si4 0.273161 0.113718 0.710082
Si Si5 0.231253 0.388601 0.916965
Si Si6 0.571653 0.634383 0.342960
Si Si7 0.900271 0.728812 0.636633
Si Si8 0.569952 0.355613 0.838700
O O1 0.661688 0.060225 0.890719
O O2 0.601731 0.000000 0.684794
O O3 0.500000 0.000000 0.000000
O O4 0.500000 0.000000 0.500000
O O5 0.337884 0.939588 0.597419
O O6 0.689177 0.820204 0.898711
O O7 0.603421 0.708061 0.907432
O O8 0.500000 0.804261 0.000000
O O9 0.598730 0.773098 0.178083
O O10 0.318691 0.180922 0.639246
O O11 0.164177 0.109888 0.728574
O O12 0.271001 0.107456 0.896878
O O13 0.337165 0.397469 0.787460
O O14 0.500000 0.598088 0.500000
O O15 0.609770 0.698083 0.399878
O O16 0.499949 0.657868 0.256241
O O17 0.000000 0.707643 0.500000
O O18 0.500000 0.391139 0.000000
#
# Coordination Sequence:
#
# PCOD9188806 Si02
#       8
#     4   4   8   8   8   8   8   8
#     4  12  28  50  70  94 128 165 212 270 323 373
#     4  12  28  50  70  96 124 162 218 274 315 372
#     4  10  19  36  61  93 129 167 210 255 315 386
#     4  11  23  41  70  94 126 172 220 264 319 379
#     4  11  23  42  68  94 127 174 216 263 325 378
#     4  11  23  40  61  97 139 170 208 260 318 384
#     4  10  20  36  58  95 132 165 205 261 320 376
#     4  11  20  40  64  96 134 172 208 258 314 385
#
# _framework density 21.363394
#
# number of rings (size 3 to 8) (size 9 to 14) (size 15 to 20)
#    0.000    1.143    4.286    3.000    2.000    5.714 
#    0.000    3.571    0.000    0.000    0.000    0.000 
#    0.000    0.000    0.000    0.000    0.000    0.000 
#
# Total GULP energy -156388.404799 kJ/mol
# GULP energy per Si atom -5585.300171 kJ/mol
# Density = 2.131477 g / cm^3
# Si number density = 21.363394 Si / 1000 Ang^3
#
#
#
# Elastic Constant Matrix: (Units=GPa)
#
#
# Indices 1 2 3 4 5 6 
#
# 1 119.5202 40.3624 47.8051 0.0000 -39.8107 0.0000
# 2 40.3624 46.3351 30.4143 0.0000 -13.5370 0.0000
# 3 47.8051 30.4143 121.2329 0.0000 -42.2887 0.0000
# 4 0.0000 0.0000 0.0000 22.1114 0.0000 2.1672
# 5 -39.8107 -13.5370 -42.2887 0.0000 41.8338 0.0000
# 6 0.0000 0.0000 0.0000 2.1672 0.0000 17.0095
#
#
#
# Elastic Compliance Matrix: (Units=1/GPa)
#
#
# Indices 1 2 3 4 5 6 
#
# 1 0.015754 -0.010616 0.000745 0.000000 0.012310 0.000000
# 2 -0.010616 0.033203 -0.006055 0.000000 -0.005479 0.000000
# 3 0.000745 -0.006055 0.013960 0.000000 0.012862 0.000000
# 4 0.000000 0.000000 0.000000 0.045797 0.000000 -0.005835
# 5 0.012310 -0.005479 0.012862 0.000000 0.046848 0.000000
# 6 0.000000 0.000000 0.000000 -0.005835 0.000000 0.059534
#
#
# Mechanical properties :
#
#
# Convention : Reuss Voigt Hill
#
# Bulk Modulus (GPa) = 32.18954 58.25022 45.21988
# Shear Modulus (GPa) = 19.43222 27.42469 23.42846
#
# Velocity S-wave (km/s) = 3.01924 3.58680 3.31518
# Velocity P-wave (km/s) = 5.22060 6.66926 5.98890
#
# Compressibility (1/GPa) = 0.03106599
#
# Stress axis : x y z
#
# Youngs Moduli (GPa) = 63.47478 30.11752 71.63164
#
# Poissons Ratio (x) = 0.31973 -0.05338
# Poissons Ratio (y) = 0.67386 0.43373
# Poissons Ratio (z) = -0.04730 0.18236
#
# Static dielectric constant tensor:
#      x y z
#    x 1.782510 0.000000 0.015900 
#    y 0.000000 1.783640 0.000000 
#    z 0.015900 0.000000 1.834370 
# 
# From -- ./inp_files/65820.got.cif
#   From: 2010.05.17/outbox.cif.g08.bks.cpg/sg12_33_cif.got.tgz:65820.got - 2010.06.03 13:09:07.
