data_PCOD9188451
_publ_section_title
;
Structure prediction by ZEFSAII (Michael W. Deem and Ramdas Pophale) SiO2 
 PCOD9188451
Probable space group: C 2/M
;
_chemical_formula_sum "Si O2"
_cell_formula_units_Z 64
_cell_length_a 12.861204
_cell_length_b 19.749912
_cell_length_c 14.153679
_cell_angle_alpha 90.000000
_cell_angle_beta 89.080576
_cell_angle_gamma 90.000000
_cell_volume 3594.679828
_symmetry_space_group_name_H-M "C 2/M"
_symmetry_group_IT_number 12
_symmetry_cell_setting 'monoclinic'
loop_
_space_group_symop_operation_xyz
x,y,z
-x,y,-z
-x,-y,-z
x,-y,z
1/2+x,1/2+y,z
1/2-x,1/2+y,-z
1/2-x,1/2-y,-z
1/2+x,1/2-y,z
loop_
_atom_site_type_symbol
_atom_site_label
_atom_site_fract_x
_atom_site_fract_y
_atom_site_fract_z
Si Si1 0.077972 0.672617 0.411916
Si Si2 0.729483 0.419561 0.571415
Si Si3 0.560609 0.649657 0.219320
Si Si4 0.801935 0.333034 0.901152
Si Si5 0.104790 0.824395 0.435843
Si Si6 0.491531 0.804238 0.206170
Si Si7 0.770642 0.323086 0.117975
Si Si8 0.145975 0.078268 0.779843
O O1 0.157355 0.610739 0.408816
O O2 0.136725 0.745230 0.424597
O O3 0.000000 0.665047 0.500000
O O4 0.016542 0.678273 0.314337
O O5 0.729409 0.500000 0.551408
O O6 0.683130 0.374155 0.487984
O O7 0.663689 0.407518 0.668140
O O8 0.581926 0.649890 0.330985
O O9 0.510066 0.723254 0.196502
O O10 0.670472 0.641598 0.165565
O O11 0.472473 0.596266 0.194585
O O12 0.763697 0.255638 0.888519
O O13 0.725601 0.378009 0.839575
O O14 0.919201 0.337220 0.860390
O O15 0.793463 0.348550 0.012052
O O16 0.000000 0.823822 0.500000
O O17 0.376231 0.824760 0.176970
O O18 0.168144 0.000000 0.795045
#
# Coordination Sequence:
#
# PCOD9188451 Si02
#       8
#     8   8   8   8   8   8   8   8
#     4  10  22  35  58  89 114 150 193 243 297 342
#     4  11  23  38  58  82 116 162 201 235 285 356
#     4  10  21  35  56  89 119 150 192 240 295 344
#     4  10  20  37  58  88 115 149 199 238 294 350
#     4  10  20  35  57  85 116 149 187 243 289 347
#     4  10  19  36  59  86 121 148 185 248 295 350
#     4  10  21  34  61  88 117 147 187 255 299 339
#     4  11  22  39  61  82 120 160 198 237 281 359
#
# _framework density 17.804089999999999
#
# number of rings (size 3 to 8) (size 9 to 14) (size 15 to 20)
#    0.000    1.750    3.750    0.750    1.750    1.500 
#    0.000    1.250    0.000    3.000    0.000    0.000 
#    0.000    0.000    0.000    0.000    0.000    0.000 
#
# Total GULP energy -178589.173670 kJ/mol
# GULP energy per Si atom -5580.911677 kJ/mol
# Density = 1.776357 g / cm^3
# Si number density = 17.804090 Si / 1000 Ang^3
#
#
#
# Elastic Constant Matrix: (Units=GPa)
#
#
# Indices 1 2 3 4 5 6 
#
# 1 89.3980 17.4991 19.6170 0.0000 -5.2774 0.0000
# 2 17.4991 41.4296 23.4586 0.0000 6.2838 0.0000
# 3 19.6170 23.4586 65.2959 0.0000 -11.7089 0.0000
# 4 0.0000 0.0000 0.0000 11.3331 0.0000 -4.6099
# 5 -5.2774 6.2838 -11.7089 0.0000 29.0786 0.0000
# 6 0.0000 0.0000 0.0000 -4.6099 0.0000 14.9162
#
#
#
# Elastic Compliance Matrix: (Units=1/GPa)
#
#
# Indices 1 2 3 4 5 6 
#
# 1 0.012642 -0.004867 -0.001562 0.000000 0.002717 0.000000
# 2 -0.004867 0.036449 -0.014231 0.000000 -0.014490 0.000000
# 3 -0.001562 -0.014231 0.023063 0.000000 0.012078 0.000000
# 4 0.000000 0.000000 0.000000 0.100925 0.000000 0.031191
# 5 0.002717 -0.014490 0.012078 0.000000 0.042877 0.000000
# 6 0.000000 0.000000 0.000000 0.031191 0.000000 0.076681
#
#
# Mechanical properties :
#
#
# Convention : Reuss Voigt Hill
#
# Bulk Modulus (GPa) = 32.43296 35.25254 33.84275
# Shear Modulus (GPa) = 14.52497 20.10216 17.31357
#
# Velocity S-wave (km/s) = 2.85936 3.36382 3.12179
# Velocity P-wave (km/s) = 5.39976 5.91018 5.66073
#
# Compressibility (1/GPa) = 0.03083283
#
# Stress axis : x y z
#
# Youngs Moduli (GPa) = 79.10229 27.43569 43.35989
#
# Poissons Ratio (x) = 0.13354 0.06773
# Poissons Ratio (y) = 0.38501 0.61705
# Poissons Ratio (z) = 0.12357 0.39044
#
# Static dielectric constant tensor:
#      x y z
#    x 1.596600 0.000000 -0.011330 
#    y 0.000000 1.589760 0.000000 
#    z -0.011330 0.000000 1.604440 
# 
# From -- ./inp_files/184686.got.cif
#   From: 2010.05.17/outbox.cif.g08.bks.cpg/sg12_93_cif.got.tgz:184686.got - 2010.06.03 13:09:07.
