data_PCOD9188753
_publ_section_title
;
Structure prediction by ZEFSAII (Michael W. Deem and Ramdas Pophale) SiO2 
 PCOD9188753
Probable space group: C 2/M
;
_chemical_formula_sum "Si O2"
_cell_formula_units_Z 58
_cell_length_a 26.439503
_cell_length_b 18.485663
_cell_length_c 12.477798
_cell_angle_alpha 90.000000
_cell_angle_beta 148.852071
_cell_angle_gamma 90.000000
_cell_volume 3154.469200
_symmetry_space_group_name_H-M "C 2/M"
_symmetry_group_IT_number 12
_symmetry_cell_setting 'monoclinic'
loop_
_space_group_symop_operation_xyz
x,y,z
-x,y,-z
-x,-y,-z
x,-y,z
1/2+x,1/2+y,z
1/2-x,1/2+y,-z
1/2-x,1/2-y,-z
1/2+x,1/2-y,z
loop_
_atom_site_type_symbol
_atom_site_label
_atom_site_fract_x
_atom_site_fract_y
_atom_site_fract_z
Si Si1 0.610079 0.260297 0.725053
Si Si2 0.461195 0.580771 0.739798
Si Si3 0.000000 0.500000 0.500000
Si Si4 0.338601 0.371532 0.001784
Si Si5 0.315130 0.100999 0.112326
Si Si6 0.703345 0.637577 0.713610
Si Si7 0.753804 0.273631 0.341307
Si Si8 0.409140 0.275066 0.772971
O O1 0.500000 0.239865 0.500000
O O2 0.616264 0.307011 0.844285
O O3 0.670608 0.187264 0.846883
O O4 0.646730 0.310300 0.694424
O O5 0.451435 0.500000 0.768254
O O6 0.569266 0.589501 0.885207
O O7 0.377001 0.592404 0.497227
O O8 0.443934 0.647842 0.788804
O O9 0.084478 0.561712 0.679848
O O10 0.271090 0.417252 0.959975
O O11 0.268465 0.334410 0.786548
O O12 0.276164 0.091890 0.920438
O O13 0.757314 0.693923 0.731920
O O14 0.676062 0.285348 0.294713
O O15 0.861350 0.270762 0.589680
O O16 0.500000 0.240703 0.000000
#
# Coordination Sequence:
#
# PCOD9188753 Si02
#       8
#     8   8   2   8   8   8   8   8
#     4  11  18  34  58  89 114 146 193 250 289 325
#     4  11  24  37  57  87 122 159 190 232 307 366
#     4  12  28  40  48  78 128 172 188 224 276 342
#     4  11  20  37  60  87 114 147 200 243 289 347
#     4  11  23  37  57  82 122 160 199 234 283 346
#     4  10  20  38  60  87 115 148 200 246 289 343
#     4  10  19  36  61  88 109 143 192 252 305 333
#     4  10  21  37  58  85 117 143 188 250 299 355
#
# _framework density 18.386612
#
# number of rings (size 3 to 8) (size 9 to 14) (size 15 to 20)
#    0.000    1.379    6.207    0.828    1.931    0.276 
#    2.483    2.759    0.000    0.000    0.000    0.000 
#    0.000    8.828    0.000    0.000    0.000    0.000 
#
# Total GULP energy -161513.940692 kJ/mol
# GULP energy per Si atom -5569.446231 kJ/mol
# Density = 1.834476 g / cm^3
# Si number density = 18.386612 Si / 1000 Ang^3
#
#
#
# Elastic Constant Matrix: (Units=GPa)
#
#
# Indices 1 2 3 4 5 6 
#
# 1 64.8741 14.0883 32.4923 0.0000 0.8959 0.0000
# 2 14.0883 64.6138 20.8256 0.0000 4.0158 0.0000
# 3 32.4923 20.8256 147.9565 0.0000 1.6053 0.0000
# 4 0.0000 0.0000 0.0000 -3.2654 0.0000 -4.4108
# 5 0.8959 4.0158 1.6053 0.0000 29.5961 0.0000
# 6 0.0000 0.0000 0.0000 -4.4108 0.0000 -3.4673
#
#
#
# Elastic Compliance Matrix: (Units=1/GPa)
#
#
# Indices 1 2 3 4 5 6 
#
# 1 0.017771 -0.002743 -0.003517 0.000000 0.000025 0.000000
# 2 -0.002743 0.016764 -0.001735 0.000000 -0.002098 0.000000
# 3 -0.003517 -0.001735 0.007776 0.000000 -0.000080 0.000000
# 4 0.000000 0.000000 0.000000 0.426331 0.000000 -0.542340
# 5 0.000025 -0.002098 -0.000080 0.000000 0.034076 0.000000
# 6 0.000000 0.000000 0.000000 -0.542340 0.000000 0.401507
#
#
# Mechanical properties :
#
#
# Convention : Reuss Voigt Hill
#
# Bulk Modulus (GPa) = 37.98981 45.80631 41.89806
# Shear Modulus (GPa) = 5.38220 18.57524 11.97872
#
# Velocity S-wave (km/s) = 1.71277 3.18190 2.55520
# Velocity P-wave (km/s) = 4.96165 6.20212 5.61624
#
# Compressibility (1/GPa) = 0.02632285
#
# Stress axis : x y z
#
# Youngs Moduli (GPa) = 56.27073 59.65159 128.59944
#
# Poissons Ratio (x) = 0.16361 0.45227
# Poissons Ratio (y) = 0.15434 0.22306
# Poissons Ratio (z) = 0.19790 0.10347
#
# Static dielectric constant tensor:
#      x y z
#    x 1.647450 0.000000 -0.018260 
#    y 0.000000 1.623070 0.000000 
#    z -0.018260 0.000000 1.669910 
# 
# From -- ./inp_files/184449.got.cif
#   From: 2010.05.17/outbox.cif.g08.bks.cpg/sg12_93_cif.got.tgz:184449.got - 2010.06.03 13:09:07.
