data_PCOD9188078
_publ_section_title
;
Structure prediction by ZEFSAII (Michael W. Deem and Ramdas Pophale) SiO2 
 PCOD9188078
Probable space group: C 2/M
;
_chemical_formula_sum "Si O2"
_cell_formula_units_Z 56
_cell_length_a 11.368568
_cell_length_b 20.131366
_cell_length_c 21.128906
_cell_angle_alpha 90.000000
_cell_angle_beta 139.116641
_cell_angle_gamma 90.000000
_cell_volume 3165.044164
_symmetry_space_group_name_H-M "C 2/M"
_symmetry_group_IT_number 12
_symmetry_cell_setting 'monoclinic'
loop_
_space_group_symop_operation_xyz
x,y,z
-x,y,-z
-x,-y,-z
x,-y,z
1/2+x,1/2+y,z
1/2-x,1/2+y,-z
1/2-x,1/2-y,-z
1/2+x,1/2-y,z
loop_
_atom_site_type_symbol
_atom_site_label
_atom_site_fract_x
_atom_site_fract_y
_atom_site_fract_z
Si Si1 0.845442 0.197245 0.763958
Si Si2 0.755458 0.808178 0.053813
Si Si3 0.374902 0.177162 0.865368
Si Si4 0.550517 0.176497 0.385928
Si Si5 0.813300 0.180356 0.600580
Si Si6 0.210128 0.923053 0.598543
Si Si7 0.879027 0.076963 0.294440
O O1 0.858148 0.271376 0.799950
O O2 0.659915 0.165099 0.712192
O O3 0.817142 0.193659 0.676979
O O4 0.040179 0.165963 0.860037
O O5 0.701017 0.785662 0.102778
O O6 0.750000 0.750000 0.000000
O O7 0.578015 0.847794 0.960000
O O8 0.248467 0.114274 0.806093
O O9 0.624613 0.169287 0.487869
O O10 0.593232 0.253428 0.388784
O O11 0.668343 0.128620 0.389563
O O12 0.936480 0.117813 0.632305
O O13 0.220109 0.917036 0.678203
O O14 0.000000 0.909976 0.500000
O O15 0.247117 0.000000 0.595342
O O16 0.910381 0.000000 0.294514
#
# Coordination Sequence:
#
# PCOD9188078 Si02
#       7
#     8   8   8   8   8   8   8
#     4  11  19  35  55  84 119 150 181 239 295 351
#     4   9  19  33  58  81 118 145 185 239 294 350
#     4  10  19  36  55  86 112 149 197 240 289 346
#     4  11  22  32  57  83 118 156 188 241 291 342
#     4  11  22  34  51  86 121 151 194 237 288 346
#     4  10  21  38  59  81 111 156 204 238 273 335
#     4  11  21  37  60  82 114 155 198 245 287 335
#
# _framework density 17.693276000000001
#
# number of rings (size 3 to 8) (size 9 to 14) (size 15 to 20)
#    0.000    1.571    4.286    1.286    0.000    1.143 
#    0.000    2.143    0.000    1.714    0.000    2.000 
#    0.000    0.000    0.000    0.000    0.000    0.000 
#
# Total GULP energy -155875.403097 kJ/mol
# GULP energy per Si atom -5566.978682 kJ/mol
# Density = 1.765300 g / cm^3
# Si number density = 17.693276 Si / 1000 Ang^3
#
#
#
# Elastic Constant Matrix: (Units=GPa)
#
#
# Indices 1 2 3 4 5 6 
#
# 1 75.6886 47.1324 44.5775 0.0000 5.7020 0.0000
# 2 47.1324 89.3092 35.8726 0.0000 2.6020 0.0000
# 3 44.5775 35.8726 105.9428 0.0000 21.7037 0.0000
# 4 0.0000 0.0000 0.0000 11.4877 0.0000 10.8413
# 5 5.7020 2.6020 21.7037 0.0000 42.9823 0.0000
# 6 0.0000 0.0000 0.0000 10.8413 0.0000 14.3293
#
#
#
# Elastic Compliance Matrix: (Units=1/GPa)
#
#
# Indices 1 2 3 4 5 6 
#
# 1 0.022950 -0.009475 -0.006628 0.000000 0.000876 0.000000
# 2 -0.009475 0.016970 -0.002015 0.000000 0.001247 0.000000
# 3 -0.006628 -0.002015 0.014171 0.000000 -0.006154 0.000000
# 4 0.000000 0.000000 0.000000 0.304377 0.000000 -0.230286
# 5 0.000876 0.001247 -0.006154 0.000000 0.026181 0.000000
# 6 0.000000 0.000000 0.000000 -0.230286 0.000000 0.244017
#
#
# Mechanical properties :
#
#
# Convention : Reuss Voigt Hill
#
# Bulk Modulus (GPa) = 56.00428 58.45620 57.23024
# Shear Modulus (GPa) = 7.45319 23.31707 15.38513
#
# Velocity S-wave (km/s) = 2.05465 3.63416 2.95201
# Velocity P-wave (km/s) = 6.11149 7.12179 6.63590
#
# Compressibility (1/GPa) = 0.01785578
#
# Stress axis : x y z
#
# Youngs Moduli (GPa) = 43.57363 58.92615 70.56743
#
# Poissons Ratio (x) = 0.55832 0.46770
# Poissons Ratio (y) = 0.41286 0.14219
# Poissons Ratio (z) = 0.28879 0.11873
#
# Static dielectric constant tensor:
#      x y z
#    x 1.649020 0.000000 -0.005160 
#    y 0.000000 1.563250 0.000000 
#    z -0.005160 0.000000 1.671870 
# 
# From -- ./inp_files/306645.got.cif
#   From: 2010.05.17/outbox.cif.g08.bks.cpg/sg12_154_cif.got.tgz:306645.got - 2010.06.03 13:09:07.
