data_PCOD9188374
_publ_section_title
;
Structure prediction by ZEFSAII (Michael W. Deem and Ramdas Pophale) SiO2 
 PCOD9188374
Probable space group: C 2/M
;
_chemical_formula_sum "Si O2"
_cell_formula_units_Z 36
_cell_length_a 9.541359
_cell_length_b 21.452551
_cell_length_c 10.632459
_cell_angle_alpha 90.000000
_cell_angle_beta 136.537608
_cell_angle_gamma 90.000000
_cell_volume 1497.043804
_symmetry_space_group_name_H-M "C 2/M"
_symmetry_group_IT_number 12
_symmetry_cell_setting 'monoclinic'
loop_
_space_group_symop_operation_xyz
x,y,z
-x,y,-z
-x,-y,-z
x,-y,z
1/2+x,1/2+y,z
1/2-x,1/2+y,-z
1/2-x,1/2-y,-z
1/2+x,1/2-y,z
loop_
_atom_site_type_symbol
_atom_site_label
_atom_site_fract_x
_atom_site_fract_y
_atom_site_fract_z
Si Si1 0.344923 0.149273 0.282148
Si Si2 0.501613 0.393248 0.229420
Si Si3 0.253248 0.500000 0.164622
Si Si4 0.738763 0.792044 0.180300
Si Si5 0.194428 0.605693 0.341678
O O1 0.500000 0.154484 0.500000
O O2 0.149628 0.113515 0.208224
O O3 0.286107 0.219502 0.209399
O O4 0.475048 0.115714 0.260218
O O5 0.333657 0.445883 0.121346
O O6 0.389343 0.327887 0.183514
O O7 0.644344 0.411100 0.443748
O O8 0.193186 0.554499 0.231070
O O9 0.765792 0.828196 0.330193
O O10 0.500000 0.801978 0.000000
#
# Coordination Sequence:
#
# PCOD9188374 Si02
#       5
#     8   8   4   8   8
#     4  10  21  35  55  84 113 143 180 224 273 322
#     4  10  20  36  58  82 111 145 181 223 270 323
#     4  10  19  36  59  82 109 144 183 222 269 324
#     4  11  22  36  56  82 112 146 183 223 271 325
#     4  10  20  36  58  82 111 145 181 223 270 323
#
# _framework density 24.047391000000001
#
# number of rings (size 3 to 8) (size 9 to 14) (size 15 to 20)
#    0.000    1.778    0.000    6.667    0.000    8.000 
#    0.000   12.222    0.000    0.000    0.000   14.000 
#    0.000    0.000    0.000    0.000    0.000    0.000 
#
# Total GULP energy -100325.596680 kJ/mol
# GULP energy per Si atom -5573.644260 kJ/mol
# Density = 2.399266 g / cm^3
# Si number density = 24.047391 Si / 1000 Ang^3
#
#
#
# Elastic Constant Matrix: (Units=GPa)
#
#
# Indices 1 2 3 4 5 6 
#
# 1 159.1633 65.7801 44.1646 0.0000 58.0070 0.0000
# 2 65.7801 120.3816 15.1510 0.0000 15.9112 0.0000
# 3 44.1646 15.1510 90.5658 0.0000 9.2242 0.0000
# 4 0.0000 0.0000 0.0000 -192.7520 0.0000 -147.5574
# 5 58.0070 15.9112 9.2242 0.0000 36.4412 0.0000
# 6 0.0000 0.0000 0.0000 -147.5574 0.0000 -168.9315
#
#
#
# Elastic Compliance Matrix: (Units=1/GPa)
#
#
# Indices 1 2 3 4 5 6 
#
# 1 0.022256 -0.007298 -0.006517 0.000000 -0.030592 0.000000
# 2 -0.007298 0.011319 0.001012 0.000000 0.006419 0.000000
# 3 -0.006517 0.001012 0.013384 0.000000 0.006544 0.000000
# 4 0.000000 0.000000 0.000000 -0.015658 0.000000 0.013677
# 5 -0.030592 0.006419 0.006544 0.000000 0.071678 0.000000
# 6 0.000000 0.000000 0.000000 0.013677 0.000000 -0.017866
#
#
# Mechanical properties :
#
#
# Convention : Reuss Voigt Hill
#
# Bulk Modulus (GPa) = 46.83179 68.92247 57.87713
# Shear Modulus (GPa) = 42.43145 -48.71412 -3.14134
#
# Velocity S-wave (km/s) = 4.20514 -4.50572 -1.14418
# Velocity P-wave (km/s) = 6.56466 1.28632 4.73019
#
# Compressibility (1/GPa) = 0.02135302
#
# Stress axis : x y z
#
# Youngs Moduli (GPa) = 44.93094 88.34646 74.71685
#
# Poissons Ratio (x) = 0.64475 0.48691
# Poissons Ratio (y) = 0.32791 -0.07558
# Poissons Ratio (z) = 0.29280 -0.08937
#
# Static dielectric constant tensor:
#      x y z
#    x 1.898290 0.000000 -0.006730 
#    y 0.000000 1.726230 0.000000 
#    z -0.006730 0.000000 2.049500 
# 
# From -- ./inp_files/89796.got.cif
#   From: 2010.05.17/outbox.cif.g08.bks.cpg/sg12_45_cif.got.tgz:89796.got - 2010.06.03 13:09:07.
