data_PCOD9188199
_publ_section_title
;
Structure prediction by ZEFSAII (Michael W. Deem and Ramdas Pophale) SiO2 
 PCOD9188199
Probable space group: C 2/M
;
_chemical_formula_sum "Si O2"
_cell_formula_units_Z 56
_cell_length_a 15.569638
_cell_length_b 21.631782
_cell_length_c 17.727931
_cell_angle_alpha 90.000000
_cell_angle_beta 31.013907
_cell_angle_gamma 90.000000
_cell_volume 3076.405580
_symmetry_space_group_name_H-M "C 2/M"
_symmetry_group_IT_number 12
_symmetry_cell_setting 'monoclinic'
loop_
_space_group_symop_operation_xyz
x,y,z
-x,y,-z
-x,-y,-z
x,-y,z
1/2+x,1/2+y,z
1/2-x,1/2+y,-z
1/2-x,1/2-y,-z
1/2+x,1/2-y,z
loop_
_atom_site_type_symbol
_atom_site_label
_atom_site_fract_x
_atom_site_fract_y
_atom_site_fract_z
Si Si1 0.325142 0.126026 0.105963
Si Si2 0.983810 0.649130 0.600285
Si Si3 0.820211 0.926565 0.098315
Si Si4 0.017612 0.796615 0.398272
Si Si5 0.830463 0.000000 0.527492
Si Si6 0.228735 0.000000 0.257364
Si Si7 0.318216 0.379677 0.439135
Si Si8 0.851588 0.925705 0.895889
O O1 0.180231 0.170531 0.243079
O O2 0.303722 0.061220 0.165422
O O3 0.293084 0.108118 0.043126
O O4 0.500000 0.152930 0.000000
O O5 0.827964 0.613465 0.754313
O O6 0.964643 0.723178 0.619858
O O7 0.000000 0.632258 0.500000
O O8 0.155635 0.633650 0.513115
O O9 0.788203 0.000000 0.134654
O O10 0.833360 0.916056 0.998551
O O11 0.000000 0.912264 0.000000
O O12 0.000000 0.814039 0.500000
O O13 0.870950 0.824302 0.456047
O O14 0.786103 0.939206 0.515064
O O15 0.748124 0.000000 0.670944
O O16 0.030744 0.000000 0.388995
O O17 0.475658 0.398130 0.267458
O O18 0.849240 0.000000 0.883247
#
# Coordination Sequence:
#
# PCOD9188199 Si02
#       8
#     8   8   8   8   4   4   8   8
#     4  11  21  35  56  91 124 162 190 233 283 354
#     4  11  25  42  62  86 113 153 205 255 293 343
#     4  10  23  41  60  83 112 151 195 251 305 347
#     4  10  22  41  61  84 121 161 197 240 293 346
#     4  11  20  32  63  92 123 158 191 237 293 353
#     4  11  19  34  56  94 130 156 190 233 289 349
#     4  11  20  38  61  92 118 154 195 241 294 347
#     4  10  19  36  57  84 123 156 183 231 299 353
#
# _framework density 18.203061000000002
#
# number of rings (size 3 to 8) (size 9 to 14) (size 15 to 20)
#    0.000    1.429    4.286    2.357    1.000    3.143 
#    0.000    2.857    0.000    0.000    0.000    0.000 
#    0.000    0.000    0.000    0.000    0.000    0.000 
#
# Total GULP energy -156389.432613 kJ/mol
# GULP energy per Si atom -5585.336879 kJ/mol
# Density = 1.816163 g / cm^3
# Si number density = 18.203061 Si / 1000 Ang^3
#
#
#
# Elastic Constant Matrix: (Units=GPa)
#
#
# Indices 1 2 3 4 5 6 
#
# 1 180.6871 60.1613 90.7465 -0.0026 0.7527 0.0034
# 2 60.1613 69.7639 40.1666 -0.0212 6.4072 0.0156
# 3 90.7465 40.1666 66.2591 -0.0271 -2.3985 0.0057
# 4 -0.0026 -0.0212 -0.0271 15.5455 0.0092 -7.7005
# 5 0.7527 6.4072 -2.3985 0.0092 36.7570 -0.0004
# 6 0.0034 0.0156 0.0057 -7.7005 -0.0004 8.5562
#
#
#
# Elastic Compliance Matrix: (Units=1/GPa)
#
#
# Indices 1 2 3 4 5 6 
#
# 1 0.018005 -0.001764 -0.023648 -0.000061 -0.001604 -0.000043
# 2 -0.001764 0.023041 -0.011723 -0.000006 -0.004745 -0.000039
# 3 -0.023648 -0.011723 0.054808 0.000124 0.006104 0.000106
# 4 -0.000061 -0.000006 0.000124 0.116076 -0.000018 0.104467
# 5 -0.001604 -0.004745 0.006104 -0.000018 0.028464 -0.000009
# 6 -0.000043 -0.000039 0.000106 0.104467 -0.000009 0.210893
#
#
# Mechanical properties :
#
#
# Convention : Reuss Voigt Hill
#
# Bulk Modulus (GPa) = 46.33281 77.65100 61.99191
# Shear Modulus (GPa) = 9.38522 20.54744 14.96633
#
# Velocity S-wave (km/s) = 2.27311 3.36339 2.87049
# Velocity P-wave (km/s) = 5.69192 7.60487 6.71684
#
# Compressibility (1/GPa) = 0.02158298
#
# Stress axis : x y z
#
# Youngs Moduli (GPa) = 55.53891 43.40133 18.24560
#
# Poissons Ratio (x) = 0.07657 0.43148
# Poissons Ratio (y) = 0.09798 0.21389
# Poissons Ratio (z) = 1.31340 0.50879
#
# Static dielectric constant tensor:
#      x y z
#    x 1.674530 0.000000 -0.047110 
#    y 0.000000 1.599590 0.000010 
#    z -0.047110 0.000010 1.644760 
# 
# From -- ./inp_files/272376.got.cif
#   From: 2010.05.17/outbox.cif.g08.bks.cpg/sg12_137_cif.got.tgz:272376.got - 2010.06.03 13:09:07.
