data_PCOD9188369
_publ_section_title
;
Structure prediction by ZEFSAII (Michael W. Deem and Ramdas Pophale) SiO2 
 PCOD9188369
Probable space group: C 2/M
;
_chemical_formula_sum "Si O2"
_cell_formula_units_Z 44
_cell_length_a 9.677264
_cell_length_b 28.876471
_cell_length_c 7.949829
_cell_angle_alpha 90.000000
_cell_angle_beta 59.826242
_cell_angle_gamma 90.000000
_cell_volume 1920.534231
_symmetry_space_group_name_H-M "C 2/M"
_symmetry_group_IT_number 12
_symmetry_cell_setting 'monoclinic'
loop_
_space_group_symop_operation_xyz
x,y,z
-x,y,-z
-x,-y,-z
x,-y,z
1/2+x,1/2+y,z
1/2-x,1/2+y,-z
1/2-x,1/2-y,-z
1/2+x,1/2-y,z
loop_
_atom_site_type_symbol
_atom_site_label
_atom_site_fract_x
_atom_site_fract_y
_atom_site_fract_z
Si Si1 0.612667 0.304741 0.771064
Si Si2 0.937519 0.500000 0.255498
Si Si3 0.744901 0.000000 0.271580
Si Si4 0.250794 0.086037 0.242683
Si Si5 0.000000 0.663102 0.000000
Si Si6 0.917275 0.088427 0.289827
Si Si7 0.393040 0.766356 0.788823
O O1 0.607255 0.359794 0.760517
O O2 0.517539 0.275660 0.687775
O O3 0.792682 0.287020 0.694291
O O4 0.500000 0.294072 0.000000
O O5 0.851495 0.500000 0.491419
O O6 0.873009 0.544297 0.196305
O O7 0.122838 0.500000 0.191441
O O8 0.843945 0.047451 0.223373
O O9 0.346136 0.130821 0.121940
O O10 0.170819 0.090589 0.475430
O O11 0.102610 0.077414 0.210385
O O12 0.019682 0.694065 0.154928
O O13 0.250000 0.750000 0.000000
#
# Coordination Sequence:
#
# PCOD9188369 Si02
#       7
#     8   4   4   8   4   8   8
#     4  10  20  36  62  84 118 161 199 239 296 357
#     4   9  19  38  58  89 121 158 192 244 305 352
#     4   9  19  37  61  87 125 155 195 242 301 362
#     4  10  22  38  64  86 120 157 201 245 296 360
#     4  12  22  37  64  88 116 155 202 250 300 352
#     4  10  21  40  63  90 119 159 202 242 298 355
#     4  10  19  36  59  81 117 159 197 236 298 354
#
# _framework density 22.910292999999999
#
# number of rings (size 3 to 8) (size 9 to 14) (size 15 to 20)
#    0.000    2.000    2.727    2.727    2.545    2.545 
#    0.000    1.364    4.000    0.000    0.000    0.000 
#    0.000    0.000    0.000    0.000    0.000    0.000 
#
# Total GULP energy -122956.964024 kJ/mol
# GULP energy per Si atom -5588.952910 kJ/mol
# Density = 2.285815 g / cm^3
# Si number density = 22.910293 Si / 1000 Ang^3
#
#
#
# Elastic Constant Matrix: (Units=GPa)
#
#
# Indices 1 2 3 4 5 6 
#
# 1 191.4430 111.4216 19.9813 0.0000 -27.1474 0.0000
# 2 111.4216 178.5968 11.7153 0.0000 -15.9057 0.0000
# 3 19.9813 11.7153 61.9891 0.0000 -1.2998 0.0000
# 4 0.0000 0.0000 0.0000 1606.1341 0.0000 244.3999
# 5 -27.1474 -15.9057 -1.2998 0.0000 25.0232 0.0000
# 6 0.0000 0.0000 0.0000 244.3999 0.0000 123.0355
#
#
#
# Elastic Compliance Matrix: (Units=1/GPa)
#
#
# Indices 1 2 3 4 5 6 
#
# 1 0.009362 -0.005109 -0.001909 0.000000 0.006810 0.000000
# 2 -0.005109 0.008791 -0.000014 0.000000 0.000045 0.000000
# 3 -0.001909 -0.000014 0.016725 0.000000 -0.001211 0.000000
# 4 0.000000 0.000000 0.000000 0.000892 0.000000 -0.001773
# 5 0.006810 0.000045 -0.001211 0.000000 0.047316 0.000000
# 6 0.000000 0.000000 0.000000 -0.001773 0.000000 0.011649
#
#
# Mechanical properties :
#
#
# Convention : Reuss Voigt Hill
#
# Bulk Modulus (GPa) = 48.04502 79.80725 63.92614
# Shear Modulus (GPa) = 43.20129 370.09929 206.65029
#
# Velocity S-wave (km/s) = 4.34714 12.72374 9.50766
# Velocity P-wave (km/s) = 6.79804 15.83567 12.18568
#
# Compressibility (1/GPa) = 0.02081381
#
# Stress axis : x y z
#
# Youngs Moduli (GPa) = 106.81634 113.74764 59.79243
#
# Poissons Ratio (x) = 0.58112 0.11416
# Poissons Ratio (y) = 0.54571 0.00082
# Poissons Ratio (z) = 0.20395 0.00157
#
# Static dielectric constant tensor:
#      x y z
#    x 2.790360 0.000000 0.647330 
#    y 0.000000 1.838700 0.000000 
#    z 0.647330 0.000000 2.328430 
# 
# From -- ./inp_files/122384.got.cif
#   From: 2010.05.17/outbox.cif.g08.bks.cpg/sg12_62_cif.got.tgz:122384.got - 2010.06.03 13:09:07.
