data_PCOD9188724
_publ_section_title
;
Structure prediction by ZEFSAII (Michael W. Deem and Ramdas Pophale) SiO2 
 PCOD9188724
Probable space group: C 2/M
;
_chemical_formula_sum "Si O2"
_cell_formula_units_Z 64
_cell_length_a 19.371351
_cell_length_b 14.654597
_cell_length_c 26.026979
_cell_angle_alpha 90.000000
_cell_angle_beta 150.896737
_cell_angle_gamma 90.000000
_cell_volume 3593.667159
_symmetry_space_group_name_H-M "C 2/M"
_symmetry_group_IT_number 12
_symmetry_cell_setting 'monoclinic'
loop_
_space_group_symop_operation_xyz
x,y,z
-x,y,-z
-x,-y,-z
x,-y,z
1/2+x,1/2+y,z
1/2-x,1/2+y,-z
1/2-x,1/2-y,-z
1/2+x,1/2-y,z
loop_
_atom_site_type_symbol
_atom_site_label
_atom_site_fract_x
_atom_site_fract_y
_atom_site_fract_z
Si Si1 0.018952 0.891391 0.072986
Si Si2 0.479184 0.721756 0.425151
Si Si3 0.728600 0.732268 0.045947
Si Si4 0.292018 0.892999 0.739836
Si Si5 0.346595 0.896106 0.295047
Si Si6 0.934002 0.392127 0.013417
Si Si7 0.556811 0.896287 0.759395
Si Si8 0.752566 0.893528 0.410098
O O1 0.180721 0.872306 0.194529
O O2 0.993544 0.000000 0.062175
O O3 0.000000 0.870355 0.000000
O O4 0.905797 0.833399 0.030676
O O5 0.500000 0.718547 0.500000
O O6 0.336594 0.664975 0.320713
O O7 0.449416 0.823797 0.387963
O O8 0.617357 0.672305 0.492346
O O9 0.863904 0.678288 0.155428
O O10 0.750000 0.750000 0.000000
O O11 0.693219 0.824925 0.054133
O O12 0.440978 0.873851 0.863958
O O13 0.293730 0.877697 0.679546
O O14 0.261586 0.000000 0.728103
O O15 0.375787 0.894109 0.253140
O O16 0.369124 0.000000 0.327461
O O17 0.897303 0.500000 0.991525
O O18 0.000000 0.373485 0.000000
O O19 0.388551 0.880042 0.648486
O O20 0.576399 0.000000 0.793012
O O21 0.797236 0.000000 0.442617
#
# Coordination Sequence:
#
# PCOD9188724 Si02
#       8
#     8   8   8   8   8   8   8   8
#     4  10  19  36  61  87 111 143 194 243 279 326
#     4  10  20  33  54  81 108 138 181 232 284 338
#     4  12  23  33  55  86 117 150 183 230 285 332
#     4   9  17  32  55  81 106 138 180 224 272 327
#     4  10  21  36  57  81 106 141 187 236 281 330
#     4  10  22  37  54  79 115 155 186 219 272 343
#     4  10  21  37  56  80 108 143 189 237 283 328
#     4   9  18  34  55  79 109 140 179 231 281 332
#
# _framework density 17.809106
#
# number of rings (size 3 to 8) (size 9 to 14) (size 15 to 20)
#    0.000    2.000    1.250    2.625    1.750    5.250 
#    0.000    0.000    0.000    0.750    0.000    0.000 
#    0.000    0.000    0.000    0.000    0.000    0.000 
#
# Total GULP energy -178619.019138 kJ/mol
# GULP energy per Si atom -5581.844348 kJ/mol
# Density = 1.776857 g / cm^3
# Si number density = 17.809106 Si / 1000 Ang^3
#
#
#
# Elastic Constant Matrix: (Units=GPa)
#
#
# Indices 1 2 3 4 5 6 
#
# 1 63.9144 25.6848 4.7831 -0.0015 16.7453 0.0000
# 2 25.6848 80.6813 39.7900 -0.0014 18.0063 0.0002
# 3 4.7831 39.7900 45.9160 -0.0044 18.2436 0.0001
# 4 -0.0015 -0.0014 -0.0044 38.2204 -0.0005 -0.6921
# 5 16.7453 18.0063 18.2436 -0.0005 19.8863 0.0002
# 6 0.0000 0.0002 0.0001 -0.6921 0.0002 9.6280
#
#
#
# Elastic Compliance Matrix: (Units=1/GPa)
#
#
# Indices 1 2 3 4 5 6 
#
# 1 0.026224 -0.010851 0.018161 0.000002 -0.028917 0.000001
# 2 -0.010851 0.026316 -0.024921 -0.000002 0.008172 0.000000
# 3 0.018161 -0.024921 0.060730 0.000006 -0.048441 0.000001
# 4 0.000002 -0.000002 0.000006 0.026198 -0.000005 0.001883
# 5 -0.028917 0.008172 -0.048441 -0.000005 0.111676 -0.000003
# 6 0.000001 0.000000 0.000001 0.001883 -0.000003 0.103999
#
#
# Mechanical properties :
#
#
# Convention : Reuss Voigt Hill
#
# Bulk Modulus (GPa) = 12.81276 36.78082 24.79679
# Shear Modulus (GPa) = 12.00824 21.56385 16.78605
#
# Velocity S-wave (km/s) = 2.59950 3.48348 3.07344
# Velocity P-wave (km/s) = 4.02740 6.07266 5.15253
#
# Compressibility (1/GPa) = 0.07804720
#
# Stress axis : x y z
#
# Youngs Moduli (GPa) = 38.13336 38.00026 16.46633
#
# Poissons Ratio (x) = 0.41235 -0.29905
# Poissons Ratio (y) = 0.41380 0.41036
# Poissons Ratio (z) = -0.69255 0.94701
#
# Static dielectric constant tensor:
#      x y z
#    x 1.599390 0.000000 0.008200 
#    y 0.000000 1.623230 0.000000 
#    z 0.008200 0.000000 1.602820 
# 
# From -- ./inp_files/183747.got.cif
#   From: 2010.05.17/outbox.cif.g08.bks.cpg/sg12_92_cif.got.tgz:183747.got - 2010.06.03 13:09:07.
