data_PCOD9188479
_publ_section_title
;
Structure prediction by ZEFSAII (Michael W. Deem and Ramdas Pophale) SiO2 
 PCOD9188479
Probable space group: C 2/M
;
_chemical_formula_sum "Si O2"
_cell_formula_units_Z 56
_cell_length_a 15.583574
_cell_length_b 20.814306
_cell_length_c 9.309383
_cell_angle_alpha 90.000000
_cell_angle_beta 55.825849
_cell_angle_gamma 90.000000
_cell_volume 2498.220755
_symmetry_space_group_name_H-M "C 2/M"
_symmetry_group_IT_number 12
_symmetry_cell_setting 'monoclinic'
loop_
_space_group_symop_operation_xyz
x,y,z
-x,y,-z
-x,-y,-z
x,-y,z
1/2+x,1/2+y,z
1/2-x,1/2+y,-z
1/2-x,1/2-y,-z
1/2+x,1/2-y,z
loop_
_atom_site_type_symbol
_atom_site_label
_atom_site_fract_x
_atom_site_fract_y
_atom_site_fract_z
Si Si1 0.547617 0.114587 0.103593
Si Si2 0.884751 0.922812 0.914352
Si Si3 0.535851 0.322653 0.808593
Si Si4 0.661313 0.926333 0.566850
Si Si5 0.243264 0.073763 0.232628
Si Si6 0.921590 0.271584 0.705033
Si Si7 0.756400 0.834213 0.260862
O O1 0.455716 0.074407 0.262858
O O2 0.576604 0.169111 0.187460
O O3 0.500000 0.141459 0.000000
O O4 0.650568 0.077695 0.959156
O O5 0.816295 0.880016 0.089737
O O6 0.874083 0.000000 0.943466
O O7 0.845528 0.903879 0.791523
O O8 0.001745 0.897225 0.825417
O O9 0.469928 0.285951 0.751751
O O10 0.658120 0.312891 0.702869
O O11 0.500000 0.300385 0.000000
O O12 0.730733 0.899430 0.634787
O O13 0.675489 0.879994 0.419037
O O14 0.689755 0.000000 0.505467
O O15 0.219056 0.000000 0.284863
O O16 0.804436 0.274733 0.753489
O O17 0.000000 0.280591 0.500000
#
# Coordination Sequence:
#
# PCOD9188479 Si02
#       7
#     8   8   8   8   8   8   8
#     4  10  19  36  59  89 128 168 207 255 309 372
#     4  10  21  41  68  95 125 162 211 261 309 375
#     4  10  26  45  64  92 124 167 215 259 314 370
#     4  10  20  35  59  94 133 167 204 255 317 379
#     4   9  18  34  59  91 126 167 209 250 307 373
#     4  12  24  43  63  93 128 162 216 263 310 372
#     4  11  23  42  64  94 127 166 208 259 324 367
#
# _framework density 22.415953999999999
#
# number of rings (size 3 to 8) (size 9 to 14) (size 15 to 20)
#    0.000    1.714    2.857    1.286    0.000    8.857 
#    5.143    0.714    0.000    3.000    0.000    0.000 
#    0.000    0.000    0.000    0.000    0.000    0.000 
#
# Total GULP energy -156209.551091 kJ/mol
# GULP energy per Si atom -5578.912539 kJ/mol
# Density = 2.236493 g / cm^3
# Si number density = 22.415954 Si / 1000 Ang^3
#
#
#
# Elastic Constant Matrix: (Units=GPa)
#
#
# Indices 1 2 3 4 5 6 
#
# 1 143.5530 41.1146 4.9696 0.0000 -0.5800 0.0000
# 2 41.1146 58.5047 4.7660 0.0000 4.5456 0.0000
# 3 4.9696 4.7660 38.0144 0.0000 7.7921 0.0000
# 4 0.0000 0.0000 0.0000 2.4576 0.0000 0.6870
# 5 -0.5800 4.5456 7.7921 0.0000 21.3988 0.0000
# 6 0.0000 0.0000 0.0000 0.6870 0.0000 23.1521
#
#
#
# Elastic Compliance Matrix: (Units=1/GPa)
#
#
# Indices 1 2 3 4 5 6 
#
# 1 0.008792 -0.006261 -0.000741 0.000000 0.001838 0.000000
# 2 -0.006261 0.021922 -0.001016 0.000000 -0.004456 0.000000
# 3 -0.000741 -0.001016 0.028627 0.000000 -0.010228 0.000000
# 4 0.000000 0.000000 0.000000 0.410299 0.000000 -0.012175
# 5 0.001838 -0.004456 -0.010228 0.000000 0.051453 0.000000
# 6 0.000000 0.000000 0.000000 -0.012175 0.000000 0.043554
#
#
# Mechanical properties :
#
#
# Convention : Reuss Voigt Hill
#
# Bulk Modulus (GPa) = 23.09308 37.97472 30.53390
# Shear Modulus (GPa) = 8.40168 22.01649 15.20909
#
# Velocity S-wave (km/s) = 1.93810 3.13737 2.60762
# Velocity P-wave (km/s) = 3.91570 5.48652 4.76627
#
# Compressibility (1/GPa) = 0.04330302
#
# Stress axis : x y z
#
# Youngs Moduli (GPa) = 113.73371 45.61642 34.93235
#
# Poissons Ratio (x) = 0.28562 0.02589
# Poissons Ratio (y) = 0.71213 0.03551
# Poissons Ratio (z) = 0.08430 0.04637
#
# Static dielectric constant tensor:
#      x y z
#    x 1.902400 0.000000 -0.002860 
#    y 0.000000 1.804900 0.000000 
#    z -0.002860 0.000000 1.805820 
# 
# From -- ./inp_files/65774.got.cif
#   From: 2010.05.17/outbox.cif.g08.bks.cpg/sg12_33_cif.got.tgz:65774.got - 2010.06.03 13:09:07.
