data_PCOD9188271
_publ_section_title
;
Structure prediction by ZEFSAII (Michael W. Deem and Ramdas Pophale) SiO2 
 PCOD9188271
Probable space group: C 2/M
;
_chemical_formula_sum "Si O2"
_cell_formula_units_Z 56
_cell_length_a 28.371907
_cell_length_b 9.068350
_cell_length_c 15.287109
_cell_angle_alpha 90.000000
_cell_angle_beta 131.310636
_cell_angle_gamma 90.000000
_cell_volume 2954.363844
_symmetry_space_group_name_H-M "C 2/M"
_symmetry_group_IT_number 12
_symmetry_cell_setting 'monoclinic'
loop_
_space_group_symop_operation_xyz
x,y,z
-x,y,-z
-x,-y,-z
x,-y,z
1/2+x,1/2+y,z
1/2-x,1/2+y,-z
1/2-x,1/2-y,-z
1/2+x,1/2-y,z
loop_
_atom_site_type_symbol
_atom_site_label
_atom_site_fract_x
_atom_site_fract_y
_atom_site_fract_z
Si Si1 0.463054 0.821725 0.545316
Si Si2 0.625878 0.665563 0.937129
Si Si3 0.062131 0.676695 0.133445
Si Si4 0.819745 0.320939 0.332645
Si Si5 0.682741 0.324747 0.194254
Si Si6 0.016506 0.830193 0.246279
Si Si7 0.807484 0.326061 0.118882
O O1 0.500000 0.783388 0.500000
O O2 0.388945 0.781564 0.449909
O O3 0.486516 0.741454 0.661394
O O4 0.468522 0.000000 0.560953
O O5 0.639261 0.500000 0.919676
O O6 0.554159 0.668700 0.877969
O O7 0.635072 0.782989 0.872457
O O8 0.669919 0.691554 0.074398
O O9 0.064232 0.500000 0.136659
O O10 0.126366 0.740123 0.171825
O O11 0.055556 0.738532 0.223622
O O12 0.000000 0.719592 0.000000
O O13 0.817653 0.500000 0.330266
O O14 0.754609 0.274384 0.299149
O O15 0.816276 0.271270 0.227681
O O16 0.677623 0.500000 0.207148
O O17 0.037912 0.000000 0.278416
O O18 0.798560 0.500000 0.110927
O O19 0.750000 0.250000 0.000000
#
# Coordination Sequence:
#
# PCOD9188271 Si02
#       7
#     8   8   8   8   8   8   8
#     4  10  21  40  64  88 118 158 202 247 291 341
#     4  10  20  34  53  81 116 152 189 235 291 352
#     4  11  23  38  59  90 122 151 195 248 299 357
#     4   9  19  36  57  81 114 156 197 239 291 350
#     4  10  19  36  58  81 116 155 192 235 294 357
#     4  11  23  39  61  87 118 157 199 242 297 357
#     4  11  20  32  52  81 116 152 192 236 291 354
#
# _framework density 18.955010999999999
#
# number of rings (size 3 to 8) (size 9 to 14) (size 15 to 20)
#    0.000    1.714    2.857    2.143    0.000    3.714 
#    0.000    2.857    0.000    0.000    0.000    0.000 
#    0.000    0.000    0.000    0.000    0.000    0.000 
#
# Total GULP energy -156148.516077 kJ/mol
# GULP energy per Si atom -5576.732717 kJ/mol
# Density = 1.891187 g / cm^3
# Si number density = 18.955011 Si / 1000 Ang^3
#
#
#
# Elastic Constant Matrix: (Units=GPa)
#
#
# Indices 1 2 3 4 5 6 
#
# 1 118.1284 42.7350 29.4042 0.0000 8.3561 0.0000
# 2 42.7350 48.6385 23.5566 0.0000 -3.7529 0.0000
# 3 29.4042 23.5566 67.1382 0.0000 9.2346 0.0000
# 4 0.0000 0.0000 0.0000 21.4770 0.0000 -2.8546
# 5 8.3561 -3.7529 9.2346 0.0000 35.8449 0.0000
# 6 0.0000 0.0000 0.0000 -2.8546 0.0000 31.1295
#
#
#
# Elastic Compliance Matrix: (Units=1/GPa)
#
#
# Indices 1 2 3 4 5 6 
#
# 1 0.013112 -0.011204 -0.001275 0.000000 -0.003901 0.000000
# 2 -0.011204 0.035242 -0.008631 0.000000 0.008525 0.000000
# 3 -0.001275 -0.008631 0.019247 0.000000 -0.005565 0.000000
# 4 0.000000 0.000000 0.000000 0.047136 0.000000 0.004322
# 5 -0.003901 0.008525 -0.005565 0.000000 0.031134 0.000000
# 6 0.000000 0.000000 0.000000 0.004322 0.000000 0.032520
#
#
# Mechanical properties :
#
#
# Convention : Reuss Voigt Hill
#
# Bulk Modulus (GPa) = 39.39948 47.25519 43.32734
# Shear Modulus (GPa) = 21.82736 26.90423 24.36580
#
# Velocity S-wave (km/s) = 3.39711 3.77154 3.58921
# Velocity P-wave (km/s) = 6.01814 6.62951 6.33121
#
# Compressibility (1/GPa) = 0.02538104
#
# Stress axis : x y z
#
# Youngs Moduli (GPa) = 76.26647 28.37525 51.95694
#
# Poissons Ratio (x) = 0.31792 0.06624
# Poissons Ratio (y) = 0.85449 0.44844
# Poissons Ratio (z) = 0.09723 0.24490
#
# Static dielectric constant tensor:
#      x y z
#    x 1.712140 0.000000 0.034900 
#    y 0.000000 1.647360 0.000000 
#    z 0.034900 0.000000 1.655560 
# 
# From -- ./inp_files/249273.got.cif
#   From: 2010.05.17/outbox.cif.g08.bks.cpg/sg12_125_cif.got.tgz:249273.got - 2010.06.03 13:09:07.
