data_PCOD9188522
_publ_section_title
;
Structure prediction by ZEFSAII (Michael W. Deem and Ramdas Pophale) SiO2 
 PCOD9188522
Probable space group: C 2/M
;
_chemical_formula_sum "Si O2"
_cell_formula_units_Z 64
_cell_length_a 24.848385
_cell_length_b 29.536337
_cell_length_c 9.139968
_cell_angle_alpha 90.000000
_cell_angle_beta 29.146461
_cell_angle_gamma 90.000000
_cell_volume 3267.137863
_symmetry_space_group_name_H-M "C 2/M"
_symmetry_group_IT_number 12
_symmetry_cell_setting 'monoclinic'
loop_
_space_group_symop_operation_xyz
x,y,z
-x,y,-z
-x,-y,-z
x,-y,z
1/2+x,1/2+y,z
1/2-x,1/2+y,-z
1/2-x,1/2-y,-z
1/2+x,1/2-y,z
loop_
_atom_site_type_symbol
_atom_site_label
_atom_site_fract_x
_atom_site_fract_y
_atom_site_fract_z
Si Si1 0.877840 0.222249 0.860826
Si Si2 0.499425 0.684461 0.826213
Si Si3 0.111255 0.447344 0.639103
Si Si4 0.464053 0.947972 0.750942
Si Si5 0.226735 0.806744 0.171687
Si Si6 0.224833 0.906242 0.301328
Si Si7 0.022258 0.085567 0.619579
Si Si8 0.168443 0.947002 0.726863
O O1 0.896871 0.207223 0.983499
O O2 0.801663 0.191163 0.934731
O O3 0.000000 0.220861 0.500000
O O4 0.823551 0.271494 0.972898
O O5 0.612393 0.710716 0.515957
O O6 0.510561 0.635715 0.718993
O O7 0.500000 0.680819 0.000000
O O8 0.141135 0.500000 0.541897
O O9 0.220155 0.429347 0.457770
O O10 0.065245 0.426083 0.599841
O O11 0.000000 0.445462 0.000000
O O12 0.500000 0.948228 0.500000
O O13 0.452937 0.000000 0.829397
O O14 0.343907 0.927133 0.048999
O O15 0.245654 0.855009 0.201423
O O16 0.148059 0.928461 0.358259
O O17 0.155879 0.915801 0.613533
O O18 0.000000 0.086305 0.500000
O O19 0.932599 0.056683 0.921071
O O20 0.181439 0.000000 0.651421
#
# Coordination Sequence:
#
# PCOD9188522 Si02
#       8
#     8   8   8   8   8   8   8   8
#     4   9  18  36  61  84 114 150 188 229 285 351
#     4  10  19  36  60  83 113 151 187 231 288 353
#     4   9  17  35  58  77 102 145 196 233 283 348
#     4  10  21  35  55  81 112 151 194 242 291 343
#     4   9  19  35  58  85 112 150 190 231 282 342
#     4  11  21  37  59  84 117 152 194 243 291 349
#     4  11  24  39  57  84 115 150 197 246 297 351
#     4  11  23  39  61  83 114 159 200 244 293 347
#
# _framework density 19.589009999999998
#
# number of rings (size 3 to 8) (size 9 to 14) (size 15 to 20)
#    0.000    2.000    1.250    4.125    1.750    2.750 
#    0.000    0.000    2.750    0.000    0.000    0.000 
#    0.000    0.000    0.000    0.000    0.000    0.000 
#
# Total GULP energy -178262.201051 kJ/mol
# GULP energy per Si atom -5570.693783 kJ/mol
# Density = 1.954442 g / cm^3
# Si number density = 19.589010 Si / 1000 Ang^3
#
#
#
# Elastic Constant Matrix: (Units=GPa)
#
#
# Indices 1 2 3 4 5 6 
#
# 1 157.1861 35.8352 14.8028 0.0001 8.8079 0.0002
# 2 35.8352 52.0112 12.6533 0.0000 1.4768 -0.0002
# 3 14.8028 12.6533 27.7852 -0.0002 3.8781 0.0004
# 4 0.0001 0.0000 -0.0002 25.9720 0.0002 2.0873
# 5 8.8079 1.4768 3.8781 0.0002 35.3554 -0.0004
# 6 0.0002 -0.0002 0.0004 2.0873 -0.0004 -8.5966
#
#
#
# Elastic Compliance Matrix: (Units=1/GPa)
#
#
# Indices 1 2 3 4 5 6 
#
# 1 0.007715 -0.004863 -0.001681 0.000000 -0.001534 0.000000
# 2 -0.004863 0.024688 -0.008812 0.000000 0.001147 -0.000001
# 3 -0.001681 -0.008812 0.041424 0.000000 -0.003757 0.000002
# 4 0.000000 0.000000 0.000000 0.037766 0.000000 0.009170
# 5 -0.001534 0.001147 -0.003757 0.000000 0.029031 -0.000002
# 6 0.000000 -0.000001 0.000002 0.009170 -0.000002 -0.114099
#
#
# Mechanical properties :
#
#
# Convention : Reuss Voigt Hill
#
# Bulk Modulus (GPa) = 23.19457 40.39613 31.79535
# Shear Modulus (GPa) = 69.82313 22.12558 45.97435
#
# Velocity S-wave (km/s) = 5.97674 3.36443 4.84978
# Velocity P-wave (km/s) = 7.71329 5.97990 6.90123
#
# Compressibility (1/GPa) = 0.04311354
#
# Stress axis : x y z
#
# Youngs Moduli (GPa) = 129.62031 40.50488 24.14074
#
# Poissons Ratio (x) = 0.19697 0.04059
# Poissons Ratio (y) = 0.63032 0.21274
# Poissons Ratio (z) = 0.21795 0.35695
#
# Static dielectric constant tensor:
#      x y z
#    x 1.813150 0.000000 -0.005130 
#    y 0.000000 1.701080 0.000000 
#    z -0.005130 0.000000 1.715550 
# 
# From -- ./inp_files/100212.got.cif
#   From: 2010.05.17/outbox.cif.g08.bks.cpg/sg12_51_cif.got.tgz:100212.got - 2010.06.03 13:09:07.
