data_PCOD9188699
_publ_section_title
;
Structure prediction by ZEFSAII (Michael W. Deem and Ramdas Pophale) SiO2 
 PCOD9188699
Probable space group: C 2/M
;
_chemical_formula_sum "Si O2"
_cell_formula_units_Z 56
_cell_length_a 22.666320
_cell_length_b 18.909069
_cell_length_c 8.225885
_cell_angle_alpha 90.000000
_cell_angle_beta 41.172481
_cell_angle_gamma 90.000000
_cell_volume 2321.005256
_symmetry_space_group_name_H-M "C 2/M"
_symmetry_group_IT_number 12
_symmetry_cell_setting 'monoclinic'
loop_
_space_group_symop_operation_xyz
x,y,z
-x,y,-z
-x,-y,-z
x,-y,z
1/2+x,1/2+y,z
1/2-x,1/2+y,-z
1/2-x,1/2-y,-z
1/2+x,1/2-y,z
loop_
_atom_site_type_symbol
_atom_site_label
_atom_site_fract_x
_atom_site_fract_y
_atom_site_fract_z
Si Si1 0.848593 0.269705 0.102017
Si Si2 0.623161 0.923395 0.470137
Si Si3 0.692962 0.577283 0.736519
Si Si4 0.049355 0.863104 0.228258
Si Si5 0.377964 0.623950 0.444058
Si Si6 0.642625 0.221666 0.532859
Si Si7 0.696995 0.922189 0.951623
O O1 0.751478 0.229308 0.283583
O O2 0.871227 0.277955 0.245055
O O3 0.840045 0.349236 0.049190
O O4 0.919177 0.217010 0.873145
O O5 0.702847 0.922047 0.438122
O O6 0.588252 0.844271 0.570729
O O7 0.575007 0.000000 0.586380
O O8 0.665969 0.922726 0.202254
O O9 0.669473 0.500000 0.722387
O O10 0.662723 0.626843 0.652473
O O11 0.639921 0.593379 0.010512
O O12 0.000000 0.871374 0.500000
O O13 0.980119 0.898319 0.242908
O O14 0.386766 0.704766 0.484567
O O15 0.303980 0.584501 0.703464
O O16 0.670219 0.000000 0.937883
#
# Coordination Sequence:
#
# PCOD9188699 Si02
#       7
#     8   8   8   8   8   8   8
#     4  10  21  38  60  87 120 157 207 250 303 359
#     4  10  20  35  59  90 121 151 195 252 306 355
#     4  11  22  39  59  83 122 164 201 241 292 358
#     4  12  25  39  57  89 125 165 200 243 304 368
#     4  11  23  36  61  88 120 158 204 250 299 362
#     4  10  19  36  61  85 112 155 205 261 291 348
#     4  10  22  38  61  93 123 158 205 256 307 359
#
# _framework density 24.127478
#
# number of rings (size 3 to 8) (size 9 to 14) (size 15 to 20)
#    0.000    1.429    2.857    3.429    2.000    4.857 
#    0.000    0.000    0.000    1.286    0.000    2.000 
#    0.000    0.000    0.000    0.000    0.000    0.000 
#
# Total GULP energy -156250.030343 kJ/mol
# GULP energy per Si atom -5580.358227 kJ/mol
# Density = 2.407256 g / cm^3
# Si number density = 24.127478 Si / 1000 Ang^3
#
#
#
# Elastic Constant Matrix: (Units=GPa)
#
#
# Indices 1 2 3 4 5 6 
#
# 1 35.6445 -5.9615 0.5438 0.0000 7.0954 0.0000
# 2 -5.9615 140.6997 -15.8406 0.0000 16.3827 0.0000
# 3 0.5438 -15.8406 30.5491 0.0000 11.3809 0.0000
# 4 0.0000 0.0000 0.0000 24.6342 0.0000 10.7021
# 5 7.0954 16.3827 11.3809 0.0000 29.2505 0.0000
# 6 0.0000 0.0000 0.0000 10.7021 0.0000 13.1707
#
#
#
# Elastic Compliance Matrix: (Units=1/GPa)
#
#
# Indices 1 2 3 4 5 6 
#
# 1 0.030774 0.003230 0.005359 0.000000 -0.011359 0.000000
# 2 0.003230 0.009218 0.008113 0.000000 -0.009103 0.000000
# 3 0.005359 0.008113 0.045638 0.000000 -0.023601 0.000000
# 4 0.000000 0.000000 0.000000 0.062743 0.000000 -0.050982
# 5 -0.011359 -0.009103 -0.023601 0.000000 0.051224 0.000000
# 6 0.000000 0.000000 0.000000 -0.050982 0.000000 0.117352
#
#
# Mechanical properties :
#
#
# Convention : Reuss Voigt Hill
#
# Bulk Modulus (GPa) = 8.40095 18.26407 13.33251
# Shear Modulus (GPa) = 15.46916 28.62119 22.04517
#
# Velocity S-wave (km/s) = 2.53483 3.44793 3.02602
# Velocity P-wave (km/s) = 3.47226 4.84120 4.21271
#
# Compressibility (1/GPa) = 0.11903411
#
# Stress axis : x y z
#
# Youngs Moduli (GPa) = 32.49449 108.48895 21.91141
#
# Poissons Ratio (x) = -0.35040 -0.11742
# Poissons Ratio (y) = -0.10495 -0.17777
# Poissons Ratio (z) = -0.17413 -0.88020
#
# Static dielectric constant tensor:
#      x y z
#    x 1.962450 0.000000 -0.049410 
#    y 0.000000 2.078520 0.000000 
#    z -0.049410 0.000000 1.934350 
# 
# From -- ./inp_files/98214.got.cif
#   From: 2010.05.17/outbox.cif.g08.bks.cpg/sg12_50_cif.got.tgz:98214.got - 2010.06.03 13:09:07.
