data_PCOD9188987
_publ_section_title
;
Structure prediction by ZEFSAII (Michael W. Deem and Ramdas Pophale) SiO2 
 PCOD9188987
Probable space group: C 2/M
;
_chemical_formula_sum "Si O2"
_cell_formula_units_Z 56
_cell_length_a 20.425597
_cell_length_b 15.014056
_cell_length_c 20.301435
_cell_angle_alpha 90.000000
_cell_angle_beta 156.687350
_cell_angle_gamma 90.000000
_cell_volume 2463.874335
_symmetry_space_group_name_H-M "C 2/M"
_symmetry_group_IT_number 12
_symmetry_cell_setting 'monoclinic'
loop_
_space_group_symop_operation_xyz
x,y,z
-x,y,-z
-x,-y,-z
x,-y,z
1/2+x,1/2+y,z
1/2-x,1/2+y,-z
1/2-x,1/2-y,-z
1/2+x,1/2-y,z
loop_
_atom_site_type_symbol
_atom_site_label
_atom_site_fract_x
_atom_site_fract_y
_atom_site_fract_z
Si Si1 0.083190 0.339747 0.510067
Si Si2 0.012026 0.142754 0.582240
Si Si3 0.656993 0.603046 0.438056
Si Si4 0.375471 0.107459 0.944706
Si Si5 0.988801 0.608594 0.193035
Si Si6 0.555925 0.607116 0.203580
Si Si7 0.698650 0.892582 0.852821
O O1 0.267582 0.372837 0.666248
O O2 0.000000 0.376019 0.500000
O O3 0.088902 0.233363 0.520726
O O4 0.951651 0.359286 0.330890
O O5 0.204894 0.156847 0.773663
O O6 0.000000 0.095291 0.500000
O O7 0.942487 0.102831 0.585609
O O8 0.688641 0.500000 0.449868
O O9 0.568191 0.640009 0.291040
O O10 0.836311 0.643715 0.618558
O O11 0.339599 0.000000 0.914677
O O12 0.500000 0.121350 0.000000
O O13 0.452152 0.135904 0.084969
O O14 0.998935 0.500000 0.200166
O O15 0.847029 0.630719 0.114075
O O16 0.537974 0.500000 0.187643
O O17 0.385816 0.639647 0.012627
O O18 0.693874 0.000000 0.842372
#
# Coordination Sequence:
#
# PCOD9188987 Si02
#       7
#     8   8   8   8   8   8   8
#     4  11  25  44  59  86 126 164 201 251 311 365
#     4  11  24  40  55  84 125 167 204 244 303 365
#     4  10  19  36  64  91 120 158 200 253 303 354
#     4  10  20  36  59  88 120 159 209 254 294 351
#     4   9  17  33  59  90 120 150 193 253 308 350
#     4  10  21  40  68  95 118 152 200 255 309 361
#     4  10  20  39  65  92 119 152 202 255 306 363
#
# _framework density 22.728432000000002
#
# number of rings (size 3 to 8) (size 9 to 14) (size 15 to 20)
#    0.000    1.857    1.429    2.571    0.000    6.857 
#    7.714    2.857    0.000    0.000    0.000    0.000 
#    0.000    0.000    0.000    0.000    0.000    0.000 
#
# Total GULP energy -156394.098587 kJ/mol
# GULP energy per Si atom -5585.503521 kJ/mol
# Density = 2.267670 g / cm^3
# Si number density = 22.728432 Si / 1000 Ang^3
#
#
#
# Elastic Constant Matrix: (Units=GPa)
#
#
# Indices 1 2 3 4 5 6 
#
# 1 110.8660 -6.0779 30.8030 0.0010 2.3732 0.0011
# 2 -6.0779 38.5304 -5.3014 -0.0053 3.8014 -0.0017
# 3 30.8030 -5.3014 119.5331 0.0045 19.5735 0.0011
# 4 0.0010 -0.0053 0.0045 7.4037 -0.0033 2.3026
# 5 2.3732 3.8014 19.5735 -0.0033 32.2578 -0.0006
# 6 0.0011 -0.0017 0.0011 2.3026 -0.0006 14.7755
#
#
#
# Elastic Compliance Matrix: (Units=1/GPa)
#
#
# Indices 1 2 3 4 5 6 
#
# 1 0.009785 0.001116 -0.002590 0.000001 0.000720 -0.000001
# 2 0.001116 0.026762 0.001587 0.000016 -0.004199 0.000000
# 3 -0.002590 0.001587 0.010107 -0.000007 -0.006129 0.000001
# 4 0.000001 0.000016 -0.000007 0.141947 0.000017 -0.022121
# 5 0.000720 -0.004199 -0.006129 0.000017 0.035161 -0.000001
# 6 -0.000001 0.000000 0.000001 -0.022121 -0.000001 0.071127
#
#
# Mechanical properties :
#
#
# Convention : Reuss Voigt Hill
#
# Bulk Modulus (GPa) = 21.33072 34.19743 27.76408
# Shear Modulus (GPa) = 16.11389 27.52114 21.81752
#
# Velocity S-wave (km/s) = 2.66555 3.48353 3.10162
# Velocity P-wave (km/s) = 4.34499 5.59095 5.00688
#
# Compressibility (1/GPa) = 0.04688074
#
# Stress axis : x y z
#
# Youngs Moduli (GPa) = 102.19426 37.36619 98.93757
#
# Poissons Ratio (x) = -0.04171 0.25625
# Poissons Ratio (y) = -0.11406 -0.15700
# Poissons Ratio (z) = 0.26469 -0.05929
#
# Static dielectric constant tensor:
#      x y z
#    x 1.855070 0.000000 -0.020820 
#    y 0.000000 1.868110 0.000000 
#    z -0.020820 0.000000 1.833310 
# 
# From -- ./inp_files/322725.got.cif
#   From: 2010.05.17/outbox.cif.g08.bks.cpg/sg12_162_cif.got.tgz:322725.got - 2010.06.03 13:09:07.
