data_PCOD9188801
_publ_section_title
;
Structure prediction by ZEFSAII (Michael W. Deem and Ramdas Pophale) SiO2 
 PCOD9188801
Probable space group: C 2/M
;
_chemical_formula_sum "Si O2"
_cell_formula_units_Z 48
_cell_length_a 17.271389
_cell_length_b 17.534172
_cell_length_c 15.080993
_cell_angle_alpha 90.000000
_cell_angle_beta 143.124527
_cell_angle_gamma 90.000000
_cell_volume 2740.627799
_symmetry_space_group_name_H-M "C 2/M"
_symmetry_group_IT_number 12
_symmetry_cell_setting 'monoclinic'
loop_
_space_group_symop_operation_xyz
x,y,z
-x,y,-z
-x,-y,-z
x,-y,z
1/2+x,1/2+y,z
1/2-x,1/2+y,-z
1/2-x,1/2-y,-z
1/2+x,1/2-y,z
loop_
_atom_site_type_symbol
_atom_site_label
_atom_site_fract_x
_atom_site_fract_y
_atom_site_fract_z
Si Si1 0.619992 0.590342 0.675045
Si Si2 0.356739 0.085887 0.405610
Si Si3 0.865548 0.867960 0.930896
Si Si4 0.476596 0.587927 0.213217
Si Si5 0.205847 0.202749 0.376083
Si Si6 0.144046 0.297434 0.144784
O O1 0.500000 0.609692 0.500000
O O2 0.647262 0.500000 0.687642
O O3 0.579795 0.601913 0.740761
O O4 0.743251 0.642145 0.766701
O O5 0.500000 0.096618 0.500000
O O6 0.250886 0.095493 0.230780
O O7 0.319911 0.150491 0.441802
O O8 0.346387 0.000000 0.432386
O O9 0.845897 0.776475 0.910579
O O10 0.878599 0.898986 0.041859
O O11 0.000000 0.882717 0.000000
O O12 0.520689 0.500000 0.250602
O O13 0.592117 0.645426 0.298457
O O14 0.250000 0.250000 0.500000
O O15 0.159356 0.258963 0.255500
O O16 0.000000 0.329480 0.000000
#
# Coordination Sequence:
#
# PCOD9188801 Si02
#       6
#     8   8   8   8   8   8
#     4  10  23  41  61  84 114 158 205 242 278 336
#     4  10  21  37  57  84 120 152 183 234 297 350
#     4  10  19  36  61  92 116 149 188 238 294 356
#     4  11  21  37  63  90 112 150 201 242 282 342
#     4  11  22  36  58  87 115 154 192 238 289 344
#     4  10  20  40  58  85 121 150 189 237 300 342
#
# _framework density 17.514234999999999
#
# number of rings (size 3 to 8) (size 9 to 14) (size 15 to 20)
#    0.000    1.667    5.000    2.000    0.000    7.000 
#    3.000    0.833    0.000    0.000    0.000    0.000 
#    0.000    0.000    0.000    0.000    0.000    0.000 
#
# Total GULP energy -133956.614325 kJ/mol
# GULP energy per Si atom -5581.525597 kJ/mol
# Density = 1.747437 g / cm^3
# Si number density = 17.514235 Si / 1000 Ang^3
#
#
#
# Elastic Constant Matrix: (Units=GPa)
#
#
# Indices 1 2 3 4 5 6 
#
# 1 109.4573 81.3248 79.6021 0.0000 -6.2245 0.0000
# 2 81.3248 92.1434 64.8526 0.0000 4.1994 0.0000
# 3 79.6021 64.8526 110.7210 0.0000 3.1410 0.0000
# 4 0.0000 0.0000 0.0000 24.0533 0.0000 1.5771
# 5 -6.2245 4.1994 3.1410 0.0000 37.3373 0.0000
# 6 0.0000 0.0000 0.0000 1.5771 0.0000 36.6924
#
#
#
# Elastic Compliance Matrix: (Units=1/GPa)
#
#
# Indices 1 2 3 4 5 6 
#
# 1 0.036622 -0.023893 -0.012613 0.000000 0.009854 0.000000
# 2 -0.023893 0.034105 -0.002583 0.000000 -0.007602 0.000000
# 3 -0.012613 -0.002583 0.019711 0.000000 -0.003470 0.000000
# 4 0.000000 0.000000 0.000000 0.041692 0.000000 -0.001792
# 5 0.009854 -0.007602 -0.003470 0.000000 0.029572 0.000000
# 6 0.000000 0.000000 0.000000 -0.001792 0.000000 0.027331
#
#
# Mechanical properties :
#
#
# Convention : Reuss Voigt Hill
#
# Bulk Modulus (GPa) = 81.57282 84.87564 83.22423
# Shear Modulus (GPa) = 18.42998 25.38610 21.90804
#
# Velocity S-wave (km/s) = 3.24741 3.81130 3.54060
# Velocity P-wave (km/s) = 7.79341 8.24222 8.02095
#
# Compressibility (1/GPa) = 0.01225899
#
# Stress axis : x y z
#
# Youngs Moduli (GPa) = 27.30629 29.32140 50.73282
#
# Poissons Ratio (x) = 0.70059 0.63991
# Poissons Ratio (y) = 0.65244 0.13102
# Poissons Ratio (z) = 0.34442 0.07572
#
# Static dielectric constant tensor:
#      x y z
#    x 1.582020 0.000000 -0.009340 
#    y 0.000000 1.594830 0.000000 
#    z -0.009340 0.000000 1.594720 
# 
# From -- ./inp_files/75461.got.cif
#   From: 2010.05.17/outbox.cif.g08.bks.cpg/sg12_38_cif.got.tgz:75461.got - 2010.06.03 13:09:07.
