data_PCOD9188657
_publ_section_title
;
Structure prediction by ZEFSAII (Michael W. Deem and Ramdas Pophale) SiO2 
 PCOD9188657
Probable space group: C 2/M
;
_chemical_formula_sum "Si O2"
_cell_formula_units_Z 52
_cell_length_a 7.478686
_cell_length_b 21.571694
_cell_length_c 18.281578
_cell_angle_alpha 90.000000
_cell_angle_beta 128.907720
_cell_angle_gamma 90.000000
_cell_volume 2295.045567
_symmetry_space_group_name_H-M "C 2/M"
_symmetry_group_IT_number 12
_symmetry_cell_setting 'monoclinic'
loop_
_space_group_symop_operation_xyz
x,y,z
-x,y,-z
-x,-y,-z
x,-y,z
1/2+x,1/2+y,z
1/2-x,1/2+y,-z
1/2-x,1/2-y,-z
1/2+x,1/2-y,z
loop_
_atom_site_type_symbol
_atom_site_label
_atom_site_fract_x
_atom_site_fract_y
_atom_site_fract_z
Si Si1 0.971268 0.573896 0.137067
Si Si2 0.223818 0.428897 0.504598
Si Si3 0.936054 0.574198 0.299772
Si Si4 0.000000 0.259070 0.500000
Si Si5 0.233602 0.322575 0.015102
Si Si6 0.523765 0.323792 0.379116
Si Si7 0.948100 0.869714 0.209492
O O1 0.914766 0.500000 0.112409
O O2 0.970374 0.588890 0.223361
O O3 0.225959 0.587111 0.169020
O O4 0.798322 0.623877 0.054587
O O5 0.285729 0.500000 0.510526
O O6 0.446027 0.395451 0.594122
O O7 0.000000 0.427323 0.500000
O O8 0.134686 0.402149 0.404641
O O9 0.935063 0.500000 0.305037
O O10 0.693569 0.597065 0.270030
O O11 0.214315 0.302174 0.538636
O O12 0.903574 0.217676 0.408572
O O13 0.424596 0.339964 0.123452
O O14 0.250000 0.250000 0.000000
O O15 0.000000 0.327913 0.000000
O O16 0.447642 0.320261 0.276029
#
# Coordination Sequence:
#
# PCOD9188657 Si02
#       7
#     8   8   8   4   8   8   8
#     4  10  24  44  65  97 130 161 213 270 319 380
#     4  10  19  36  60  90 129 163 201 256 314 372
#     4  10  21  38  65  96 127 166 205 254 316 378
#     4  10  24  40  60  84 130 162 216 260 310 376
#     4  10  25  45  65  94 128 167 209 269 325 377
#     4  11  22  41  60  92 120 168 211 260 313 377
#     4  11  23  40  67  93 123 168 210 259 319 383
#
# _framework density 22.657502999999998
#
# number of rings (size 3 to 8) (size 9 to 14) (size 15 to 20)
#    0.000    1.692    2.308    0.462    4.308    6.462 
#    2.769    1.923    0.000    0.000    0.000    0.000 
#    0.000    0.000    0.000    0.000    0.000    0.000 
#
# Total GULP energy -145114.705580 kJ/mol
# GULP energy per Si atom -5581.334830 kJ/mol
# Density = 2.260593 g / cm^3
# Si number density = 22.657503 Si / 1000 Ang^3
#
#
#
# Elastic Constant Matrix: (Units=GPa)
#
#
# Indices 1 2 3 4 5 6 
#
# 1 63.0238 11.9537 0.8861 0.0000 -15.2800 0.0000
# 2 11.9537 87.2052 43.7118 0.0000 -20.0931 0.0000
# 3 0.8861 43.7118 109.3572 0.0000 -33.6492 0.0000
# 4 0.0000 0.0000 0.0000 27.2792 0.0000 -8.6952
# 5 -15.2800 -20.0931 -33.6492 0.0000 34.1418 0.0000
# 6 0.0000 0.0000 0.0000 -8.6952 0.0000 19.2809
#
#
#
# Elastic Compliance Matrix: (Units=1/GPa)
#
#
# Indices 1 2 3 4 5 6 
#
# 1 0.018961 -0.002069 0.004176 0.000000 0.011384 0.000000
# 2 -0.002069 0.014958 -0.005079 0.000000 0.002872 0.000000
# 3 0.004176 -0.005079 0.015495 0.000000 0.014152 0.000000
# 4 0.000000 0.000000 0.000000 0.042812 0.000000 0.019307
# 5 0.011384 0.002872 0.014152 0.000000 0.050022 0.000000
# 6 0.000000 0.000000 0.000000 0.019307 0.000000 0.060572
#
#
# Mechanical properties :
#
#
# Convention : Reuss Voigt Hill
#
# Bulk Modulus (GPa) = 23.00403 41.40995 32.20699
# Shear Modulus (GPa) = 22.39604 29.67601 26.03603
#
# Velocity S-wave (km/s) = 3.14739 3.62299 3.39353
# Velocity P-wave (km/s) = 4.83560 5.98478 5.44062
#
# Compressibility (1/GPa) = 0.04347064
#
# Stress axis : x y z
#
# Youngs Moduli (GPa) = 52.74025 66.85278 64.53687
#
# Poissons Ratio (x) = 0.13835 -0.26953
# Poissons Ratio (y) = 0.10915 0.32776
# Poissons Ratio (z) = -0.22027 0.33952
#
# Static dielectric constant tensor:
#      x y z
#    x 1.905580 0.000000 -0.024600 
#    y 0.000000 1.897530 0.000000 
#    z -0.024600 0.000000 1.912030 
# 
# From -- ./inp_files/258539.got.cif
#   From: 2010.05.17/outbox.cif.g08.bks.cpg/sg12_130_cif.got.tgz:258539.got - 2010.06.03 13:09:07.
