data_PCOD9188533
_publ_section_title
;
Structure prediction by ZEFSAII (Michael W. Deem and Ramdas Pophale) SiO2 
 PCOD9188533
Probable space group: C 2/M
;
_chemical_formula_sum "Si O2"
_cell_formula_units_Z 48
_cell_length_a 15.589691
_cell_length_b 7.727303
_cell_length_c 21.162694
_cell_angle_alpha 90.000000
_cell_angle_beta 111.441971
_cell_angle_gamma 90.000000
_cell_volume 2372.943014
_symmetry_space_group_name_H-M "C 2/M"
_symmetry_group_IT_number 12
_symmetry_cell_setting 'monoclinic'
loop_
_space_group_symop_operation_xyz
x,y,z
-x,y,-z
-x,-y,-z
x,-y,z
1/2+x,1/2+y,z
1/2-x,1/2+y,-z
1/2-x,1/2-y,-z
1/2+x,1/2-y,z
loop_
_atom_site_type_symbol
_atom_site_label
_atom_site_fract_x
_atom_site_fract_y
_atom_site_fract_z
Si Si1 0.257619 0.705966 0.576181
Si Si2 0.761456 0.791572 0.076902
Si Si3 0.939700 0.205601 0.425417
Si Si4 0.040939 0.212651 0.327323
Si Si5 0.567353 0.791191 0.074336
Si Si6 0.960960 0.207425 0.172664
O O1 0.258637 0.500000 0.581350
O O2 0.250000 0.750000 0.500000
O O3 0.167313 0.768789 0.588488
O O4 0.354721 0.770176 0.629992
O O5 0.670829 0.728023 0.089087
O O6 0.858731 0.724393 0.129127
O O7 0.763089 0.000000 0.082829
O O8 0.750000 0.750000 0.000000
O O9 0.000000 0.277869 0.500000
O O10 0.976434 0.270536 0.368123
O O11 0.956966 0.000000 0.428779
O O12 0.002794 0.272405 0.249674
O O13 0.041459 0.000000 0.326555
O O14 0.526267 0.743236 0.130746
O O15 0.568725 0.000000 0.071053
O O16 0.500000 0.728865 0.000000
O O17 0.953233 0.000000 0.176512
#
# Coordination Sequence:
#
# PCOD9188533 Si02
#       6
#     8   8   8   8   8   8
#     4  11  21  36  58  84 112 146 188 232 276 328
#     4  10  20  34  55  80 106 140 182 221 268 324
#     4  10  19  36  60  84 110 148 186 224 277 333
#     4   9  20  38  56  78 115 148 177 226 285 328
#     4  10  20  35  55  81 113 143 174 226 282 321
#     4  10  21  37  57  81 108 145 187 225 268 330
#
# _framework density 20.228045999999999
#
# number of rings (size 3 to 8) (size 9 to 14) (size 15 to 20)
#    0.000    2.000    3.333    0.500    0.000    2.667 
#    0.000    4.167    0.000    0.000    0.000    0.000 
#    0.000    0.000    0.000    0.000    0.000    0.000 
#
# Total GULP energy -134042.823914 kJ/mol
# GULP energy per Si atom -5585.117663 kJ/mol
# Density = 2.018201 g / cm^3
# Si number density = 20.228046 Si / 1000 Ang^3
#
#
#
# Elastic Constant Matrix: (Units=GPa)
#
#
# Indices 1 2 3 4 5 6 
#
# 1 219.7932 -6.0809 134.2841 0.0000 -0.5716 0.0000
# 2 -6.0809 24.7706 3.1160 0.0000 0.6091 0.0000
# 3 134.2841 3.1160 217.9854 0.0000 -0.2026 0.0000
# 4 0.0000 0.0000 0.0000 9.4686 0.0000 -2.2161
# 5 -0.5716 0.6091 -0.2026 0.0000 34.8117 0.0000
# 6 0.0000 0.0000 0.0000 -2.2161 0.0000 25.1223
#
#
#
# Elastic Compliance Matrix: (Units=1/GPa)
#
#
# Indices 1 2 3 4 5 6 
#
# 1 0.007436 0.002405 -0.004615 0.000000 0.000053 0.000000
# 2 0.002405 0.041238 -0.002071 0.000000 -0.000694 0.000000
# 3 -0.004615 -0.002071 0.007460 0.000000 0.000004 0.000000
# 4 0.000000 0.000000 0.000000 0.107839 0.000000 0.009513
# 5 0.000053 -0.000694 0.000004 0.000000 0.028739 0.000000
# 6 0.000000 0.000000 0.000000 0.009513 0.000000 0.040644
#
#
# Mechanical properties :
#
#
# Convention : Reuss Voigt Hill
#
# Bulk Modulus (GPa) = 21.02129 80.57639 50.79884
# Shear Modulus (GPa) = 19.39657 35.96252 27.67954
#
# Velocity S-wave (km/s) = 3.09996 4.22104 3.70317
# Velocity P-wave (km/s) = 4.81952 7.97977 6.59183
#
# Compressibility (1/GPa) = 0.04757082
#
# Stress axis : x y z
#
# Youngs Moduli (GPa) = 134.48066 24.24921 134.04688
#
# Poissons Ratio (x) = -0.05831 0.61864
# Poissons Ratio (y) = -0.32339 0.27768
# Poissons Ratio (z) = 0.62064 0.05023
#
# Static dielectric constant tensor:
#      x y z
#    x 1.694060 0.000000 0.021540 
#    y 0.000000 1.760150 0.000000 
#    z 0.021540 0.000000 1.686290 
# 
# From -- ./inp_files/308583.got.cif
#   From: 2010.05.17/outbox.cif.g08.bks.cpg/sg12_155_cif.got.tgz:308583.got - 2010.06.03 13:09:07.
