data_PCOD9188338
_publ_section_title
;
Structure prediction by ZEFSAII (Michael W. Deem and Ramdas Pophale) SiO2 
 PCOD9188338
Probable space group: C 2/M
;
_chemical_formula_sum "Si O2"
_cell_formula_units_Z 48
_cell_length_a 20.396991
_cell_length_b 7.902070
_cell_length_c 15.610644
_cell_angle_alpha 90.000000
_cell_angle_beta 65.507008
_cell_angle_gamma 90.000000
_cell_volume 2289.680625
_symmetry_space_group_name_H-M "C 2/M"
_symmetry_group_IT_number 12
_symmetry_cell_setting 'monoclinic'
loop_
_space_group_symop_operation_xyz
x,y,z
-x,y,-z
-x,-y,-z
x,-y,z
1/2+x,1/2+y,z
1/2-x,1/2+y,-z
1/2-x,1/2-y,-z
1/2+x,1/2-y,z
loop_
_atom_site_type_symbol
_atom_site_label
_atom_site_fract_x
_atom_site_fract_y
_atom_site_fract_z
Si Si1 0.933151 0.700810 0.669258
Si Si2 0.677850 0.204888 0.413317
Si Si3 0.409701 0.300829 0.382619
Si Si4 0.185012 0.202947 0.921134
Si Si5 0.334705 0.292885 0.257700
Si Si6 0.152793 0.704030 0.122194
O O1 0.920308 0.500000 0.676178
O O2 0.884108 0.767379 0.618601
O O3 0.903785 0.766139 0.776567
O O4 0.017860 0.727355 0.616266
O O5 0.657207 0.268498 0.518268
O O6 0.755271 0.255187 0.334498
O O7 0.676807 0.000000 0.416907
O O8 0.421096 0.500000 0.369688
O O9 0.391494 0.232913 0.297871
O O10 0.156645 0.264892 0.844869
O O11 0.267162 0.264343 0.892979
O O12 0.189179 0.000000 0.913070
O O13 0.141036 0.245241 0.030380
O O14 0.336905 0.500000 0.256615
O O15 0.153852 0.500000 0.123446
#
# Coordination Sequence:
#
# PCOD9188338 Si02
#       6
#     8   8   8   8   8   8
#     4  10  20  36  56  76 102 140 178 208 250 311
#     4  10  19  36  59  76  96 137 185 215 246 303
#     4  11  23  35  50  77 111 138 167 215 265 303
#     4   9  16  31  55  79 101 129 168 212 256 303
#     4   9  18  35  56  77 103 138 175 209 253 311
#     4   9  17  31  53  80 103 127 167 216 257 296
#
# _framework density 20.963622999999998
#
# number of rings (size 3 to 8) (size 9 to 14) (size 15 to 20)
#    0.000    2.333    1.667    1.500    0.000    3.333 
#    0.000    4.167    0.000    5.000    0.000    0.000 
#    0.000    0.000    0.000    0.000    0.000    0.000 
#
# Total GULP energy -133952.386172 kJ/mol
# GULP energy per Si atom -5581.349424 kJ/mol
# Density = 2.091591 g / cm^3
# Si number density = 20.963623 Si / 1000 Ang^3
#
#
#
# Elastic Constant Matrix: (Units=GPa)
#
#
# Indices 1 2 3 4 5 6 
#
# 1 45.8347 -1.2757 -8.0015 0.0000 20.3588 0.0000
# 2 -1.2757 11.1886 -2.4674 0.0001 5.6153 0.0002
# 3 -8.0015 -2.4674 87.4854 0.0000 21.4713 0.0000
# 4 0.0000 0.0001 0.0000 26.3560 0.0000 -1.3909
# 5 20.3588 5.6153 21.4713 0.0000 33.1158 0.0000
# 6 0.0000 0.0002 0.0000 -1.3909 0.0000 9.0324
#
#
#
# Elastic Compliance Matrix: (Units=1/GPa)
#
#
# Indices 1 2 3 4 5 6 
#
# 1 0.043704 0.029146 0.015016 0.000000 -0.041546 -0.000001
# 2 0.029146 0.122220 0.018548 0.000000 -0.050669 -0.000002
# 3 0.015016 0.018548 0.019461 0.000000 -0.024995 0.000000
# 4 0.000000 0.000000 0.000000 0.038253 0.000000 0.005891
# 5 -0.041546 -0.050669 -0.024995 0.000000 0.080537 0.000001
# 6 -0.000001 -0.000002 0.000000 0.005891 0.000001 0.111619
#
#
# Mechanical properties :
#
#
# Convention : Reuss Voigt Hill
#
# Bulk Modulus (GPa) = 3.21743 13.44659 8.33201
# Shear Modulus (GPa) = 12.69111 24.11773 18.40442
#
# Velocity S-wave (km/s) = 2.46313 3.39552 2.96619
# Velocity P-wave (km/s) = 3.10281 4.66914 3.96411
#
# Compressibility (1/GPa) = 0.31080665
#
# Stress axis : x y z
#
# Youngs Moduli (GPa) = 22.88106 8.18194 51.38383
#
# Poissons Ratio (x) = -0.23847 -0.77157
# Poissons Ratio (y) = -0.66689 -0.95308
# Poissons Ratio (z) = -0.34358 -0.15176
#
# Static dielectric constant tensor:
#      x y z
#    x 1.743310 0.000000 0.026450 
#    y 0.000000 1.763360 0.000000 
#    z 0.026450 0.000000 1.760910 
# 
# From -- ./inp_files/229898.got.cif
#   From: 2010.05.17/outbox.cif.g08.bks.cpg/sg12_115_cif.got.tgz:229898.got - 2010.06.03 13:09:07.
