data_PCOD9188071
_publ_section_title
;
Structure prediction by ZEFSAII (Michael W. Deem and Ramdas Pophale) SiO2 
 PCOD9188071
Probable space group: C 2/M
;
_chemical_formula_sum "Si O2"
_cell_formula_units_Z 54
_cell_length_a 10.401520
_cell_length_b 19.113930
_cell_length_c 16.226812
_cell_angle_alpha 90.000000
_cell_angle_beta 62.644214
_cell_angle_gamma 90.000000
_cell_volume 2865.340413
_symmetry_space_group_name_H-M "C 2/M"
_symmetry_group_IT_number 12
_symmetry_cell_setting 'monoclinic'
loop_
_space_group_symop_operation_xyz
x,y,z
-x,y,-z
-x,-y,-z
x,-y,z
1/2+x,1/2+y,z
1/2-x,1/2+y,-z
1/2-x,1/2-y,-z
1/2+x,1/2-y,z
loop_
_atom_site_type_symbol
_atom_site_label
_atom_site_fract_x
_atom_site_fract_y
_atom_site_fract_z
Si Si1 0.500000 0.000000 0.500000
Si Si2 0.820926 0.378991 0.487904
Si Si3 0.670008 0.716469 0.789155
Si Si4 0.000000 0.251035 0.500000
Si Si5 0.325796 0.421613 0.809622
Si Si6 0.674672 0.284020 0.100838
Si Si7 0.827489 0.077877 0.302886
Si Si8 0.289264 0.662508 0.654665
O O1 0.554512 0.937385 0.546849
O O2 0.880242 0.303569 0.499084
O O3 0.712482 0.405465 0.591069
O O4 0.754976 0.372157 0.417613
O O5 0.499078 0.715216 0.860160
O O6 0.770135 0.741243 0.835239
O O7 0.722428 0.641648 0.739430
O O8 0.686109 0.773996 0.712634
O O9 0.939869 0.201918 0.590255
O O10 0.269652 0.500000 0.838765
O O11 0.280466 0.363983 0.890509
O O12 0.500412 0.424393 0.759531
O O13 0.290855 0.390883 0.729796
O O14 0.750000 0.250000 0.000000
O O15 0.766901 0.000000 0.303891
#
# Coordination Sequence:
#
# PCOD9188071 Si02
#       8
#     2   8   8   4   8   8   8   8
#     4  10  24  36  44  74 106 164 198 248 294 334
#     4  11  22  34  52  74 118 160 200 245 288 333
#     4  10  22  37  61  89 117 149 192 245 294 355
#     4  11  22  33  51  82 113 156 208 256 273 336
#     4   9  21  37  58  86 114 147 190 241 290 356
#     4  10  21  40  66  90 114 145 188 241 307 368
#     4  10  19  36  55  80 119 156 192 238 291 338
#     4  11  22  33  57  80 114 159 203 241 290 336
#
# _framework density 18.845929000000002
#
# number of rings (size 3 to 8) (size 9 to 14) (size 15 to 20)
#    0.000    1.778    2.222    1.778    7.259    0.000 
#    0.000    2.593    0.000   10.667    0.000    0.000 
#    0.000    0.000    0.000    0.000    0.000    0.000 
#
# Total GULP energy -150370.083250 kJ/mol
# GULP energy per Si atom -5569.262343 kJ/mol
# Density = 1.880304 g / cm^3
# Si number density = 18.845929 Si / 1000 Ang^3
#
#
#
# Elastic Constant Matrix: (Units=GPa)
#
#
# Indices 1 2 3 4 5 6 
#
# 1 30.2105 26.7307 7.2545 0.0000 8.1958 0.0000
# 2 26.7307 159.3352 55.1952 0.0000 11.5328 0.0000
# 3 7.2545 55.1952 89.7962 0.0000 -1.4648 0.0000
# 4 0.0000 0.0000 0.0000 15.0506 0.0000 -5.2258
# 5 8.1958 11.5328 -1.4648 0.0000 23.4957 0.0000
# 6 0.0000 0.0000 0.0000 -5.2258 0.0000 21.7819
#
#
#
# Elastic Compliance Matrix: (Units=1/GPa)
#
#
# Indices 1 2 3 4 5 6 
#
# 1 0.041679 -0.006267 0.000299 0.000000 -0.011444 0.000000
# 2 -0.006267 0.009358 -0.005291 0.000000 -0.002737 0.000000
# 3 0.000299 -0.005291 0.014420 0.000000 0.003392 0.000000
# 4 0.000000 0.000000 0.000000 0.072480 0.000000 0.017389
# 5 -0.011444 -0.002737 0.003392 0.000000 0.048108 0.000000
# 6 0.000000 0.000000 0.000000 0.017389 0.000000 0.050082
#
#
# Mechanical properties :
#
#
# Convention : Reuss Voigt Hill
#
# Bulk Modulus (GPa) = 23.28927 50.85585 37.07256
# Shear Modulus (GPa) = 18.31779 24.74308 21.53043
#
# Velocity S-wave (km/s) = 3.12103 3.62735 3.38367
# Velocity P-wave (km/s) = 5.03710 6.67736 5.91437
#
# Compressibility (1/GPa) = 0.04293822
#
# Stress axis : x y z
#
# Youngs Moduli (GPa) = 23.99268 106.85619 69.35031
#
# Poissons Ratio (x) = 0.66971 -0.02070
# Poissons Ratio (y) = 0.15037 0.36691
# Poissons Ratio (z) = -0.00716 0.56534
#
# Static dielectric constant tensor:
#      x y z
#    x 1.800630 0.000000 -0.092940 
#    y 0.000000 1.679760 0.000000 
#    z -0.092940 0.000000 1.671750 
# 
# From -- ./inp_files/206132.got.cif
#   From: 2010.05.17/outbox.cif.g08.bks.cpg/sg12_104_cif.got.tgz:206132.got - 2010.06.03 13:09:07.
