data_PCOD9188807
_publ_section_title
;
Structure prediction by ZEFSAII (Michael W. Deem and Ramdas Pophale) SiO2 
 PCOD9188807
Probable space group: C 2/M
;
_chemical_formula_sum "Si O2"
_cell_formula_units_Z 60
_cell_length_a 12.415275
_cell_length_b 17.155664
_cell_length_c 12.476365
_cell_angle_alpha 90.000000
_cell_angle_beta 98.055451
_cell_angle_gamma 90.000000
_cell_volume 2631.149011
_symmetry_space_group_name_H-M "C 2/M"
_symmetry_group_IT_number 12
_symmetry_cell_setting 'monoclinic'
loop_
_space_group_symop_operation_xyz
x,y,z
-x,y,-z
-x,-y,-z
x,-y,z
1/2+x,1/2+y,z
1/2-x,1/2+y,-z
1/2-x,1/2-y,-z
1/2+x,1/2-y,z
loop_
_atom_site_type_symbol
_atom_site_label
_atom_site_fract_x
_atom_site_fract_y
_atom_site_fract_z
Si Si1 0.623578 0.136864 0.432393
Si Si2 0.755659 0.411389 0.105327
Si Si3 0.567657 0.000000 0.267305
Si Si4 0.815339 0.384303 0.871736
Si Si5 0.691350 0.159633 0.672704
Si Si6 0.580160 0.280290 0.106669
Si Si7 0.937788 0.191875 0.660500
Si Si8 0.162324 0.154024 0.671598
O O1 0.566035 0.069058 0.358816
O O2 0.627150 0.129805 0.560543
O O3 0.582517 0.224454 0.398015
O O4 0.748922 0.133239 0.406175
O O5 0.725160 0.500000 0.122695
O O6 0.827487 0.382748 0.216565
O O7 0.652277 0.354962 0.089438
O O8 0.806676 0.406570 0.994386
O O9 0.594160 0.067214 0.178288
O O10 0.842199 0.293382 0.869759
O O11 0.705703 0.390776 0.783856
O O12 0.819993 0.152831 0.660550
O O13 0.671149 0.251872 0.682786
O O14 0.523056 0.292227 0.212030
O O15 0.500000 0.263373 0.000000
O O16 0.036285 0.142082 0.626231
#
# Coordination Sequence:
#
# PCOD9188807 Si02
#       8
#     8   8   4   8   8   8   8   8
#     4  10  21  38  62  89 123 159 205 250 304 358
#     4  11  23  38  60  89 127 160 198 246 314 367
#     4  10  20  40  65  86 121 164 204 252 309 358
#     4  11  20  41  64  89 121 161 207 251 305 365
#     4  10  22  37  58  93 121 162 203 247 304 358
#     4  11  22  37  63  93 120 157 202 255 304 362
#     4  10  19  36  61  94 120 155 205 252 306 358
#     4  10  19  36  67  90 119 157 205 257 296 364
#
# _framework density 22.803723999999999
#
# number of rings (size 3 to 8) (size 9 to 14) (size 15 to 20)
#    0.000    1.600    6.000    2.800    2.800    2.400 
#    0.000    0.333   17.600    4.000    0.000    0.000 
#    0.000    0.000    0.000    0.000    0.000    0.000 
#
# Total GULP energy -167173.518305 kJ/mol
# GULP energy per Si atom -5572.450610 kJ/mol
# Density = 2.275182 g / cm^3
# Si number density = 22.803724 Si / 1000 Ang^3
#
#
#
# Elastic Constant Matrix: (Units=GPa)
#
#
# Indices 1 2 3 4 5 6 
#
# 1 75.1493 -0.0568 40.9776 0.0000 -15.0581 0.0000
# 2 -0.0568 70.9606 11.9070 0.0000 -21.7036 0.0000
# 3 40.9776 11.9070 190.9776 0.0000 -10.5268 0.0000
# 4 0.0000 0.0000 0.0000 99.6456 0.0000 15.1363
# 5 -15.0581 -21.7036 -10.5268 0.0000 21.1454 0.0000
# 6 0.0000 0.0000 0.0000 15.1363 0.0000 4.5858
#
#
#
# Elastic Compliance Matrix: (Units=1/GPa)
#
#
# Indices 1 2 3 4 5 6 
#
# 1 0.018755 0.006053 -0.003417 0.000000 0.017868 0.000000
# 2 0.006053 0.022497 -0.001225 0.000000 0.026792 0.000000
# 3 -0.003417 -0.001225 0.006007 0.000000 -0.000700 0.000000
# 4 0.000000 0.000000 0.000000 0.020127 0.000000 -0.066432
# 5 0.017868 0.026792 -0.000700 0.000000 0.087166 0.000000
# 6 0.000000 0.000000 0.000000 -0.066432 0.000000 0.437335
#
#
# Mechanical properties :
#
#
# Convention : Reuss Voigt Hill
#
# Bulk Modulus (GPa) = 19.96695 49.19366 34.58030
# Shear Modulus (GPa) = 8.25412 44.02601 26.14007
#
# Velocity S-wave (km/s) = 1.90460 4.39868 3.38939
# Velocity P-wave (km/s) = 3.68940 6.88603 5.52399
#
# Compressibility (1/GPa) = 0.05008277
#
# Stress axis : x y z
#
# Youngs Moduli (GPa) = 53.31977 44.45018 166.46906
#
# Poissons Ratio (x) = -0.26907 0.56877
# Poissons Ratio (y) = -0.32276 0.20387
# Poissons Ratio (z) = 0.18218 0.05444
#
# Static dielectric constant tensor:
#      x y z
#    x 1.953020 0.000000 0.009090 
#    y 0.000000 1.786130 0.000000 
#    z 0.009090 0.000000 1.880040 
# 
# From -- ./inp_files/145616.got.cif
#   From: 2010.05.17/outbox.cif.g08.bks.cpg/sg12_73_cif.got.tgz:145616.got - 2010.06.03 13:09:07.
