data_PCOD9188025
_publ_section_title
;
Structure prediction by ZEFSAII (Michael W. Deem and Ramdas Pophale) SiO2 
 PCOD9188025
Probable space group: C 2/M
;
_chemical_formula_sum "Si O2"
_cell_formula_units_Z 56
_cell_length_a 28.575747
_cell_length_b 22.995560
_cell_length_c 11.851749
_cell_angle_alpha 90.000000
_cell_angle_beta 20.618499
_cell_angle_gamma 90.000000
_cell_volume 2742.484242
_symmetry_space_group_name_H-M "C 2/M"
_symmetry_group_IT_number 12
_symmetry_cell_setting 'monoclinic'
loop_
_space_group_symop_operation_xyz
x,y,z
-x,y,-z
-x,-y,-z
x,-y,z
1/2+x,1/2+y,z
1/2-x,1/2+y,-z
1/2-x,1/2-y,-z
1/2+x,1/2-y,z
loop_
_atom_site_type_symbol
_atom_site_label
_atom_site_fract_x
_atom_site_fract_y
_atom_site_fract_z
Si Si1 0.394222 0.901538 0.660618
Si Si2 0.223834 0.837533 0.538089
Si Si3 0.875591 0.932782 0.843951
Si Si4 0.148382 0.723155 0.140622
Si Si5 0.204384 0.745632 0.417551
Si Si6 0.746183 0.569891 0.649252
Si Si7 0.519946 0.141893 0.776169
O O1 0.500000 0.934358 0.500000
O O2 0.354962 0.845107 0.822548
O O3 0.465535 0.881304 0.383787
O O4 0.257538 0.930527 0.930211
O O5 0.152154 0.803217 0.599282
O O6 0.230166 0.793943 0.631474
O O7 0.184827 0.899509 0.677903
O O8 0.372341 0.848868 0.154124
O O9 0.000000 0.904570 0.500000
O O10 0.910175 0.000000 0.787285
O O11 0.837363 0.909213 0.052721
O O12 0.000000 0.745312 0.500000
O O13 0.250000 0.750000 0.000000
O O14 0.196622 0.737213 0.906048
O O15 0.090967 0.704494 0.623274
O O16 0.752325 0.500000 0.630074
O O17 0.891874 0.597389 0.346846
#
# Coordination Sequence:
#
# PCOD9188025 Si02
#       7
#     8   8   8   8   8   8   8
#     4  10  20  35  55  83 114 148 189 239 287 335
#     4  10  20  34  53  77 112 147 186 237 286 337
#     4   9  19  37  58  82 114 149 188 238 291 345
#     4  11  22  37  55  81 115 152 189 235 282 337
#     4  10  20  34  51  76 109 151 187 226 286 339
#     4   9  18  33  55  83 109 140 189 240 290 343
#     4  10  19  36  53  75 114 151 183 237 289 341
#
# _framework density 20.419442
#
# number of rings (size 3 to 8) (size 9 to 14) (size 15 to 20)
#    0.000    2.143    1.429    3.429    0.000    2.000 
#    0.000    0.000    0.000    2.571    0.000    0.000 
#    0.000   34.286    0.000    0.000    0.000    0.000 
#
# Total GULP energy -156169.289909 kJ/mol
# GULP energy per Si atom -5577.474640 kJ/mol
# Density = 2.037297 g / cm^3
# Si number density = 20.419442 Si / 1000 Ang^3
#
#
#
# Elastic Constant Matrix: (Units=GPa)
#
#
# Indices 1 2 3 4 5 6 
#
# 1 95.1695 24.2153 37.8965 -0.0005 20.1732 0.0000
# 2 24.2153 85.0287 21.9160 -0.0013 10.4182 0.0007
# 3 37.8965 21.9160 105.5991 -0.0031 26.9631 0.0012
# 4 -0.0005 -0.0013 -0.0031 11.0044 0.0015 3.6142
# 5 20.1732 10.4182 26.9631 0.0015 27.8147 -0.0001
# 6 0.0000 0.0007 0.0012 3.6142 -0.0001 16.0738
#
#
#
# Elastic Compliance Matrix: (Units=1/GPa)
#
#
# Indices 1 2 3 4 5 6 
#
# 1 0.013539 -0.002377 -0.002772 0.000000 -0.006243 0.000000
# 2 -0.002377 0.013016 -0.001387 0.000002 -0.001807 -0.000001
# 3 -0.002772 -0.001387 0.013431 0.000006 -0.010490 -0.000002
# 4 0.000000 0.000002 0.000006 0.098118 -0.000012 -0.022062
# 5 -0.006243 -0.001807 -0.010490 -0.000012 0.051325 0.000004
# 6 0.000000 -0.000001 -0.000002 -0.022062 0.000004 0.067174
#
#
# Mechanical properties :
#
#
# Convention : Reuss Voigt Hill
#
# Bulk Modulus (GPa) = 37.15294 50.42808 43.79051
# Shear Modulus (GPa) = 17.94387 24.42989 21.18688
#
# Velocity S-wave (km/s) = 2.96761 3.46266 3.22465
# Velocity P-wave (km/s) = 5.47510 6.38251 5.94614
#
# Compressibility (1/GPa) = 0.02691577
#
# Stress axis : x y z
#
# Youngs Moduli (GPa) = 73.85970 76.82558 74.45611
#
# Poissons Ratio (x) = 0.18258 0.20636
# Poissons Ratio (y) = 0.17553 0.10328
# Poissons Ratio (z) = 0.20471 0.10657
#
# Static dielectric constant tensor:
#      x y z
#    x 1.752070 0.000000 -0.006880 
#    y 0.000000 1.752310 0.000000 
#    z -0.006880 0.000000 1.762920 
# 
# From -- ./inp_files/190388.got.cif
#   From: 2010.05.17/outbox.cif.g08.bks.cpg/sg12_96_cif.got.tgz:190388.got - 2010.06.03 13:09:07.
