data_PCOD9188602
_publ_section_title
;
Structure prediction by ZEFSAII (Michael W. Deem and Ramdas Pophale) SiO2 
 PCOD9188602
Probable space group: C 2/M
;
_chemical_formula_sum "Si O2"
_cell_formula_units_Z 50
_cell_length_a 26.889301
_cell_length_b 7.608374
_cell_length_c 12.824880
_cell_angle_alpha 90.000000
_cell_angle_beta 67.015332
_cell_angle_gamma 90.000000
_cell_volume 2415.461225
_symmetry_space_group_name_H-M "C 2/M"
_symmetry_group_IT_number 12
_symmetry_cell_setting 'monoclinic'
loop_
_space_group_symop_operation_xyz
x,y,z
-x,y,-z
-x,-y,-z
x,-y,z
1/2+x,1/2+y,z
1/2-x,1/2+y,-z
1/2-x,1/2-y,-z
1/2+x,1/2-y,z
loop_
_atom_site_type_symbol
_atom_site_label
_atom_site_fract_x
_atom_site_fract_y
_atom_site_fract_z
Si Si1 0.707333 0.205441 0.740638
Si Si2 0.118802 0.705908 0.655173
Si Si3 0.985698 0.201923 0.356655
Si Si4 0.329334 0.713978 0.610282
Si Si5 0.609386 0.713189 0.230594
Si Si6 0.500000 0.000000 0.500000
Si Si7 0.193356 0.209621 0.990267
O O1 0.659970 0.280964 0.707427
O O2 0.767548 0.277323 0.672665
O O3 0.693783 0.217850 0.873494
O O4 0.711188 0.000000 0.708565
O O5 0.110871 0.500000 0.682745
O O6 0.146675 0.730392 0.519688
O O7 0.059519 0.788909 0.695196
O O8 0.046358 0.259294 0.275757
O O9 0.970173 0.343815 0.456110
O O10 0.987320 0.000000 0.392718
O O11 0.330172 0.500000 0.612243
O O12 0.363770 0.773150 0.682822
O O13 0.611781 0.500000 0.228588
O O14 0.645451 0.775356 0.104395
O O15 0.188402 0.000000 0.986050
O O16 0.250000 0.250000 0.000000
#
# Coordination Sequence:
#
# PCOD9188602 Si02
#       7
#     8   8   8   8   8   2   8
#     4  10  22  40  60  87 125 163 205 260 317 371
#     4  11  23  39  58  88 128 167 212 256 304 383
#     4  11  23  41  62  90 131 171 204 262 315 369
#     4  10  19  36  60  86 122 164 201 251 317 380
#     4   9  20  38  62  88 121 157 201 254 317 367
#     4  12  22  40  64  98 126 156 226 256 308 372
#     4  11  21  39  63  90 120 155 205 260 312 374
#
# _framework density 20.69998
#
# number of rings (size 3 to 8) (size 9 to 14) (size 15 to 20)
#    0.000    1.600    2.400    2.640    0.000    3.200 
#    2.880    0.800    0.000    4.800    0.000    0.000 
#    0.000    0.000    0.000    0.000    0.000    0.000 
#
# Total GULP energy -139430.558377 kJ/mol
# GULP energy per Si atom -5577.222335 kJ/mol
# Density = 2.065287 g / cm^3
# Si number density = 20.699980 Si / 1000 Ang^3
#
#
#
# Elastic Constant Matrix: (Units=GPa)
#
#
# Indices 1 2 3 4 5 6 
#
# 1 218.5936 7.1643 81.9290 0.0000 -3.1752 0.0000
# 2 7.1643 77.0070 -10.2159 0.0000 -7.9430 0.0000
# 3 81.9290 -10.2159 84.5483 0.0000 3.9315 0.0000
# 4 0.0000 0.0000 0.0000 20.9787 0.0000 4.4321
# 5 -3.1752 -7.9430 3.9315 0.0000 21.5996 0.0000
# 6 0.0000 0.0000 0.0000 4.4321 0.0000 25.2965
#
#
#
# Elastic Compliance Matrix: (Units=1/GPa)
#
#
# Indices 1 2 3 4 5 6 
#
# 1 0.007463 -0.001492 -0.007501 0.000000 0.001914 0.000000
# 2 -0.001492 0.013965 0.002929 0.000000 0.004383 0.000000
# 3 -0.007501 0.002929 0.019617 0.000000 -0.003596 0.000000
# 4 0.000000 0.000000 0.000000 0.049500 0.000000 -0.008673
# 5 0.001914 0.004383 -0.003596 0.000000 0.048845 0.000000
# 6 0.000000 0.000000 0.000000 -0.008673 0.000000 0.041051
#
#
# Mechanical properties :
#
#
# Convention : Reuss Voigt Hill
#
# Bulk Modulus (GPa) = 34.58001 59.76708 47.17354
# Shear Modulus (GPa) = 24.72718 33.65970 29.19344
#
# Velocity S-wave (km/s) = 3.45998 4.03684 3.75949
# Velocity P-wave (km/s) = 5.71870 7.11785 6.45629
#
# Compressibility (1/GPa) = 0.02891844
#
# Stress axis : x y z
#
# Youngs Moduli (GPa) = 134.00008 71.60576 50.97589
#
# Poissons Ratio (x) = 0.10683 0.38236
# Poissons Ratio (y) = 0.19992 -0.14933
# Poissons Ratio (z) = 1.00510 -0.20976
#
# Static dielectric constant tensor:
#      x y z
#    x 1.775750 0.000000 -0.022670 
#    y 0.000000 1.734210 0.000000 
#    z -0.022670 0.000000 1.720100 
# 
# From -- ./inp_files/180582.got.cif
#   From: 2010.05.17/outbox.cif.g08.bks.cpg/sg12_91_cif.got.tgz:180582.got - 2010.06.03 13:09:07.
