data_PCOD9188683
_publ_section_title
;
Structure prediction by ZEFSAII (Michael W. Deem and Ramdas Pophale) SiO2 
 PCOD9188683
Probable space group: C 2/M
;
_chemical_formula_sum "Si O2"
_cell_formula_units_Z 64
_cell_length_a 15.418936
_cell_length_b 27.013483
_cell_length_c 8.349942
_cell_angle_alpha 90.000000
_cell_angle_beta 128.749207
_cell_angle_gamma 90.000000
_cell_volume 2712.398853
_symmetry_space_group_name_H-M "C 2/M"
_symmetry_group_IT_number 12
_symmetry_cell_setting 'monoclinic'
loop_
_space_group_symop_operation_xyz
x,y,z
-x,y,-z
-x,-y,-z
x,-y,z
1/2+x,1/2+y,z
1/2-x,1/2+y,-z
1/2-x,1/2-y,-z
1/2+x,1/2-y,z
loop_
_atom_site_type_symbol
_atom_site_label
_atom_site_fract_x
_atom_site_fract_y
_atom_site_fract_z
Si Si1 0.394213 0.227110 0.260176
Si Si2 0.223665 0.055469 0.678190
Si Si3 0.675674 0.124676 0.766098
Si Si4 0.976710 0.805059 0.787471
Si Si5 0.556650 0.943543 0.841984
Si Si6 0.773017 0.203482 0.333642
Si Si7 0.646503 0.870739 0.362856
Si Si8 0.380237 0.377455 0.215432
O O1 0.500000 0.227584 0.500000
O O2 0.370467 0.171130 0.184686
O O3 0.436310 0.263158 0.170432
O O4 0.289977 0.248238 0.242393
O O5 0.250686 0.093929 0.569499
O O6 0.128121 0.073529 0.688545
O O7 0.207133 0.000000 0.601904
O O8 0.336968 0.057647 0.917093
O O9 0.606291 0.076177 0.731969
O O10 0.659318 0.139757 0.564979
O O11 0.800294 0.117063 0.969440
O O12 0.854106 0.790830 0.582450
O O13 0.007977 0.854104 0.721785
O O14 0.000000 0.812785 0.000000
O O15 0.462676 0.904376 0.781964
O O16 0.514534 0.000000 0.789769
O O17 0.660780 0.178661 0.272220
O O18 0.825927 0.163179 0.272162
#
# Coordination Sequence:
#
# PCOD9188683 Si02
#       8
#     8   8   8   8   8   8   8   8
#     4   9  19  37  54  75 114 152 183 226 279 333
#     4   9  19  36  57  80 108 145 186 227 279 340
#     4  11  22  35  53  81 113 145 187 234 278 327
#     4  10  19  36  61  83 106 142 187 231 275 326
#     4  10  21  37  55  77 112 153 186 226 284 339
#     4   9  20  36  55  79 108 147 186 223 277 335
#     4  11  20  32  53  79 105 139 187 231 269 320
#     4   9  19  36  57  80 110 147 181 223 283 339
#
# _framework density 23.59535
#
# number of rings (size 3 to 8) (size 9 to 14) (size 15 to 20)
#    0.000    2.250    0.000    3.750    0.000    5.000 
#    0.000   12.500    0.000    7.125    0.000    0.000 
#    0.000    0.000    0.000    0.000    0.000    0.000 
#
# Total GULP energy -178843.122729 kJ/mol
# GULP energy per Si atom -5588.847585 kJ/mol
# Density = 2.354165 g / cm^3
# Si number density = 23.595350 Si / 1000 Ang^3
#
#
#
# Elastic Constant Matrix: (Units=GPa)
#
#
# Indices 1 2 3 4 5 6 
#
# 1 88.5106 39.2432 30.3332 0.0000 -4.9537 0.0000
# 2 39.2432 101.0259 5.0247 0.0000 3.8442 0.0000
# 3 30.3332 5.0247 81.5578 0.0000 3.8104 0.0000
# 4 0.0000 0.0000 0.0000 17.6141 0.0000 8.1485
# 5 -4.9537 3.8442 3.8104 0.0000 39.7887 0.0000
# 6 0.0000 0.0000 0.0000 8.1485 0.0000 19.4067
#
#
#
# Elastic Compliance Matrix: (Units=1/GPa)
#
#
# Indices 1 2 3 4 5 6 
#
# 1 0.016167 -0.006113 -0.005784 0.000000 0.003157 0.000000
# 2 -0.006113 0.012272 0.001615 0.000000 -0.002101 0.000000
# 3 -0.005784 0.001615 0.014418 0.000000 -0.002257 0.000000
# 4 0.000000 0.000000 0.000000 0.070459 0.000000 -0.029584
# 5 0.003157 -0.002101 -0.002257 0.000000 0.025945 0.000000
# 6 0.000000 0.000000 0.000000 -0.029584 0.000000 0.063950
#
#
# Mechanical properties :
#
#
# Convention : Reuss Voigt Hill
#
# Bulk Modulus (GPa) = 44.85094 46.69962 45.77528
# Shear Modulus (GPa) = 21.62578 28.46145 25.04362
#
# Velocity S-wave (km/s) = 3.03070 3.47685 3.26142
# Velocity P-wave (km/s) = 5.59433 5.99607 5.79868
#
# Compressibility (1/GPa) = 0.02229607
#
# Stress axis : x y z
#
# Youngs Moduli (GPa) = 61.85414 81.48325 69.35632
#
# Poissons Ratio (x) = 0.49807 0.40114
# Poissons Ratio (y) = 0.37808 -0.11204
# Poissons Ratio (z) = 0.35775 -0.13163
#
# Static dielectric constant tensor:
#      x y z
#    x 1.937570 0.000000 0.028210 
#    y 0.000000 1.892450 0.000000 
#    z 0.028210 0.000000 1.896880 
# 
# From -- ./inp_files/68263.got.cif
#   From: 2010.05.17/outbox.cif.g08.bks.cpg/sg12_35_cif.got.tgz:68263.got - 2010.06.03 13:09:07.
