data_PCOD9188696
_publ_section_title
;
Structure prediction by ZEFSAII (Michael W. Deem and Ramdas Pophale) SiO2 
 PCOD9188696
Probable space group: C 2/M
;
_chemical_formula_sum "Si O2"
_cell_formula_units_Z 64
_cell_length_a 15.565770
_cell_length_b 25.444786
_cell_length_c 17.593111
_cell_angle_alpha 90.000000
_cell_angle_beta 150.540291
_cell_angle_gamma 90.000000
_cell_volume 3426.972673
_symmetry_space_group_name_H-M "C 2/M"
_symmetry_group_IT_number 12
_symmetry_cell_setting 'monoclinic'
loop_
_space_group_symop_operation_xyz
x,y,z
-x,y,-z
-x,-y,-z
x,-y,z
1/2+x,1/2+y,z
1/2-x,1/2+y,-z
1/2-x,1/2-y,-z
1/2+x,1/2-y,z
loop_
_atom_site_type_symbol
_atom_site_label
_atom_site_fract_x
_atom_site_fract_y
_atom_site_fract_z
Si Si1 0.481774 0.560828 0.304767
Si Si2 0.600520 0.756470 0.320818
Si Si3 0.690295 0.659629 0.181900
Si Si4 0.360121 0.641783 0.682224
Si Si5 0.698364 0.272671 0.679121
Si Si6 0.663624 0.938184 0.323282
Si Si7 0.307012 0.883961 0.818426
Si Si8 0.004989 0.640208 0.692074
O O1 0.460144 0.500000 0.269439
O O2 0.528979 0.594983 0.267670
O O3 0.647902 0.566045 0.489778
O O4 0.313845 0.582883 0.218364
O O5 0.750000 0.750000 0.500000
O O6 0.540972 0.697023 0.258652
O O7 0.687327 0.775839 0.309478
O O8 0.475107 0.802427 0.253217
O O9 0.681219 0.638486 0.260842
O O10 0.744117 0.721016 0.231224
O O11 0.833613 0.631840 0.239569
O O12 0.500000 0.655551 0.000000
O O13 0.173489 0.642963 0.495022
O O14 0.500000 0.265424 0.500000
O O15 0.721782 0.326621 0.741837
O O16 0.681745 0.912983 0.254176
O O17 0.530079 0.904085 0.271542
O O18 0.618186 0.000000 0.284267
O O19 0.500000 0.877913 0.000000
#
# Coordination Sequence:
#
# PCOD9188696 Si02
#       8
#     8   8   8   8   8   8   8   8
#     4  10  22  40  64  87 114 155 205 253 291 338
#     4   9  17  31  56  88 108 143 190 238 291 342
#     4  11  23  38  56  87 125 155 189 238 299 364
#     4   9  20  37  59  88 111 151 200 244 295 342
#     4  11  21  37  60  86 120 157 199 240 285 348
#     4  10  21  40  63  88 114 152 206 252 289 341
#     4  12  25  37  55  89 127 161 193 235 295 359
#     4  10  19  36  61  84 115 150 197 248 291 345
#
# _framework density 18.675374000000001
#
# number of rings (size 3 to 8) (size 9 to 14) (size 15 to 20)
#    0.000    1.750    1.250    4.500    5.250    3.000 
#    0.000    1.875    0.000    3.750    0.000    0.000 
#    0.000    0.000    0.000    0.000    0.000    0.000 
#
# Total GULP energy -178738.528743 kJ/mol
# GULP energy per Si atom -5585.579023 kJ/mol
# Density = 1.863287 g / cm^3
# Si number density = 18.675374 Si / 1000 Ang^3
#
#
#
# Elastic Constant Matrix: (Units=GPa)
#
#
# Indices 1 2 3 4 5 6 
#
# 1 104.4536 36.0912 13.8401 0.0000 25.0181 0.0000
# 2 36.0912 68.6308 18.0504 0.0000 18.6942 0.0000
# 3 13.8401 18.0504 27.6793 0.0000 16.0476 0.0000
# 4 0.0000 0.0000 0.0000 12.4615 0.0001 0.9169
# 5 25.0181 18.6942 16.0476 0.0001 3.0790 0.0000
# 6 0.0000 0.0000 0.0000 0.9169 0.0000 28.5311
#
#
#
# Elastic Compliance Matrix: (Units=1/GPa)
#
#
# Indices 1 2 3 4 5 6 
#
# 1 0.009284 -0.006789 -0.009707 0.000000 0.016371 0.000000
# 2 -0.006789 0.019727 -0.013844 0.000000 0.007545 0.000000
# 3 -0.009707 -0.013844 0.021986 0.000000 0.048336 0.000000
# 4 0.000000 0.000000 0.000000 0.080437 0.000001 -0.002585
# 5 0.016371 0.007545 0.048336 0.000001 -0.105976 0.000000
# 6 0.000000 0.000000 0.000000 -0.002585 0.000000 0.035133
#
#
# Mechanical properties :
#
#
# Convention : Reuss Voigt Hill
#
# Bulk Modulus (GPa) = -103.28295 37.41413 -32.93441
# Shear Modulus (GPa) = 42.35768 17.66646 30.01207
#
# Velocity S-wave (km/s) = 4.76763 3.07901 4.01314
# Velocity P-wave (km/s) = 5.01172 5.71995 1.94942
#
# Compressibility (1/GPa) = -0.00968214
#
# Stress axis : x y z
#
# Youngs Moduli (GPa) = 107.70898 50.69249 45.48344
#
# Poissons Ratio (x) = 0.34414 0.44150
# Poissons Ratio (y) = 0.73121 0.62967
# Poissons Ratio (z) = 1.04551 0.70179
#
# Static dielectric constant tensor:
#      x y z
#    x 1.628070 0.000000 -0.003530 
#    y 0.000000 1.641090 0.000000 
#    z -0.003530 0.000000 1.626990 
# 
# From -- ./inp_files/272853.got.cif
#   From: 2010.05.17/outbox.cif.g08.bks.cpg/sg12_137_cif.got.tgz:272853.got - 2010.06.03 13:09:07.
