data_PCOD9188541
_publ_section_title
;
Structure prediction by ZEFSAII (Michael W. Deem and Ramdas Pophale) SiO2 
 PCOD9188541
Probable space group: C 2/M
;
_chemical_formula_sum "Si O2"
_cell_formula_units_Z 48
_cell_length_a 8.820070
_cell_length_b 27.747415
_cell_length_c 12.628052
_cell_angle_alpha 90.000000
_cell_angle_beta 123.693991
_cell_angle_gamma 90.000000
_cell_volume 2571.346916
_symmetry_space_group_name_H-M "C 2/M"
_symmetry_group_IT_number 12
_symmetry_cell_setting 'monoclinic'
loop_
_space_group_symop_operation_xyz
x,y,z
-x,y,-z
-x,-y,-z
x,-y,z
1/2+x,1/2+y,z
1/2-x,1/2+y,-z
1/2-x,1/2-y,-z
1/2+x,1/2-y,z
loop_
_atom_site_type_symbol
_atom_site_label
_atom_site_fract_x
_atom_site_fract_y
_atom_site_fract_z
Si Si1 0.580308 0.942291 0.285048
Si Si2 0.300874 0.773580 0.634490
Si Si3 0.482336 0.688226 0.304526
Si Si4 0.191527 0.386531 0.116401
Si Si5 0.654660 0.136695 0.470691
Si Si6 0.302036 0.442446 0.953135
O O1 0.664562 0.916827 0.213847
O O2 0.658452 0.915373 0.417846
O O3 0.363002 0.931749 0.191462
O O4 0.607220 0.000000 0.294901
O O5 0.250000 0.750000 0.500000
O O6 0.429910 0.731750 0.728959
O O7 0.132423 0.786571 0.644462
O O8 0.392913 0.824111 0.639225
O O9 0.339484 0.654565 0.190527
O O10 0.648040 0.654387 0.410779
O O11 0.249931 0.422769 0.047122
O O12 0.000000 0.365755 0.000000
O O13 0.500000 0.139293 0.500000
O O14 0.311866 0.500000 0.962453
O O15 0.500000 0.423052 0.000000
#
# Coordination Sequence:
#
# PCOD9188541 Si02
#       6
#     8   8   8   8   8   8
#     4  10  21  38  60  86 122 160 198 244 297 356
#     4  10  19  36  60  84 112 151 201 238 285 356
#     4  11  22  39  61  88 117 155 201 245 298 358
#     4  10  21  39  62  87 121 157 200 245 295 357
#     4  11  22  36  59  87 120 157 196 248 299 350
#     4   9  19  37  62  87 114 157 206 244 290 355
#
# _framework density 18.667259000000001
#
# number of rings (size 3 to 8) (size 9 to 14) (size 15 to 20)
#    0.000    1.833    1.667    4.500    2.333    2.333 
#    0.000    3.333    0.000    0.000    0.000    0.000 
#    0.000    0.000    0.000    0.000    0.000    0.000 
#
# Total GULP energy -133773.583030 kJ/mol
# GULP energy per Si atom -5573.899293 kJ/mol
# Density = 1.862477 g / cm^3
# Si number density = 18.667259 Si / 1000 Ang^3
#
#
#
# Elastic Constant Matrix: (Units=GPa)
#
#
# Indices 1 2 3 4 5 6 
#
# 1 107.3968 24.5977 39.5272 0.0000 8.9388 0.0000
# 2 24.5977 78.1115 28.2789 0.0000 17.2649 0.0000
# 3 39.5272 28.2789 48.2226 0.0000 14.3946 0.0000
# 4 0.0000 0.0000 0.0000 23.6576 0.0000 8.5771
# 5 8.9388 17.2649 14.3946 0.0000 20.4902 0.0000
# 6 0.0000 0.0000 0.0000 8.5771 0.0000 29.9268
#
#
#
# Elastic Compliance Matrix: (Units=1/GPa)
#
#
# Indices 1 2 3 4 5 6 
#
# 1 0.013452 -0.000706 -0.011437 0.000000 0.002761 0.000000
# 2 -0.000706 0.017667 -0.006871 0.000000 -0.009751 0.000000
# 3 -0.011437 -0.006871 0.039129 0.000000 -0.016710 0.000000
# 4 0.000000 0.000000 0.000000 0.047171 0.000000 -0.013519
# 5 0.002761 -0.009751 -0.016710 0.000000 0.067555 0.000000
# 6 0.000000 0.000000 0.000000 -0.013519 0.000000 0.037289
#
#
# Mechanical properties :
#
#
# Convention : Reuss Voigt Hill
#
# Bulk Modulus (GPa) = 31.03559 46.50428 38.76993
# Shear Modulus (GPa) = 18.44798 24.23673 21.34236
#
# Velocity S-wave (km/s) = 3.14706 3.60718 3.38495
# Velocity P-wave (km/s) = 5.46508 6.50502 6.00759
#
# Compressibility (1/GPa) = 0.03222108
#
# Stress axis : x y z
#
# Youngs Moduli (GPa) = 74.33577 56.60130 25.55646
#
# Poissons Ratio (x) = 0.03996 0.29229
# Poissons Ratio (y) = 0.05248 0.17560
# Poissons Ratio (z) = 0.85017 0.38892
#
# Static dielectric constant tensor:
#      x y z
#    x 1.674880 0.000000 0.033550 
#    y 0.000000 1.659330 0.000000 
#    z 0.033550 0.000000 1.667210 
# 
# From -- ./inp_files/123094.got.cif
#   From: 2010.05.17/outbox.cif.g08.bks.cpg/sg12_62_cif.got.tgz:123094.got - 2010.06.03 13:09:07.
