data_PCOD9188073
_publ_section_title
;
Structure prediction by ZEFSAII (Michael W. Deem and Ramdas Pophale) SiO2 
 PCOD9188073
Probable space group: C 2/M
;
_chemical_formula_sum "Si O2"
_cell_formula_units_Z 40
_cell_length_a 22.584912
_cell_length_b 18.592121
_cell_length_c 13.292827
_cell_angle_alpha 90.000000
_cell_angle_beta 18.817243
_cell_angle_gamma 90.000000
_cell_volume 1800.373073
_symmetry_space_group_name_H-M "C 2/M"
_symmetry_group_IT_number 12
_symmetry_cell_setting 'monoclinic'
loop_
_space_group_symop_operation_xyz
x,y,z
-x,y,-z
-x,-y,-z
x,-y,z
1/2+x,1/2+y,z
1/2-x,1/2+y,-z
1/2-x,1/2-y,-z
1/2+x,1/2-y,z
loop_
_atom_site_type_symbol
_atom_site_label
_atom_site_fract_x
_atom_site_fract_y
_atom_site_fract_z
Si Si1 0.269527 0.658187 0.930596
Si Si2 0.615240 0.299476 0.474934
Si Si3 0.797863 0.500000 0.699613
Si Si4 0.110533 0.417149 0.925908
Si Si5 0.614416 0.143754 0.522519
Si Si6 0.258056 0.000000 0.996740
O O1 0.317265 0.696712 0.749369
O O2 0.395900 0.689376 0.815538
O O3 0.317499 0.574188 0.840408
O O4 0.050048 0.655146 0.295629
O O5 0.709377 0.368395 0.373644
O O6 0.681712 0.225778 0.419758
O O7 0.755267 0.577402 0.717933
O O8 0.730550 0.500000 0.921337
O O9 0.021607 0.500000 0.339401
O O10 0.151792 0.500000 0.886618
O O11 0.000000 0.416622 0.000000
O O12 0.986187 0.382148 0.213949
#
# Coordination Sequence:
#
# PCOD9188073 Si02
#       6
#     8   8   4   8   8   4
#     4   9  20  33  51  82 120 146 176 222 272 332
#     4  10  21  32  58  81 114 145 181 228 279 319
#     4   9  18  32  51  73 107 151 186 209 265 330
#     4  10  22  40  60  81 107 144 192 238 279 325
#     4  10  19  36  55  82 110 147 185 226 270 341
#     4   9  18  29  48  75 110 154 184 209 252 332
#
# _framework density 22.217617000000001
#
# number of rings (size 3 to 8) (size 9 to 14) (size 15 to 20)
#    0.000    2.400    1.000    0.600    5.600   11.200 
#    0.000    0.000    0.000    0.000    0.000    2.100 
#    0.000    0.000    0.000    0.000    0.000    0.000 
#
# Total GULP energy -111577.789513 kJ/mol
# GULP energy per Si atom -5578.889476 kJ/mol
# Density = 2.216705 g / cm^3
# Si number density = 22.217617 Si / 1000 Ang^3
#
#
#
# Elastic Constant Matrix: (Units=GPa)
#
#
# Indices 1 2 3 4 5 6 
#
# 1 65.2140 41.7246 12.3563 -0.0013 2.1597 -0.0007
# 2 41.7246 216.9809 18.5422 -0.0001 10.8997 -0.0016
# 3 12.3563 18.5422 28.9187 0.0029 5.9013 -0.0047
# 4 -0.0013 -0.0001 0.0029 23.8701 -0.0020 13.8441
# 5 2.1597 10.8997 5.9013 -0.0020 21.5775 -0.0013
# 6 -0.0007 -0.0016 -0.0047 13.8441 -0.0013 21.5174
#
#
#
# Elastic Compliance Matrix: (Units=1/GPa)
#
#
# Indices 1 2 3 4 5 6 
#
# 1 0.018434 -0.003087 -0.006184 0.000004 0.001406 -0.000003
# 2 -0.003087 0.005453 -0.001777 0.000000 -0.001959 0.000000
# 3 -0.006184 -0.001777 0.040301 -0.000017 -0.009505 0.000019
# 4 0.000004 0.000000 -0.000017 0.066831 0.000008 -0.042999
# 5 0.001406 -0.001959 -0.009505 0.000008 0.049793 -0.000004
# 6 -0.000003 0.000000 0.000019 -0.042999 -0.000004 0.074139
#
#
# Mechanical properties :
#
#
# Convention : Reuss Voigt Hill
#
# Bulk Modulus (GPa) = 23.75776 50.70662 37.23219
# Shear Modulus (GPa) = 17.17746 29.29238 23.23492
#
# Velocity S-wave (km/s) = 2.78357 3.63496 3.23737
# Velocity P-wave (km/s) = 4.58775 6.36313 5.54693
#
# Compressibility (1/GPa) = 0.04209151
#
# Stress axis : x y z
#
# Youngs Moduli (GPa) = 54.24641 183.39805 24.81316
#
# Poissons Ratio (x) = 0.56615 0.15345
# Poissons Ratio (y) = 0.16746 0.04410
# Poissons Ratio (z) = 0.33546 0.32595
#
# Static dielectric constant tensor:
#      x y z
#    x 1.788580 0.000000 -0.021180 
#    y 0.000000 1.944080 0.000000 
#    z -0.021180 0.000000 1.890870 
# 
# From -- ./inp_files/189909.got.cif
#   From: 2010.05.17/outbox.cif.g08.bks.cpg/sg12_95_cif.got.tgz:189909.got - 2010.06.03 13:09:07.
