data_PCOD9188135
_publ_section_title
;
Structure prediction by ZEFSAII (Michael W. Deem and Ramdas Pophale) SiO2 
 PCOD9188135
Probable space group: C 2/M
;
_chemical_formula_sum "Si O2"
_cell_formula_units_Z 64
_cell_length_a 12.113369
_cell_length_b 14.617940
_cell_length_c 27.233570
_cell_angle_alpha 90.000000
_cell_angle_beta 145.041852
_cell_angle_gamma 90.000000
_cell_volume 2763.080842
_symmetry_space_group_name_H-M "C 2/M"
_symmetry_group_IT_number 12
_symmetry_cell_setting 'monoclinic'
loop_
_space_group_symop_operation_xyz
x,y,z
-x,y,-z
-x,-y,-z
x,-y,z
1/2+x,1/2+y,z
1/2-x,1/2+y,-z
1/2-x,1/2-y,-z
1/2+x,1/2-y,z
loop_
_atom_site_type_symbol
_atom_site_label
_atom_site_fract_x
_atom_site_fract_y
_atom_site_fract_z
Si Si1 0.260200 0.148897 0.976764
Si Si2 0.919224 0.111620 0.416904
Si Si3 0.002263 0.395112 0.723765
Si Si4 0.414332 0.627043 0.916646
Si Si5 0.893006 0.387922 0.344230
Si Si6 0.243047 0.888375 0.459565
Si Si7 0.673947 0.159713 0.115286
Si Si8 0.427795 0.610681 0.704172
O O1 0.258273 0.141657 0.916398
O O2 0.071461 0.103227 0.932103
O O3 0.250000 0.250000 0.000000
O O4 0.479042 0.111839 0.064329
O O5 0.698607 0.143223 0.329203
O O6 0.000000 0.136994 0.500000
O O7 0.067206 0.142707 0.429570
O O8 0.927181 0.000000 0.417289
O O9 0.950504 0.500000 0.693121
O O10 0.194064 0.400057 0.826032
O O11 0.058864 0.352444 0.692171
O O12 0.389959 0.735844 0.909776
O O13 0.500000 0.597910 0.000000
O O14 0.891244 0.500000 0.342507
O O15 0.685891 0.360175 0.288659
O O16 0.057948 0.360846 0.442809
O O17 0.197652 0.859146 0.388021
O O18 0.247456 0.000000 0.460432
O O19 0.855762 0.145527 0.215995
O O20 0.437851 0.500000 0.706955
#
# Coordination Sequence:
#
# PCOD9188135 Si02
#       8
#     8   8   8   8   8   8   8   8
#     4   9  17  36  57  73  91 131 180 214 240 308
#     4   9  15  28  49  72 104 140 174 210 247 302
#     4  10  20  32  52  82 106 131 170 215 263 305
#     4  11  21  36  57  75  99 136 176 216 257 311
#     4   9  16  30  51  75 106 138 171 209 253 311
#     4   9  16  28  48  74 105 142 173 205 253 309
#     4  10  19  36  57  75  99 136 175 214 254 313
#     4  10  20  31  49  81 110 131 169 219 262 303
#
# _framework density 23.16255
#
# number of rings (size 3 to 8) (size 9 to 14) (size 15 to 20)
#    0.000    2.375    3.750    1.125    0.000    2.750 
#    0.000    1.875    0.000    2.250    0.000    0.000 
#    0.000    0.000    0.000    0.000    0.000    0.000 
#
# Total GULP energy -178495.290788 kJ/mol
# GULP energy per Si atom -5577.977837 kJ/mol
# Density = 2.310983 g / cm^3
# Si number density = 23.162550 Si / 1000 Ang^3
#
#
#
# Elastic Constant Matrix: (Units=GPa)
#
#
# Indices 1 2 3 4 5 6 
#
# 1 105.0062 -1.6546 35.7240 0.0000 33.4492 0.0000
# 2 -1.6546 55.8173 -2.4868 0.0000 1.4858 0.0000
# 3 35.7240 -2.4868 146.5139 -0.0001 30.2805 0.0000
# 4 0.0000 0.0000 -0.0001 18.2240 0.0000 5.8803
# 5 33.4492 1.4858 30.2805 0.0000 41.5642 0.0000
# 6 0.0000 0.0000 0.0000 5.8803 0.0000 -1.2502
#
#
#
# Elastic Compliance Matrix: (Units=1/GPa)
#
#
# Indices 1 2 3 4 5 6 
#
# 1 0.012998 0.000590 -0.001169 0.000000 -0.009629 0.000000
# 2 0.000590 0.017992 0.000462 0.000000 -0.001454 0.000000
# 3 -0.001169 0.000462 0.008155 0.000000 -0.005017 0.000000
# 4 0.000000 0.000000 0.000000 0.021795 0.000000 0.102512
# 5 -0.009629 -0.001454 -0.005017 0.000000 0.035515 0.000000
# 6 0.000000 0.000000 0.000000 0.102512 0.000000 -0.317701
#
#
# Mechanical properties :
#
#
# Convention : Reuss Voigt Hill
#
# Bulk Modulus (GPa) = 25.70000 41.16695 33.43348
# Shear Modulus (GPa) = -24.03383 30.09126 3.02871
#
# Velocity S-wave (km/s) = -3.22470 3.60826 1.14474
# Velocity P-wave (km/s) = 1.65690 5.93052 4.02652
#
# Compressibility (1/GPa) = 0.03891050
#
# Stress axis : x y z
#
# Youngs Moduli (GPa) = 76.93702 55.57907 122.62373
#
# Poissons Ratio (x) = -0.03277 0.14335
# Poissons Ratio (y) = -0.04536 -0.05668
# Poissons Ratio (z) = 0.08994 -0.02569
#
# Static dielectric constant tensor:
#      x y z
#    x 1.865050 0.000000 0.023790 
#    y 0.000000 1.963370 0.000000 
#    z 0.023790 0.000000 1.866040 
# 
# From -- ./inp_files/359011.got.cif
#   From: 2010.05.17/outbox.cif.g08.bks.cpg/sg12_180_cif.got.tgz:359011.got - 2010.06.03 13:09:07.
