data_PCOD9188415
_publ_section_title
;
Structure prediction by ZEFSAII (Michael W. Deem and Ramdas Pophale) SiO2 
 PCOD9188415
Probable space group: C 2/M
;
_chemical_formula_sum "Si O2"
_cell_formula_units_Z 64
_cell_length_a 10.407923
_cell_length_b 18.003585
_cell_length_c 32.792772
_cell_angle_alpha 90.000000
_cell_angle_beta 36.288020
_cell_angle_gamma 90.000000
_cell_volume 3636.712109
_symmetry_space_group_name_H-M "C 2/M"
_symmetry_group_IT_number 12
_symmetry_cell_setting 'monoclinic'
loop_
_space_group_symop_operation_xyz
x,y,z
-x,y,-z
-x,-y,-z
x,-y,z
1/2+x,1/2+y,z
1/2-x,1/2+y,-z
1/2-x,1/2-y,-z
1/2+x,1/2-y,z
loop_
_atom_site_type_symbol
_atom_site_label
_atom_site_fract_x
_atom_site_fract_y
_atom_site_fract_z
Si Si1 0.438423 0.846560 0.221512
Si Si2 0.406099 0.167904 0.134735
Si Si3 0.162279 0.318021 0.495875
Si Si4 0.506126 0.414675 0.639398
Si Si5 0.674281 0.086989 0.366510
Si Si6 0.898646 0.154885 0.143043
Si Si7 0.412542 0.669338 0.234680
Si Si8 0.651595 0.911713 0.999790
O O1 0.443147 0.857000 0.171621
O O2 0.671211 0.865567 0.180669
O O3 0.392360 0.758850 0.241248
O O4 0.242066 0.891793 0.291384
O O5 0.435194 0.257041 0.125971
O O6 0.157883 0.151235 0.185744
O O7 0.563621 0.129344 0.062250
O O8 0.250000 0.250000 0.500000
O O9 0.363168 0.361452 0.424342
O O10 0.000000 0.296029 0.500000
O O11 0.025439 0.373221 0.559840
O O12 0.527873 0.500000 0.620674
O O13 0.626247 0.407769 0.652419
O O14 0.745756 0.129908 0.307666
O O15 0.631878 0.000000 0.369900
O O16 0.883426 0.144891 0.195538
O O17 0.103310 0.111173 0.073149
O O18 0.633748 0.000000 0.009655
O O19 0.500000 0.889994 0.000000
#
# Coordination Sequence:
#
# PCOD9188415 Si02
#       8
#     8   8   8   8   8   8   8   8
#     4  10  21  36  58  86 113 148 189 234 282 335
#     4  10  20  38  60  82 110 150 191 231 279 339
#     4  10  21  39  62  87 115 152 195 238 279 327
#     4  10  20  36  59  86 118 152 187 232 284 337
#     4  10  20  35  60  89 115 149 193 234 276 336
#     4  10  22  38  58  83 115 147 188 237 282 335
#     4  10  19  36  59  84 113 147 192 233 275 336
#     4  11  23  38  58  83 113 148 189 236 287 342
#
# _framework density 17.598313999999998
#
# number of rings (size 3 to 8) (size 9 to 14) (size 15 to 20)
#    0.000    1.875    2.500    1.500    0.000    4.000 
#    2.250    0.625    0.000    0.750    0.000    0.000 
#    0.000    0.000    0.000    0.000    0.000    0.000 
#
# Total GULP energy -178698.618916 kJ/mol
# GULP energy per Si atom -5584.331841 kJ/mol
# Density = 1.755826 g / cm^3
# Si number density = 17.598314 Si / 1000 Ang^3
#
#
#
# Elastic Constant Matrix: (Units=GPa)
#
#
# Indices 1 2 3 4 5 6 
#
# 1 126.6250 56.5819 69.3183 -0.0178 5.5764 -0.0076
# 2 56.5819 69.0195 63.1349 -0.0029 10.5032 0.0011
# 3 69.3183 63.1349 129.2163 -0.0304 13.0858 -0.0164
# 4 -0.0178 -0.0029 -0.0304 -1.6976 0.0155 -14.2191
# 5 5.5764 10.5032 13.0858 0.0155 28.6615 0.0060
# 6 -0.0076 0.0011 -0.0164 -14.2191 0.0060 12.8182
#
#
#
# Elastic Compliance Matrix: (Units=1/GPa)
#
#
# Indices 1 2 3 4 5 6 
#
# 1 0.013269 -0.008102 -0.003354 -0.000007 0.001919 -0.000005
# 2 -0.008102 0.031575 -0.010557 0.000032 -0.005175 0.000017
# 3 -0.003354 -0.010557 0.014929 -0.000038 -0.002295 -0.000024
# 4 -0.000007 0.000032 -0.000038 -0.057239 0.000052 -0.063494
# 5 0.001919 -0.005175 -0.002295 0.000052 0.037461 0.000038
# 6 -0.000005 0.000017 -0.000024 -0.063494 0.000038 0.007580
#
#
# Mechanical properties :
#
#
# Convention : Reuss Voigt Hill
#
# Bulk Modulus (GPa) = 63.50482 78.10343 70.80413
# Shear Modulus (GPa) = 51.62562 17.01146 34.31854
#
# Velocity S-wave (km/s) = 5.42211 3.11248 4.42079
# Velocity P-wave (km/s) = 8.68119 7.57590 8.14731
#
# Compressibility (1/GPa) = 0.01574684
#
# Stress axis : x y z
#
# Youngs Moduli (GPa) = 75.36200 31.67036 66.98455
#
# Poissons Ratio (x) = 0.25660 0.22466
# Poissons Ratio (y) = 0.61059 0.70717
# Poissons Ratio (z) = 0.25276 0.33435
#
# Static dielectric constant tensor:
#      x y z
#    x 1.587710 0.000000 -0.001770 
#    y 0.000000 1.584140 0.000000 
#    z -0.001770 0.000000 1.563670 
# 
# From -- ./inp_files/372882.got.cif
#   From: 2010.05.17/outbox.cif.g08.bks.cpg/sg12_187_cif.got.tgz:372882.got - 2010.06.03 13:09:07.
