data_PCOD9188203
_publ_section_title
;
Structure prediction by ZEFSAII (Michael W. Deem and Ramdas Pophale) SiO2 
 PCOD9188203
Probable space group: C 2/M
;
_chemical_formula_sum "Si O2"
_cell_formula_units_Z 64
_cell_length_a 31.341021
_cell_length_b 19.618527
_cell_length_c 10.113400
_cell_angle_alpha 90.000000
_cell_angle_beta 35.748662
_cell_angle_gamma 90.000000
_cell_volume 3632.964096
_symmetry_space_group_name_H-M "C 2/M"
_symmetry_group_IT_number 12
_symmetry_cell_setting 'monoclinic'
loop_
_space_group_symop_operation_xyz
x,y,z
-x,y,-z
-x,-y,-z
x,-y,z
1/2+x,1/2+y,z
1/2-x,1/2+y,-z
1/2-x,1/2-y,-z
1/2+x,1/2-y,z
loop_
_atom_site_type_symbol
_atom_site_label
_atom_site_fract_x
_atom_site_fract_y
_atom_site_fract_z
Si Si1 0.794779 0.578033 0.723935
Si Si2 0.712918 0.079653 0.946493
Si Si3 0.199439 0.823046 0.778310
Si Si4 0.946019 0.767172 0.250852
Si Si5 0.787748 0.816870 0.563797
Si Si6 0.944818 0.621241 0.756501
Si Si7 0.538698 0.896323 0.768973
Si Si8 0.460372 0.715072 0.735795
O O1 0.768214 0.500000 0.780053
O O2 0.748912 0.627577 0.744002
O O3 0.880388 0.577922 0.467983
O O4 0.788485 0.599803 0.894326
O O5 0.764180 0.125126 0.725317
O O6 0.731695 0.000000 0.893255
O O7 0.632756 0.091511 0.087241
O O8 0.206445 0.839929 0.604221
O O9 0.230774 0.746007 0.712377
O O10 0.115355 0.822071 0.037944
O O11 0.865235 0.788454 0.416643
O O12 0.950176 0.685303 0.247508
O O13 0.979178 0.794442 0.303075
O O14 0.000000 0.790340 0.000000
O O15 0.941414 0.703705 0.778446
O O16 0.000000 0.606034 0.500000
O O17 0.981331 0.591988 0.796110
O O18 0.500000 0.920316 0.000000
O O19 0.500000 0.696248 0.500000
#
# Coordination Sequence:
#
# PCOD9188203 Si02
#       8
#     8   8   8   8   8   8   8   8
#     4  11  25  42  57  84 126 166 202 246 298 353
#     4  11  25  41  59  85 122 167 206 245 293 351
#     4  11  23  39  61  92 122 155 199 250 302 355
#     4  10  19  36  58  88 121 152 192 250 299 347
#     4  11  23  38  64  90 119 158 202 249 298 353
#     4  10  19  36  57  85 122 160 201 239 281 352
#     4  10  21  34  58  87 122 159 198 237 291 356
#     4  10  21  34  58  92 121 149 194 246 301 354
#
# _framework density 17.61647
#
# number of rings (size 3 to 8) (size 9 to 14) (size 15 to 20)
#    0.000    1.500    5.000    0.000    3.500    2.000 
#    0.000    0.000    0.000    1.500    0.000    0.000 
#    0.000    0.000    0.000    0.000    0.000    0.000 
#
# Total GULP energy -178621.918642 kJ/mol
# GULP energy per Si atom -5581.934958 kJ/mol
# Density = 1.757637 g / cm^3
# Si number density = 17.616470 Si / 1000 Ang^3
#
#
#
# Elastic Constant Matrix: (Units=GPa)
#
#
# Indices 1 2 3 4 5 6 
#
# 1 144.2787 38.9786 66.1249 0.0000 23.1022 0.0000
# 2 38.9786 47.4105 34.6862 0.0000 13.8678 0.0000
# 3 66.1249 34.6862 124.1751 0.0000 17.8903 0.0000
# 4 0.0000 0.0000 0.0000 34.1329 0.0000 12.0765
# 5 23.1022 13.8678 17.8903 0.0000 38.6016 0.0000
# 6 0.0000 0.0000 0.0000 12.0765 0.0000 21.5618
#
#
#
# Elastic Compliance Matrix: (Units=1/GPa)
#
#
# Indices 1 2 3 4 5 6 
#
# 1 0.010454 -0.005049 -0.003768 0.000000 -0.002696 0.000000
# 2 -0.005049 0.030578 -0.005042 0.000000 -0.005627 0.000000
# 3 -0.003768 -0.005042 0.011661 0.000000 -0.001338 0.000000
# 4 0.000000 0.000000 0.000000 0.036538 0.000000 -0.020464
# 5 -0.002696 -0.005627 -0.001338 0.000000 0.030161 0.000000
# 6 0.000000 0.000000 0.000000 -0.020464 0.000000 0.057840
#
#
# Mechanical properties :
#
#
# Convention : Reuss Voigt Hill
#
# Bulk Modulus (GPa) = 40.04107 66.16043 53.10075
# Shear Modulus (GPa) = 23.44393 30.59755 27.02074
#
# Velocity S-wave (km/s) = 3.65197 4.17210 3.92067
# Velocity P-wave (km/s) = 6.36876 7.80039 7.12065
#
# Compressibility (1/GPa) = 0.02497436
#
# Stress axis : x y z
#
# Youngs Moduli (GPa) = 95.65956 32.70284 85.75763
#
# Poissons Ratio (x) = 0.16513 0.32312
# Poissons Ratio (y) = 0.48301 0.43240
# Poissons Ratio (z) = 0.36043 0.16489
#
# Static dielectric constant tensor:
#      x y z
#    x 1.543540 0.000000 0.022530 
#    y 0.000000 1.596250 0.000000 
#    z 0.022530 0.000000 1.601220 
# 
# From -- ./inp_files/99065.got.cif
#   From: 2010.05.17/outbox.cif.g08.bks.cpg/sg12_50_cif.got.tgz:99065.got - 2010.06.03 13:09:07.
