data_PCOD9188587
_publ_section_title
;
Structure prediction by ZEFSAII (Michael W. Deem and Ramdas Pophale) SiO2 
 PCOD9188587
Probable space group: C 2/M
;
_chemical_formula_sum "Si O2"
_cell_formula_units_Z 52
_cell_length_a 15.736023
_cell_length_b 18.277759
_cell_length_c 15.620192
_cell_angle_alpha 90.000000
_cell_angle_beta 39.167397
_cell_angle_gamma 90.000000
_cell_volume 2837.516052
_symmetry_space_group_name_H-M "C 2/M"
_symmetry_group_IT_number 12
_symmetry_cell_setting 'monoclinic'
loop_
_space_group_symop_operation_xyz
x,y,z
-x,y,-z
-x,-y,-z
x,-y,z
1/2+x,1/2+y,z
1/2-x,1/2+y,-z
1/2-x,1/2-y,-z
1/2+x,1/2-y,z
loop_
_atom_site_type_symbol
_atom_site_label
_atom_site_fract_x
_atom_site_fract_y
_atom_site_fract_z
Si Si1 0.541270 0.231361 0.651962
Si Si2 0.766665 0.837741 0.596256
Si Si3 0.730688 0.152091 0.155356
Si Si4 0.919868 0.000000 0.806746
Si Si5 0.893056 0.000000 0.503043
Si Si6 0.328518 0.337404 0.886204
Si Si7 0.846809 0.716137 0.135792
Si Si8 0.872698 0.000000 0.038771
O O1 0.651340 0.183125 0.616635
O O2 0.611394 0.283124 0.526120
O O3 0.422883 0.178002 0.710914
O O4 0.466466 0.290621 0.772242
O O5 0.709911 0.815828 0.732836
O O6 0.811303 0.922884 0.567104
O O7 0.823311 0.197014 0.148898
O O8 0.775331 0.069004 0.126756
O O9 0.765389 0.171616 0.029082
O O10 0.845765 0.076953 0.853467
O O11 0.033912 0.000000 0.646083
O O12 0.942930 0.000000 0.890343
O O13 0.000000 0.000000 0.500000
O O14 0.237946 0.310215 0.879249
O O15 0.000000 0.696794 0.000000
O O16 0.000000 0.000000 0.000000
#
# Coordination Sequence:
#
# PCOD9188587 Si02
#       8
#     8   8   8   4   4   8   8   4
#     4  10  21  39  57  86 120 158 207 242 310 354
#     4  11  24  38  62  88 121 161 204 255 298 385
#     4  10  21  36  61  84 120 157 200 256 303 361
#     4  10  20  38  61  83 127 158 202 256 303 361
#     4  12  24  41  62  92 125 167 204 246 315 378
#     4  10  19  36  60  86 116 160 200 246 307 363
#     4  11  21  36  59  88 120 155 204 254 308 359
#     4  10  22  39  61  94 118 162 212 255 311 373
#
# _framework density 18.325887999999999
#
# number of rings (size 3 to 8) (size 9 to 14) (size 15 to 20)
#    0.000    1.538    1.538    5.077    2.154    1.846 
#    0.000    3.077    0.000    1.846    0.000    0.000 
#    0.000    0.000    0.000    0.000    0.000    0.000 
#
# Total GULP energy -144909.841254 kJ/mol
# GULP energy per Si atom -5573.455433 kJ/mol
# Density = 1.828418 g / cm^3
# Si number density = 18.325888 Si / 1000 Ang^3
#
#
#
# Elastic Constant Matrix: (Units=GPa)
#
#
# Indices 1 2 3 4 5 6 
#
# 1 64.7688 61.4320 44.8550 0.0001 -8.2119 0.0000
# 2 61.4320 160.4210 73.7598 0.0001 7.3025 0.0000
# 3 44.8550 73.7598 137.2299 0.0002 -3.4597 0.0000
# 4 0.0001 0.0001 0.0002 37.5950 -0.0001 -16.4229
# 5 -8.2119 7.3025 -3.4597 -0.0001 21.0560 -0.0001
# 6 0.0000 0.0000 0.0000 -16.4229 -0.0001 48.3002
#
#
#
# Elastic Compliance Matrix: (Units=1/GPa)
#
#
# Indices 1 2 3 4 5 6 
#
# 1 0.029650 -0.010262 -0.003810 0.000000 0.014496 0.000000
# 2 -0.010262 0.012116 -0.003379 0.000000 -0.008759 0.000000
# 3 -0.003810 -0.003379 0.010383 0.000000 0.001392 0.000000
# 4 0.000000 0.000000 0.000000 0.031239 0.000000 0.010622
# 5 0.014496 -0.008759 0.001392 0.000000 0.056413 0.000000
# 6 0.000000 0.000000 0.000000 0.010622 0.000000 0.024315
#
#
# Mechanical properties :
#
#
# Convention : Reuss Voigt Hill
#
# Bulk Modulus (GPa) = 57.98061 80.27925 69.12993
# Shear Modulus (GPa) = 24.41807 33.54843 28.98325
#
# Velocity S-wave (km/s) = 3.65421 4.28326 3.98118
# Velocity P-wave (km/s) = 7.03645 8.26821 7.67708
#
# Compressibility (1/GPa) = 0.01724715
#
# Stress axis : x y z
#
# Youngs Moduli (GPa) = 33.72734 82.53843 96.30773
#
# Poissons Ratio (x) = 0.84702 0.36693
# Poissons Ratio (y) = 0.34612 0.32538
# Poissons Ratio (z) = 0.12850 0.27886
#
# Static dielectric constant tensor:
#      x y z
#    x 1.621970 0.000000 -0.014490 
#    y 0.000000 1.396650 0.000000 
#    z -0.014490 0.000000 1.641320 
# 
# From -- ./inp_files/216733.got.cif
#   From: 2010.05.17/outbox.cif.g08.bks.cpg/sg12_109_cif.got.tgz:216733.got - 2010.06.03 13:09:07.
