data_PCOD9188314
_publ_section_title
;
Structure prediction by ZEFSAII (Michael W. Deem and Ramdas Pophale) SiO2 
 PCOD9188314
Probable space group: C 2/M
;
_chemical_formula_sum "Si O2"
_cell_formula_units_Z 64
_cell_length_a 10.183117
_cell_length_b 23.492727
_cell_length_c 14.124187
_cell_angle_alpha 90.000000
_cell_angle_beta 88.218294
_cell_angle_gamma 90.000000
_cell_volume 3377.284206
_symmetry_space_group_name_H-M "C 2/M"
_symmetry_group_IT_number 12
_symmetry_cell_setting 'monoclinic'
loop_
_space_group_symop_operation_xyz
x,y,z
-x,y,-z
-x,-y,-z
x,-y,z
1/2+x,1/2+y,z
1/2-x,1/2+y,-z
1/2-x,1/2-y,-z
1/2+x,1/2-y,z
loop_
_atom_site_type_symbol
_atom_site_label
_atom_site_fract_x
_atom_site_fract_y
_atom_site_fract_z
Si Si1 0.770556 0.566236 0.908946
Si Si2 0.340562 0.832149 0.507736
Si Si3 0.232931 0.261414 0.653874
Si Si4 0.493406 0.885534 0.214203
Si Si5 0.401849 0.062952 0.591936
Si Si6 0.021758 0.250405 0.226981
Si Si7 0.269658 0.432575 0.864361
Si Si8 0.022366 0.860403 0.887176
O O1 0.739925 0.500000 0.889683
O O2 0.660774 0.608112 0.867894
O O3 0.909139 0.583037 0.860924
O O4 0.767417 0.572754 0.022925
O O5 0.500000 0.828608 0.500000
O O6 0.292894 0.784371 0.580984
O O7 0.284083 0.818930 0.405874
O O8 0.298870 0.892174 0.552851
O O9 0.333348 0.264077 0.738206
O O10 0.088551 0.243132 0.689681
O O11 0.532472 0.907102 0.318446
O O12 0.512850 0.817495 0.202976
O O13 0.346474 0.904451 0.193074
O O14 0.500000 0.057144 0.500000
O O15 0.356071 0.000000 0.619258
O O16 0.984617 0.204018 0.149390
O O17 0.282341 0.500000 0.844012
O O18 0.405175 0.398660 0.847122
O O19 0.000000 0.860388 0.000000
#
# Coordination Sequence:
#
# PCOD9188314 Si02
#       8
#     8   8   8   8   8   8   8   8
#     4  10  21  39  62  86 114 152 201 248 292 345
#     4  10  19  36  58  86 113 143 191 240 289 339
#     4  11  21  37  59  84 115 150 194 241 282 341
#     4  12  22  37  58  91 119 150 196 246 293 348
#     4  10  20  35  55  84 119 152 188 238 296 349
#     4  12  23  38  58  86 122 156 194 237 290 351
#     4  10  21  39  62  87 115 152 198 248 294 344
#     4  10  23  39  57  83 120 161 193 233 293 357
#
# _framework density 18.950137000000002
#
# number of rings (size 3 to 8) (size 9 to 14) (size 15 to 20)
#    0.000    1.375    2.500    4.125    0.000    3.500 
#    0.000    3.125    0.000    0.750    0.000    0.875 
#    0.000    0.375    0.000    0.000    0.000    0.000 
#
# Total GULP energy -178555.642101 kJ/mol
# GULP energy per Si atom -5579.863816 kJ/mol
# Density = 1.890701 g / cm^3
# Si number density = 18.950137 Si / 1000 Ang^3
#
#
#
# Elastic Constant Matrix: (Units=GPa)
#
#
# Indices 1 2 3 4 5 6 
#
# 1 49.4032 22.5024 1.8525 0.0000 10.5505 0.0000
# 2 22.5024 144.7190 24.3933 0.0000 25.7050 0.0000
# 3 1.8525 24.3933 23.9736 0.0000 8.6902 0.0000
# 4 0.0000 0.0000 0.0000 31.6263 0.0000 -7.9853
# 5 10.5505 25.7050 8.6902 0.0000 28.0884 0.0000
# 6 0.0000 0.0000 0.0000 -7.9853 0.0000 45.6190
#
#
#
# Elastic Compliance Matrix: (Units=1/GPa)
#
#
# Indices 1 2 3 4 5 6 
#
# 1 0.022959 -0.002949 0.003801 0.000000 -0.007101 0.000000
# 2 -0.002949 0.009596 -0.007607 0.000000 -0.005320 0.000000
# 3 0.003801 -0.007607 0.053110 0.000000 -0.010897 0.000000
# 4 0.000000 0.000000 0.000000 0.033081 0.000000 0.005791
# 5 -0.007101 -0.005320 -0.010897 0.000000 0.046509 0.000000
# 6 0.000000 0.000000 0.000000 0.005791 0.000000 0.022934
#
#
# Mechanical properties :
#
#
# Convention : Reuss Voigt Hill
#
# Bulk Modulus (GPa) = 13.85953 35.06579 24.46266
# Shear Modulus (GPa) = 22.14821 32.35655 27.25238
#
# Velocity S-wave (km/s) = 3.42243 4.13662 3.79636
# Velocity P-wave (km/s) = 4.79029 6.43117 5.67040
#
# Compressibility (1/GPa) = 0.07215251
#
# Stress axis : x y z
#
# Youngs Moduli (GPa) = 43.55613 104.21274 18.82896
#
# Poissons Ratio (x) = 0.30736 -0.07156
# Poissons Ratio (y) = 0.12846 0.14324
# Poissons Ratio (z) = -0.16555 0.79279
#
# Static dielectric constant tensor:
#      x y z
#    x 1.649600 0.000000 0.001570 
#    y 0.000000 1.691690 0.000000 
#    z 0.001570 0.000000 1.671620 
# 
# From -- ./inp_files/198897.got.cif
#   From: 2010.05.17/outbox.cif.g08.bks.cpg/sg12_100_cif.got.tgz:198897.got - 2010.06.03 13:09:07.
