data_PCOD9188302
_publ_section_title
;
Structure prediction by ZEFSAII (Michael W. Deem and Ramdas Pophale) SiO2 
 PCOD9188302
Probable space group: C 2/M
;
_chemical_formula_sum "Si O2"
_cell_formula_units_Z 48
_cell_length_a 28.298663
_cell_length_b 14.300363
_cell_length_c 14.967666
_cell_angle_alpha 90.000000
_cell_angle_beta 157.814890
_cell_angle_gamma 90.000000
_cell_volume 2287.174136
_symmetry_space_group_name_H-M "C 2/M"
_symmetry_group_IT_number 12
_symmetry_cell_setting 'monoclinic'
loop_
_space_group_symop_operation_xyz
x,y,z
-x,y,-z
-x,-y,-z
x,-y,z
1/2+x,1/2+y,z
1/2-x,1/2+y,-z
1/2-x,1/2-y,-z
1/2+x,1/2-y,z
loop_
_atom_site_type_symbol
_atom_site_label
_atom_site_fract_x
_atom_site_fract_y
_atom_site_fract_z
Si Si1 0.165510 0.889550 0.059931
Si Si2 0.778858 0.609629 0.617361
Si Si3 0.633526 0.309454 0.198177
Si Si4 0.097754 0.889984 0.468332
Si Si5 0.859673 0.852213 0.264832
Si Si6 0.141834 0.363190 0.756330
O O1 0.165359 0.839097 0.154093
O O2 0.287566 0.877463 0.213757
O O3 0.146217 0.000000 0.042560
O O4 0.043866 0.855144 0.791879
O O5 0.819393 0.500000 0.689237
O O6 0.730596 0.641491 0.435687
O O7 0.866829 0.696442 0.797679
O O8 0.668576 0.619156 0.498276
O O9 0.500000 0.343849 0.000000
O O10 0.163835 0.846214 0.670042
O O11 0.093758 0.000000 0.481780
O O12 0.871501 0.747229 0.248930
O O13 0.000000 0.894504 0.500000
O O14 0.742791 0.896751 0.007479
O O15 0.000000 0.399465 0.500000
#
# Coordination Sequence:
#
# PCOD9188302 Si02
#       6
#     8   8   8   8   8   8
#     4  11  22  37  61  92 124 164 214 265 317 381
#     4  10  22  40  61  92 129 164 210 261 315 385
#     4  11  22  39  65  93 126 168 207 261 327 379
#     4  10  20  35  59  88 118 158 212 266 310 370
#     4  10  19  36  58  84 118 162 214 264 317 380
#     4  10  22  38  58  86 124 166 209 262 322 381
#
# _framework density 20.986598000000001
#
# number of rings (size 3 to 8) (size 9 to 14) (size 15 to 20)
#    0.000    1.667    3.333    1.500    0.000    2.333 
#    0.000    0.000    0.000    4.000    0.000    0.000 
#    0.000    0.000    0.000    0.000    0.000    0.000 
#
# Total GULP energy -133844.791919 kJ/mol
# GULP energy per Si atom -5576.866330 kJ/mol
# Density = 2.093883 g / cm^3
# Si number density = 20.986598 Si / 1000 Ang^3
#
#
#
# Elastic Constant Matrix: (Units=GPa)
#
#
# Indices 1 2 3 4 5 6 
#
# 1 138.4895 24.9454 75.6369 0.0000 -14.5873 0.0000
# 2 24.9454 103.0566 28.8599 0.0000 -11.4847 0.0000
# 3 75.6369 28.8599 144.8800 0.0000 -5.4837 0.0000
# 4 0.0000 0.0000 0.0000 1.9801 0.0000 1.7990
# 5 -14.5873 -11.4847 -5.4837 0.0000 33.7455 0.0000
# 6 0.0000 0.0000 0.0000 1.7990 0.0000 38.1488
#
#
#
# Elastic Compliance Matrix: (Units=1/GPa)
#
#
# Indices 1 2 3 4 5 6 
#
# 1 0.010583 -0.000703 -0.005253 0.000000 0.003482 0.000000
# 2 -0.000703 0.010675 -0.001644 0.000000 0.003062 0.000000
# 3 -0.005253 -0.001644 0.009926 0.000000 -0.001217 0.000000
# 4 0.000000 0.000000 0.000000 0.527640 0.000000 -0.024881
# 5 0.003482 0.003062 -0.001217 0.000000 0.031983 0.000000
# 6 0.000000 0.000000 0.000000 -0.024881 0.000000 0.027386
#
#
# Mechanical properties :
#
#
# Convention : Reuss Voigt Hill
#
# Bulk Modulus (GPa) = 62.55823 71.70116 67.12969
# Shear Modulus (GPa) = 7.82813 31.90714 19.86764
#
# Velocity S-wave (km/s) = 1.93343 3.90341 3.08016
# Velocity P-wave (km/s) = 5.90403 7.38612 6.68627
#
# Compressibility (1/GPa) = 0.01598511
#
# Stress axis : x y z
#
# Youngs Moduli (GPa) = 94.48867 93.67654 100.74278
#
# Poissons Ratio (x) = 0.06581 0.52925
# Poissons Ratio (y) = 0.06638 0.16560
# Poissons Ratio (z) = 0.49639 0.15398
#
# Static dielectric constant tensor:
#      x y z
#    x 1.731720 0.000000 0.002920 
#    y 0.000000 1.777490 0.000000 
#    z 0.002920 0.000000 1.797450 
# 
# From -- ./inp_files/251521.got.cif
#   From: 2010.05.17/outbox.cif.g08.bks.cpg/sg12_126_cif.got.tgz:251521.got - 2010.06.03 13:09:07.
