data_PCOD9188704
_publ_section_title
;
Structure prediction by ZEFSAII (Michael W. Deem and Ramdas Pophale) SiO2 
 PCOD9188704
Probable space group: C 2/M
;
_chemical_formula_sum "Si O2"
_cell_formula_units_Z 64
_cell_length_a 20.585051
_cell_length_b 8.243898
_cell_length_c 18.905177
_cell_angle_alpha 90.000000
_cell_angle_beta 98.023260
_cell_angle_gamma 90.000000
_cell_volume 3176.824807
_symmetry_space_group_name_H-M "C 2/M"
_symmetry_group_IT_number 12
_symmetry_cell_setting 'monoclinic'
loop_
_space_group_symop_operation_xyz
x,y,z
-x,y,-z
-x,-y,-z
x,-y,z
1/2+x,1/2+y,z
1/2-x,1/2+y,-z
1/2-x,1/2-y,-z
1/2+x,1/2-y,z
loop_
_atom_site_type_symbol
_atom_site_label
_atom_site_fract_x
_atom_site_fract_y
_atom_site_fract_z
Si Si1 0.153179 0.193591 0.780477
Si Si2 0.426248 0.698229 0.975309
Si Si3 0.310313 0.694398 0.557142
Si Si4 0.993185 0.306157 0.276995
Si Si5 0.310062 0.695773 0.058444
Si Si6 0.270268 0.696083 0.707955
Si Si7 0.105439 0.195655 0.186424
Si Si8 0.541924 0.804404 0.438819
O O1 0.185202 0.253883 0.859601
O O2 0.200374 0.243092 0.723584
O O3 0.079896 0.256756 0.756676
O O4 0.149555 0.000000 0.784207
O O5 0.426278 0.500000 0.975051
O O6 0.403812 0.754128 0.894735
O O7 0.500000 0.752373 0.000000
O O8 0.376265 0.748661 0.028473
O O9 0.313624 0.500000 0.557400
O O10 0.250000 0.750000 0.500000
O O11 0.293059 0.749791 0.634030
O O12 0.381529 0.758513 0.545183
O O13 0.996987 0.500000 0.278754
O O14 0.045886 0.243172 0.228388
O O15 0.012775 0.246091 0.358896
O O16 0.308316 0.500000 0.059820
O O17 0.250000 0.750000 0.000000
O O18 0.268700 0.500000 0.707768
O O19 0.326229 0.753345 0.770547
O O20 0.107379 0.000000 0.184827
O O21 0.500000 0.745495 0.500000
O O22 0.537762 0.000000 0.437945
#
# Coordination Sequence:
#
# PCOD9188704 Si02
#       8
#     8   8   8   8   8   8   8   8
#     4  11  24  39  60  89 122 160 205 253 299 356
#     4   9  17  31  55  83 111 147 191 237 287 345
#     4  11  24  42  65  93 124 159 201 247 296 354
#     4  11  23  39  61  88 122 159 198 250 305 356
#     4  10  21  38  59  85 117 156 199 247 301 356
#     4  10  22  40  61  86 119 160 202 244 296 355
#     4  10  19  36  61  85 114 154 199 245 293 357
#     4  10  23  43  65  90 122 161 201 245 299 357
#
# _framework density 20.145900000000001
#
# number of rings (size 3 to 8) (size 9 to 14) (size 15 to 20)
#    0.000    1.750    1.250    2.625    1.750    6.250 
#    0.000    0.625    0.000    1.500    0.000    0.000 
#    0.000    0.000    0.000    0.000    0.000    0.000 
#
# Total GULP energy -178802.084434 kJ/mol
# GULP energy per Si atom -5587.565139 kJ/mol
# Density = 2.010005 g / cm^3
# Si number density = 20.145900 Si / 1000 Ang^3
#
#
#
# Elastic Constant Matrix: (Units=GPa)
#
#
# Indices 1 2 3 4 5 6 
#
# 1 101.6706 -7.2088 14.8318 0.0000 -2.9147 0.0000
# 2 -7.2088 5.6108 4.2860 0.0000 -0.0037 0.0000
# 3 14.8318 4.2860 91.9499 0.0000 -2.7918 0.0000
# 4 0.0000 0.0000 0.0000 22.6228 0.0000 -1.5218
# 5 -2.9147 -0.0037 -2.7918 0.0000 42.7273 0.0000
# 6 0.0000 0.0000 0.0000 -1.5218 0.0000 28.3731
#
#
#
# Elastic Compliance Matrix: (Units=1/GPa)
#
#
# Indices 1 2 3 4 5 6 
#
# 1 0.011413 0.016648 -0.002598 0.000000 0.000610 0.000000
# 2 0.016648 0.209108 -0.012422 0.000000 0.000342 0.000000
# 3 -0.002598 -0.012422 0.011892 0.000000 0.000599 0.000000
# 4 0.000000 0.000000 0.000000 0.044363 0.000000 0.002379
# 5 0.000610 0.000342 0.000599 0.000000 0.023485 0.000000
# 6 0.000000 0.000000 0.000000 0.002379 0.000000 0.035372
#
#
# Mechanical properties :
#
#
# Convention : Reuss Voigt Hill
#
# Bulk Modulus (GPa) = 4.24326 24.78326 14.51326
# Shear Modulus (GPa) = 12.16744 31.23279 21.70012
#
# Velocity S-wave (km/s) = 2.46024 3.94169 3.28555
# Velocity P-wave (km/s) = 3.19080 5.74844 4.64896
#
# Compressibility (1/GPa) = 0.23566800
#
# Stress axis : x y z
#
# Youngs Moduli (GPa) = 87.62198 4.78223 84.09148
#
# Poissons Ratio (x) = -0.07962 0.21850
# Poissons Ratio (y) = -1.45876 1.04459
# Poissons Ratio (z) = 0.22768 0.05940
#
# Static dielectric constant tensor:
#      x y z
#    x 1.665300 0.000000 0.010280 
#    y 0.000000 1.710490 0.000000 
#    z 0.010280 0.000000 1.718090 
# 
# From -- ./inp_files/314094.got.cif
#   From: 2010.05.17/outbox.cif.g08.bks.cpg/sg12_158_cif.got.tgz:314094.got - 2010.06.03 13:09:07.
