data_PCOD9188234
_publ_section_title
;
Structure prediction by ZEFSAII (Michael W. Deem and Ramdas Pophale) SiO2 
 PCOD9188234
Probable space group: C 2/M
;
_chemical_formula_sum "Si O2"
_cell_formula_units_Z 48
_cell_length_a 15.537306
_cell_length_b 8.133710
_cell_length_c 20.049691
_cell_angle_alpha 90.000000
_cell_angle_beta 100.861925
_cell_angle_gamma 90.000000
_cell_volume 2488.403431
_symmetry_space_group_name_H-M "C 2/M"
_symmetry_group_IT_number 12
_symmetry_cell_setting 'monoclinic'
loop_
_space_group_symop_operation_xyz
x,y,z
-x,y,-z
-x,-y,-z
x,-y,z
1/2+x,1/2+y,z
1/2-x,1/2+y,-z
1/2-x,1/2-y,-z
1/2+x,1/2-y,z
loop_
_atom_site_type_symbol
_atom_site_label
_atom_site_fract_x
_atom_site_fract_y
_atom_site_fract_z
Si Si1 0.916708 0.201612 0.172759
Si Si2 0.836553 0.800982 0.429031
Si Si3 0.045581 0.197980 0.075023
Si Si4 0.739754 0.803626 0.075210
Si Si5 0.460010 0.697314 0.327534
Si Si6 0.137723 0.696315 0.418596
O O1 0.822753 0.255227 0.130334
O O2 0.991061 0.255100 0.131166
O O3 0.935715 0.258694 0.250408
O O4 0.916956 0.000000 0.173307
O O5 0.874038 0.746887 0.505955
O O6 0.735061 0.745323 0.411638
O O7 0.894862 0.740680 0.375996
O O8 0.836704 0.000000 0.428357
O O9 0.146864 0.245103 0.089379
O O10 0.040103 0.000000 0.073137
O O11 0.000000 0.258532 0.000000
O O12 0.741214 0.000000 0.076582
O O13 0.750000 0.750000 0.000000
O O14 0.450654 0.500000 0.324861
O O15 0.559038 0.736602 0.362843
O O16 0.136975 0.500000 0.414390
#
# Coordination Sequence:
#
# PCOD9188234 Si02
#       6
#     8   8   8   8   8   8
#     4   9  20  37  55  77 108 146 180 217 274 330
#     4   9  19  35  55  78 106 143 182 217 261 323
#     4  10  19  36  58  79 107 142 177 222 275 327
#     4  11  21  36  58  83 108 140 182 227 273 325
#     4  10  20  36  56  76 105 146 185 216 262 329
#     4  10  20  34  54  81 110 139 176 227 274 310
#
# _framework density 19.289477000000002
#
# number of rings (size 3 to 8) (size 9 to 14) (size 15 to 20)
#    0.000    2.167    1.667    1.500    0.000    5.000 
#    0.000    4.167    0.000    0.000    0.000    0.000 
#    0.000    0.000    0.000    0.000    0.000    0.000 
#
# Total GULP energy -134008.344086 kJ/mol
# GULP energy per Si atom -5583.681004 kJ/mol
# Density = 1.924557 g / cm^3
# Si number density = 19.289477 Si / 1000 Ang^3
#
#
#
# Elastic Constant Matrix: (Units=GPa)
#
#
# Indices 1 2 3 4 5 6 
#
# 1 146.4006 1.9342 87.6770 0.0000 18.3189 0.0000
# 2 1.9342 6.4977 7.8038 0.0000 -2.7939 0.0000
# 3 87.6770 7.8038 143.0573 0.0000 28.2749 0.0000
# 4 0.0000 0.0000 0.0000 14.0202 0.0000 3.2036
# 5 18.3189 -2.7939 28.2749 0.0000 22.2836 0.0000
# 6 0.0000 0.0000 0.0000 3.2036 0.0000 31.0200
#
#
#
# Elastic Compliance Matrix: (Units=1/GPa)
#
#
# Indices 1 2 3 4 5 6 
#
# 1 0.010959 0.005742 -0.007196 0.000000 0.000842 0.000000
# 2 0.005742 0.205202 -0.025180 0.000000 0.052957 0.000000
# 3 -0.007196 -0.025180 0.016322 0.000000 -0.017952 0.000000
# 4 0.000000 0.000000 0.000000 0.073049 0.000000 -0.007544
# 5 0.000842 0.052957 -0.017952 0.000000 0.073603 0.000000
# 6 0.000000 0.000000 0.000000 -0.007544 0.000000 0.033016
#
#
# Mechanical properties :
#
#
# Convention : Reuss Voigt Hill
#
# Bulk Modulus (GPa) = 5.57986 54.53174 30.05580
# Shear Modulus (GPa) = 9.52093 26.70079 18.11086
#
# Velocity S-wave (km/s) = 2.22408 3.72454 3.06747
# Velocity P-wave (km/s) = 3.08129 6.84309 5.30670
#
# Compressibility (1/GPa) = 0.17921590
#
# Stress axis : x y z
#
# Youngs Moduli (GPa) = 91.24841 4.87324 61.26547
#
# Poissons Ratio (x) = -0.02798 0.44088
# Poissons Ratio (y) = -0.52399 1.54267
# Poissons Ratio (z) = 0.65665 0.12271
#
# Static dielectric constant tensor:
#      x y z
#    x 1.657890 0.000000 -0.006960 
#    y 0.000000 1.686400 0.000000 
#    z -0.006960 0.000000 1.648970 
# 
# From -- ./inp_files/267614.got.cif
#   From: 2010.05.17/outbox.cif.g08.bks.cpg/sg12_134_cif.got.tgz:267614.got - 2010.06.03 13:09:07.
