data_PCOD9188675
_publ_section_title
;
Structure prediction by ZEFSAII (Michael W. Deem and Ramdas Pophale) SiO2 
 PCOD9188675
Probable space group: C 2/M
;
_chemical_formula_sum "Si O2"
_cell_formula_units_Z 48
_cell_length_a 16.715670
_cell_length_b 15.393926
_cell_length_c 17.500106
_cell_angle_alpha 90.000000
_cell_angle_beta 149.835955
_cell_angle_gamma 90.000000
_cell_volume 2262.718202
_symmetry_space_group_name_H-M "C 2/M"
_symmetry_group_IT_number 12
_symmetry_cell_setting 'monoclinic'
loop_
_space_group_symop_operation_xyz
x,y,z
-x,y,-z
-x,-y,-z
x,-y,z
1/2+x,1/2+y,z
1/2-x,1/2+y,-z
1/2-x,1/2-y,-z
1/2+x,1/2-y,z
loop_
_atom_site_type_symbol
_atom_site_label
_atom_site_fract_x
_atom_site_fract_y
_atom_site_fract_z
Si Si1 0.101218 0.190367 0.970184
Si Si2 0.611843 0.852053 0.408682
Si Si3 0.183519 0.406477 0.745723
Si Si4 0.262040 0.230003 0.333410
Si Si5 0.869430 0.098269 0.496069
Si Si6 0.101385 0.187243 0.797753
O O1 0.111902 0.153322 0.892711
O O2 0.925595 0.226338 0.838788
O O3 0.160189 0.117125 0.076934
O O4 0.230456 0.268202 0.083210
O O5 0.465030 0.907146 0.319279
O O6 0.707930 0.820720 0.562426
O O7 0.727427 0.893239 0.441945
O O8 0.525089 0.766824 0.303563
O O9 0.196401 0.500000 0.717130
O O10 0.158597 0.326614 0.667685
O O11 0.329760 0.326454 0.402097
O O12 0.029302 0.123631 0.674894
O O13 0.875038 0.000000 0.471796
#
# Coordination Sequence:
#
# PCOD9188675 Si02
#       6
#     8   8   8   8   8   8
#     4  10  19  36  61  81 123 164 201 239 305 371
#     4  10  19  39  62  87 120 159 203 248 305 353
#     4  11  25  38  57  93 131 164 196 242 307 376
#     4  11  21  39  59  87 125 164 201 247 305 362
#     4  11  21  37  64  93 119 155 211 261 296 347
#     4   9  18  36  60  87 115 161 201 250 305 356
#
# _framework density 21.213425000000001
#
# number of rings (size 3 to 8) (size 9 to 14) (size 15 to 20)
#    0.000    1.667    3.333    2.500    0.000    4.000 
#    0.000    0.833    0.000   20.000    0.000    0.000 
#    0.000    0.000    0.000    0.000    0.000    0.000 
#
# Total GULP energy -134122.313486 kJ/mol
# GULP energy per Si atom -5588.429729 kJ/mol
# Density = 2.116514 g / cm^3
# Si number density = 21.213425 Si / 1000 Ang^3
#
#
#
# Elastic Constant Matrix: (Units=GPa)
#
#
# Indices 1 2 3 4 5 6 
#
# 1 75.1743 26.6393 24.9396 0.0000 3.6374 -0.0001
# 2 26.6393 138.4591 34.4059 0.0010 -20.3166 0.0005
# 3 24.9396 34.4059 128.3071 0.0017 7.1297 0.0007
# 4 0.0000 0.0010 0.0017 6.7575 0.0006 -7.3363
# 5 3.6374 -20.3166 7.1297 0.0006 31.1686 0.0002
# 6 -0.0001 0.0005 0.0007 -7.3363 0.0002 11.8148
#
#
#
# Elastic Compliance Matrix: (Units=1/GPa)
#
#
# Indices 1 2 3 4 5 6 
#
# 1 0.015141 -0.002887 -0.001991 0.000005 -0.003193 0.000004
# 2 -0.002887 0.009386 -0.002344 -0.000005 0.006991 -0.000004
# 3 -0.001991 -0.002344 0.008996 -0.000006 -0.003353 -0.000004
# 4 0.000005 -0.000005 -0.000006 0.454111 -0.000013 0.281975
# 5 -0.003193 0.006991 -0.003353 -0.000013 0.037780 -0.000009
# 6 0.000004 -0.000004 -0.000004 0.281975 -0.000009 0.259729
#
#
# Mechanical properties :
#
#
# Convention : Reuss Voigt Hill
#
# Bulk Modulus (GPa) = 52.41723 57.10110 54.75917
# Shear Modulus (GPa) = 6.20389 27.01191 16.60790
#
# Velocity S-wave (km/s) = 1.71197 3.57226 2.80106
# Velocity P-wave (km/s) = 5.35452 6.63254 6.02750
#
# Compressibility (1/GPa) = 0.01907770
#
# Stress axis : x y z
#
# Youngs Moduli (GPa) = 66.04786 106.54020 111.16225
#
# Poissons Ratio (x) = 0.30755 0.22137
# Poissons Ratio (y) = 0.19066 0.26060
# Poissons Ratio (z) = 0.13153 0.24976
#
# Static dielectric constant tensor:
#      x y z
#    x 1.828210 0.000000 -0.005480 
#    y 0.000000 1.765920 0.000000 
#    z -0.005480 0.000000 1.788040 
# 
# From -- ./inp_files/85664.got.cif
#   From: 2010.05.17/outbox.cif.g08.bks.cpg/sg12_43_cif.got.tgz:85664.got - 2010.06.03 13:09:07.
