data_PCOD9188326
_publ_section_title
;
Structure prediction by ZEFSAII (Michael W. Deem and Ramdas Pophale) SiO2 
 PCOD9188326
Probable space group: C 2/M
;
_chemical_formula_sum "Si O2"
_cell_formula_units_Z 60
_cell_length_a 17.875959
_cell_length_b 11.590240
_cell_length_c 14.809043
_cell_angle_alpha 90.000000
_cell_angle_beta 109.448811
_cell_angle_gamma 90.000000
_cell_volume 2893.160518
_symmetry_space_group_name_H-M "C 2/M"
_symmetry_group_IT_number 12
_symmetry_cell_setting 'monoclinic'
loop_
_space_group_symop_operation_xyz
x,y,z
-x,y,-z
-x,-y,-z
x,-y,z
1/2+x,1/2+y,z
1/2-x,1/2+y,-z
1/2-x,1/2-y,-z
1/2+x,1/2-y,z
loop_
_atom_site_type_symbol
_atom_site_label
_atom_site_fract_x
_atom_site_fract_y
_atom_site_fract_z
Si Si1 0.318364 0.768513 0.647628
Si Si2 0.290500 0.370550 0.986467
Si Si3 0.232628 0.630597 0.763495
Si Si4 0.080997 0.784596 0.675668
Si Si5 0.016979 0.000000 0.768614
Si Si6 0.152148 0.865682 0.521645
Si Si7 0.018251 0.366606 0.246043
Si Si8 0.970642 0.186604 0.090525
O O1 0.284962 0.670772 0.700517
O O2 0.243048 0.847978 0.591747
O O3 0.351257 0.706117 0.571571
O O4 0.388494 0.839733 0.721290
O O5 0.260349 0.500000 0.003781
O O6 0.282504 0.368969 0.875278
O O7 0.250000 0.250000 0.000000
O O8 0.381444 0.362893 0.053953
O O9 0.201869 0.500000 0.737563
O O10 0.162192 0.724075 0.742678
O O11 0.096220 0.815740 0.577772
O O12 0.015240 0.691450 0.676377
O O13 0.056423 0.898555 0.720151
O O14 0.983020 0.100413 0.824698
O O15 0.134360 0.000000 0.498494
O O16 0.002185 0.500000 0.240891
O O17 0.975512 0.308100 0.143146
O O18 0.000000 0.190241 0.000000
#
# Coordination Sequence:
#
# PCOD9188326 Si02
#       8
#     8   8   8   8   4   8   8   8
#     4  10  22  40  63  93 122 164 205 252 318 378
#     4  11  23  39  61  92 126 165 217 268 317 377
#     4  10  21  39  61  90 126 163 212 256 314 371
#     4  10  21  38  63  91 122 167 206 254 315 372
#     4  10  19  36  58  89 120 160 205 248 308 366
#     4  10  20  40  65  91 125 155 208 257 307 376
#     4  11  24  43  63  89 127 162 210 258 319 376
#     4  11  23  40  64  91 123 167 214 261 316 377
#
# _framework density 20.738565999999999
#
# number of rings (size 3 to 8) (size 9 to 14) (size 15 to 20)
#    0.000    1.600    1.333    3.800    0.000    2.400 
#   12.000    4.667    0.000    0.000    0.000    0.000 
#    0.000    0.000    0.000    0.000    0.000    0.000 
#
# Total GULP energy -167031.156248 kJ/mol
# GULP energy per Si atom -5567.705208 kJ/mol
# Density = 2.069136 g / cm^3
# Si number density = 20.738566 Si / 1000 Ang^3
#
#
#
# Elastic Constant Matrix: (Units=GPa)
#
#
# Indices 1 2 3 4 5 6 
#
# 1 59.0319 36.8544 32.5892 0.0000 -20.8237 0.0000
# 2 36.8544 172.2306 20.9843 0.0000 -19.2910 0.0000
# 3 32.5892 20.9843 50.1534 0.0000 -21.7494 0.0000
# 4 0.0000 0.0000 0.0000 7.6370 0.0000 -12.1967
# 5 -20.8237 -19.2910 -21.7494 0.0000 43.5563 0.0000
# 6 0.0000 0.0000 0.0000 -12.1967 0.0000 24.8334
#
#
#
# Elastic Compliance Matrix: (Units=1/GPa)
#
#
# Indices 1 2 3 4 5 6 
#
# 1 0.029642 -0.003921 -0.015608 0.000000 0.004641 0.000000
# 2 -0.003921 0.006753 0.000264 0.000000 0.001248 0.000000
# 3 -0.015608 0.000264 0.034188 0.000000 0.009727 0.000000
# 4 0.000000 0.000000 0.000000 0.607295 0.000000 0.298268
# 5 0.004641 0.001248 0.009727 0.000000 0.030587 0.000000
# 6 0.000000 0.000000 0.000000 0.298268 0.000000 0.186760
#
#
# Mechanical properties :
#
#
# Convention : Reuss Voigt Hill
#
# Bulk Modulus (GPa) = 31.19898 51.36352 41.28125
# Shear Modulus (GPa) = 5.29415 27.93785 16.61600
#
# Velocity S-wave (km/s) = 1.59948 3.67433 2.83364
# Velocity P-wave (km/s) = 4.29974 6.54384 5.53668
#
# Compressibility (1/GPa) = 0.03205233
#
# Stress axis : x y z
#
# Youngs Moduli (GPa) = 33.73630 148.08441 29.24995
#
# Poissons Ratio (x) = 0.58070 0.45652
# Poissons Ratio (y) = 0.13229 -0.00772
# Poissons Ratio (z) = 0.52654 -0.03906
#
# Static dielectric constant tensor:
#      x y z
#    x 1.773630 0.000000 0.046550 
#    y 0.000000 1.724800 0.000000 
#    z 0.046550 0.000000 1.769920 
# 
# From -- ./inp_files/223871.got.cif
#   From: 2010.05.17/outbox.cif.g08.bks.cpg/sg12_112_cif.got.tgz:223871.got - 2010.06.03 13:09:07.
