data_PCOD9188202
_publ_section_title
;
Structure prediction by ZEFSAII (Michael W. Deem and Ramdas Pophale) SiO2 
 PCOD9188202
Probable space group: C 2/M
;
_chemical_formula_sum "Si O2"
_cell_formula_units_Z 40
_cell_length_a 8.629765
_cell_length_b 26.564282
_cell_length_c 7.861986
_cell_angle_alpha 90.000000
_cell_angle_beta 89.425779
_cell_angle_gamma 90.000000
_cell_volume 1802.218762
_symmetry_space_group_name_H-M "C 2/M"
_symmetry_group_IT_number 12
_symmetry_cell_setting 'monoclinic'
loop_
_space_group_symop_operation_xyz
x,y,z
-x,y,-z
-x,-y,-z
x,-y,z
1/2+x,1/2+y,z
1/2-x,1/2+y,-z
1/2-x,1/2-y,-z
1/2+x,1/2-y,z
loop_
_atom_site_type_symbol
_atom_site_label
_atom_site_fract_x
_atom_site_fract_y
_atom_site_fract_z
Si Si1 0.175127 0.079936 0.557733
Si Si2 0.629891 0.158113 0.606549
Si Si3 0.819971 0.909990 0.054112
Si Si4 0.316652 0.804242 0.039108
Si Si5 0.389107 0.946198 0.255539
O O1 0.236342 0.136130 0.514423
O O2 0.195970 0.068982 0.755372
O O3 0.000000 0.074114 0.500000
O O4 0.721360 0.050084 0.578441
O O5 0.500000 0.185555 0.500000
O O6 0.702477 0.187245 0.759749
O O7 0.541650 0.108824 0.696530
O O8 0.769680 0.851267 0.048423
O O9 0.710470 0.936673 0.914512
O O10 0.000000 0.914709 0.000000
O O11 0.500000 0.806690 0.000000
O O12 0.250000 0.750000 0.000000
O O13 0.473143 0.000000 0.239485
#
# Coordination Sequence:
#
# PCOD9188202 Si02
#       5
#     8   8   8   8   8
#     4  10  19  36  57  85 119 162 198 254 297 351
#     4   9  20  40  61  83 124 157 200 246 308 349
#     4  11  20  39  61  86 126 164 203 252 306 352
#     4  11  23  40  65  92 121 156 197 247 306 370
#     4   9  21  35  57  89 124 162 211 250 297 355
#
# _framework density 22.194862000000001
#
# number of rings (size 3 to 8) (size 9 to 14) (size 15 to 20)
#    1.200    0.800    2.000    1.800    0.000    2.000 
#    0.000    5.000    0.000    3.600    0.000    0.000 
#    0.000    0.000    0.000    0.000    0.000    0.000 
#
# Total GULP energy -111505.467844 kJ/mol
# GULP energy per Si atom -5575.273392 kJ/mol
# Density = 2.214435 g / cm^3
# Si number density = 22.194862 Si / 1000 Ang^3
#
#
#
# Elastic Constant Matrix: (Units=GPa)
#
#
# Indices 1 2 3 4 5 6 
#
# 1 43.1516 4.5764 19.0785 0.0000 0.7611 0.0000
# 2 4.5764 82.6196 31.0886 0.0000 5.0850 0.0000
# 3 19.0785 31.0886 185.8887 0.0000 15.3727 0.0000
# 4 0.0000 0.0000 0.0000 11.6887 0.0000 0.5464
# 5 0.7611 5.0850 15.3727 0.0000 32.6465 0.0000
# 6 0.0000 0.0000 0.0000 0.5464 0.0000 15.7911
#
#
#
# Elastic Compliance Matrix: (Units=1/GPa)
#
#
# Indices 1 2 3 4 5 6 
#
# 1 0.024304 -0.000457 -0.002473 0.000000 0.000669 0.000000
# 2 -0.000457 0.012959 -0.002034 0.000000 -0.001050 0.000000
# 3 -0.002473 -0.002034 0.006183 0.000000 -0.002537 0.000000
# 4 0.000000 0.000000 0.000000 0.085691 0.000000 -0.002965
# 5 0.000669 -0.001050 -0.002537 0.000000 0.031974 0.000000
# 6 0.000000 0.000000 0.000000 -0.002965 0.000000 0.063430
#
#
# Mechanical properties :
#
#
# Convention : Reuss Voigt Hill
#
# Bulk Modulus (GPa) = 29.83370 46.79409 38.31390
# Shear Modulus (GPa) = 20.35484 29.15300 24.75392
#
# Velocity S-wave (km/s) = 3.03165 3.62816 3.34323
# Velocity P-wave (km/s) = 5.07202 6.21936 5.67476
#
# Compressibility (1/GPa) = 0.03351914
#
# Stress axis : x y z
#
# Youngs Moduli (GPa) = 41.14493 77.16765 161.72486
#
# Poissons Ratio (x) = 0.03524 0.40001
# Poissons Ratio (y) = 0.01879 0.32887
# Poissons Ratio (z) = 0.10177 0.15692
#
# Static dielectric constant tensor:
#      x y z
#    x 1.820530 0.000000 -0.021090 
#    y 0.000000 1.834690 0.000000 
#    z -0.021090 0.000000 1.844500 
# 
# From -- ./inp_files/40405.got.cif
#   From: 2010.05.17/outbox.cif.g08.bks.cpg/sg12_21_cif.got.tgz:40405.got - 2010.06.03 13:09:07.
