data_PCOD9188555
_publ_section_title
;
Structure prediction by ZEFSAII (Michael W. Deem and Ramdas Pophale) SiO2 
 PCOD9188555
Probable space group: C 2/M
;
_chemical_formula_sum "Si O2"
_cell_formula_units_Z 64
_cell_length_a 25.521469
_cell_length_b 7.477047
_cell_length_c 15.411299
_cell_angle_alpha 90.000000
_cell_angle_beta 72.207394
_cell_angle_gamma 90.000000
_cell_volume 2800.199592
_symmetry_space_group_name_H-M "C 2/M"
_symmetry_group_IT_number 12
_symmetry_cell_setting 'monoclinic'
loop_
_space_group_symop_operation_xyz
x,y,z
-x,y,-z
-x,-y,-z
x,-y,z
1/2+x,1/2+y,z
1/2-x,1/2+y,-z
1/2-x,1/2-y,-z
1/2+x,1/2-y,z
loop_
_atom_site_type_symbol
_atom_site_label
_atom_site_fract_x
_atom_site_fract_y
_atom_site_fract_z
Si Si1 0.149589 0.717912 0.376367
Si Si2 0.101669 0.791768 0.098502
Si Si3 0.314366 0.786449 0.455626
Si Si4 0.318885 0.707983 0.086156
Si Si5 0.633443 0.217176 0.752120
Si Si6 0.527258 0.781262 0.396423
Si Si7 0.700203 0.216880 0.178691
Si Si8 0.485574 0.792193 0.235391
O O1 0.150730 0.500000 0.379040
O O2 0.157564 0.782318 0.470252
O O3 0.090742 0.771212 0.368338
O O4 0.194339 0.773224 0.282264
O O5 0.146320 0.771881 0.152781
O O6 0.042492 0.714913 0.153916
O O7 0.090340 0.000000 0.089244
O O8 0.133627 0.713456 0.999050
O O9 0.250000 0.750000 0.500000
O O10 0.338100 0.721424 0.352051
O O11 0.323059 0.000000 0.449887
O O12 0.314735 0.500000 0.061986
O O13 0.336573 0.716605 0.177066
O O14 0.257335 0.784195 0.109551
O O15 0.569584 0.277830 0.781511
O O16 0.636415 0.000000 0.754675
O O17 0.500000 0.725360 0.500000
O O18 0.497810 0.714681 0.324596
O O19 0.525986 0.000000 0.394999
O O20 0.701251 0.000000 0.177195
O O21 0.472693 0.000000 0.257234
#
# Coordination Sequence:
#
# PCOD9188555 Si02
#       8
#     8   8   8   8   8   8   8   8
#     4   9  16  28  51  80 106 138 177 219 268 328
#     4  11  23  38  57  85 116 148 187 238 298 349
#     4  10  20  35  55  83 117 151 190 231 277 334
#     4  10  23  40  59  82 111 151 195 237 290 352
#     4  10  22  38  58  86 117 150 195 245 284 325
#     4   9  15  26  50  81 106 133 177 227 269 315
#     4  10  19  36  60  85 111 145 191 236 282 343
#     4  10  20  37  59  84 114 149 192 238 283 337
#
# _framework density 22.855512999999998
#
# number of rings (size 3 to 8) (size 9 to 14) (size 15 to 20)
#    0.000    2.125    1.250    2.250    0.000    7.000 
#    0.000    3.125    0.000    0.375    0.000    0.000 
#    0.000    0.000    0.000    0.000    0.000    0.000 
#
# Total GULP energy -178789.126923 kJ/mol
# GULP energy per Si atom -5587.160216 kJ/mol
# Density = 2.280349 g / cm^3
# Si number density = 22.855513 Si / 1000 Ang^3
#
#
#
# Elastic Constant Matrix: (Units=GPa)
#
#
# Indices 1 2 3 4 5 6 
#
# 1 96.7664 -17.3540 21.2764 0.0000 -15.5461 0.0000
# 2 -17.3540 62.8583 -10.5205 0.0000 -1.3504 0.0000
# 3 21.2764 -10.5205 121.2375 0.0000 -14.9973 0.0000
# 4 0.0000 0.0000 0.0000 10.6191 0.0000 5.0561
# 5 -15.5461 -1.3504 -14.9973 0.0000 37.1186 0.0000
# 6 0.0000 0.0000 0.0000 5.0561 0.0000 14.7585
#
#
#
# Elastic Compliance Matrix: (Units=1/GPa)
#
#
# Indices 1 2 3 4 5 6 
#
# 1 0.011918 0.003181 -0.001246 0.000000 0.004604 0.000000
# 2 0.003181 0.017044 0.001223 0.000000 0.002447 0.000000
# 3 -0.001246 0.001223 0.008962 0.000000 0.003144 0.000000
# 4 0.000000 0.000000 0.000000 0.112525 0.000000 -0.038550
# 5 0.004604 0.002447 0.003144 0.000000 0.030228 0.000000
# 6 0.000000 0.000000 0.000000 -0.038550 0.000000 0.080964
#
#
# Mechanical properties :
#
#
# Convention : Reuss Voigt Hill
#
# Bulk Modulus (GPa) = 22.60356 29.74067 26.17211
# Shear Modulus (GPa) = 18.51356 31.66325 25.08841
#
# Velocity S-wave (km/s) = 2.84918 3.72609 3.31674
# Velocity P-wave (km/s) = 4.55357 5.61715 5.11309
#
# Compressibility (1/GPa) = 0.04424083
#
# Stress axis : x y z
#
# Youngs Moduli (GPa) = 83.90522 58.67073 111.58247
#
# Poissons Ratio (x) = -0.18662 0.13904
# Poissons Ratio (y) = -0.26688 -0.13652
# Poissons Ratio (z) = 0.10455 -0.07178
#
# Static dielectric constant tensor:
#      x y z
#    x 1.829250 0.000000 -0.020560 
#    y 0.000000 1.838950 0.000000 
#    z -0.020560 0.000000 1.858440 
# 
# From -- ./inp_files/243831.got.cif
#   From: 2010.05.17/outbox.cif.g08.bks.cpg/sg12_122_cif.got.tgz:243831.got - 2010.06.03 13:09:07.
