data_PCOD9188693
_publ_section_title
;
Structure prediction by ZEFSAII (Michael W. Deem and Ramdas Pophale) SiO2 
 PCOD9188693
Probable space group: C 2/M
;
_chemical_formula_sum "Si O2"
_cell_formula_units_Z 56
_cell_length_a 19.449230
_cell_length_b 7.457810
_cell_length_c 17.129337
_cell_angle_alpha 90.000000
_cell_angle_beta 108.556021
_cell_angle_gamma 90.000000
_cell_volume 2355.421060
_symmetry_space_group_name_H-M "C 2/M"
_symmetry_group_IT_number 12
_symmetry_cell_setting 'monoclinic'
loop_
_space_group_symop_operation_xyz
x,y,z
-x,y,-z
-x,-y,-z
x,-y,z
1/2+x,1/2+y,z
1/2-x,1/2+y,-z
1/2-x,1/2-y,-z
1/2+x,1/2-y,z
loop_
_atom_site_type_symbol
_atom_site_label
_atom_site_fract_x
_atom_site_fract_y
_atom_site_fract_z
Si Si1 0.794097 0.206841 0.218025
Si Si2 0.570926 0.779521 0.477858
Si Si3 0.393586 0.783227 0.121958
Si Si4 0.281451 0.202997 0.390109
Si Si5 0.117668 0.293720 0.330720
Si Si6 0.056812 0.281373 0.146329
Si Si7 0.332095 0.781307 0.941554
O O1 0.868482 0.217808 0.197166
O O2 0.793877 0.297250 0.301483
O O3 0.735032 0.280348 0.135320
O O4 0.774665 0.000000 0.226873
O O5 0.500000 0.723080 0.500000
O O6 0.646144 0.720136 0.545072
O O7 0.575031 0.718173 0.389532
O O8 0.571034 0.000000 0.478765
O O9 0.474119 0.726680 0.127524
O O10 0.392544 0.000000 0.123893
O O11 0.339870 0.720549 0.033360
O O12 0.203600 0.289656 0.377616
O O13 0.273968 0.000000 0.416119
O O14 0.094245 0.500000 0.317292
O O15 0.100954 0.218871 0.238927
O O16 0.057926 0.500000 0.144043
O O17 0.096742 0.227101 0.081723
O O18 0.328945 0.000000 0.942890
#
# Coordination Sequence:
#
# PCOD9188693 Si02
#       7
#     8   8   8   8   8   8   8
#     4  11  22  37  56  79 114 153 186 224 279 339
#     4   9  20  36  59  88 114 142 181 228 275 328
#     4  10  20  33  56  85 111 142 188 240 278 318
#     4  11  22  37  59  85 112 144 187 233 272 324
#     4  10  19  36  61  84 112 149 184 222 275 334
#     4   9  17  31  56  85 109 142 187 229 270 324
#     4   9  17  33  55  81 109 144 190 233 274 326
#
# _framework density 23.774940999999998
#
# number of rings (size 3 to 8) (size 9 to 14) (size 15 to 20)
#    0.000    2.143    1.429    2.143    2.000    1.714 
#    0.000    2.143    0.000    3.000    0.000    0.000 
#    0.000    0.000    0.000    0.000    0.000    0.000 
#
# Total GULP energy -156532.382530 kJ/mol
# GULP energy per Si atom -5590.442233 kJ/mol
# Density = 2.372083 g / cm^3
# Si number density = 23.774941 Si / 1000 Ang^3
#
#
#
# Elastic Constant Matrix: (Units=GPa)
#
#
# Indices 1 2 3 4 5 6 
#
# 1 78.8504 -13.5080 16.3344 0.0000 -24.5210 0.0000
# 2 -13.5080 69.4177 -3.6374 0.0000 2.2481 0.0000
# 3 16.3344 -3.6374 78.5732 0.0000 -18.1842 0.0000
# 4 0.0000 0.0000 0.0000 49.7643 0.0000 -83.4238
# 5 -24.5210 2.2481 -18.1842 0.0000 46.1279 0.0000
# 6 0.0000 0.0000 0.0000 -83.4238 0.0000 185.2203
#
#
#
# Elastic Compliance Matrix: (Units=1/GPa)
#
#
# Indices 1 2 3 4 5 6 
#
# 1 0.015850 0.002761 -0.001374 0.000000 0.007749 0.000000
# 2 0.002761 0.014931 0.000317 0.000000 0.000865 0.000000
# 3 -0.001374 0.000317 0.014145 0.000000 0.004831 0.000000
# 4 0.000000 0.000000 0.000000 0.082035 0.000000 0.036949
# 5 0.007749 0.000865 0.004831 0.000000 0.027660 0.000000
# 6 0.000000 0.000000 0.000000 0.036949 0.000000 0.022041
#
#
# Mechanical properties :
#
#
# Convention : Reuss Voigt Hill
#
# Bulk Modulus (GPa) = 20.68831 25.02437 22.85634
# Shear Modulus (GPa) = 26.40406 71.39930 48.90168
#
# Velocity S-wave (km/s) = 3.33616 5.48603 4.54018
# Velocity P-wave (km/s) = 4.85392 7.11878 6.09252
#
# Compressibility (1/GPa) = 0.04833647
#
# Stress axis : x y z
#
# Youngs Moduli (GPa) = 63.09233 66.97260 70.69544
#
# Poissons Ratio (x) = -0.18493 0.09711
# Poissons Ratio (y) = -0.17421 -0.02244
# Poissons Ratio (z) = 0.08667 -0.02126
#
# Static dielectric constant tensor:
#      x y z
#    x 1.874460 0.000000 0.018000 
#    y 0.000000 1.954410 0.000000 
#    z 0.018000 0.000000 1.876070 
# 
# From -- ./inp_files/275698.got.cif
#   From: 2010.05.17/outbox.cif.g08.bks.cpg/sg12_138_cif.got.tgz:275698.got - 2010.06.03 13:09:07.
