data_PCOD9188247
_publ_section_title
;
Structure prediction by ZEFSAII (Michael W. Deem and Ramdas Pophale) SiO2 
 PCOD9188247
Probable space group: C 2/M
;
_chemical_formula_sum "Si O2"
_cell_formula_units_Z 64
_cell_length_a 19.935542
_cell_length_b 9.038132
_cell_length_c 24.161083
_cell_angle_alpha 90.000000
_cell_angle_beta 120.467744
_cell_angle_gamma 90.000000
_cell_volume 3752.212620
_symmetry_space_group_name_H-M "C 2/M"
_symmetry_group_IT_number 12
_symmetry_cell_setting 'monoclinic'
loop_
_space_group_symop_operation_xyz
x,y,z
-x,y,-z
-x,-y,-z
x,-y,z
1/2+x,1/2+y,z
1/2-x,1/2+y,-z
1/2-x,1/2-y,-z
1/2+x,1/2-y,z
loop_
_atom_site_type_symbol
_atom_site_label
_atom_site_fract_x
_atom_site_fract_y
_atom_site_fract_z
Si Si1 0.547168 0.672266 0.462353
Si Si2 0.265896 0.678147 0.947480
Si Si3 0.820038 0.674869 0.804932
Si Si4 0.744995 0.675805 0.664278
Si Si5 0.288509 0.824864 0.463068
Si Si6 0.824784 0.675204 0.196237
Si Si7 0.092083 0.177095 0.674183
Si Si8 0.413208 0.176855 0.947677
O O1 0.500000 0.675594 0.500000
O O2 0.570505 0.500000 0.462969
O O3 0.621961 0.773391 0.499053
O O4 0.487844 0.719102 0.389223
O O5 0.270994 0.500000 0.953092
O O6 0.250000 0.750000 0.000000
O O7 0.195075 0.715348 0.875369
O O8 0.345389 0.742039 0.953776
O O9 0.798664 0.500000 0.802189
O O10 0.814646 0.703743 0.737292
O O11 0.753201 0.773168 0.804603
O O12 0.895085 0.699002 0.874597
O O13 0.741874 0.500000 0.650950
O O14 0.748590 0.764447 0.609288
O O15 0.664777 0.713935 0.663692
O O16 0.250000 0.750000 0.500000
O O17 0.281501 0.000000 0.462949
O O18 0.834230 0.500000 0.203556
O O19 0.892534 0.752378 0.259599
O O20 0.093170 0.000000 0.679888
O O21 0.406793 0.000000 0.955676
O O22 0.500000 0.224440 0.000000
#
# Coordination Sequence:
#
# PCOD9188247 Si02
#       8
#     8   8   8   8   8   8   8   8
#     4  10  19  36  58  80 107 136 168 208 256 308
#     4  10  20  33  51  75 104 140 178 215 256 304
#     4   8  15  28  48  73 101 134 169 204 251 308
#     4   9  16  31  52  75 102 134 172 208 253 307
#     4  12  25  38  54  76 104 138 176 216 260 308
#     4   9  17  28  45  73 105 132 167 215 257 294
#     4   9  17  30  53  79 104 135 165 203 256 309
#     4   9  17  31  53  80 107 135 170 211 257 307
#
# _framework density 17.056602999999999
#
# number of rings (size 3 to 8) (size 9 to 14) (size 15 to 20)
#    0.000    2.500    1.250    2.625    0.000    4.500 
#    0.000    0.000    2.750    0.000    0.000    0.000 
#    0.000    0.000    0.000    0.000    0.000    0.000 
#
# Total GULP energy -178273.418451 kJ/mol
# GULP energy per Si atom -5571.044327 kJ/mol
# Density = 1.701778 g / cm^3
# Si number density = 17.056603 Si / 1000 Ang^3
#
#
#
# Elastic Constant Matrix: (Units=GPa)
#
#
# Indices 1 2 3 4 5 6 
#
# 1 41.2523 28.2489 47.7584 0.0000 -4.4242 0.0000
# 2 28.2489 56.1549 61.0784 0.0000 -9.3583 0.0000
# 3 47.7584 61.0784 181.0572 0.0000 -2.2317 0.0000
# 4 0.0000 0.0000 0.0000 29.2061 0.0000 -2.8609
# 5 -4.4242 -9.3583 -2.2317 0.0000 25.5049 0.0000
# 6 0.0000 0.0000 0.0000 -2.8609 0.0000 17.8540
#
#
#
# Elastic Compliance Matrix: (Units=1/GPa)
#
#
# Indices 1 2 3 4 5 6 
#
# 1 0.040856 -0.013570 -0.006180 0.000000 0.001567 0.000000
# 2 -0.013570 0.035141 -0.008154 0.000000 0.009826 0.000000
# 3 -0.006180 -0.008154 0.009864 0.000000 -0.003201 0.000000
# 4 0.000000 0.000000 0.000000 0.034785 0.000000 0.005574
# 5 0.001567 0.009826 -0.003201 0.000000 0.042806 0.000000
# 6 0.000000 0.000000 0.000000 0.005574 0.000000 0.056903
#
#
# Mechanical properties :
#
#
# Convention : Reuss Voigt Hill
#
# Bulk Modulus (GPa) = 33.27366 61.40398 47.33882
# Shear Modulus (GPa) = 17.47149 23.93824 20.70486
#
# Velocity S-wave (km/s) = 3.20398 3.75034 3.48787
# Velocity P-wave (km/s) = 5.76519 7.40484 6.63585
#
# Compressibility (1/GPa) = 0.03005381
#
# Stress axis : x y z
#
# Youngs Moduli (GPa) = 24.47615 28.45697 101.37459
#
# Poissons Ratio (x) = 0.38616 0.62647
# Poissons Ratio (y) = 0.33214 0.82660
# Poissons Ratio (z) = 0.15126 0.23204
#
# Static dielectric constant tensor:
#      x y z
#    x 1.547600 0.000000 0.015220 
#    y 0.000000 1.569280 0.000000 
#    z 0.015220 0.000000 1.624100 
# 
# From -- ./inp_files/320123.got.cif
#   From: 2010.05.17/outbox.cif.g08.bks.cpg/sg12_161_cif.got.tgz:320123.got - 2010.06.03 13:09:07.
