data_PCOD9188518
_publ_section_title
;
Structure prediction by ZEFSAII (Michael W. Deem and Ramdas Pophale) SiO2 
 PCOD9188518
Probable space group: C 2/M
;
_chemical_formula_sum "Si O2"
_cell_formula_units_Z 64
_cell_length_a 16.622696
_cell_length_b 7.650735
_cell_length_c 28.011824
_cell_angle_alpha 90.000000
_cell_angle_beta 126.017736
_cell_angle_gamma 90.000000
_cell_volume 2881.415910
_symmetry_space_group_name_H-M "C 2/M"
_symmetry_group_IT_number 12
_symmetry_cell_setting 'monoclinic'
loop_
_space_group_symop_operation_xyz
x,y,z
-x,y,-z
-x,-y,-z
x,-y,z
1/2+x,1/2+y,z
1/2-x,1/2+y,-z
1/2-x,1/2-y,-z
1/2+x,1/2-y,z
loop_
_atom_site_type_symbol
_atom_site_label
_atom_site_fract_x
_atom_site_fract_y
_atom_site_fract_z
Si Si1 0.791830 0.292261 0.639717
Si Si2 0.528928 0.706938 0.869801
Si Si3 0.671369 0.703676 0.243839
Si Si4 0.467225 0.289222 0.635074
Si Si5 0.782809 0.214103 0.122450
Si Si6 0.909735 0.711215 0.001802
Si Si7 0.562728 0.286452 0.568125
Si Si8 0.652546 0.701036 0.754510
O O1 0.788116 0.500000 0.643021
O O2 0.846364 0.220895 0.706055
O O3 0.857124 0.252227 0.615633
O O4 0.677513 0.227574 0.602323
O O5 0.521447 0.500000 0.858259
O O6 0.420627 0.778152 0.818739
O O7 0.614303 0.773525 0.864808
O O8 0.566734 0.732755 0.936474
O O9 0.685404 0.500000 0.237288
O O10 0.773583 0.794596 0.264570
O O11 0.474499 0.500000 0.636687
O O12 0.506288 0.228908 0.596861
O O13 0.548059 0.220088 0.701836
O O14 0.691693 0.275095 0.057957
O O15 0.787613 0.272663 0.179055
O O16 0.776592 0.000000 0.118916
O O17 0.907483 0.500000 0.001444
O O18 0.000000 0.768549 0.000000
O O19 0.500000 0.233481 0.500000
O O20 0.564658 0.500000 0.569845
O O21 0.630996 0.500000 0.759787
#
# Coordination Sequence:
#
# PCOD9188518 Si02
#       8
#     8   8   8   8   8   8   8   8
#     4  11  22  38  61  90 120 158 202 243 292 349
#     4  10  21  36  53  75 104 142 182 226 283 344
#     4  11  22  36  56  83 115 149 191 243 294 343
#     4  10  20  37  61  89 121 160 199 241 296 348
#     4   9  18  33  53  75 104 140 181 229 283 345
#     4  10  20  34  52  75 101 135 179 229 282 336
#     4   9  19  38  62  88 122 162 201 239 286 349
#     4  10  19  36  60  83 111 151 194 234 289 354
#
# _framework density 22.211303000000001
#
# number of rings (size 3 to 8) (size 9 to 14) (size 15 to 20)
#    0.000    2.000    1.250    2.625    0.000    5.250 
#    0.000    1.250    0.000    2.625    0.000    0.000 
#    0.000    0.000    0.000    0.000    0.000    0.000 
#
# Total GULP energy -178696.542238 kJ/mol
# GULP energy per Si atom -5584.266945 kJ/mol
# Density = 2.216075 g / cm^3
# Si number density = 22.211303 Si / 1000 Ang^3
#
#
#
# Elastic Constant Matrix: (Units=GPa)
#
#
# Indices 1 2 3 4 5 6 
#
# 1 136.1591 -5.6582 49.0487 0.0000 2.7730 0.0000
# 2 -5.6582 42.1440 1.6702 0.0000 4.4561 0.0000
# 3 49.0487 1.6702 125.4691 0.0000 -4.4156 0.0000
# 4 0.0000 0.0000 0.0000 6.4884 0.0000 -1.8775
# 5 2.7730 4.4561 -4.4156 0.0000 23.0598 0.0000
# 6 0.0000 0.0000 0.0000 -1.8775 0.0000 17.0727
#
#
#
# Elastic Compliance Matrix: (Units=1/GPa)
#
#
# Indices 1 2 3 4 5 6 
#
# 1 0.008707 0.001520 -0.003495 0.000000 -0.002010 0.000000
# 2 0.001520 0.024519 -0.001101 0.000000 -0.005132 0.000000
# 3 -0.003495 -0.001101 0.009437 0.000000 0.002440 0.000000
# 4 0.000000 0.000000 0.000000 0.159186 0.000000 0.017506
# 5 -0.002010 -0.005132 0.002440 0.000000 0.045066 0.000000
# 6 0.000000 0.000000 0.000000 0.017506 0.000000 0.060498
#
#
# Mechanical properties :
#
#
# Convention : Reuss Voigt Hill
#
# Bulk Modulus (GPa) = 27.38921 43.76594 35.57757
# Shear Modulus (GPa) = 15.34987 26.57161 20.96074
#
# Velocity S-wave (km/s) = 2.63170 3.46252 3.07530
# Velocity P-wave (km/s) = 4.64677 5.97767 5.35374
#
# Compressibility (1/GPa) = 0.03651073
#
# Stress axis : x y z
#
# Youngs Moduli (GPa) = 114.84448 40.78553 105.96749
#
# Poissons Ratio (x) = -0.06200 0.37035
# Poissons Ratio (y) = -0.17457 0.11669
# Poissons Ratio (z) = 0.40137 0.04491
#
# Static dielectric constant tensor:
#      x y z
#    x 1.815730 0.000000 -0.002450 
#    y 0.000000 1.829770 0.000000 
#    z -0.002450 0.000000 1.846890 
# 
# From -- ./inp_files/375534.got.cif
#   From: 2010.05.17/outbox.cif.g08.bks.cpg/sg12_188_cif.got.tgz:375534.got - 2010.06.03 13:09:07.
