data_PCOD9188427
_publ_section_title
;
Structure prediction by ZEFSAII (Michael W. Deem and Ramdas Pophale) SiO2 
 PCOD9188427
Probable space group: C 2/M
;
_chemical_formula_sum "Si O2"
_cell_formula_units_Z 40
_cell_length_a 15.964936
_cell_length_b 9.395856
_cell_length_c 15.175452
_cell_angle_alpha 90.000000
_cell_angle_beta 124.925131
_cell_angle_gamma 90.000000
_cell_volume 1866.407635
_symmetry_space_group_name_H-M "C 2/M"
_symmetry_group_IT_number 12
_symmetry_cell_setting 'monoclinic'
loop_
_space_group_symop_operation_xyz
x,y,z
-x,y,-z
-x,-y,-z
x,-y,z
1/2+x,1/2+y,z
1/2-x,1/2+y,-z
1/2-x,1/2-y,-z
1/2+x,1/2-y,z
loop_
_atom_site_type_symbol
_atom_site_label
_atom_site_fract_x
_atom_site_fract_y
_atom_site_fract_z
Si Si1 0.351181 0.333837 0.037076
Si Si2 0.618046 0.151057 0.095479
Si Si3 0.696642 0.838526 0.341495
Si Si4 0.521209 0.172351 0.742836
Si Si5 0.609879 0.830216 0.608513
O O1 0.350433 0.500000 0.052500
O O2 0.437462 0.257899 0.148196
O O3 0.250000 0.250000 0.000000
O O4 0.355827 0.297074 0.936627
O O5 0.645066 0.156455 0.213445
O O6 0.665783 0.000000 0.090474
O O7 0.500000 0.138437 0.000000
O O8 0.599730 0.793506 0.343365
O O9 0.797266 0.745520 0.386098
O O10 0.725456 0.000000 0.384267
O O11 0.592423 0.207528 0.701458
O O12 0.526631 0.000000 0.760100
O O13 0.500000 0.797276 0.500000
O O14 0.625335 0.000000 0.612844
#
# Coordination Sequence:
#
# PCOD9188427 Si02
#       5
#     8   8   8   8   8
#     4  12  24  36  55  85 121 159 203 246 294 352
#     4  10  19  36  59  84 119 157 194 235 288 352
#     4  10  21  38  63  90 119 159 202 243 295 361
#     4  10  21  41  63  85 118 160 201 245 305 366
#     4  10  23  42  63  88 119 154 198 255 312 362
#
# _framework density 21.431546000000001
#
# number of rings (size 3 to 8) (size 9 to 14) (size 15 to 20)
#    0.000    1.600    2.000    3.000    0.000    7.200 
#    0.000    0.000    0.000    0.000    0.000    0.000 
#    0.000    0.000    0.000    0.000    0.000    0.000 
#
# Total GULP energy -111501.501709 kJ/mol
# GULP energy per Si atom -5575.075085 kJ/mol
# Density = 2.138277 g / cm^3
# Si number density = 21.431546 Si / 1000 Ang^3
#
#
#
# Elastic Constant Matrix: (Units=GPa)
#
#
# Indices 1 2 3 4 5 6 
#
# 1 83.6328 45.4175 4.5707 0.0000 31.9447 0.0000
# 2 45.4175 91.8877 20.5007 0.0000 14.9328 0.0000
# 3 4.5707 20.5007 50.1096 0.0000 9.2638 0.0000
# 4 0.0000 0.0000 0.0000 8.0306 0.0000 8.4671
# 5 31.9447 14.9328 9.2638 0.0000 34.8029 0.0000
# 6 0.0000 0.0000 0.0000 8.4671 0.0000 27.4039
#
#
#
# Elastic Compliance Matrix: (Units=1/GPa)
#
#
# Indices 1 2 3 4 5 6 
#
# 1 0.024833 -0.010299 0.005622 0.000000 -0.019871 0.000000
# 2 -0.010299 0.016811 -0.006681 0.000000 0.004019 0.000000
# 3 0.005622 -0.006681 0.023771 0.000000 -0.008621 0.000000
# 4 0.000000 0.000000 0.000000 0.184691 0.000000 -0.057065
# 5 -0.019871 0.004019 -0.008621 0.000000 0.047542 0.000000
# 6 0.000000 0.000000 0.000000 -0.057065 0.000000 0.054123
#
#
# Mechanical properties :
#
#
# Convention : Reuss Voigt Hill
#
# Bulk Modulus (GPa) = 23.42059 40.73424 32.07742
# Shear Modulus (GPa) = 12.86273 24.39022 18.62648
#
# Velocity S-wave (km/s) = 2.45251 3.37716 2.95127
# Velocity P-wave (km/s) = 4.35564 5.85277 5.15880
#
# Compressibility (1/GPa) = 0.04269747
#
# Stress axis : x y z
#
# Youngs Moduli (GPa) = 40.26949 59.48498 42.06884
#
# Poissons Ratio (x) = 0.61265 -0.23651
# Poissons Ratio (y) = 0.41474 0.28107
# Poissons Ratio (z) = -0.22639 0.39743
#
# Static dielectric constant tensor:
#      x y z
#    x 1.914570 0.000000 0.013730 
#    y 0.000000 1.918310 0.000000 
#    z 0.013730 0.000000 1.741860 
# 
# From -- ./inp_files/220610.got.cif
#   From: 2010.05.17/outbox.cif.g08.bks.cpg/sg12_111_cif.got.tgz:220610.got - 2010.06.03 13:09:07.
