data_PCOD9188842
_publ_section_title
;
Structure prediction by ZEFSAII (Michael W. Deem and Ramdas Pophale) SiO2 
 PCOD9188842
Probable space group: C 2/M
;
_chemical_formula_sum "Si O2"
_cell_formula_units_Z 56
_cell_length_a 21.007955
_cell_length_b 7.725730
_cell_length_c 31.170584
_cell_angle_alpha 90.000000
_cell_angle_beta 149.537817
_cell_angle_gamma 90.000000
_cell_volume 2564.780006
_symmetry_space_group_name_H-M "C 2/M"
_symmetry_group_IT_number 12
_symmetry_cell_setting 'monoclinic'
loop_
_space_group_symop_operation_xyz
x,y,z
-x,y,-z
-x,-y,-z
x,-y,z
1/2+x,1/2+y,z
1/2-x,1/2+y,-z
1/2-x,1/2-y,-z
1/2+x,1/2-y,z
loop_
_atom_site_type_symbol
_atom_site_label
_atom_site_fract_x
_atom_site_fract_y
_atom_site_fract_z
Si Si1 0.394226 0.798435 0.971091
Si Si2 0.736711 0.701665 0.563987
Si Si3 0.722903 0.790970 0.798558
Si Si4 0.386808 0.305156 0.063677
Si Si5 0.160038 0.786789 0.222210
Si Si6 0.441153 0.790302 0.613644
Si Si7 0.634090 0.198013 0.591755
O O1 0.268632 0.782584 0.870128
O O2 0.421334 0.000000 0.995459
O O3 0.500000 0.727749 0.000000
O O4 0.386687 0.705007 0.011930
O O5 0.757582 0.500000 0.586051
O O6 0.614264 0.720261 0.462826
O O7 0.849626 0.764841 0.599209
O O8 0.715566 0.799792 0.595738
O O9 0.812115 0.738311 0.810850
O O10 0.582542 0.738531 0.704873
O O11 0.726038 0.000000 0.803287
O O12 0.397529 0.500000 0.085343
O O13 0.521221 0.222316 0.154813
O O14 0.250000 0.250000 0.000000
O O15 0.276125 0.727368 0.319192
O O16 0.160159 0.000000 0.223833
O O17 0.435064 0.000000 0.607620
O O18 0.500000 0.278780 0.500000
O O19 0.605140 0.000000 0.588647
#
# Coordination Sequence:
#
# PCOD9188842 Si02
#       7
#     8   8   8   8   8   8   8
#     4  11  23  39  60  88 121 153 192 240 295 355
#     4  10  20  34  52  79 115 149 184 229 285 339
#     4  10  19  36  62  87 111 145 195 242 288 342
#     4  11  23  41  63  88 121 159 203 248 302 358
#     4   9  19  35  58  85 111 147 192 239 287 347
#     4   9  19  35  56  81 110 147 189 233 282 343
#     4  10  20  36  58  81 109 147 190 233 282 342
#
# _framework density 21.834230999999999
#
# number of rings (size 3 to 8) (size 9 to 14) (size 15 to 20)
#    0.000    2.000    1.429    2.143    0.000    5.429 
#    0.000    5.000    0.000    0.000    0.000    0.000 
#    0.000    0.000    0.000    0.000    0.000    0.000 
#
# Total GULP energy -156337.602065 kJ/mol
# GULP energy per Si atom -5583.485788 kJ/mol
# Density = 2.178453 g / cm^3
# Si number density = 21.834231 Si / 1000 Ang^3
#
#
#
# Elastic Constant Matrix: (Units=GPa)
#
#
# Indices 1 2 3 4 5 6 
#
# 1 57.5011 -5.8863 30.4957 0.0004 4.0814 -0.0003
# 2 -5.8863 34.5846 -1.0648 0.0005 6.2982 -0.0004
# 3 30.4957 -1.0648 133.2902 0.0000 18.2053 -0.0001
# 4 0.0004 0.0005 0.0000 13.4592 0.0000 1.0977
# 5 4.0814 6.2982 18.2053 0.0000 34.7970 0.0003
# 6 -0.0003 -0.0004 -0.0001 1.0977 0.0003 14.6626
#
#
#
# Elastic Compliance Matrix: (Units=1/GPa)
#
#
# Indices 1 2 3 4 5 6 
#
# 1 0.020172 0.003409 -0.004502 -0.000001 -0.000628 0.000001
# 2 0.003409 0.030614 0.000297 -0.000001 -0.006097 0.000001
# 3 -0.004502 0.000297 0.009122 0.000000 -0.004298 0.000000
# 4 -0.000001 -0.000001 0.000000 0.074755 0.000000 -0.005597
# 5 -0.000628 -0.006097 -0.004298 0.000000 0.032164 -0.000001
# 6 0.000001 0.000001 0.000000 -0.005597 -0.000001 0.068620
#
#
# Mechanical properties :
#
#
# Convention : Reuss Voigt Hill
#
# Bulk Modulus (GPa) = 17.14784 30.27392 23.71088
# Shear Modulus (GPa) = 19.49486 26.03918 22.76702
#
# Velocity S-wave (km/s) = 2.99131 3.45713 3.23262
# Velocity P-wave (km/s) = 4.44987 5.46179 4.98159
#
# Compressibility (1/GPa) = 0.05831637
#
# Stress axis : x y z
#
# Youngs Moduli (GPa) = 49.57303 32.66454 109.62561
#
# Poissons Ratio (x) = -0.11135 0.49357
# Poissons Ratio (y) = -0.16899 -0.03259
# Poissons Ratio (z) = 0.22319 -0.00971
#
# Static dielectric constant tensor:
#      x y z
#    x 1.777230 0.000000 0.040730 
#    y 0.000000 1.833780 0.000000 
#    z 0.040730 0.000000 1.818280 
# 
# From -- ./inp_files/380645.got.cif
#   From: 2010.05.17/outbox.cif.g08.bks.cpg/sg12_191_cif.got.tgz:380645.got - 2010.06.03 13:09:07.
