data_PCOD9188986
_publ_section_title
;
Structure prediction by ZEFSAII (Michael W. Deem and Ramdas Pophale) SiO2 
 PCOD9188986
Probable space group: C 2/M
;
_chemical_formula_sum "Si O2"
_cell_formula_units_Z 56
_cell_length_a 14.974031
_cell_length_b 13.758541
_cell_length_c 12.428250
_cell_angle_alpha 90.000000
_cell_angle_beta 90.789910
_cell_angle_gamma 90.000000
_cell_volume 2560.234920
_symmetry_space_group_name_H-M "C 2/M"
_symmetry_group_IT_number 12
_symmetry_cell_setting 'monoclinic'
loop_
_space_group_symop_operation_xyz
x,y,z
-x,y,-z
-x,-y,-z
x,-y,z
1/2+x,1/2+y,z
1/2-x,1/2+y,-z
1/2-x,1/2-y,-z
1/2+x,1/2-y,z
loop_
_atom_site_type_symbol
_atom_site_label
_atom_site_fract_x
_atom_site_fract_y
_atom_site_fract_z
Si Si1 0.817911 0.113701 0.861857
Si Si2 0.108785 0.387949 0.818596
Si Si3 0.577556 0.382256 0.347550
Si Si4 0.882106 0.116856 0.288228
Si Si5 0.917171 0.381315 0.425807
Si Si6 0.227058 0.881512 0.519887
Si Si7 0.090969 0.795961 0.945709
O O1 0.716691 0.116884 0.818603
O O2 0.883207 0.146825 0.767597
O O3 0.837553 0.000000 0.887825
O O4 0.833809 0.178818 0.966265
O O5 0.082911 0.500000 0.835771
O O6 0.076099 0.355369 0.700002
O O7 0.079357 0.316029 0.912057
O O8 0.579645 0.500000 0.349876
O O9 0.474006 0.355391 0.351030
O O10 0.646566 0.351370 0.439826
O O11 0.798729 0.148866 0.359676
O O12 0.886178 0.154588 0.167407
O O13 0.880736 0.000000 0.283195
O O14 0.916972 0.500000 0.426216
O O15 0.822423 0.351245 0.475105
O O16 0.000000 0.349184 0.500000
O O17 0.227925 0.000000 0.519548
O O18 0.000000 0.832788 0.000000
#
# Coordination Sequence:
#
# PCOD9188986 Si02
#       7
#     8   8   8   8   8   8   8
#     4  10  19  36  64  91 119 161 204 246 304 371
#     4  10  22  42  64  85 115 161 215 259 305 359
#     4   9  15  28  55  88 120 158 195 232 298 377
#     4  10  20  33  54  90 130 161 193 241 308 378
#     4   9  17  34  61  87 113 154 208 258 303 356
#     4   9  16  30  55  88 124 158 193 244 309 374
#     4  12  24  38  58  88 126 163 208 256 302 361
#
# _framework density 21.872993000000001
#
# number of rings (size 3 to 8) (size 9 to 14) (size 15 to 20)
#    0.000    2.143    2.857    1.286    0.000    2.571 
#    0.000    5.000    0.000    3.429    0.000    0.000 
#    0.000    0.000    0.000    0.000    0.000    0.000 
#
# Total GULP energy -156524.522829 kJ/mol
# GULP energy per Si atom -5590.161530 kJ/mol
# Density = 2.182321 g / cm^3
# Si number density = 21.872993 Si / 1000 Ang^3
#
#
#
# Elastic Constant Matrix: (Units=GPa)
#
#
# Indices 1 2 3 4 5 6 
#
# 1 50.8458 11.5673 37.6751 0.0000 3.5396 0.0000
# 2 11.5673 86.6523 47.7528 0.0000 2.8401 0.0000
# 3 37.6751 47.7528 139.7982 0.0000 6.7330 0.0000
# 4 0.0000 0.0000 0.0000 23.7913 0.0000 3.9382
# 5 3.5396 2.8401 6.7330 0.0000 35.2082 0.0000
# 6 0.0000 0.0000 0.0000 3.9382 0.0000 11.3000
#
#
#
# Elastic Compliance Matrix: (Units=1/GPa)
#
#
# Indices 1 2 3 4 5 6 
#
# 1 0.024641 0.000465 -0.006741 0.000000 -0.001226 0.000000
# 2 0.000465 0.014227 -0.004973 0.000000 -0.000243 0.000000
# 3 -0.006741 -0.004973 0.010715 0.000000 -0.000970 0.000000
# 4 0.000000 0.000000 0.000000 0.044605 0.000000 -0.015545
# 5 -0.001226 -0.000243 -0.000970 0.000000 0.028731 0.000000
# 6 0.000000 0.000000 0.000000 -0.015545 0.000000 0.093913
#
#
# Mechanical properties :
#
#
# Convention : Reuss Voigt Hill
#
# Bulk Modulus (GPa) = 36.91892 52.36518 44.64205
# Shear Modulus (GPa) = 20.13210 26.07997 23.10603
#
# Velocity S-wave (km/s) = 3.03712 3.45677 3.25371
# Velocity P-wave (km/s) = 5.40501 6.31861 5.87959
#
# Compressibility (1/GPa) = 0.02708638
#
# Stress axis : x y z
#
# Youngs Moduli (GPa) = 40.58207 70.28886 93.32408
#
# Poissons Ratio (x) = -0.03272 0.62907
# Poissons Ratio (y) = -0.01889 0.46414
# Poissons Ratio (z) = 0.27355 0.34958
#
# Static dielectric constant tensor:
#      x y z
#    x 1.784110 0.000000 -0.001910 
#    y 0.000000 1.855320 0.000000 
#    z -0.001910 0.000000 1.763060 
# 
# From -- ./inp_files/143743.got.cif
#   From: 2010.05.17/outbox.cif.g08.bks.cpg/sg12_72_cif.got.tgz:143743.got - 2010.06.03 13:09:07.
