data_PCOD9188260
_publ_section_title
;
Structure prediction by ZEFSAII (Michael W. Deem and Ramdas Pophale) SiO2 
 PCOD9188260
Probable space group: C 2/M
;
_chemical_formula_sum "Si O2"
_cell_formula_units_Z 48
_cell_length_a 31.814077
_cell_length_b 8.536032
_cell_length_c 9.899472
_cell_angle_alpha 90.000000
_cell_angle_beta 78.412662
_cell_angle_gamma 90.000000
_cell_volume 2633.570129
_symmetry_space_group_name_H-M "C 2/M"
_symmetry_group_IT_number 12
_symmetry_cell_setting 'monoclinic'
loop_
_space_group_symop_operation_xyz
x,y,z
-x,y,-z
-x,-y,-z
x,-y,z
1/2+x,1/2+y,z
1/2-x,1/2+y,-z
1/2-x,1/2-y,-z
1/2+x,1/2-y,z
loop_
_atom_site_type_symbol
_atom_site_label
_atom_site_fract_x
_atom_site_fract_y
_atom_site_fract_z
Si Si1 0.563960 0.312266 0.169107
Si Si2 0.388199 0.313347 0.369915
Si Si3 0.127294 0.314344 0.912727
Si Si4 0.702398 0.311837 0.051979
Si Si5 0.482232 0.813704 0.361964
Si Si6 0.359798 0.309956 0.677013
O O1 0.559678 0.500000 0.174802
O O2 0.586425 0.260809 0.015884
O O3 0.518835 0.234137 0.232042
O O4 0.597989 0.263997 0.264413
O O5 0.382599 0.500000 0.359877
O O6 0.438162 0.275224 0.362308
O O7 0.363614 0.256885 0.520769
O O8 0.373333 0.231573 0.242987
O O9 0.125443 0.500000 0.930643
O O10 0.169527 0.249058 0.959805
O O11 0.702405 0.500000 0.048500
O O12 0.681212 0.260872 0.208634
O O13 0.750000 0.250000 0.000000
O O14 0.500000 0.773606 0.500000
O O15 0.474583 0.000000 0.361956
O O16 0.360042 0.500000 0.674415
#
# Coordination Sequence:
#
# PCOD9188260 Si02
#       6
#     8   8   8   8   8   8
#     4  10  19  36  58  81 108 151 199 238 277 334
#     4  11  21  37  58  82 112 153 193 235 283 336
#     4  11  23  39  57  84 118 150 183 235 291 340
#     4  10  20  39  64  91 114 145 185 229 278 342
#     4  11  22  34  52  83 118 151 191 240 283 332
#     4   8  17  33  57  83 110 142 186 232 277 330
#
# _framework density 18.226209999999998
#
# number of rings (size 3 to 8) (size 9 to 14) (size 15 to 20)
#    0.000    1.833    1.667    4.500    0.000    1.333 
#    0.000    6.667    0.000    0.000    0.000    0.000 
#    0.000    0.000    0.000    0.000    0.000    0.000 
#
# Total GULP energy -134040.434022 kJ/mol
# GULP energy per Si atom -5585.018084 kJ/mol
# Density = 1.818473 g / cm^3
# Si number density = 18.226210 Si / 1000 Ang^3
#
#
#
# Elastic Constant Matrix: (Units=GPa)
#
#
# Indices 1 2 3 4 5 6 
#
# 1 81.8297 2.2100 40.3553 0.0000 -20.3688 0.0000
# 2 2.2100 40.9559 5.4508 0.0000 4.4416 0.0000
# 3 40.3553 5.4508 132.0375 0.0000 -9.0692 0.0000
# 4 0.0000 0.0000 0.0000 23.5685 0.0000 0.8859
# 5 -20.3688 4.4416 -9.0692 0.0000 20.6793 0.0000
# 6 0.0000 0.0000 0.0000 0.8859 0.0000 29.6552
#
#
#
# Elastic Compliance Matrix: (Units=1/GPa)
#
#
# Indices 1 2 3 4 5 6 
#
# 1 0.018698 -0.002253 -0.004458 0.000000 0.016946 0.000000
# 2 -0.002253 0.025540 -0.000923 0.000000 -0.008110 0.000000
# 3 -0.004458 -0.000923 0.008956 0.000000 -0.000265 0.000000
# 4 0.000000 0.000000 0.000000 0.042477 0.000000 -0.001269
# 5 0.016946 -0.008110 -0.000265 0.000000 0.066675 0.000000
# 6 0.000000 0.000000 0.000000 -0.001269 0.000000 0.033759
#
#
# Mechanical properties :
#
#
# Convention : Reuss Voigt Hill
#
# Bulk Modulus (GPa) = 26.36678 38.98394 32.67536
# Shear Modulus (GPa) = 22.31989 28.56774 25.44381
#
# Velocity S-wave (km/s) = 3.50323 3.96333 3.74036
# Velocity P-wave (km/s) = 5.55530 6.50995 6.05148
#
# Compressibility (1/GPa) = 0.03792652
#
# Stress axis : x y z
#
# Youngs Moduli (GPa) = 53.48171 39.15367 111.65758
#
# Poissons Ratio (x) = 0.08823 0.49774
# Poissons Ratio (y) = 0.12052 0.10302
# Poissons Ratio (z) = 0.23841 0.03613
#
# Static dielectric constant tensor:
#      x y z
#    x 1.591780 0.000000 -0.012720 
#    y 0.000000 1.609180 0.000000 
#    z -0.012720 0.000000 1.640250 
# 
# From -- ./inp_files/108719.got.cif
#   From: 2010.05.17/outbox.cif.g08.bks.cpg/sg12_55_cif.got.tgz:108719.got - 2010.06.03 13:09:07.
