data_PCOD9188543
_publ_section_title
;
Structure prediction by ZEFSAII (Michael W. Deem and Ramdas Pophale) SiO2 
 PCOD9188543
Probable space group: C 2/M
;
_chemical_formula_sum "Si O2"
_cell_formula_units_Z 56
_cell_length_a 20.740161
_cell_length_b 7.612143
_cell_length_c 20.093067
_cell_angle_alpha 90.000000
_cell_angle_beta 55.930934
_cell_angle_gamma 90.000000
_cell_volume 2627.761440
_symmetry_space_group_name_H-M "C 2/M"
_symmetry_group_IT_number 12
_symmetry_cell_setting 'monoclinic'
loop_
_space_group_symop_operation_xyz
x,y,z
-x,y,-z
-x,-y,-z
x,-y,z
1/2+x,1/2+y,z
1/2-x,1/2+y,-z
1/2-x,1/2-y,-z
1/2+x,1/2-y,z
loop_
_atom_site_type_symbol
_atom_site_label
_atom_site_fract_x
_atom_site_fract_y
_atom_site_fract_z
Si Si1 0.101070 0.795708 0.762952
Si Si2 0.723412 0.713113 0.303836
Si Si3 0.161649 0.290563 0.069006
Si Si4 0.375888 0.294491 0.758920
Si Si5 0.475102 0.203708 0.943466
Si Si6 0.083679 0.214079 0.481737
Si Si7 0.551225 0.715219 0.646496
O O1 0.191197 0.780216 0.729178
O O2 0.045833 0.709225 0.850058
O O3 0.086803 0.726906 0.696269
O O4 0.077853 0.000000 0.776360
O O5 0.729064 0.500000 0.301898
O O6 0.691217 0.773939 0.250689
O O7 0.656881 0.767956 0.394829
O O8 0.151524 0.500000 0.078030
O O9 0.142685 0.221523 0.153141
O O10 0.100219 0.219540 0.050380
O O11 0.250000 0.250000 0.000000
O O12 0.381998 0.500000 0.738218
O O13 0.461756 0.222496 0.695738
O O14 0.454965 0.000000 0.969057
O O15 0.500000 0.282856 0.000000
O O16 0.090618 0.269513 0.554618
O O17 0.000000 0.269968 0.500000
O O18 0.082508 0.000000 0.480835
O O19 0.552391 0.500000 0.646286
#
# Coordination Sequence:
#
# PCOD9188543 Si02
#       7
#     8   8   8   8   8   8   8
#     4  11  23  38  57  83 119 155 186 231 290 348
#     4  10  21  35  58  87 115 150 196 242 279 330
#     4  11  24  40  61  89 118 148 186 236 284 338
#     4  10  19  36  60  84 113 151 193 237 282 332
#     4  10  23  43  63  83 111 149 191 234 280 333
#     4   9  15  29  55  86 112 143 194 244 280 324
#     4   9  17  32  56  83 112 148 190 235 282 332
#
# _framework density 21.310915000000001
#
# number of rings (size 3 to 8) (size 9 to 14) (size 15 to 20)
#    0.000    2.000    2.857    0.857    2.000    2.000 
#    0.000    0.000    0.000    2.143    0.000    0.000 
#    0.000    0.000    0.000    0.000    0.000    0.000 
#
# Total GULP energy -156383.797729 kJ/mol
# GULP energy per Si atom -5585.135633 kJ/mol
# Density = 2.126241 g / cm^3
# Si number density = 21.310915 Si / 1000 Ang^3
#
#
#
# Elastic Constant Matrix: (Units=GPa)
#
#
# Indices 1 2 3 4 5 6 
#
# 1 177.3130 -6.5383 71.3123 0.0004 20.6228 0.0008
# 2 -6.5383 39.5571 -14.5583 0.0006 5.4054 0.0012
# 3 71.3123 -14.5583 114.9514 0.0001 25.2293 0.0000
# 4 0.0004 0.0006 0.0001 -10.6990 0.0000 -3.9821
# 5 20.6228 5.4054 25.2293 0.0000 44.5007 0.0001
# 6 0.0008 0.0012 0.0000 -3.9821 0.0001 13.6734
#
#
#
# Elastic Compliance Matrix: (Units=1/GPa)
#
#
# Indices 1 2 3 4 5 6 
#
# 1 0.007554 -0.000294 -0.004526 0.000000 -0.000899 0.000000
# 2 -0.000294 0.027933 0.005065 0.000002 -0.006128 -0.000002
# 3 -0.004526 0.005065 0.013504 0.000000 -0.006174 0.000000
# 4 0.000000 0.000002 0.000000 -0.084327 -0.000001 -0.024558
# 5 -0.000899 -0.006128 -0.006174 -0.000001 0.027133 0.000000
# 6 0.000000 -0.000002 0.000000 -0.024558 0.000000 0.065982
#
#
# Mechanical properties :
#
#
# Convention : Reuss Voigt Hill
#
# Bulk Modulus (GPa) = 20.21027 48.02811 34.11919
# Shear Modulus (GPa) = 67.76663 28.26875 48.01769
#
# Velocity S-wave (km/s) = 5.64518 3.64605 4.75193
# Velocity P-wave (km/s) = 7.21075 6.34907 6.79359
#
# Compressibility (1/GPa) = 0.04947980
#
# Stress axis : x y z
#
# Youngs Moduli (GPa) = 132.38436 35.80010 74.05388
#
# Poissons Ratio (x) = 0.01054 0.33518
# Poissons Ratio (y) = 0.03898 -0.37511
# Poissons Ratio (z) = 0.59919 -0.18134
#
# Static dielectric constant tensor:
#      x y z
#    x 1.756200 0.000000 0.033050 
#    y 0.000000 1.844210 0.000000 
#    z 0.033050 0.000000 1.733870 
# 
# From -- ./inp_files/275289.got.cif
#   From: 2010.05.17/outbox.cif.g08.bks.cpg/sg12_138_cif.got.tgz:275289.got - 2010.06.03 13:09:07.
