data_PCOD9188291
_publ_section_title
;
Structure prediction by ZEFSAII (Michael W. Deem and Ramdas Pophale) SiO2 
 PCOD9188291
Probable space group: C 2/M
;
_chemical_formula_sum "Si O2"
_cell_formula_units_Z 56
_cell_length_a 32.260934
_cell_length_b 7.701016
_cell_length_c 13.680059
_cell_angle_alpha 90.000000
_cell_angle_beta 47.980802
_cell_angle_gamma 90.000000
_cell_volume 2524.964762
_symmetry_space_group_name_H-M "C 2/M"
_symmetry_group_IT_number 12
_symmetry_cell_setting 'monoclinic'
loop_
_space_group_symop_operation_xyz
x,y,z
-x,y,-z
-x,-y,-z
x,-y,z
1/2+x,1/2+y,z
1/2-x,1/2+y,-z
1/2-x,1/2-y,-z
1/2+x,1/2-y,z
loop_
_atom_site_type_symbol
_atom_site_label
_atom_site_fract_x
_atom_site_fract_y
_atom_site_fract_z
Si Si1 0.245522 0.293131 0.893091
Si Si2 0.312057 0.208215 0.367721
Si Si3 0.866799 0.297007 0.643819
Si Si4 0.955478 0.799511 0.650134
Si Si5 0.351708 0.213531 0.092979
Si Si6 0.593427 0.786277 0.631210
Si Si7 0.529742 0.801132 0.155115
O O1 0.246402 0.500000 0.882034
O O2 0.300537 0.224255 0.752194
O O3 0.188960 0.230232 0.930593
O O4 0.250000 0.250000 0.000000
O O5 0.250000 0.250000 0.500000
O O6 0.325550 0.269110 0.237101
O O7 0.358272 0.271198 0.371667
O O8 0.316970 0.000000 0.357817
O O9 0.880235 0.500000 0.630142
O O10 0.896012 0.210398 0.690742
O O11 0.892150 0.230382 0.501981
O O12 0.958659 0.700976 0.746782
O O13 0.000000 0.732979 0.500000
O O14 0.969415 0.000000 0.649022
O O15 0.353513 0.000000 0.087604
O O16 0.415060 0.276889 0.980368
O O17 0.532015 0.725515 0.759853
O O18 0.592778 0.000000 0.630581
O O19 0.526144 0.000000 0.125794
#
# Coordination Sequence:
#
# PCOD9188291 Si02
#       7
#     8   8   8   8   8   8   8
#     4  11  22  37  55  82 113 149 191 236 283 338
#     4  10  20  38  59  84 112 144 185 233 281 335
#     4  11  21  35  55  82 112 149 189 233 281 337
#     4  11  22  35  53  82 116 151 188 231 280 334
#     4   9  20  36  58  83 112 146 187 232 282 334
#     4   9  19  33  56  85 111 140 186 233 279 334
#     4  10  19  36  58  83 113 150 188 231 282 339
#
# _framework density 22.178526999999999
#
# number of rings (size 3 to 8) (size 9 to 14) (size 15 to 20)
#    0.000    1.857    1.429    3.000    0.000    2.286 
#    0.000    6.429    0.000    0.000    0.000    2.000 
#    0.000    0.000    0.000    0.000    0.000    0.000 
#
# Total GULP energy -156523.601919 kJ/mol
# GULP energy per Si atom -5590.128640 kJ/mol
# Density = 2.212805 g / cm^3
# Si number density = 22.178527 Si / 1000 Ang^3
#
#
#
# Elastic Constant Matrix: (Units=GPa)
#
#
# Indices 1 2 3 4 5 6 
#
# 1 173.5227 -3.0523 70.2201 0.0000 -21.5116 0.0000
# 2 -3.0523 43.4368 -3.9327 0.0000 1.0799 -0.0001
# 3 70.2201 -3.9327 140.7526 0.0000 -27.8145 0.0000
# 4 0.0000 0.0000 0.0000 12.3345 0.0000 -7.4386
# 5 -21.5116 1.0799 -27.8145 0.0000 42.7323 0.0000
# 6 0.0000 -0.0001 0.0000 -7.4386 0.0000 14.0515
#
#
#
# Elastic Compliance Matrix: (Units=1/GPa)
#
#
# Indices 1 2 3 4 5 6 
#
# 1 0.007305 0.000173 -0.003344 0.000000 0.001496 0.000000
# 2 0.000173 0.023086 0.000528 0.000000 -0.000152 0.000000
# 3 -0.003344 0.000528 0.009700 0.000000 0.004617 0.000000
# 4 0.000000 0.000000 0.000000 0.119095 0.000000 0.063047
# 5 0.001496 -0.000152 0.004617 0.000000 0.027164 0.000000
# 6 0.000000 0.000000 0.000000 0.063047 0.000000 0.104543
#
#
# Mechanical properties :
#
#
# Convention : Reuss Voigt Hill
#
# Bulk Modulus (GPa) = 28.73010 53.79804 41.26407
# Shear Modulus (GPa) = 16.24545 33.45545 24.85045
#
# Velocity S-wave (km/s) = 2.70938 3.88810 3.35098
# Velocity P-wave (km/s) = 4.77177 6.66828 5.79809
#
# Compressibility (1/GPa) = 0.03480671
#
# Stress axis : x y z
#
# Youngs Moduli (GPa) = 136.90052 43.31670 103.09340
#
# Poissons Ratio (x) = -0.00751 0.34471
# Poissons Ratio (y) = -0.02373 -0.05448
# Poissons Ratio (z) = 0.45775 -0.02289
#
# Static dielectric constant tensor:
#      x y z
#    x 1.799590 0.000000 -0.020510 
#    y 0.000000 1.862650 0.000000 
#    z -0.020510 0.000000 1.785950 
# 
# From -- ./inp_files/187167.got.cif
#   From: 2010.05.17/outbox.cif.g08.bks.cpg/sg12_94_cif.got.tgz:187167.got - 2010.06.03 13:09:07.
