data_PCOD9188386
_publ_section_title
;
Structure prediction by ZEFSAII (Michael W. Deem and Ramdas Pophale) SiO2 
 PCOD9188386
Probable space group: C 2/M
;
_chemical_formula_sum "Si O2"
_cell_formula_units_Z 40
_cell_length_a 14.090916
_cell_length_b 13.210194
_cell_length_c 14.353195
_cell_angle_alpha 90.000000
_cell_angle_beta 138.397434
_cell_angle_gamma 90.000000
_cell_volume 1773.939189
_symmetry_space_group_name_H-M "C 2/M"
_symmetry_group_IT_number 12
_symmetry_cell_setting 'monoclinic'
loop_
_space_group_symop_operation_xyz
x,y,z
-x,y,-z
-x,-y,-z
x,-y,z
1/2+x,1/2+y,z
1/2-x,1/2+y,-z
1/2-x,1/2-y,-z
1/2+x,1/2-y,z
loop_
_atom_site_type_symbol
_atom_site_label
_atom_site_fract_x
_atom_site_fract_y
_atom_site_fract_z
Si Si1 0.881802 0.113277 0.035788
Si Si2 0.882820 0.738144 0.492974
Si Si3 0.350932 0.112523 0.764579
Si Si4 0.834946 0.667917 0.962185
Si Si5 0.625128 0.614821 0.351512
O O1 0.787716 0.130091 0.059785
O O2 0.043167 0.121368 0.192574
O O3 0.858550 0.000000 0.980630
O O4 0.838777 0.211231 0.944938
O O5 0.760567 0.811310 0.361432
O O6 0.792013 0.641883 0.460618
O O7 0.937449 0.802412 0.622078
O O8 0.000000 0.718788 0.500000
O O9 0.327615 0.113750 0.858525
O O10 0.329720 0.000000 0.711939
O O11 0.516007 0.143946 0.876513
O O12 0.603403 0.500000 0.369013
#
# Coordination Sequence:
#
# PCOD9188386 Si02
#       5
#     8   8   8   8   8
#     4  10  19  36  59  82 114 151 187 232 291 349
#     4  11  23  39  62  89 118 154 201 246 290 348
#     4  11  21  36  56  84 115 147 188 240 291 340
#     4  10  20  34  56  85 115 145 188 235 288 345
#     4  10  22  41  62  87 119 155 195 244 297 349
#
# _framework density 22.548687000000001
#
# number of rings (size 3 to 8) (size 9 to 14) (size 15 to 20)
#    0.000    1.600    2.000    4.200    0.000    3.600 
#    0.000    3.000    0.000    0.000    0.000    0.000 
#    0.000    0.000    0.000    0.000    0.000    0.000 
#
# Total GULP energy -111793.326309 kJ/mol
# GULP energy per Si atom -5589.666315 kJ/mol
# Density = 2.249737 g / cm^3
# Si number density = 22.548687 Si / 1000 Ang^3
#
#
#
# Elastic Constant Matrix: (Units=GPa)
#
#
# Indices 1 2 3 4 5 6 
#
# 1 86.0979 0.5928 -8.1901 0.0000 16.1327 0.0000
# 2 0.5928 115.9905 -2.7854 0.0000 -3.3539 0.0000
# 3 -8.1901 -2.7854 43.1180 0.0000 1.8358 0.0000
# 4 0.0000 0.0000 0.0000 19.0288 0.0000 -5.8903
# 5 16.1327 -3.3539 1.8358 0.0000 20.8351 0.0000
# 6 0.0000 0.0000 0.0000 -5.8903 0.0000 16.0849
#
#
#
# Elastic Compliance Matrix: (Units=1/GPa)
#
#
# Indices 1 2 3 4 5 6 
#
# 1 0.014006 -0.000320 0.003115 0.000000 -0.011171 0.000000
# 2 -0.000320 0.008680 0.000432 0.000000 0.001607 0.000000
# 3 0.003115 0.000432 0.024002 0.000000 -0.004458 0.000000
# 4 0.000000 0.000000 0.000000 0.059271 0.000000 0.021705
# 5 -0.011171 0.001607 -0.004458 0.000000 0.057297 0.000000
# 6 0.000000 0.000000 0.000000 0.021705 0.000000 0.070118
#
#
# Mechanical properties :
#
#
# Convention : Reuss Voigt Hill
#
# Bulk Modulus (GPa) = 18.81738 24.93790 21.87764
# Shear Modulus (GPa) = 20.43872 28.22905 24.33388
#
# Velocity S-wave (km/s) = 3.01396 3.54208 3.28864
# Velocity P-wave (km/s) = 4.52496 5.27371 4.91362
#
# Compressibility (1/GPa) = 0.05314237
#
# Stress axis : x y z
#
# Youngs Moduli (GPa) = 71.39561 115.20936 41.66384
#
# Poissons Ratio (x) = 0.03684 -0.12980
# Poissons Ratio (y) = 0.02283 -0.01798
# Poissons Ratio (z) = -0.22243 -0.04972
#
# Static dielectric constant tensor:
#      x y z
#    x 1.822000 0.000000 -0.007150 
#    y 0.000000 1.839770 0.000000 
#    z -0.007150 0.000000 1.837340 
# 
# From -- ./inp_files/59207.got.cif
#   From: 2010.05.17/outbox.cif.g08.bks.cpg/sg12_30_cif.got.tgz:59207.got - 2010.06.03 13:09:07.
