data_PCOD9188283
_publ_section_title
;
Structure prediction by ZEFSAII (Michael W. Deem and Ramdas Pophale) SiO2 
 PCOD9188283
Probable space group: C 2/M
;
_chemical_formula_sum "Si O2"
_cell_formula_units_Z 58
_cell_length_a 25.034471
_cell_length_b 8.475285
_cell_length_c 14.463407
_cell_angle_alpha 90.000000
_cell_angle_beta 86.720134
_cell_angle_gamma 90.000000
_cell_volume 3063.736232
_symmetry_space_group_name_H-M "C 2/M"
_symmetry_group_IT_number 12
_symmetry_cell_setting 'monoclinic'
loop_
_space_group_symop_operation_xyz
x,y,z
-x,y,-z
-x,-y,-z
x,-y,z
1/2+x,1/2+y,z
1/2-x,1/2+y,-z
1/2-x,1/2-y,-z
1/2+x,1/2-y,z
loop_
_atom_site_type_symbol
_atom_site_label
_atom_site_fract_x
_atom_site_fract_y
_atom_site_fract_z
Si Si1 0.522826 0.190664 0.395899
Si Si2 0.854220 0.307196 0.614940
Si Si3 0.292504 0.689800 0.070132
Si Si4 0.172589 0.685874 0.587473
Si Si5 0.000000 0.500000 0.000000
Si Si6 0.597176 0.173737 0.899247
Si Si7 0.573482 0.316049 0.705450
Si Si8 0.746207 0.811231 0.271171
O O1 0.500000 0.230529 0.500000
O O2 0.584362 0.242001 0.381561
O O3 0.485147 0.266648 0.322643
O O4 0.520330 0.000000 0.387187
O O5 0.854900 0.500000 0.613738
O O6 0.831318 0.256722 0.517579
O O7 0.813436 0.254259 0.698385
O O8 0.294118 0.500000 0.068681
O O9 0.352411 0.755459 0.051666
O O10 0.272159 0.745646 0.173406
O O11 0.250000 0.750000 0.000000
O O12 0.183923 0.500000 0.585329
O O13 0.115285 0.717072 0.640218
O O14 0.216035 0.769922 0.646639
O O15 0.044756 0.635265 0.964661
O O16 0.583328 0.278008 0.811648
O O17 0.614105 0.000000 0.860865
O O18 0.583169 0.500000 0.687258
O O19 0.743631 0.000000 0.263790
#
# Coordination Sequence:
#
# PCOD9188283 Si02
#       8
#     8   8   8   8   2   8   8   8
#     4  10  19  36  58  82 117 165 216 254 294 355
#     4   9  19  36  56  84 122 162 206 254 304 360
#     4  11  23  40  65  96 129 168 210 263 321 386
#     4  11  20  34  60  88 118 161 207 251 297 361
#     4   8  24  44  74 100 114 160 206 270 330 384
#     4  10  21  44  69  93 119 152 208 257 317 387
#     4  12  23  36  59  91 123 162 203 251 308 371
#     4  10  21  38  58  88 121 159 202 252 313 365
#
# _framework density 18.931134
#
# number of rings (size 3 to 8) (size 9 to 14) (size 15 to 20)
#    0.414    1.241    2.759    2.897    0.000    0.828 
#    2.483    2.759    0.000    0.000    0.000    0.000 
#    0.000    0.000    0.000    0.000    0.000    0.000 
#
# Total GULP energy -161569.604584 kJ/mol
# GULP energy per Si atom -5571.365675 kJ/mol
# Density = 1.888805 g / cm^3
# Si number density = 18.931134 Si / 1000 Ang^3
#
#
#
# Elastic Constant Matrix: (Units=GPa)
#
#
# Indices 1 2 3 4 5 6 
#
# 1 121.9450 3.4960 50.8412 0.0000 -8.0653 0.0000
# 2 3.4960 18.4588 9.9524 0.0000 -1.9471 0.0000
# 3 50.8412 9.9524 47.2912 0.0000 1.6414 0.0000
# 4 0.0000 0.0000 0.0000 19.8384 0.0000 6.0966
# 5 -8.0653 -1.9471 1.6414 0.0000 37.0284 0.0000
# 6 0.0000 0.0000 0.0000 6.0966 0.0000 20.7942
#
#
#
# Elastic Compliance Matrix: (Units=1/GPa)
#
#
# Indices 1 2 3 4 5 6 
#
# 1 0.016417 0.007907 -0.019482 0.000000 0.004855 0.000000
# 2 0.007907 0.065452 -0.022489 0.000000 0.006161 0.000000
# 3 -0.019482 -0.022489 0.047084 0.000000 -0.007513 0.000000
# 4 0.000000 0.000000 0.000000 0.055399 0.000000 -0.016242
# 5 0.004855 0.006161 -0.007513 0.000000 0.028721 0.000000
# 6 0.000000 0.000000 0.000000 -0.016242 0.000000 0.052852
#
#
# Mechanical properties :
#
#
# Convention : Reuss Voigt Hill
#
# Bulk Modulus (GPa) = 16.44050 35.14157 25.79103
# Shear Modulus (GPa) = 14.11119 23.75924 18.93521
#
# Velocity S-wave (km/s) = 2.73316 3.54649 3.16605
# Velocity P-wave (km/s) = 4.32012 5.94754 5.19792
#
# Compressibility (1/GPa) = 0.06082542
#
# Stress axis : x y z
#
# Youngs Moduli (GPa) = 60.91095 15.27829 21.23869
#
# Poissons Ratio (x) = -0.12081 0.41378
# Poissons Ratio (y) = -0.48163 0.47763
# Poissons Ratio (z) = 1.18669 0.34359
#
# Static dielectric constant tensor:
#      x y z
#    x 1.664490 0.000000 -0.014370 
#    y 0.000000 1.648930 0.000000 
#    z -0.014370 0.000000 1.644990 
# 
# From -- ./inp_files/237613.got.cif
#   From: 2010.05.17/outbox.cif.g08.bks.cpg/sg12_119_cif.got.tgz:237613.got - 2010.06.03 13:09:07.
