data_PCOD9188536
_publ_section_title
;
Structure prediction by ZEFSAII (Michael W. Deem and Ramdas Pophale) SiO2 
 PCOD9188536
Probable space group: C 2/M
;
_chemical_formula_sum "Si O2"
_cell_formula_units_Z 56
_cell_length_a 15.746221
_cell_length_b 10.965009
_cell_length_c 27.137112
_cell_angle_alpha 90.000000
_cell_angle_beta 39.139300
_cell_angle_gamma 90.000000
_cell_volume 2957.477365
_symmetry_space_group_name_H-M "C 2/M"
_symmetry_group_IT_number 12
_symmetry_cell_setting 'monoclinic'
loop_
_space_group_symop_operation_xyz
x,y,z
-x,y,-z
-x,-y,-z
x,-y,z
1/2+x,1/2+y,z
1/2-x,1/2+y,-z
1/2-x,1/2-y,-z
1/2+x,1/2-y,z
loop_
_atom_site_type_symbol
_atom_site_label
_atom_site_fract_x
_atom_site_fract_y
_atom_site_fract_z
Si Si1 0.321711 0.198955 0.888716
Si Si2 0.717229 0.861263 0.300674
Si Si3 0.241077 0.364324 0.570615
Si Si4 0.619464 0.133039 0.730849
Si Si5 0.693454 0.643979 0.848504
Si Si6 0.091492 0.362576 0.532552
Si Si7 0.585902 0.635055 0.066456
O O1 0.462556 0.133812 0.814671
O O2 0.255032 0.218979 0.865710
O O3 0.364140 0.308919 0.905216
O O4 0.208095 0.134746 0.973031
O O5 0.809670 0.751166 0.277854
O O6 0.718197 0.853118 0.240756
O O7 0.567802 0.847759 0.389413
O O8 0.763958 0.000000 0.291872
O O9 0.306414 0.500000 0.542355
O O10 0.143815 0.357743 0.661378
O O11 0.157371 0.358030 0.557550
O O12 0.342481 0.250063 0.526055
O O13 0.676054 0.000000 0.721144
O O14 0.685068 0.500000 0.868262
O O15 0.545710 0.692868 0.899632
O O16 0.118492 0.500000 0.500375
O O17 0.538504 0.500000 0.098806
#
# Coordination Sequence:
#
# PCOD9188536 Si02
#       7
#     8   8   8   8   8   8   8
#     4  11  21  35  61  85 115 150 194 239 291 343
#     4  10  21  37  57  81 113 149 191 239 281 335
#     4   9  19  35  56  80 109 144 184 231 286 341
#     4  11  22  36  54  82 115 149 187 235 290 343
#     4  10  19  36  60  84 111 150 196 238 282 341
#     4   9  18  35  57  81 107 141 188 236 279 333
#     4  10  21  37  58  86 116 148 192 243 291 345
#
# _framework density 18.935054999999998
#
# number of rings (size 3 to 8) (size 9 to 14) (size 15 to 20)
#    0.000    2.000    1.429    2.571    0.000    5.143 
#    0.000    3.571    0.000    5.143    0.000    0.000 
#    0.000    0.000    0.000    0.000    0.000    0.000 
#
# Total GULP energy -156048.074880 kJ/mol
# GULP energy per Si atom -5573.145531 kJ/mol
# Density = 1.889196 g / cm^3
# Si number density = 18.935055 Si / 1000 Ang^3
#
#
#
# Elastic Constant Matrix: (Units=GPa)
#
#
# Indices 1 2 3 4 5 6 
#
# 1 69.1468 32.9317 -1.5299 0.0000 0.1027 0.0000
# 2 32.9317 90.8280 34.3249 0.0000 -4.3626 0.0000
# 3 -1.5299 34.3249 88.3562 0.0000 -4.6497 0.0000
# 4 0.0000 0.0000 0.0000 4.9778 0.0000 -11.0169
# 5 0.1027 -4.3626 -4.6497 0.0000 31.7249 0.0000
# 6 0.0000 0.0000 0.0000 -11.0169 0.0000 9.9876
#
#
#
# Elastic Compliance Matrix: (Units=1/GPa)
#
#
# Indices 1 2 3 4 5 6 
#
# 1 0.018323 -0.007949 0.003371 0.000000 -0.000658 0.000000
# 2 -0.007949 0.016387 -0.006434 0.000000 0.001336 0.000000
# 3 0.003371 -0.006434 0.013936 0.000000 0.001147 0.000000
# 4 0.000000 0.000000 0.000000 -0.139381 0.000000 -0.153746
# 5 -0.000658 0.001336 0.001147 0.000000 0.031875 0.000000
# 6 0.000000 0.000000 0.000000 -0.153746 0.000000 -0.069467
#
#
# Mechanical properties :
#
#
# Convention : Reuss Voigt Hill
#
# Bulk Modulus (GPa) = 37.56169 42.19827 39.87998
# Shear Modulus (GPa) = -51.31934 21.51168 -14.90383
#
# Velocity S-wave (km/s) = -5.21168 3.37423 -2.80858
# Velocity P-wave (km/s) = 4.04170 6.12493 3.25418
#
# Compressibility (1/GPa) = 0.02662287
#
# Stress axis : x y z
#
# Youngs Moduli (GPa) = 54.57538 61.02263 71.75735
#
# Poissons Ratio (x) = 0.48507 -0.24187
# Poissons Ratio (y) = 0.43382 0.46165
# Poissons Ratio (z) = -0.18395 0.39259
#
# Static dielectric constant tensor:
#      x y z
#    x 1.646950 0.000000 -0.002990 
#    y 0.000000 1.679080 0.000000 
#    z -0.002990 0.000000 1.655800 
# 
# From -- ./inp_files/360773.got.cif
#   From: 2010.05.17/outbox.cif.g08.bks.cpg/sg12_181_cif.got.tgz:360773.got - 2010.06.03 13:09:07.
