data_PCOD9188519
_publ_section_title
;
Structure prediction by ZEFSAII (Michael W. Deem and Ramdas Pophale) SiO2 
 PCOD9188519
Probable space group: C 2/M
;
_chemical_formula_sum "Si O2"
_cell_formula_units_Z 58
_cell_length_a 12.651140
_cell_length_b 30.115547
_cell_length_c 8.097127
_cell_angle_alpha 90.000000
_cell_angle_beta 71.937244
_cell_angle_gamma 90.000000
_cell_volume 2932.937765
_symmetry_space_group_name_H-M "C 2/M"
_symmetry_group_IT_number 12
_symmetry_cell_setting 'monoclinic'
loop_
_space_group_symop_operation_xyz
x,y,z
-x,y,-z
-x,-y,-z
x,-y,z
1/2+x,1/2+y,z
1/2-x,1/2+y,-z
1/2-x,1/2-y,-z
1/2+x,1/2-y,z
loop_
_atom_site_type_symbol
_atom_site_label
_atom_site_fract_x
_atom_site_fract_y
_atom_site_fract_z
Si Si1 0.590303 0.949843 0.310118
Si Si2 0.079451 0.846790 0.616950
Si Si3 0.979980 0.362819 0.817032
Si Si4 0.594738 0.268947 0.840343
Si Si5 0.500000 0.500000 0.000000
Si Si6 0.836769 0.081253 0.178515
Si Si7 0.755053 0.834536 0.028641
Si Si8 0.200473 0.318292 0.671678
O O1 0.500000 0.948664 0.500000
O O2 0.547159 0.913899 0.201846
O O3 0.714974 0.934847 0.298427
O O4 0.595897 0.000000 0.243343
O O5 0.038470 0.807321 0.756626
O O6 0.098802 0.891645 0.710110
O O7 0.199107 0.829267 0.497202
O O8 0.000000 0.852974 0.500000
O O9 0.091935 0.346882 0.676043
O O10 0.867736 0.336396 0.830170
O O11 0.000000 0.356287 0.000000
O O12 0.657826 0.232161 0.703836
O O13 0.500000 0.247119 0.000000
O O14 0.679058 0.294525 0.919894
O O15 0.406685 0.539471 0.083332
O O16 0.813922 0.118950 0.049522
O O17 0.740426 0.829972 0.839415
#
# Coordination Sequence:
#
# PCOD9188519 Si02
#       8
#     8   8   8   8   2   8   8   8
#     4  10  19  36  60  83 112 146 192 243 302 363
#     4  11  25  40  61  88 127 160 201 253 314 358
#     4   9  19  35  55  84 115 150 188 244 296 351
#     4  11  22  38  60  89 120 166 211 246 293 361
#     4  12  24  40  72  84 126 148 224 244 302 380
#     4  10  23  41  63  92 116 163 203 253 305 372
#     4   9  20  36  63  88 121 164 208 243 302 357
#     4  11  21  38  60  88 125 156 201 255 300 353
#
# _framework density 19.775393000000001
#
# number of rings (size 3 to 8) (size 9 to 14) (size 15 to 20)
#    0.000    1.793    0.690    3.724    5.793    1.379 
#    0.000    2.414    0.000    0.000    0.000    0.000 
#    0.000    0.000    0.000    0.000    0.000    0.000 
#
# Total GULP energy -161708.040385 kJ/mol
# GULP energy per Si atom -5576.139324 kJ/mol
# Density = 1.973038 g / cm^3
# Si number density = 19.775393 Si / 1000 Ang^3
#
#
#
# Elastic Constant Matrix: (Units=GPa)
#
#
# Indices 1 2 3 4 5 6 
#
# 1 101.5033 51.5623 20.0397 0.0000 -2.4953 0.0000
# 2 51.5623 128.5972 9.6305 0.0000 5.1066 0.0000
# 3 20.0397 9.6305 20.1968 0.0000 -4.3031 0.0000
# 4 0.0000 0.0000 0.0000 20.6793 0.0000 -6.7654
# 5 -2.4953 5.1066 -4.3031 0.0000 36.8837 0.0000
# 6 0.0000 0.0000 0.0000 -6.7654 0.0000 31.0942
#
#
#
# Elastic Compliance Matrix: (Units=1/GPa)
#
#
# Indices 1 2 3 4 5 6 
#
# 1 0.014842 -0.005043 -0.012264 0.000000 0.000272 0.000000
# 2 -0.005043 0.009872 -0.000069 0.000000 -0.001716 0.000000
# 3 -0.012264 -0.000069 0.063108 0.000000 0.006542 0.000000
# 4 0.000000 0.000000 0.000000 0.052064 0.000000 0.011328
# 5 0.000272 -0.001716 0.006542 0.000000 0.028131 0.000000
# 6 0.000000 0.000000 0.000000 0.011328 0.000000 0.034625
#
#
# Mechanical properties :
#
#
# Convention : Reuss Voigt Hill
#
# Bulk Modulus (GPa) = 18.84307 45.86247 32.35277
# Shear Modulus (GPa) = 19.60154 29.00242 24.30198
#
# Velocity S-wave (km/s) = 3.15176 3.83376 3.50937
# Velocity P-wave (km/s) = 4.77431 6.54515 5.72857
#
# Compressibility (1/GPa) = 0.05306991
#
# Stress axis : x y z
#
# Youngs Moduli (GPa) = 67.37783 101.30003 15.84596
#
# Poissons Ratio (x) = 0.51089 0.19433
# Poissons Ratio (y) = 0.33981 0.00109
# Poissons Ratio (z) = 0.82629 0.00696
#
# Static dielectric constant tensor:
#      x y z
#    x 1.722350 0.000000 -0.032900 
#    y 0.000000 1.670350 0.000000 
#    z -0.032900 0.000000 1.704280 
# 
# From -- ./inp_files/54236.got.cif
#   From: 2010.05.17/outbox.cif.g08.bks.cpg/sg12_28_cif.got.tgz:54236.got - 2010.06.03 13:09:07.
