data_PCOD9188728
_publ_section_title
;
Structure prediction by ZEFSAII (Michael W. Deem and Ramdas Pophale) SiO2 
 PCOD9188728
Probable space group: C 2/M
;
_chemical_formula_sum "Si O2"
_cell_formula_units_Z 52
_cell_length_a 27.059952
_cell_length_b 11.947932
_cell_length_c 18.556945
_cell_angle_alpha 90.000000
_cell_angle_beta 150.680592
_cell_angle_gamma 90.000000
_cell_volume 2937.897774
_symmetry_space_group_name_H-M "C 2/M"
_symmetry_group_IT_number 12
_symmetry_cell_setting 'monoclinic'
loop_
_space_group_symop_operation_xyz
x,y,z
-x,y,-z
-x,-y,-z
x,-y,z
1/2+x,1/2+y,z
1/2-x,1/2+y,-z
1/2-x,1/2-y,-z
1/2+x,1/2-y,z
loop_
_atom_site_type_symbol
_atom_site_label
_atom_site_fract_x
_atom_site_fract_y
_atom_site_fract_z
Si Si1 0.575770 0.724012 0.875735
Si Si2 0.249249 0.368653 0.164523
Si Si3 0.223970 0.500000 0.660329
Si Si4 0.124709 0.000000 0.280137
Si Si5 0.349007 0.249839 0.421355
Si Si6 0.905612 0.000000 0.004585
Si Si7 0.851491 0.212311 0.590648
Si Si8 0.943788 0.867438 0.309645
O O1 0.594790 0.612404 0.947618
O O2 0.461076 0.771762 0.737535
O O3 0.584477 0.682931 0.804287
O O4 0.656857 0.814660 0.003616
O O5 0.233229 0.500000 0.158990
O O6 0.270110 0.300514 0.264346
O O7 0.349754 0.358200 0.243568
O O8 0.284280 0.500000 0.660850
O O9 0.161385 0.615197 0.588384
O O10 0.310996 0.500000 0.831464
O O11 0.127585 0.899137 0.339152
O O12 0.014546 0.000000 0.103704
O O13 0.331330 0.294779 0.479969
O O14 0.459052 0.297719 0.540749
O O15 0.750000 0.250000 0.500000
O O16 0.969964 0.000000 0.336079
#
# Coordination Sequence:
#
# PCOD9188728 Si02
#       8
#     8   8   4   4   8   4   8   8
#     4  10  20  38  63  86 116 150 198 239 288 348
#     4  11  23  40  60  87 118 154 195 246 296 344
#     4  12  21  38  58  88 124 150 192 248 295 340
#     4  10  21  36  62  86 108 159 205 234 283 349
#     4  11  23  37  60  88 120 153 197 241 294 342
#     4  10  19  36  61  87 114 151 193 246 285 346
#     4  10  21  39  59  87 117 152 194 240 288 351
#     4  10  21  40  64  85 113 157 203 238 284 353
#
# _framework density 17.699731
#
# number of rings (size 3 to 8) (size 9 to 14) (size 15 to 20)
#    0.000    1.538    3.846    1.615    4.308    1.231 
#    6.923    3.077    0.000    0.923    0.000    0.000 
#    0.000    0.000    0.000    0.000    0.000    0.000 
#
# Total GULP energy -144899.242651 kJ/mol
# GULP energy per Si atom -5573.047794 kJ/mol
# Density = 1.765945 g / cm^3
# Si number density = 17.699731 Si / 1000 Ang^3
#
#
#
# Elastic Constant Matrix: (Units=GPa)
#
#
# Indices 1 2 3 4 5 6 
#
# 1 73.2309 34.3171 43.5065 0.0000 1.7517 0.0000
# 2 34.3171 74.9421 41.9866 0.0000 -3.5788 0.0000
# 3 43.5065 41.9866 112.0289 0.0000 -6.5709 0.0000
# 4 0.0000 0.0000 0.0000 31.2519 0.0000 0.8974
# 5 1.7517 -3.5788 -6.5709 0.0000 28.4017 0.0000
# 6 0.0000 0.0000 0.0000 0.8974 0.0000 22.8499
#
#
#
# Elastic Compliance Matrix: (Units=1/GPa)
#
#
# Indices 1 2 3 4 5 6 
#
# 1 0.019966 -0.006136 -0.005648 0.000000 -0.003311 0.000000
# 2 -0.006136 0.018789 -0.004559 0.000000 0.001691 0.000000
# 3 -0.005648 -0.004559 0.012992 0.000000 0.002780 0.000000
# 4 0.000000 0.000000 0.000000 0.032034 0.000000 -0.001258
# 5 -0.003311 0.001691 0.002780 0.000000 0.036270 0.000000
# 6 0.000000 0.000000 0.000000 -0.001258 0.000000 0.043813
#
#
# Mechanical properties :
#
#
# Convention : Reuss Voigt Hill
#
# Bulk Modulus (GPa) = 52.47093 55.53583 54.00338
# Shear Modulus (GPa) = 24.64221 25.86015 25.25118
#
# Velocity S-wave (km/s) = 3.73532 3.82651 3.78119
# Velocity P-wave (km/s) = 6.95074 7.13917 7.04559
#
# Compressibility (1/GPa) = 0.01905817
#
# Stress axis : x y z
#
# Youngs Moduli (GPa) = 50.08562 53.22322 76.97295
#
# Poissons Ratio (x) = 0.32660 0.43475
# Poissons Ratio (y) = 0.30734 0.35096
# Poissons Ratio (z) = 0.28289 0.24267
#
# Static dielectric constant tensor:
#      x y z
#    x 1.618550 0.000000 0.030070 
#    y 0.000000 1.576800 0.000000 
#    z 0.030070 0.000000 1.637900 
# 
# From -- ./inp_files/223467.got.cif
#   From: 2010.05.17/outbox.cif.g08.bks.cpg/sg12_112_cif.got.tgz:223467.got - 2010.06.03 13:09:07.
