data_PCOD9188605
_publ_section_title
;
Structure prediction by ZEFSAII (Michael W. Deem and Ramdas Pophale) SiO2 
 PCOD9188605
Probable space group: C 2/M
;
_chemical_formula_sum "Si O2"
_cell_formula_units_Z 56
_cell_length_a 12.841610
_cell_length_b 13.326223
_cell_length_c 15.939241
_cell_angle_alpha 90.000000
_cell_angle_beta 72.332402
_cell_angle_gamma 90.000000
_cell_volume 2599.028855
_symmetry_space_group_name_H-M "C 2/M"
_symmetry_group_IT_number 12
_symmetry_cell_setting 'monoclinic'
loop_
_space_group_symop_operation_xyz
x,y,z
-x,y,-z
-x,-y,-z
x,-y,z
1/2+x,1/2+y,z
1/2-x,1/2+y,-z
1/2-x,1/2-y,-z
1/2+x,1/2-y,z
loop_
_atom_site_type_symbol
_atom_site_label
_atom_site_fract_x
_atom_site_fract_y
_atom_site_fract_z
Si Si1 0.753807 0.608867 0.804428
Si Si2 0.525553 0.684949 0.811766
Si Si3 0.105452 0.610663 0.394980
Si Si4 0.210175 0.799607 0.096107
Si Si5 0.430647 0.112621 0.102592
Si Si6 0.918552 0.236755 0.387468
Si Si7 0.250054 0.614137 0.528621
O O1 0.780074 0.500000 0.835789
O O2 0.624441 0.624027 0.828604
O O3 0.804885 0.612970 0.699723
O O4 0.800749 0.703152 0.841262
O O5 0.408109 0.650276 0.873637
O O6 0.539533 0.799939 0.840093
O O7 0.541204 0.684240 0.707536
O O8 0.051111 0.500000 0.402500
O O9 0.171257 0.615913 0.465617
O O10 0.018185 0.697396 0.399334
O O11 0.304940 0.870524 0.107567
O O12 0.250000 0.750000 0.000000
O O13 0.449595 0.000000 0.129661
O O14 0.500000 0.126415 0.000000
O O15 0.816805 0.313190 0.392750
O O16 0.863729 0.161201 0.468109
O O17 0.261984 0.500000 0.554527
#
# Coordination Sequence:
#
# PCOD9188605 Si02
#       7
#     8   8   8   8   8   8   8
#     4  10  22  38  60  88 118 152 194 243 289 341
#     4  11  22  38  60  85 119 152 192 242 291 345
#     4  10  19  36  60  87 114 149 198 243 285 341
#     4  11  22  39  60  86 117 152 193 239 288 342
#     4  10  22  39  58  82 115 154 194 238 288 342
#     4  11  21  35  61  89 115 153 194 240 292 342
#     4  10  22  39  59  86 120 153 193 240 290 347
#
# _framework density 21.546509
#
# number of rings (size 3 to 8) (size 9 to 14) (size 15 to 20)
#    0.000    1.571    4.286    0.857    0.000    4.000 
#    0.000    0.714    0.000    7.714    0.000    0.000 
#    0.000    0.000    0.000    0.000    0.000    0.000 
#
# Total GULP energy -156476.467970 kJ/mol
# GULP energy per Si atom -5588.445285 kJ/mol
# Density = 2.149747 g / cm^3
# Si number density = 21.546509 Si / 1000 Ang^3
#
#
#
# Elastic Constant Matrix: (Units=GPa)
#
#
# Indices 1 2 3 4 5 6 
#
# 1 82.7870 -7.1029 3.0939 0.0000 -33.2300 0.0000
# 2 -7.1029 68.1698 -13.1213 0.0000 -10.4432 0.0000
# 3 3.0939 -13.1213 70.5023 0.0000 -25.1843 0.0000
# 4 0.0000 0.0000 0.0000 16.5108 0.0000 -10.4021
# 5 -33.2300 -10.4432 -25.1843 0.0000 39.9939 0.0000
# 6 0.0000 0.0000 0.0000 -10.4021 0.0000 3.0031
#
#
#
# Elastic Compliance Matrix: (Units=1/GPa)
#
#
# Indices 1 2 3 4 5 6 
#
# 1 0.024447 0.009305 0.011332 0.000000 0.029878 0.000000
# 2 0.009305 0.020682 0.010492 0.000000 0.019739 0.000000
# 3 0.011332 0.010492 0.025780 0.000000 0.028389 0.000000
# 4 0.000000 0.000000 0.000000 -0.051229 0.000000 -0.177447
# 5 0.029878 0.019739 0.028389 0.000000 0.072859 0.000000
# 6 0.000000 0.000000 0.000000 -0.177447 0.000000 -0.281653
#
#
# Mechanical properties :
#
#
# Convention : Reuss Voigt Hill
#
# Bulk Modulus (GPa) = 7.50936 20.79983 14.15459
# Shear Modulus (GPa) = -24.15671 27.80752 1.82540
#
# Velocity S-wave (km/s) = -3.35198 3.59636 0.92143
# Velocity P-wave (km/s) = 3.38944 5.18840 2.77770
#
# Compressibility (1/GPa) = 0.13316721
#
# Stress axis : x y z
#
# Youngs Moduli (GPa) = 40.90520 48.35079 38.78951
#
# Poissons Ratio (x) = -0.44993 -0.43955
# Poissons Ratio (y) = -0.38064 -0.40697
# Poissons Ratio (z) = -0.46353 -0.50729
#
# Static dielectric constant tensor:
#      x y z
#    x 1.786860 0.000000 -0.029020 
#    y 0.000000 1.794600 0.000000 
#    z -0.029020 0.000000 1.826410 
# 
# From -- ./inp_files/205022.got.cif
#   From: 2010.05.17/outbox.cif.g08.bks.cpg/sg12_103_cif.got.tgz:205022.got - 2010.06.03 13:09:07.
