data_PCOD9188598
_publ_section_title
;
Structure prediction by ZEFSAII (Michael W. Deem and Ramdas Pophale) SiO2 
 PCOD9188598
Probable space group: C 2/M
;
_chemical_formula_sum "Si O2"
_cell_formula_units_Z 48
_cell_length_a 9.483080
_cell_length_b 22.805971
_cell_length_c 11.485581
_cell_angle_alpha 90.000000
_cell_angle_beta 73.880249
_cell_angle_gamma 90.000000
_cell_volume 2386.334298
_symmetry_space_group_name_H-M "C 2/M"
_symmetry_group_IT_number 12
_symmetry_cell_setting 'monoclinic'
loop_
_space_group_symop_operation_xyz
x,y,z
-x,y,-z
-x,-y,-z
x,-y,z
1/2+x,1/2+y,z
1/2-x,1/2+y,-z
1/2-x,1/2-y,-z
1/2+x,1/2-y,z
loop_
_atom_site_type_symbol
_atom_site_label
_atom_site_fract_x
_atom_site_fract_y
_atom_site_fract_z
Si Si1 0.130165 0.567393 0.047456
Si Si2 0.966307 0.270195 0.346137
Si Si3 0.744064 0.431903 0.729425
Si Si4 0.402237 0.730763 0.910082
Si Si5 0.776110 0.322704 0.563282
Si Si6 0.932603 0.099673 0.885304
O O1 0.086501 0.500000 0.079435
O O2 0.180045 0.589182 0.165188
O O3 0.277333 0.568325 0.935706
O O4 0.000000 0.595770 0.000000
O O5 0.847874 0.317836 0.419072
O O6 0.881326 0.208850 0.390286
O O7 0.019382 0.271835 0.201685
O O8 0.113514 0.281913 0.385760
O O9 0.782753 0.500000 0.700809
O O10 0.782723 0.386315 0.619232
O O11 0.566927 0.427517 0.783628
O O12 0.396364 0.665985 0.856096
O O13 0.500000 0.725622 0.000000
O O14 0.250000 0.750000 0.000000
O O15 0.000000 0.100512 0.000000
#
# Coordination Sequence:
#
# PCOD9188598 Si02
#       6
#     8   8   8   8   8   8
#     4   9  18  32  51  80 120 163 200 244 308 364
#     4  10  21  39  61  83 122 157 199 248 299 364
#     4  10  19  36  60  86 119 159 212 258 297 362
#     4  11  22  34  54  88 125 150 194 248 303 361
#     4  10  21  40  62  88 115 161 206 245 301 364
#     4   9  18  32  51  80 117 160 198 245 300 364
#
# _framework density 20.114532000000001
#
# number of rings (size 3 to 8) (size 9 to 14) (size 15 to 20)
#    0.000    2.167    1.667    1.500    4.667    2.667 
#    3.000    1.667    0.000    0.000    0.000    9.333 
#    0.000    2.000    0.000    0.000    0.000    0.000 
#
# Total GULP energy -133650.250185 kJ/mol
# GULP energy per Si atom -5568.760424 kJ/mol
# Density = 2.006875 g / cm^3
# Si number density = 20.114532 Si / 1000 Ang^3
#
#
#
# Elastic Constant Matrix: (Units=GPa)
#
#
# Indices 1 2 3 4 5 6 
#
# 1 82.7777 33.6348 9.5011 0.0000 -16.7178 0.0000
# 2 33.6348 97.3065 48.6665 0.0000 -1.4138 0.0000
# 3 9.5011 48.6665 115.7471 0.0000 -20.9962 0.0000
# 4 0.0000 0.0000 0.0000 25.6869 0.0000 3.3064
# 5 -16.7178 -1.4138 -20.9962 0.0000 18.0615 0.0000
# 6 0.0000 0.0000 0.0000 3.3064 0.0000 18.8674
#
#
#
# Elastic Compliance Matrix: (Units=1/GPa)
#
#
# Indices 1 2 3 4 5 6 
#
# 1 0.021268 -0.010910 0.007929 0.000000 0.028050 0.000000
# 2 -0.010910 0.019297 -0.011121 0.000000 -0.021515 0.000000
# 3 0.007929 -0.011121 0.017536 0.000000 0.026854 0.000000
# 4 0.000000 0.000000 0.000000 0.039829 0.000000 -0.006980
# 5 0.028050 -0.021515 0.026854 0.000000 0.110862 0.000000
# 6 0.000000 0.000000 0.000000 -0.006980 0.000000 0.054225
#
#
# Mechanical properties :
#
#
# Convention : Reuss Voigt Hill
#
# Bulk Modulus (GPa) = 33.44634 53.27067 43.35851
# Shear Modulus (GPa) = 16.60104 26.12509 21.36307
#
# Velocity S-wave (km/s) = 2.87596 3.60782 3.26248
# Velocity P-wave (km/s) = 5.26235 6.62543 5.98283
#
# Compressibility (1/GPa) = 0.02989864
#
# Stress axis : x y z
#
# Youngs Moduli (GPa) = 47.01835 51.82089 57.02647
#
# Poissons Ratio (x) = 0.56536 -0.45219
# Poissons Ratio (y) = 0.51296 0.63419
# Poissons Ratio (z) = -0.37283 0.57630
#
# Static dielectric constant tensor:
#      x y z
#    x 1.693810 0.000000 -0.056750 
#    y 0.000000 1.794060 0.000000 
#    z -0.056750 0.000000 1.610300 
# 
# From -- ./inp_files/122444.got.cif
#   From: 2010.05.17/outbox.cif.g08.bks.cpg/sg12_62_cif.got.tgz:122444.got - 2010.06.03 13:09:07.
