data_PCOD9188056
_publ_section_title
;
Structure prediction by ZEFSAII (Michael W. Deem and Ramdas Pophale) SiO2 
 PCOD9188056
Probable space group: C 2/M
;
_chemical_formula_sum "Si O2"
_cell_formula_units_Z 56
_cell_length_a 19.585101
_cell_length_b 27.506544
_cell_length_c 5.565189
_cell_angle_alpha 90.000000
_cell_angle_beta 113.660257
_cell_angle_gamma 90.000000
_cell_volume 2746.055735
_symmetry_space_group_name_H-M "C 2/M"
_symmetry_group_IT_number 12
_symmetry_cell_setting 'monoclinic'
loop_
_space_group_symop_operation_xyz
x,y,z
-x,y,-z
-x,-y,-z
x,-y,z
1/2+x,1/2+y,z
1/2-x,1/2+y,-z
1/2-x,1/2-y,-z
1/2+x,1/2-y,z
loop_
_atom_site_type_symbol
_atom_site_label
_atom_site_fract_x
_atom_site_fract_y
_atom_site_fract_z
Si Si1 0.912230 0.392030 0.386991
Si Si2 0.179840 0.808002 0.990372
Si Si3 0.139153 0.442783 0.182912
Si Si4 0.723473 0.618151 0.661902
Si Si5 0.073083 0.859058 0.212370
Si Si6 0.428923 0.260887 0.529698
Si Si7 0.317264 0.808188 0.462331
O O1 0.892562 0.421580 0.607677
O O2 0.863920 0.343055 0.348975
O O3 0.000000 0.382451 0.500000
O O4 0.892766 0.418514 0.107292
O O5 0.214134 0.854560 0.900333
O O6 0.135253 0.773218 0.751721
O O7 0.118663 0.832181 0.070879
O O8 0.246281 0.783728 0.232701
O O9 0.125214 0.500000 0.158790
O O10 0.227269 0.429905 0.287553
O O11 0.639039 0.612671 0.443379
O O12 0.774230 0.656924 0.586175
O O13 0.046622 0.812989 0.333237
O O14 0.000000 0.884433 0.000000
O O15 0.500000 0.238152 0.500000
O O16 0.382422 0.227432 0.649208
#
# Coordination Sequence:
#
# PCOD9188056 Si02
#       7
#     8   8   8   8   8   8   8
#     4  11  23  41  61  91 126 161 201 242 299 355
#     4  10  19  36  55  73 109 149 196 241 286 348
#     4  11  23  42  66  92 121 155 199 249 298 366
#     4   9  21  37  58  83 111 152 197 238 304 359
#     4  10  20  36  55  82 113 149 197 248 294 351
#     4  11  21  33  51  80 111 151 202 242 288 333
#     4  10  21  36  53  78 117 156 198 239 290 340
#
# _framework density 20.392887000000002
#
# number of rings (size 3 to 8) (size 9 to 14) (size 15 to 20)
#    0.000    1.714    2.857    1.714    0.000    8.000 
#    0.000    0.000    0.000    0.429    0.000    1.000 
#    0.000    0.000    0.000    0.000    0.000    0.000 
#
# Total GULP energy -156047.294061 kJ/mol
# GULP energy per Si atom -5573.117645 kJ/mol
# Density = 2.034647 g / cm^3
# Si number density = 20.392887 Si / 1000 Ang^3
#
#
#
# Elastic Constant Matrix: (Units=GPa)
#
#
# Indices 1 2 3 4 5 6 
#
# 1 127.7059 13.0613 35.8538 0.0000 12.1648 0.0000
# 2 13.0613 35.4673 6.6898 0.0000 5.4251 0.0000
# 3 35.8538 6.6898 72.6999 0.0000 9.9934 0.0000
# 4 0.0000 0.0000 0.0000 16.9192 0.0000 -0.3631
# 5 12.1648 5.4251 9.9934 0.0000 39.9329 0.0000
# 6 0.0000 0.0000 0.0000 -0.3631 0.0000 16.4137
#
#
#
# Elastic Compliance Matrix: (Units=1/GPa)
#
#
# Indices 1 2 3 4 5 6 
#
# 1 0.009403 -0.002443 -0.004209 0.000000 -0.001479 0.000000
# 2 -0.002443 0.029768 -0.001119 0.000000 -0.003020 0.000000
# 3 -0.004209 -0.001119 0.016298 0.000000 -0.002644 0.000000
# 4 0.000000 0.000000 0.000000 0.059133 0.000000 0.001308
# 5 -0.001479 -0.003020 -0.002644 0.000000 0.026565 0.000000
# 6 0.000000 0.000000 0.000000 0.001308 0.000000 0.060954
#
#
# Mechanical properties :
#
#
# Convention : Reuss Voigt Hill
#
# Bulk Modulus (GPa) = 25.04661 38.56478 31.80570
# Shear Modulus (GPa) = 21.64783 26.67102 24.15942
#
# Velocity S-wave (km/s) = 3.26166 3.62036 3.44568
# Velocity P-wave (km/s) = 5.14716 6.03556 5.60897
#
# Compressibility (1/GPa) = 0.03992556
#
# Stress axis : x y z
#
# Youngs Moduli (GPa) = 106.34950 33.59364 61.35897
#
# Poissons Ratio (x) = 0.08206 0.25827
# Poissons Ratio (y) = 0.25977 0.06869
# Poissons Ratio (z) = 0.44765 0.03761
#
# Static dielectric constant tensor:
#      x y z
#    x 1.758300 0.000000 -0.010240 
#    y 0.000000 1.723210 0.000000 
#    z -0.010240 0.000000 1.805600 
# 
# From -- ./inp_files/17641.got.cif
#   From: 2010.05.17/outbox.cif.g08.bks.cpg/sg12_9_cif.got.tgz:17641.got - 2010.06.03 13:09:07.
