data_PCOD9188069
_publ_section_title
;
Structure prediction by ZEFSAII (Michael W. Deem and Ramdas Pophale) SiO2 
 PCOD9188069
Probable space group: C 2/M
;
_chemical_formula_sum "Si O2"
_cell_formula_units_Z 32
_cell_length_a 7.452373
_cell_length_b 37.332260
_cell_length_c 5.180974
_cell_angle_alpha 90.000000
_cell_angle_beta 66.343629
_cell_angle_gamma 90.000000
_cell_volume 1320.294363
_symmetry_space_group_name_H-M "C 2/M"
_symmetry_group_IT_number 12
_symmetry_cell_setting 'monoclinic'
loop_
_space_group_symop_operation_xyz
x,y,z
-x,y,-z
-x,-y,-z
x,-y,z
1/2+x,1/2+y,z
1/2-x,1/2+y,-z
1/2-x,1/2-y,-z
1/2+x,1/2-y,z
loop_
_atom_site_type_symbol
_atom_site_label
_atom_site_fract_x
_atom_site_fract_y
_atom_site_fract_z
Si Si1 0.130020 0.216323 0.172636
Si Si2 0.215126 0.859583 0.247121
Si Si3 0.715158 0.958662 0.251957
Si Si4 0.500000 0.405066 0.000000
Si Si5 0.500000 0.086131 0.000000
O O1 0.258091 0.182172 0.188293
O O2 0.000000 0.225933 0.500000
O O3 0.250000 0.250000 0.000000
O O4 0.000000 0.204565 0.000000
O O5 0.386794 0.885213 0.250855
O O6 0.000000 0.861387 0.500000
O O7 0.166695 0.878315 0.003065
O O8 0.500000 0.955818 0.500000
O O9 0.665710 0.941414 0.002635
O O10 0.771444 0.000000 0.217585
O O11 0.886916 0.932938 0.253474
#
# Coordination Sequence:
#
# PCOD9188069 Si02
#       5
#     8   8   8   4   4
#     4  11  24  44  67  97 132 171 214 267 322 386
#     4  10  21  38  59  83 119 154 205 251 310 369
#     4  10  20  34  54  81 113 149 194 246 304 367
#     4  10  19  36  55  80 112 152 196 244 311 360
#     4  10  21  36  57  84 112 156 200 246 311 360
#
# _framework density 24.237017000000002
#
# number of rings (size 3 to 8) (size 9 to 14) (size 15 to 20)
#    0.000    1.750    1.250    3.000    1.750    0.000 
#    0.000    1.250    0.000   12.000    0.000    0.000 
#    0.000    0.000    0.000    0.000    0.000    0.000 
#
# Total GULP energy -89090.138326 kJ/mol
# GULP energy per Si atom -5568.133645 kJ/mol
# Density = 2.418185 g / cm^3
# Si number density = 24.237017 Si / 1000 Ang^3
#
#
#
# Elastic Constant Matrix: (Units=GPa)
#
#
# Indices 1 2 3 4 5 6 
#
# 1 80.3434 25.2349 18.8030 0.0000 -22.7071 0.0000
# 2 25.2349 199.2695 48.5770 0.0000 -36.5621 0.0000
# 3 18.8030 48.5770 100.6771 0.0000 -26.8628 0.0000
# 4 0.0000 0.0000 0.0000 26.2106 0.0000 -7.9398
# 5 -22.7071 -36.5621 -26.8628 0.0000 38.7380 0.0000
# 6 0.0000 0.0000 0.0000 -7.9398 0.0000 26.7818
#
#
#
# Elastic Compliance Matrix: (Units=1/GPa)
#
#
# Indices 1 2 3 4 5 6 
#
# 1 0.014956 -0.000278 -0.000479 0.000000 0.008173 0.000000
# 2 -0.000278 0.006327 -0.001780 0.000000 0.004574 0.000000
# 3 -0.000479 -0.001780 0.012710 0.000000 0.006853 0.000000
# 4 0.000000 0.000000 0.000000 0.041917 0.000000 0.012427
# 5 0.008173 0.004574 0.006853 0.000000 0.039674 0.000000
# 6 0.000000 0.000000 0.000000 0.012427 0.000000 0.041023
#
#
# Mechanical properties :
#
#
# Convention : Reuss Voigt Hill
#
# Bulk Modulus (GPa) = 34.57993 62.83556 48.70775
# Shear Modulus (GPa) = 29.18541 37.52441 33.35491
#
# Velocity S-wave (km/s) = 3.47387 3.93902 3.71374
# Velocity P-wave (km/s) = 5.51260 6.83151 6.20719
#
# Compressibility (1/GPa) = 0.02891851
#
# Stress axis : x y z
#
# Youngs Moduli (GPa) = 66.86465 158.05905 78.68089
#
# Poissons Ratio (x) = 0.04390 0.03765
# Poissons Ratio (y) = 0.01857 0.14008
# Poissons Ratio (z) = 0.03200 0.28140
#
# Static dielectric constant tensor:
#      x y z
#    x 2.217530 0.000000 0.035790 
#    y 0.000000 1.880010 0.000000 
#    z 0.035790 0.000000 2.067160 
# 
# From -- ./inp_files/3787.got.cif
#   From: 2010.05.17/outbox.cif.g08.bks.cpg/sg12_2_cif.got.tgz:3787.got - 2010.06.03 13:09:07.
