data_PCOD9188799
_publ_section_title
;
Structure prediction by ZEFSAII (Michael W. Deem and Ramdas Pophale) SiO2 
 PCOD9188799
Probable space group: C 2/M
;
_chemical_formula_sum "Si O2"
_cell_formula_units_Z 42
_cell_length_a 26.882159
_cell_length_b 16.384621
_cell_length_c 7.675281
_cell_angle_alpha 90.000000
_cell_angle_beta 147.383794
_cell_angle_gamma 90.000000
_cell_volume 1822.178368
_symmetry_space_group_name_H-M "C 2/M"
_symmetry_group_IT_number 12
_symmetry_cell_setting 'monoclinic'
loop_
_space_group_symop_operation_xyz
x,y,z
-x,y,-z
-x,-y,-z
x,-y,z
1/2+x,1/2+y,z
1/2-x,1/2+y,-z
1/2-x,1/2-y,-z
1/2+x,1/2-y,z
loop_
_atom_site_type_symbol
_atom_site_label
_atom_site_fract_x
_atom_site_fract_y
_atom_site_fract_z
Si Si1 0.165966 0.365270 0.976292
Si Si2 0.120938 0.261624 0.157693
Si Si3 0.908407 0.259890 0.548970
Si Si4 0.000000 0.500000 0.500000
Si Si5 0.399600 0.407217 0.105712
Si Si6 0.149873 0.087476 0.665723
O O1 0.175279 0.320133 0.188065
O O2 0.142875 0.294720 0.768224
O O3 0.081774 0.428765 0.733947
O O4 0.258571 0.405615 0.178184
O O5 0.119189 0.168976 0.077070
O O6 0.013105 0.289791 0.841766
O O7 0.145183 0.276588 0.430145
O O8 0.914121 0.162492 0.569680
O O9 0.500000 0.398237 0.500000
O O10 0.394394 0.500000 0.016809
O O11 0.331138 0.405025 0.071142
O O12 0.105207 0.000000 0.505484
#
# Coordination Sequence:
#
# PCOD9188799 Si02
#       6
#     8   8   8   2   8   8
#     4  12  23  46  65  91 125 166 214 264 308 369
#     4  11  22  39  66  92 125 169 206 254 315 376
#     4  11  23  39  65  96 123 163 214 256 310 378
#     4  12  24  44  78  84 120 176 208 254 324 360
#     4  10  19  36  61  91 128 168 206 248 309 378
#     4  11  23  39  65  95 128 166 208 260 310 368
#
# _framework density 23.049336
#
# number of rings (size 3 to 8) (size 9 to 14) (size 15 to 20)
#    0.000    0.952    6.667    0.571    0.000    1.524 
#    0.000    3.810    0.000    0.000    0.000    0.000 
#    0.000    0.000    0.000    0.000    0.000    0.000 
#
# Total GULP energy -117078.194660 kJ/mol
# GULP energy per Si atom -5575.152127 kJ/mol
# Density = 2.299688 g / cm^3
# Si number density = 23.049336 Si / 1000 Ang^3
#
#
#
# Elastic Constant Matrix: (Units=GPa)
#
#
# Indices 1 2 3 4 5 6 
#
# 1 166.6002 44.2320 20.7100 0.0000 -3.9863 0.0000
# 2 44.2320 117.2858 13.2271 0.0000 -5.6109 0.0000
# 3 20.7100 13.2271 36.8594 0.0000 3.4954 0.0000
# 4 0.0000 0.0000 0.0000 6.4002 0.0000 9.4781
# 5 -3.9863 -5.6109 3.4954 0.0000 41.7840 0.0000
# 6 0.0000 0.0000 0.0000 9.4781 0.0000 29.3281
#
#
#
# Elastic Compliance Matrix: (Units=1/GPa)
#
#
# Indices 1 2 3 4 5 6 
#
# 1 0.007013 -0.002255 -0.003191 0.000000 0.000633 0.000000
# 2 -0.002255 0.009701 -0.002336 0.000000 0.001283 0.000000
# 3 -0.003191 -0.002336 0.030059 0.000000 -0.003133 0.000000
# 4 0.000000 0.000000 0.000000 0.299658 0.000000 -0.096842
# 5 0.000633 0.001283 -0.003133 0.000000 0.024427 0.000000
# 6 0.000000 0.000000 0.000000 -0.096842 0.000000 0.065394
#
#
# Mechanical properties :
#
#
# Convention : Reuss Voigt Hill
#
# Bulk Modulus (GPa) = 32.04245 53.00929 42.52587
# Shear Modulus (GPa) = 10.81740 31.67420 21.24580
#
# Velocity S-wave (km/s) = 2.16872 3.71103 3.03933
# Velocity P-wave (km/s) = 4.49477 6.43509 5.55038
#
# Compressibility (1/GPa) = 0.03120860
#
# Stress axis : x y z
#
# Youngs Moduli (GPa) = 142.59577 103.07892 33.26833
#
# Poissons Ratio (x) = 0.23240 0.10617
# Poissons Ratio (y) = 0.32149 0.07772
# Poissons Ratio (z) = 0.45506 0.24082
#
# Static dielectric constant tensor:
#      x y z
#    x 1.925990 0.000000 0.008860 
#    y 0.000000 1.849680 0.000000 
#    z 0.008860 0.000000 1.881380 
# 
# From -- ./inp_files/111373.got.cif
#   From: 2010.05.17/outbox.cif.g08.bks.cpg/sg12_56_cif.got.tgz:111373.got - 2010.06.03 13:09:07.
