data_PCOD9188644
_publ_section_title
;
Structure prediction by ZEFSAII (Michael W. Deem and Ramdas Pophale) SiO2 
 PCOD9188644
Probable space group: C 2/M
;
_chemical_formula_sum "Si O2"
_cell_formula_units_Z 64
_cell_length_a 16.451714
_cell_length_b 15.363111
_cell_length_c 21.814342
_cell_angle_alpha 90.000000
_cell_angle_beta 32.274055
_cell_angle_gamma 90.000000
_cell_volume 2944.075339
_symmetry_space_group_name_H-M "C 2/M"
_symmetry_group_IT_number 12
_symmetry_cell_setting 'monoclinic'
loop_
_space_group_symop_operation_xyz
x,y,z
-x,y,-z
-x,-y,-z
x,-y,z
1/2+x,1/2+y,z
1/2-x,1/2+y,-z
1/2-x,1/2-y,-z
1/2+x,1/2-y,z
loop_
_atom_site_type_symbol
_atom_site_label
_atom_site_fract_x
_atom_site_fract_y
_atom_site_fract_z
Si Si1 0.433637 0.102356 0.611222
Si Si2 0.073766 0.095406 0.519862
Si Si3 0.840168 0.842780 0.128245
Si Si4 0.356980 0.858223 0.152826
Si Si5 0.369596 0.228924 0.843875
Si Si6 0.389906 0.900635 0.261143
Si Si7 0.926282 0.252347 0.397730
Si Si8 0.788426 0.403644 0.066376
O O1 0.500000 0.128267 0.500000
O O2 0.260641 0.117080 0.750952
O O3 0.528550 0.157594 0.599461
O O4 0.460594 0.000000 0.597696
O O5 0.257770 0.106724 0.395965
O O6 0.017624 0.177108 0.593152
O O7 0.000000 0.095338 0.500000
O O8 0.046282 0.000000 0.565087
O O9 0.872153 0.744514 0.131390
O O10 0.739748 0.828573 0.130430
O O11 0.000000 0.880842 0.000000
O O12 0.299486 0.881352 0.256213
O O13 0.262624 0.895584 0.156284
O O14 0.528298 0.895908 0.048793
O O15 0.469991 0.165988 0.822352
O O16 0.494962 0.263227 0.716745
O O17 0.283342 0.317395 0.919749
O O18 0.445615 0.000000 0.226403
O O19 0.750000 0.250000 0.500000
O O20 0.742746 0.500000 0.073251
#
# Coordination Sequence:
#
# PCOD9188644 Si02
#       8
#     8   8   8   8   8   8   8   8
#     4  10  24  42  66  97 130 173 223 270 321 383
#     4  10  23  39  59  92 123 154 208 268 328 396
#     4  10  20  41  67  97 127 173 225 270 319 385
#     4  10  19  36  62  89 122 157 208 262 319 387
#     4  10  22  37  57  91 126 165 213 262 324 392
#     4  11  23  38  59  88 123 165 209 264 334 391
#     4  11  22  39  63  86 123 169 212 263 330 388
#     4  10  19  36  60  89 123 160 205 256 321 387
#
# _framework density 21.738572999999999
#
# number of rings (size 3 to 8) (size 9 to 14) (size 15 to 20)
#    0.000    1.750    3.750    1.875    7.000    3.750 
#    0.000    0.000    0.000    0.750    0.000    0.000 
#    0.000    0.000    0.000    0.000    0.000    0.000 
#
# Total GULP energy -178314.449944 kJ/mol
# GULP energy per Si atom -5572.326561 kJ/mol
# Density = 2.168910 g / cm^3
# Si number density = 21.738573 Si / 1000 Ang^3
#
#
#
# Elastic Constant Matrix: (Units=GPa)
#
#
# Indices 1 2 3 4 5 6 
#
# 1 43.5713 30.3978 15.6143 0.0011 -8.5328 0.0006
# 2 30.3978 116.6944 21.6525 0.0008 -1.1123 0.0005
# 3 15.6143 21.6525 122.6954 0.0043 -7.0281 0.0027
# 4 0.0011 0.0008 0.0043 8.8227 -0.0003 -14.5847
# 5 -8.5328 -1.1123 -7.0281 -0.0003 33.4056 -0.0003
# 6 0.0006 0.0005 0.0027 -14.5847 -0.0003 3.7384
#
#
#
# Elastic Compliance Matrix: (Units=1/GPa)
#
#
# Indices 1 2 3 4 5 6 
#
# 1 0.030273 -0.007422 -0.002140 0.000001 0.007035 0.000002
# 2 -0.007422 0.010679 -0.001041 0.000000 -0.001759 0.000000
# 3 -0.002140 -0.001041 0.008678 0.000002 0.001244 0.000004
# 4 0.000001 0.000000 0.000002 -0.020800 0.000000 -0.081147
# 5 0.007035 -0.001759 0.001244 0.000000 0.031935 0.000000
# 6 0.000002 0.000000 0.000004 -0.081147 0.000000 -0.049088
#
#
# Mechanical properties :
#
#
# Convention : Reuss Voigt Hill
#
# Bulk Modulus (GPa) = 35.18031 46.47670 40.82850
# Shear Modulus (GPa) = 118.04304 23.54643 70.79473
#
# Velocity S-wave (km/s) = 7.37693 3.29472 5.71289
# Velocity P-wave (km/s) = 9.42217 5.99164 7.89547
#
# Compressibility (1/GPa) = 0.02842499
#
# Stress axis : x y z
#
# Youngs Moduli (GPa) = 33.03225 93.64116 115.23991
#
# Poissons Ratio (x) = 0.69499 0.24660
# Poissons Ratio (y) = 0.24516 0.11995
# Poissons Ratio (z) = 0.07068 0.09747
#
# Static dielectric constant tensor:
#      x y z
#    x 1.766700 0.000000 -0.026890 
#    y 0.000000 1.797230 0.000010 
#    z -0.026890 0.000010 1.689370 
# 
# From -- ./inp_files/344023.got.cif
#   From: 2010.05.17/outbox.cif.g08.bks.cpg/sg12_173_cif.got.tgz:344023.got - 2010.06.03 13:09:07.
