data_PCOD9188190
_publ_section_title
;
Structure prediction by ZEFSAII (Michael W. Deem and Ramdas Pophale) SiO2 
 PCOD9188190
Probable space group: C 2/M
;
_chemical_formula_sum "Si O2"
_cell_formula_units_Z 56
_cell_length_a 16.204456
_cell_length_b 25.551286
_cell_length_c 8.922233
_cell_angle_alpha 90.000000
_cell_angle_beta 123.503430
_cell_angle_gamma 90.000000
_cell_volume 3080.421600
_symmetry_space_group_name_H-M "C 2/M"
_symmetry_group_IT_number 12
_symmetry_cell_setting 'monoclinic'
loop_
_space_group_symop_operation_xyz
x,y,z
-x,y,-z
-x,-y,-z
x,-y,z
1/2+x,1/2+y,z
1/2-x,1/2+y,-z
1/2-x,1/2-y,-z
1/2+x,1/2-y,z
loop_
_atom_site_type_symbol
_atom_site_label
_atom_site_fract_x
_atom_site_fract_y
_atom_site_fract_z
Si Si1 0.596602 0.860577 0.197738
Si Si2 0.343568 0.258977 0.692192
Si Si3 0.058771 0.940501 0.717078
Si Si4 0.994131 0.560682 0.313463
Si Si5 0.000048 0.840368 0.180609
Si Si6 0.208917 0.800957 0.034835
Si Si7 0.712625 0.901229 0.037496
O O1 0.609285 0.798582 0.239857
O O2 0.569630 0.897945 0.311082
O O3 0.683144 0.881985 0.175562
O O4 0.500000 0.865286 0.000000
O O5 0.250000 0.250000 0.500000
O O6 0.413941 0.301535 0.685711
O O7 0.307969 0.285661 0.810454
O O8 0.002980 0.899091 0.765906
O O9 0.177982 0.927892 0.839455
O O10 0.000000 0.936036 0.500000
O O11 0.048061 0.000000 0.757909
O O12 0.021904 0.500000 0.309130
O O13 0.000000 0.567718 0.500000
O O14 0.882813 0.568960 0.130983
O O15 0.898852 0.814839 0.135841
O O16 0.000000 0.840014 0.000000
O O17 0.250000 0.750000 0.000000
O O18 0.274178 0.850970 0.058242
#
# Coordination Sequence:
#
# PCOD9188190 Si02
#       7
#     8   8   8   8   8   8   8
#     4  10  21  38  61  86 116 156 193 238 296 356
#     4  11  23  35  57  88 120 150 192 241 288 356
#     4  10  22  39  60  85 114 152 201 247 285 335
#     4  10  23  41  61  88 121 153 196 249 299 353
#     4   9  21  38  57  80 118 153 189 236 286 347
#     4  10  19  36  57  82 117 155 187 229 293 343
#     4  10  21  37  63  87 118 155 196 241 294 357
#
# _framework density 18.17933
#
# number of rings (size 3 to 8) (size 9 to 14) (size 15 to 20)
#    0.000    2.000    1.429    1.714    6.000    3.429 
#    0.000    0.714    0.000    0.000    0.000    0.000 
#    0.000    0.000    0.000    0.000    0.000    0.000 
#
# Total GULP energy -155875.438753 kJ/mol
# GULP energy per Si atom -5566.979955 kJ/mol
# Density = 1.813795 g / cm^3
# Si number density = 18.179330 Si / 1000 Ang^3
#
#
#
# Elastic Constant Matrix: (Units=GPa)
#
#
# Indices 1 2 3 4 5 6 
#
# 1 74.8548 59.1048 21.0860 0.0000 -6.6629 0.0000
# 2 59.1048 145.0426 34.4936 0.0000 -6.0588 0.0000
# 3 21.0860 34.4936 53.5108 0.0000 7.2646 0.0000
# 4 0.0000 0.0000 0.0000 22.6742 0.0000 -18.8283
# 5 -6.6629 -6.0588 7.2646 0.0000 16.1956 0.0000
# 6 0.0000 0.0000 0.0000 -18.8283 0.0000 6.5925
#
#
#
# Elastic Compliance Matrix: (Units=1/GPa)
#
#
# Indices 1 2 3 4 5 6 
#
# 1 0.021042 -0.007083 -0.004836 0.000000 0.008176 0.000000
# 2 -0.007083 0.011063 -0.004799 0.000000 0.003377 0.000000
# 3 -0.004836 -0.004799 0.025770 0.000000 -0.015344 0.000000
# 4 0.000000 0.000000 0.000000 -0.032155 0.000000 -0.091834
# 5 0.008176 0.003377 -0.015344 0.000000 0.073255 0.000000
# 6 0.000000 0.000000 0.000000 -0.091834 0.000000 -0.110592
#
#
# Mechanical properties :
#
#
# Convention : Reuss Voigt Hill
#
# Bulk Modulus (GPa) = 40.91725 55.86412 48.39069
# Shear Modulus (GPa) = 166.86308 19.67405 93.26857
#
# Velocity S-wave (km/s) = 9.59096 3.29328 7.17050
# Velocity P-wave (km/s) = 12.05011 6.72734 9.75864
#
# Compressibility (1/GPa) = 0.02443957
#
# Stress axis : x y z
#
# Youngs Moduli (GPa) = 47.52441 90.39007 38.80508
#
# Poissons Ratio (x) = 0.64023 0.18765
# Poissons Ratio (y) = 0.33661 0.18622
# Poissons Ratio (z) = 0.22982 0.43377
#
# Static dielectric constant tensor:
#      x y z
#    x 1.628450 0.000000 -0.001230 
#    y 0.000000 1.504510 0.000000 
#    z -0.001230 0.000000 1.642140 
# 
# From -- ./inp_files/77611.got.cif
#   From: 2010.05.17/outbox.cif.g08.bks.cpg/sg12_39_cif.got.tgz:77611.got - 2010.06.03 13:09:07.
