data_PCOD9188708
_publ_section_title
;
Structure prediction by ZEFSAII (Michael W. Deem and Ramdas Pophale) SiO2 
 PCOD9188708
Probable space group: C 2/M
;
_chemical_formula_sum "Si O2"
_cell_formula_units_Z 56
_cell_length_a 10.893923
_cell_length_b 19.376929
_cell_length_c 13.895202
_cell_angle_alpha 90.000000
_cell_angle_beta 93.661420
_cell_angle_gamma 90.000000
_cell_volume 2927.161912
_symmetry_space_group_name_H-M "C 2/M"
_symmetry_group_IT_number 12
_symmetry_cell_setting 'monoclinic'
loop_
_space_group_symop_operation_xyz
x,y,z
-x,y,-z
-x,-y,-z
x,-y,z
1/2+x,1/2+y,z
1/2-x,1/2+y,-z
1/2-x,1/2-y,-z
1/2+x,1/2-y,z
loop_
_atom_site_type_symbol
_atom_site_label
_atom_site_fract_x
_atom_site_fract_y
_atom_site_fract_z
Si Si1 0.851803 0.809480 0.629241
Si Si2 0.216601 0.420901 0.153199
Si Si3 0.154471 0.309160 0.771031
Si Si4 0.812371 0.662657 0.555810
Si Si5 0.480401 0.077264 0.681510
Si Si6 0.397205 0.341920 0.291379
Si Si7 0.643246 0.808194 0.989975
O O1 0.787718 0.799809 0.729504
O O2 0.881462 0.735107 0.581968
O O3 0.750836 0.838700 0.550481
O O4 0.971915 0.854717 0.652826
O O5 0.227447 0.500000 0.120123
O O6 0.113794 0.419401 0.232372
O O7 0.341784 0.394278 0.210577
O O8 0.176118 0.367591 0.068563
O O9 0.093759 0.233618 0.757441
O O10 0.152280 0.332928 0.880502
O O11 0.081353 0.365695 0.707456
O O12 0.901540 0.600477 0.585606
O O13 0.701966 0.662678 0.628015
O O14 0.528318 0.000000 0.675843
O O15 0.500000 0.785898 0.000000
O O16 0.750000 0.750000 0.000000
#
# Coordination Sequence:
#
# PCOD9188708 Si02
#       7
#     8   8   8   8   8   8   8
#     4  10  20  34  58  86 119 154 197 246 293 355
#     4  10  22  40  62  88 115 156 202 246 295 353
#     4  11  22  35  58  87 118 153 198 240 302 356
#     4   9  19  34  56  88 115 155 199 241 293 348
#     4  10  20  38  59  84 120 153 196 246 293 347
#     4  10  19  36  61  85 120 152 196 250 290 355
#     4  12  25  39  65  94 123 158 203 254 303 358
#
# _framework density 19.131159
#
# number of rings (size 3 to 8) (size 9 to 14) (size 15 to 20)
#    0.000    1.714    4.286    0.429    2.000    1.429 
#    0.000    2.857    0.000    6.429    0.000    0.000 
#    0.000    0.000    0.000    0.000    0.000    0.000 
#
# Total GULP energy -156219.077753 kJ/mol
# GULP energy per Si atom -5579.252777 kJ/mol
# Density = 1.908762 g / cm^3
# Si number density = 19.131159 Si / 1000 Ang^3
#
#
#
# Elastic Constant Matrix: (Units=GPa)
#
#
# Indices 1 2 3 4 5 6 
#
# 1 80.6604 36.0922 32.5817 0.0000 14.8455 0.0000
# 2 36.0922 103.7013 21.2696 0.0000 10.3273 0.0000
# 3 32.5817 21.2696 92.2644 0.0000 2.4615 0.0000
# 4 0.0000 0.0000 0.0000 23.5959 0.0000 2.6967
# 5 14.8455 10.3273 2.4615 0.0000 25.7227 0.0000
# 6 0.0000 0.0000 0.0000 2.6967 0.0000 21.8267
#
#
#
# Elastic Compliance Matrix: (Units=1/GPa)
#
#
# Indices 1 2 3 4 5 6 
#
# 1 0.017905 -0.004381 -0.005097 0.000000 -0.008087 0.000000
# 2 -0.004381 0.011589 -0.001071 0.000000 -0.002022 0.000000
# 3 -0.005097 -0.001071 0.012828 0.000000 0.002144 0.000000
# 4 0.000000 0.000000 0.000000 0.042987 0.000000 -0.005311
# 5 -0.008087 -0.002022 0.002144 0.000000 0.044150 0.000000
# 6 0.000000 0.000000 0.000000 -0.005311 0.000000 0.046472
#
#
# Mechanical properties :
#
#
# Convention : Reuss Voigt Hill
#
# Bulk Modulus (GPa) = 47.11516 50.72368 48.91942
# Shear Modulus (GPa) = 24.49735 26.67455 25.58595
#
# Velocity S-wave (km/s) = 3.58228 3.73808 3.66101
# Velocity P-wave (km/s) = 6.46461 6.72326 6.59520
#
# Compressibility (1/GPa) = 0.02122459
#
# Stress axis : x y z
#
# Youngs Moduli (GPa) = 55.84919 86.29060 77.95426
#
# Poissons Ratio (x) = 0.37803 0.39736
# Poissons Ratio (y) = 0.24467 0.08345
# Poissons Ratio (z) = 0.28468 0.09238
#
# Static dielectric constant tensor:
#      x y z
#    x 1.687250 0.000000 0.007940 
#    y 0.000000 1.673090 0.000000 
#    z 0.007940 0.000000 1.690500 
# 
# From -- ./inp_files/206227.got.cif
#   From: 2010.05.17/outbox.cif.g08.bks.cpg/sg12_104_cif.got.tgz:206227.got - 2010.06.03 13:09:07.
