data_PCOD9188113
_publ_section_title
;
Structure prediction by ZEFSAII (Michael W. Deem and Ramdas Pophale) SiO2 
 PCOD9188113
Probable space group: C 2/M
;
_chemical_formula_sum "Si O2"
_cell_formula_units_Z 56
_cell_length_a 16.629585
_cell_length_b 22.282940
_cell_length_c 9.099696
_cell_angle_alpha 90.000000
_cell_angle_beta 120.613622
_cell_angle_gamma 90.000000
_cell_volume 2901.968636
_symmetry_space_group_name_H-M "C 2/M"
_symmetry_group_IT_number 12
_symmetry_cell_setting 'monoclinic'
loop_
_space_group_symop_operation_xyz
x,y,z
-x,y,-z
-x,-y,-z
x,-y,z
1/2+x,1/2+y,z
1/2-x,1/2+y,-z
1/2-x,1/2-y,-z
1/2+x,1/2-y,z
loop_
_atom_site_type_symbol
_atom_site_label
_atom_site_fract_x
_atom_site_fract_y
_atom_site_fract_z
Si Si1 0.390866 0.735646 0.937346
Si Si2 0.904380 0.428594 0.979219
Si Si3 0.626242 0.354247 0.825919
Si Si4 0.289562 0.927553 0.145060
Si Si5 0.531630 0.430586 0.199521
Si Si6 0.767716 0.345062 0.715928
Si Si7 0.782636 0.865173 0.651513
O O1 0.333443 0.795994 0.855520
O O2 0.342313 0.686086 0.788232
O O3 0.500000 0.741803 0.000000
O O4 0.379196 0.707892 0.089001
O O5 0.909942 0.500000 0.982831
O O6 0.818751 0.407344 0.799656
O O7 0.876953 0.412226 0.120914
O O8 0.000000 0.403761 0.000000
O O9 0.527913 0.387293 0.751970
O O10 0.668044 0.344228 0.704176
O O11 0.699687 0.398517 0.978766
O O12 0.289584 0.895206 0.302276
O O13 0.280368 0.000000 0.148138
O O14 0.511903 0.500000 0.211769
O O15 0.640555 0.415897 0.314290
O O16 0.500000 0.418841 0.000000
O O17 0.760393 0.338488 0.535798
#
# Coordination Sequence:
#
# PCOD9188113 Si02
#       7
#     8   8   8   8   8   8   8
#     4  11  20  40  61  78 105 152 202 236 277 344
#     4   9  19  38  59  81 108 145 194 241 279 334
#     4  10  19  36  56  84 112 148 197 235 275 343
#     4   9  17  32  58  83 109 148 189 224 276 351
#     4  11  19  34  61  86 115 156 194 230 278 349
#     4  11  24  35  57  83 117 148 186 241 301 333
#     4  11  21  36  54  86 120 147 183 237 290 346
#
# _framework density 19.297246999999999
#
# number of rings (size 3 to 8) (size 9 to 14) (size 15 to 20)
#    0.000    1.714    4.286    2.143    0.000    2.286 
#    0.000    1.429    0.000    2.571    0.000    0.000 
#    0.000    0.000    0.000    0.000    0.000    0.000 
#
# Total GULP energy -156230.161167 kJ/mol
# GULP energy per Si atom -5579.648613 kJ/mol
# Density = 1.925333 g / cm^3
# Si number density = 19.297247 Si / 1000 Ang^3
#
#
#
# Elastic Constant Matrix: (Units=GPa)
#
#
# Indices 1 2 3 4 5 6 
#
# 1 129.5238 31.8044 24.3890 0.0000 -18.0980 0.0000
# 2 31.8044 47.5770 14.2141 0.0000 -11.8563 0.0000
# 3 24.3890 14.2141 36.1751 0.0000 -15.2429 0.0000
# 4 0.0000 0.0000 0.0000 7.6083 0.0000 0.9307
# 5 -18.0980 -11.8563 -15.2429 0.0000 18.2684 0.0000
# 6 0.0000 0.0000 0.0000 0.9307 0.0000 18.4005
#
#
#
# Elastic Compliance Matrix: (Units=1/GPa)
#
#
# Indices 1 2 3 4 5 6 
#
# 1 0.010070 -0.004727 -0.003117 0.000000 0.004308 0.000000
# 2 -0.004727 0.027804 -0.003250 0.000000 0.010650 0.000000
# 3 -0.003117 -0.003250 0.044465 0.000000 0.031904 0.000000
# 4 0.000000 0.000000 0.000000 0.132254 0.000000 -0.006690
# 5 0.004308 0.010650 0.031904 0.000000 0.092539 0.000000
# 6 0.000000 0.000000 0.000000 -0.006690 0.000000 0.054685
#
#
# Mechanical properties :
#
#
# Convention : Reuss Voigt Hill
#
# Bulk Modulus (GPa) = 16.62508 39.34344 27.98426
# Shear Modulus (GPa) = 12.37460 18.38000 15.37730
#
# Velocity S-wave (km/s) = 2.53506 3.08956 2.82594
# Velocity P-wave (km/s) = 4.14761 5.75843 5.01808
#
# Compressibility (1/GPa) = 0.06015010
#
# Stress axis : x y z
#
# Youngs Moduli (GPa) = 99.30409 35.96666 22.48976
#
# Poissons Ratio (x) = 0.17002 0.07009
# Poissons Ratio (y) = 0.46941 0.07310
# Poissons Ratio (z) = 0.30950 0.11691
#
# Static dielectric constant tensor:
#      x y z
#    x 1.699450 0.000000 -0.020330 
#    y 0.000000 1.694950 0.000000 
#    z -0.020330 0.000000 1.666680 
# 
# From -- ./inp_files/65451.got.cif
#   From: 2010.05.17/outbox.cif.g08.bks.cpg/sg12_33_cif.got.tgz:65451.got - 2010.06.03 13:09:07.
