data_PCOD9188981
_publ_section_title
;
Structure prediction by ZEFSAII (Michael W. Deem and Ramdas Pophale) SiO2 
 PCOD9188981
Probable space group: C 2/M
;
_chemical_formula_sum "Si O2"
_cell_formula_units_Z 64
_cell_length_a 25.401629
_cell_length_b 14.359981
_cell_length_c 18.182044
_cell_angle_alpha 90.000000
_cell_angle_beta 26.640072
_cell_angle_gamma 90.000000
_cell_volume 2973.778204
_symmetry_space_group_name_H-M "C 2/M"
_symmetry_group_IT_number 12
_symmetry_cell_setting 'monoclinic'
loop_
_space_group_symop_operation_xyz
x,y,z
-x,y,-z
-x,-y,-z
x,-y,z
1/2+x,1/2+y,z
1/2-x,1/2+y,-z
1/2-x,1/2-y,-z
1/2+x,1/2-y,z
loop_
_atom_site_type_symbol
_atom_site_label
_atom_site_fract_x
_atom_site_fract_y
_atom_site_fract_z
Si Si1 0.420320 0.739392 0.529718
Si Si2 0.365703 0.891691 0.887917
Si Si3 0.979571 0.393596 0.112246
Si Si4 0.239592 0.112758 0.488938
Si Si5 0.365740 0.111007 0.476934
Si Si6 0.206546 0.292449 0.883353
Si Si7 0.275926 0.605161 0.073895
Si Si8 0.511485 0.391008 0.683619
O O1 0.500000 0.767766 0.500000
O O2 0.371644 0.824882 0.541508
O O3 0.312389 0.679474 0.698316
O O4 0.489190 0.673358 0.386912
O O5 0.504942 0.878488 0.721672
O O6 0.332333 0.874131 0.845091
O O7 0.336978 0.000000 0.937728
O O8 0.289685 0.830143 0.037997
O O9 0.996259 0.500000 0.119506
O O10 0.850171 0.363410 0.298852
O O11 0.000000 0.396289 0.000000
O O12 0.081578 0.328466 0.013944
O O13 0.271511 0.141402 0.532477
O O14 0.117957 0.142484 0.603734
O O15 0.234477 0.000000 0.498073
O O16 0.351648 0.000000 0.510260
O O17 0.214402 0.181657 0.876497
O O18 0.266704 0.500000 0.112726
O O19 0.391206 0.613314 0.878967
O O20 0.531672 0.500000 0.639419
#
# Coordination Sequence:
#
# PCOD9188981 Si02
#       8
#     8   8   8   8   8   8   8   8
#     4  12  26  39  56  88 125 163 201 243 299 357
#     4  10  19  36  64  90 112 146 197 254 303 341
#     4  10  20  36  59  90 121 145 183 245 309 356
#     4   9  18  37  64  90 114 149 198 248 299 351
#     4  10  21  40  64  89 116 153 205 256 299 345
#     4  12  22  36  57  86 119 152 194 240 293 352
#     4  10  22  39  59  84 117 159 200 239 285 350
#     4  10  22  41  62  87 121 160 197 239 298 366
#
# _framework density 21.521445
#
# number of rings (size 3 to 8) (size 9 to 14) (size 15 to 20)
#    0.000    1.625    1.250    3.750    0.000    3.500 
#    2.250    0.000    0.000    0.375    0.000    0.000 
#    0.000    0.000    0.000    0.000    0.000    0.000 
#
# Total GULP energy -178887.335846 kJ/mol
# GULP energy per Si atom -5590.229245 kJ/mol
# Density = 2.147246 g / cm^3
# Si number density = 21.521445 Si / 1000 Ang^3
#
#
#
# Elastic Constant Matrix: (Units=GPa)
#
#
# Indices 1 2 3 4 5 6 
#
# 1 113.5980 30.4484 14.0421 0.0000 -5.7786 0.0000
# 2 30.4484 65.2618 6.3130 0.0000 11.8801 0.0000
# 3 14.0421 6.3130 35.9536 0.0000 0.5418 0.0000
# 4 0.0000 0.0000 0.0000 9.4501 0.0000 -10.1012
# 5 -5.7786 11.8801 0.5418 0.0000 29.0898 0.0000
# 6 0.0000 0.0000 0.0000 -10.1012 0.0000 23.1000
#
#
#
# Elastic Compliance Matrix: (Units=1/GPa)
#
#
# Indices 1 2 3 4 5 6 
#
# 1 0.010952 -0.005609 -0.003361 0.000000 0.004529 0.000000
# 2 -0.005609 0.019714 -0.001133 0.000000 -0.009144 0.000000
# 3 -0.003361 -0.001133 0.029336 0.000000 -0.000751 0.000000
# 4 0.000000 0.000000 0.000000 0.198686 0.000000 0.086882
# 5 0.004529 -0.009144 -0.000751 0.000000 0.039024 0.000000
# 6 0.000000 0.000000 0.000000 0.086882 0.000000 0.081282
#
#
# Mechanical properties :
#
#
# Convention : Reuss Voigt Hill
#
# Bulk Modulus (GPa) = 25.12770 35.15781 30.14276
# Shear Modulus (GPa) = 12.12218 23.26200 17.69209
#
# Velocity S-wave (km/s) = 2.37589 3.29123 2.87028
# Velocity P-wave (km/s) = 4.38491 5.55109 5.00210
#
# Compressibility (1/GPa) = 0.03979672
#
# Stress axis : x y z
#
# Youngs Moduli (GPa) = 91.30525 50.72507 34.08725
#
# Poissons Ratio (x) = 0.28453 0.11456
# Poissons Ratio (y) = 0.51215 0.03862
# Poissons Ratio (z) = 0.30687 0.05747
#
# Static dielectric constant tensor:
#      x y z
#    x 1.807950 0.000000 -0.007740 
#    y 0.000000 1.806560 0.000000 
#    z -0.007740 0.000000 1.757510 
# 
# From -- ./inp_files/290088.got.cif
#   From: 2010.05.17/outbox.cif.g08.bks.cpg/sg12_146_cif.got.tgz:290088.got - 2010.06.03 13:09:07.
