data_PCOD9188894
_publ_section_title
;
Structure prediction by ZEFSAII (Michael W. Deem and Ramdas Pophale) SiO2 
 PCOD9188894
Probable space group: C 2/M
;
_chemical_formula_sum "Si O2"
_cell_formula_units_Z 36
_cell_length_a 9.377830
_cell_length_b 18.039140
_cell_length_c 10.635545
_cell_angle_alpha 90.000000
_cell_angle_beta 77.452009
_cell_angle_gamma 90.000000
_cell_volume 1756.218884
_symmetry_space_group_name_H-M "C 2/M"
_symmetry_group_IT_number 12
_symmetry_cell_setting 'monoclinic'
loop_
_space_group_symop_operation_xyz
x,y,z
-x,y,-z
-x,-y,-z
x,-y,z
1/2+x,1/2+y,z
1/2-x,1/2+y,-z
1/2-x,1/2-y,-z
1/2+x,1/2-y,z
loop_
_atom_site_type_symbol
_atom_site_label
_atom_site_fract_x
_atom_site_fract_y
_atom_site_fract_z
Si Si1 0.467801 0.269878 0.293411
Si Si2 0.226648 0.706870 0.874150
Si Si3 0.500000 0.156010 0.500000
Si Si4 0.775052 0.086473 0.313909
Si Si5 0.332446 0.586225 0.016073
O O1 0.641048 0.278108 0.247166
O O2 0.413843 0.234005 0.172649
O O3 0.433304 0.211349 0.408571
O O4 0.392933 0.350038 0.326753
O O5 0.250000 0.750000 0.000000
O O6 0.244477 0.623882 0.920663
O O7 0.625943 0.106875 0.412772
O O8 0.757892 0.095554 0.166143
O O9 0.817277 0.000000 0.327485
O O10 0.346639 0.500000 0.985814
O O11 0.500000 0.615442 0.000000
#
# Coordination Sequence:
#
# PCOD9188894 Si02
#       5
#     8   8   4   8   8
#     4  12  24  40  69  93 130 170 224 266 318 386
#     4  12  21  38  64 100 127 165 212 269 328 390
#     4  12  25  46  63  92 130 180 224 266 315 392
#     4  11  23  41  66  94 128 175 212 264 330 381
#     4  10  19  36  62  93 128 160 204 267 332 383
#
# _framework density 20.498584000000001
#
# number of rings (size 3 to 8) (size 9 to 14) (size 15 to 20)
#    0.000    0.667    6.667    1.667    0.000    0.000 
#    0.000    2.778    0.000    4.000    0.000    0.000 
#    0.000    0.000    0.000    0.000    0.000    0.000 
#
# Total GULP energy -100563.074570 kJ/mol
# GULP energy per Si atom -5586.837476 kJ/mol
# Density = 2.045193 g / cm^3
# Si number density = 20.498584 Si / 1000 Ang^3
#
#
#
# Elastic Constant Matrix: (Units=GPa)
#
#
# Indices 1 2 3 4 5 6 
#
# 1 28.3764 13.6677 9.4459 0.0000 -4.7164 0.0000
# 2 13.6677 110.9359 28.5858 0.0000 4.6653 0.0000
# 3 9.4459 28.5858 89.0656 0.0000 -8.6145 0.0000
# 4 0.0000 0.0000 0.0000 38.7564 0.0000 -0.8222
# 5 -4.7164 4.6653 -8.6145 0.0000 41.6012 0.0000
# 6 0.0000 0.0000 0.0000 -0.8222 0.0000 23.4153
#
#
#
# Elastic Compliance Matrix: (Units=1/GPa)
#
#
# Indices 1 2 3 4 5 6 
#
# 1 0.038848 -0.004383 -0.002285 0.000000 0.004423 0.000000
# 2 -0.004383 0.010454 -0.003114 0.000000 -0.002314 0.000000
# 3 -0.002285 -0.003114 0.012733 0.000000 0.002727 0.000000
# 4 0.000000 0.000000 0.000000 0.025821 0.000000 0.000907
# 5 0.004423 -0.002314 0.002727 0.000000 0.025363 0.000000
# 6 0.000000 0.000000 0.000000 0.000907 0.000000 0.042739
#
#
# Mechanical properties :
#
#
# Convention : Reuss Voigt Hill
#
# Bulk Modulus (GPa) = 23.54650 36.86408 30.20529
# Shear Modulus (GPa) = 26.36008 32.53315 29.44662
#
# Velocity S-wave (km/s) = 3.58990 3.98816 3.79426
# Velocity P-wave (km/s) = 5.35677 6.26338 5.82773
#
# Compressibility (1/GPa) = 0.04246916
#
# Stress axis : x y z
#
# Youngs Moduli (GPa) = 25.74163 95.65694 78.53408
#
# Poissons Ratio (x) = 0.41929 0.17949
# Poissons Ratio (y) = 0.11283 0.24457
# Poissons Ratio (z) = 0.05883 0.29790
#
# Static dielectric constant tensor:
#      x y z
#    x 1.741980 0.000000 -0.017620 
#    y 0.000000 1.801530 0.000000 
#    z -0.017620 0.000000 1.730400 
# 
# From -- ./inp_files/118607.got.cif
#   From: 2010.05.17/outbox.cif.g08.bks.cpg/sg12_60_cif.got.tgz:118607.got - 2010.06.03 13:09:07.
