data_PCOD9188632
_publ_section_title
;
Structure prediction by ZEFSAII (Michael W. Deem and Ramdas Pophale) SiO2 
 PCOD9188632
Probable space group: C 2/M
;
_chemical_formula_sum "Si O2"
_cell_formula_units_Z 56
_cell_length_a 19.501050
_cell_length_b 30.775588
_cell_length_c 8.835415
_cell_angle_alpha 90.000000
_cell_angle_beta 32.955389
_cell_angle_gamma 90.000000
_cell_volume 2884.555706
_symmetry_space_group_name_H-M "C 2/M"
_symmetry_group_IT_number 12
_symmetry_cell_setting 'monoclinic'
loop_
_space_group_symop_operation_xyz
x,y,z
-x,y,-z
-x,-y,-z
x,-y,z
1/2+x,1/2+y,z
1/2-x,1/2+y,-z
1/2-x,1/2-y,-z
1/2+x,1/2-y,z
loop_
_atom_site_type_symbol
_atom_site_label
_atom_site_fract_x
_atom_site_fract_y
_atom_site_fract_z
Si Si1 0.635123 0.906165 0.327526
Si Si2 0.726710 0.734204 0.371346
Si Si3 0.360905 0.153697 0.187788
Si Si4 0.864173 0.500000 0.666138
Si Si5 0.479903 0.328519 0.361329
Si Si6 0.753661 0.169469 0.282145
Si Si7 0.636399 0.500000 0.331422
Si Si8 0.287349 0.407313 0.738309
O O1 0.500000 0.904190 0.500000
O O2 0.644201 0.952804 0.396139
O O3 0.658600 0.864267 0.383165
O O4 0.736297 0.905597 0.004310
O O5 0.750000 0.750000 0.500000
O O6 0.833255 0.697490 0.140522
O O7 0.596401 0.709703 0.581018
O O8 0.728272 0.780403 0.285338
O O9 0.263841 0.160024 0.507368
O O10 0.324170 0.110684 0.163164
O O11 0.500000 0.153693 0.000000
O O12 0.000000 0.500000 0.500000
O O13 0.749704 0.500000 0.998254
O O14 0.500000 0.316416 0.500000
O O15 0.395486 0.371721 0.518769
O O16 0.607392 0.338720 0.037245
O O17 0.500000 0.500000 0.500000
O O18 0.659471 0.455748 0.382577
#
# Coordination Sequence:
#
# PCOD9188632 Si02
#       8
#     8   8   8   4   8   8   4   8
#     4  10  19  36  60  88 122 153 202 251 302 364
#     4   9  23  38  58  84 115 163 206 243 304 370
#     4  10  22  41  61  84 120 162 209 249 299 366
#     4   8  18  34  57  88 117 157 198 244 299 367
#     4  11  22  40  60  88 127 151 209 259 303 363
#     4  11  23  37  62  87 115 166 199 249 312 353
#     4  10  20  34  66  91 120 164 201 241 313 381
#     4  10  21  39  59  91 121 159 200 251 305 363
#
# _framework density 19.413736
#
# number of rings (size 3 to 8) (size 9 to 14) (size 15 to 20)
#    0.000    2.000    1.429    1.286    6.000    5.714 
#    0.000    1.071    0.000    0.857    0.000    0.000 
#    0.000    0.000    0.000    0.000    0.000    0.000 
#
# Total GULP energy -156040.872650 kJ/mol
# GULP energy per Si atom -5572.888309 kJ/mol
# Density = 1.936955 g / cm^3
# Si number density = 19.413736 Si / 1000 Ang^3
#
#
#
# Elastic Constant Matrix: (Units=GPa)
#
#
# Indices 1 2 3 4 5 6 
#
# 1 69.1704 52.7424 2.4654 0.0000 -12.5735 0.0000
# 2 52.7424 178.6442 6.9950 0.0000 -14.4463 0.0000
# 3 2.4654 6.9950 59.3827 0.0000 -8.3744 0.0000
# 4 0.0000 0.0000 0.0000 15.8672 0.0000 4.3211
# 5 -12.5735 -14.4463 -8.3744 0.0000 28.3514 0.0000
# 6 0.0000 0.0000 0.0000 4.3211 0.0000 -4.5567
#
#
#
# Elastic Compliance Matrix: (Units=1/GPa)
#
#
# Indices 1 2 3 4 5 6 
#
# 1 0.019612 -0.005316 0.000685 0.000000 0.006191 0.000000
# 2 -0.005316 0.007284 -0.000466 0.000000 0.001216 0.000000
# 3 0.000685 -0.000466 0.017609 0.000000 0.005268 0.000000
# 4 0.000000 0.000000 0.000000 0.050088 0.000000 0.047498
# 5 0.006191 0.001216 0.005268 0.000000 0.040193 0.000000
# 6 0.000000 0.000000 0.000000 0.047498 0.000000 -0.174414
#
#
# Mechanical properties :
#
#
# Convention : Reuss Voigt Hill
#
# Bulk Modulus (GPa) = 29.14527 47.95586 38.55056
# Shear Modulus (GPa) = -277.82132 24.26534 -126.77799
#
# Velocity S-wave (km/s) = -11.97565 3.53924 -8.08981
# Velocity P-wave (km/s) = 13.27314 6.43873 8.20729
#
# Compressibility (1/GPa) = 0.03431089
#
# Stress axis : x y z
#
# Youngs Moduli (GPa) = 50.99008 137.28973 56.78835
#
# Poissons Ratio (x) = 0.72987 -0.03891
# Poissons Ratio (y) = 0.27108 0.02645
# Poissons Ratio (z) = -0.03493 0.06395
#
# Static dielectric constant tensor:
#      x y z
#    x 1.698230 0.000000 0.004400 
#    y 0.000000 1.751200 0.000000 
#    z 0.004400 0.000000 1.688400 
# 
# From -- ./inp_files/91577.got.cif
#   From: 2010.05.17/outbox.cif.g08.bks.cpg/sg12_46_cif.got.tgz:91577.got - 2010.06.03 13:09:07.
