data_PCOD9188021
_publ_section_title
;
Structure prediction by ZEFSAII (Michael W. Deem and Ramdas Pophale) SiO2 
 PCOD9188021
Probable space group: C 2/M
;
_chemical_formula_sum "Si O2"
_cell_formula_units_Z 50
_cell_length_a 10.551242
_cell_length_b 22.848962
_cell_length_c 15.632053
_cell_angle_alpha 90.000000
_cell_angle_beta 47.554652
_cell_angle_gamma 90.000000
_cell_volume 2780.969297
_symmetry_space_group_name_H-M "C 2/M"
_symmetry_group_IT_number 12
_symmetry_cell_setting 'monoclinic'
loop_
_space_group_symop_operation_xyz
x,y,z
-x,y,-z
-x,-y,-z
x,-y,z
1/2+x,1/2+y,z
1/2-x,1/2+y,-z
1/2-x,1/2-y,-z
1/2+x,1/2-y,z
loop_
_atom_site_type_symbol
_atom_site_label
_atom_site_fract_x
_atom_site_fract_y
_atom_site_fract_z
Si Si1 0.971663 0.249991 0.778244
Si Si2 0.798274 0.598706 0.701684
Si Si3 0.140524 0.567016 0.859459
Si Si4 0.632810 0.121109 0.134883
Si Si5 0.097454 0.878903 0.134873
Si Si6 0.000000 0.500000 0.500000
Si Si7 0.634812 0.764922 0.365303
O O1 0.175338 0.257542 0.698615
O O2 0.877600 0.308598 0.852109
O O3 0.918172 0.191390 0.852096
O O4 0.926920 0.242437 0.698790
O O5 0.839570 0.595138 0.783827
O O6 0.592711 0.595117 0.783849
O O7 0.850805 0.664506 0.649109
O O8 0.898154 0.551095 0.601807
O O9 0.180671 0.500000 0.819296
O O10 0.303975 0.598818 0.825623
O O11 0.044754 0.598829 0.825617
O O12 0.000000 0.566903 0.000000
O O13 0.786775 0.105254 0.000008
O O14 0.500000 0.749292 0.500000
#
# Coordination Sequence:
#
# PCOD9188021 Si02
#       7
#     8   8   8   8   8   2   8
#     4  10  20  32  58  84 118 153 187 238 298 348
#     4  10  23  37  61  82 111 152 199 251 289 335
#     4   9  19  34  53  78 116 151 179 223 284 355
#     4  10  20  37  59  90 119 148 189 239 301 363
#     4  10  20  37  59  90 119 148 189 239 301 363
#     4  12  24  44  58  78 112 160 204 252 302 324
#     4  10  19  36  52  82 113 154 201 233 279 343
#
# _framework density 17.979341999999999
#
# number of rings (size 3 to 8) (size 9 to 14) (size 15 to 20)
#    0.000    2.080    0.800    2.400    2.240    0.000 
#    0.000    5.600    0.000    0.960    0.000    0.000 
#    0.000    0.000    0.000    0.000    0.000    0.000 
#
# Total GULP energy -139260.449463 kJ/mol
# GULP energy per Si atom -5570.417979 kJ/mol
# Density = 1.793842 g / cm^3
# Si number density = 17.979342 Si / 1000 Ang^3
#
#
#
# Elastic Constant Matrix: (Units=GPa)
#
#
# Indices 1 2 3 4 5 6 
#
# 1 155.7937 29.5088 63.4681 0.0000 4.8251 0.0000
# 2 29.5088 72.1335 34.9123 0.0000 -0.3376 0.0000
# 3 63.4681 34.9123 104.6620 0.0000 -1.4808 0.0000
# 4 0.0000 0.0000 0.0000 20.0857 0.0000 -0.7681
# 5 4.8251 -0.3376 -1.4808 0.0000 9.9318 0.0000
# 6 0.0000 0.0000 0.0000 -0.7681 0.0000 8.6822
#
#
#
# Elastic Compliance Matrix: (Units=1/GPa)
#
#
# Indices 1 2 3 4 5 6 
#
# 1 0.008859 -0.001208 -0.005041 0.000000 -0.005097 0.000000
# 2 -0.001208 0.016698 -0.004831 0.000000 0.000434 0.000000
# 3 -0.005041 -0.004831 0.014286 0.000000 0.004415 0.000000
# 4 0.000000 0.000000 0.000000 0.049956 0.000000 0.004420
# 5 -0.005097 0.000434 0.004415 0.000000 0.103836 0.000000
# 6 0.000000 0.000000 0.000000 0.004420 0.000000 0.115569
#
#
# Mechanical properties :
#
#
# Convention : Reuss Voigt Hill
#
# Bulk Modulus (GPa) = 56.55678 65.37418 60.96548
# Shear Modulus (GPa) = 14.82539 21.38660 18.10600
#
# Velocity S-wave (km/s) = 2.87466 3.45267 3.17684
# Velocity P-wave (km/s) = 6.52251 7.23424 6.88757
#
# Compressibility (1/GPa) = 0.01768135
#
# Stress axis : x y z
#
# Youngs Moduli (GPa) = 112.87668 59.88863 69.99961
#
# Poissons Ratio (x) = 0.07234 0.35290
# Poissons Ratio (y) = 0.13635 0.33818
# Poissons Ratio (z) = 0.56907 0.28933
#
# Static dielectric constant tensor:
#      x y z
#    x 1.605590 0.000000 0.001680 
#    y 0.000000 1.608330 0.000000 
#    z 0.001680 0.000000 1.579250 
# 
# From -- ./inp_files/198290.got.cif
#   From: 2010.05.17/outbox.cif.g08.bks.cpg/sg12_100_cif.got.tgz:198290.got - 2010.06.03 13:09:07.
