data_PCOD9188814
_publ_section_title
;
Structure prediction by ZEFSAII (Michael W. Deem and Ramdas Pophale) SiO2 
 PCOD9188814
Probable space group: C 2/M
;
_chemical_formula_sum "Si O2"
_cell_formula_units_Z 52
_cell_length_a 22.626410
_cell_length_b 22.244299
_cell_length_c 5.492595
_cell_angle_alpha 90.000000
_cell_angle_beta 124.916354
_cell_angle_gamma 90.000000
_cell_volume 2266.834081
_symmetry_space_group_name_H-M "C 2/M"
_symmetry_group_IT_number 12
_symmetry_cell_setting 'monoclinic'
loop_
_space_group_symop_operation_xyz
x,y,z
-x,y,-z
-x,-y,-z
x,-y,z
1/2+x,1/2+y,z
1/2-x,1/2+y,-z
1/2-x,1/2-y,-z
1/2+x,1/2-y,z
loop_
_atom_site_type_symbol
_atom_site_label
_atom_site_fract_x
_atom_site_fract_y
_atom_site_fract_z
Si Si1 0.922614 0.626756 0.946976
Si Si2 0.123737 0.000000 0.899524
Si Si3 0.544478 0.000000 0.847073
Si Si4 0.127895 0.129974 0.873091
Si Si5 0.729354 0.881436 0.476912
Si Si6 0.701896 0.287331 0.691607
Si Si7 0.423073 0.255568 0.948736
Si Si8 0.713152 0.500000 0.609817
O O1 0.917167 0.564377 0.075520
O O2 0.851312 0.620900 0.610992
O O3 0.920710 0.690992 0.079302
O O4 0.000000 0.627255 0.000000
O O5 0.180611 0.000000 0.805061
O O6 0.088135 0.934090 0.782150
O O7 0.153728 0.000000 0.248870
O O8 0.500000 0.000000 0.500000
O O9 0.500000 0.000000 0.000000
O O10 0.205825 0.117585 0.179555
O O11 0.090169 0.184886 0.924568
O O12 0.151844 0.158625 0.677081
O O13 0.743401 0.821359 0.355756
O O14 0.741909 0.939919 0.338982
O O15 0.641701 0.251644 0.399680
O O16 0.750000 0.250000 0.000000
O O17 0.500000 0.260825 0.000000
#
# Coordination Sequence:
#
# PCOD9188814 Si02
#       8
#     8   4   4   8   8   8   8   4
#     4  10  21  42  63  90 130 181 229 283 344 414
#     4  10  20  38  66  97 133 174 220 288 350 412
#     4  10  23  48  67  92 135 182 235 287 342 412
#     4  10  21  39  63  96 131 172 223 292 347 423
#     4  10  20  37  59  91 128 166 224 282 349 405
#     4  11  21  36  63  94 127 167 226 293 345 413
#     4  10  23  43  63  94 137 180 230 282 357 430
#     4  10  19  36  61  96 128 171 224 279 347 414
#
# _framework density 22.939484
#
# number of rings (size 3 to 8) (size 9 to 14) (size 15 to 20)
#    0.000    1.846    1.538    2.308    0.000    3.077 
#   22.154    3.462    0.000    0.923    0.000    0.000 
#    0.000    0.000    0.000    0.000    0.000    0.000 
#
# Total GULP energy -144865.168904 kJ/mol
# GULP energy per Si atom -5571.737266 kJ/mol
# Density = 2.288727 g / cm^3
# Si number density = 22.939484 Si / 1000 Ang^3
#
#
#
# Elastic Constant Matrix: (Units=GPa)
#
#
# Indices 1 2 3 4 5 6 
#
# 1 80.1684 24.9536 37.0005 0.0000 20.6030 0.0000
# 2 24.9536 212.7359 37.2375 0.0000 12.3074 0.0000
# 3 37.0005 37.2375 48.6428 0.0000 -0.6607 0.0000
# 4 0.0000 0.0000 0.0000 74.5003 0.0000 0.1831
# 5 20.6030 12.3074 -0.6607 0.0000 27.8448 0.0000
# 6 0.0000 0.0000 0.0000 0.1831 0.0000 28.7267
#
#
#
# Elastic Compliance Matrix: (Units=1/GPa)
#
#
# Indices 1 2 3 4 5 6 
#
# 1 0.028522 0.002093 -0.023604 0.000000 -0.022589 0.000000
# 2 0.002093 0.005761 -0.006060 0.000000 -0.004239 0.000000
# 3 -0.023604 -0.006060 0.043440 0.000000 0.021175 0.000000
# 4 0.000000 0.000000 0.000000 0.013423 0.000000 -0.000086
# 5 -0.022589 -0.004239 0.021175 0.000000 0.055004 0.000000
# 6 0.000000 0.000000 0.000000 -0.000086 0.000000 0.034811
#
#
# Mechanical properties :
#
#
# Convention : Reuss Voigt Hill
#
# Bulk Modulus (GPa) = 44.28734 59.99227 52.13981
# Shear Modulus (GPa) = 20.52293 42.37140 31.44716
#
# Velocity S-wave (km/s) = 2.99432 4.30245 3.70655
# Velocity P-wave (km/s) = 5.59488 7.13376 6.41067
#
# Compressibility (1/GPa) = 0.02257982
#
# Stress axis : x y z
#
# Youngs Moduli (GPa) = 35.06079 173.57707 23.02047
#
# Poissons Ratio (x) = -0.36330 0.54339
# Poissons Ratio (y) = -0.07338 0.13950
# Poissons Ratio (z) = 0.82759 1.05187
#
# Static dielectric constant tensor:
#      x y z
#    x 1.892580 0.000000 0.030380 
#    y 0.000000 2.100240 0.000000 
#    z 0.030380 0.000000 1.871790 
# 
# From -- ./inp_files/26187.got.cif
#   From: 2010.05.17/outbox.cif.g08.bks.cpg/sg12_14_cif.got.tgz:26187.got - 2010.06.03 13:09:07.
