data_PCOD9188066
_publ_section_title
;
Structure prediction by ZEFSAII (Michael W. Deem and Ramdas Pophale) SiO2 
 PCOD9188066
Probable space group: C 2/M
;
_chemical_formula_sum "Si O2"
_cell_formula_units_Z 48
_cell_length_a 17.770848
_cell_length_b 23.470901
_cell_length_c 9.424275
_cell_angle_alpha 90.000000
_cell_angle_beta 135.310420
_cell_angle_gamma 90.000000
_cell_volume 2764.427021
_symmetry_space_group_name_H-M "C 2/M"
_symmetry_group_IT_number 12
_symmetry_cell_setting 'monoclinic'
loop_
_space_group_symop_operation_xyz
x,y,z
-x,y,-z
-x,-y,-z
x,-y,z
1/2+x,1/2+y,z
1/2-x,1/2+y,-z
1/2-x,1/2-y,-z
1/2+x,1/2-y,z
loop_
_atom_site_type_symbol
_atom_site_label
_atom_site_fract_x
_atom_site_fract_y
_atom_site_fract_z
Si Si1 0.416690 0.670276 0.772983
Si Si2 0.164741 0.064750 0.821295
Si Si3 0.515578 0.761949 0.361499
Si Si4 0.751948 0.273843 0.247693
Si Si5 0.433644 0.564961 0.626057
Si Si6 0.203787 0.325439 0.991339
O O1 0.474357 0.712304 0.739327
O O2 0.332059 0.707299 0.747859
O O3 0.377296 0.614230 0.640019
O O4 0.500000 0.648790 0.000000
O O5 0.116930 0.065428 0.598344
O O6 0.060662 0.078928 0.778732
O O7 0.197370 0.000000 0.898427
O O8 0.261342 0.109299 0.956432
O O9 0.500000 0.737804 0.500000
O O10 0.632644 0.789208 0.533631
O O11 0.419496 0.805236 0.195236
O O12 0.738751 0.303406 0.076124
O O13 0.744509 0.207919 0.186804
O O14 0.424559 0.500000 0.668518
#
# Coordination Sequence:
#
# PCOD9188066 Si02
#       6
#     8   8   8   8   8   8
#     4  12  21  33  53  82 113 142 183 223 273 332
#     4   9  18  34  57  80 105 146 189 223 266 324
#     4  10  22  35  53  77 111 148 180 221 278 323
#     4  10  21  34  52  80 111 147 178 224 279 324
#     4   9  20  34  52  80 112 145 181 222 274 327
#     4  10  19  36  55  79 109 142 186 227 270 323
#
# _framework density 17.363454000000001
#
# number of rings (size 3 to 8) (size 9 to 14) (size 15 to 20)
#    0.000    2.000    1.667    3.500    7.000    0.333 
#    0.000    0.833    0.000    5.500    0.000    4.667 
#    0.000    0.000    0.000    0.000    0.000    0.000 
#
# Total GULP energy -133701.754793 kJ/mol
# GULP energy per Si atom -5570.906450 kJ/mol
# Density = 1.732393 g / cm^3
# Si number density = 17.363454 Si / 1000 Ang^3
#
#
#
# Elastic Constant Matrix: (Units=GPa)
#
#
# Indices 1 2 3 4 5 6 
#
# 1 72.1979 45.1156 29.5995 0.0000 -0.6380 0.0000
# 2 45.1156 111.3238 29.3579 0.0000 -2.1315 0.0000
# 3 29.5995 29.3579 52.8761 0.0000 8.4588 0.0000
# 4 0.0000 0.0000 0.0000 23.3918 0.0000 -4.6633
# 5 -0.6380 -2.1315 8.4588 0.0000 24.2795 0.0000
# 6 0.0000 0.0000 0.0000 -4.6633 0.0000 8.5835
#
#
#
# Elastic Compliance Matrix: (Units=1/GPa)
#
#
# Indices 1 2 3 4 5 6 
#
# 1 0.021513 -0.006265 -0.009073 0.000000 0.003176 0.000000
# 2 -0.006265 0.012578 -0.003841 0.000000 0.002278 0.000000
# 3 -0.009073 -0.003841 0.027763 0.000000 -0.010248 0.000000
# 4 0.000000 0.000000 0.000000 0.047943 0.000000 0.026047
# 5 0.003176 0.002278 -0.010248 0.000000 0.045041 0.000000
# 6 0.000000 0.000000 0.000000 0.026047 0.000000 0.130653
#
#
# Mechanical properties :
#
#
# Convention : Reuss Voigt Hill
#
# Bulk Modulus (GPa) = 42.55815 49.39378 45.97596
# Shear Modulus (GPa) = 15.07472 20.07262 17.57367
#
# Velocity S-wave (km/s) = 2.94970 3.40373 3.18481
# Velocity P-wave (km/s) = 6.01368 6.62992 6.32931
#
# Compressibility (1/GPa) = 0.02349726
#
# Stress axis : x y z
#
# Youngs Moduli (GPa) = 46.48245 79.50106 36.01934
#
# Poissons Ratio (x) = 0.49810 0.32679
# Poissons Ratio (y) = 0.29123 0.13835
# Poissons Ratio (z) = 0.42171 0.30536
#
# Static dielectric constant tensor:
#      x y z
#    x 1.625440 0.000000 0.008910 
#    y 0.000000 1.594660 0.000000 
#    z 0.008910 0.000000 1.617150 
# 
# From -- ./inp_files/63607.got.cif
#   From: 2010.05.17/outbox.cif.g08.bks.cpg/sg12_32_cif.got.tgz:63607.got - 2010.06.03 13:09:07.
