data_PCOD9188812
_publ_section_title
;
Structure prediction by ZEFSAII (Michael W. Deem and Ramdas Pophale) SiO2 
 PCOD9188812
Probable space group: C 2/M
;
_chemical_formula_sum "Si O2"
_cell_formula_units_Z 32
_cell_length_a 17.424096
_cell_length_b 14.162330
_cell_length_c 11.177450
_cell_angle_alpha 90.000000
_cell_angle_beta 150.144904
_cell_angle_gamma 90.000000
_cell_volume 1373.060677
_symmetry_space_group_name_H-M "C 2/M"
_symmetry_group_IT_number 12
_symmetry_cell_setting 'monoclinic'
loop_
_space_group_symop_operation_xyz
x,y,z
-x,y,-z
-x,-y,-z
x,-y,z
1/2+x,1/2+y,z
1/2-x,1/2+y,-z
1/2-x,1/2-y,-z
1/2+x,1/2-y,z
loop_
_atom_site_type_symbol
_atom_site_label
_atom_site_fract_x
_atom_site_fract_y
_atom_site_fract_z
Si Si1 0.174949 0.301174 0.226216
Si Si2 0.256964 0.106208 0.439783
Si Si3 0.063681 0.361578 0.716558
Si Si4 0.141974 0.150446 0.762151
O O1 0.184002 0.189296 0.262510
O O2 0.260955 0.357105 0.448612
O O3 0.244789 0.320855 0.192583
O O4 0.000000 0.332665 0.000000
O O5 0.436674 0.108066 0.641362
O O6 0.198618 0.000000 0.346323
O O7 0.073612 0.246743 0.726935
O O8 0.000000 0.389615 0.500000
O O9 0.237958 0.393782 0.981658
O O10 0.000000 0.102711 0.500000
#
# Coordination Sequence:
#
# PCOD9188812 Si02
#       4
#     8   8   8   8
#     4  11  22  42  68  93 127 181 219 274 333 391
#     4  11  24  40  64 100 133 170 224 277 329 396
#     4  10  19  36  61  95 128 171 211 269 326 394
#     4  10  19  37  65  96 124 177 221 265 322 405
#
# _framework density 23.305598
#
# number of rings (size 3 to 8) (size 9 to 14) (size 15 to 20)
#    0.000    1.500    7.500    0.000    0.000    1.500 
#    0.000    0.000    0.000    3.000    0.000    0.000 
#    0.000    0.000    0.000    0.000    0.000    0.000 
#
# Total GULP energy -89352.869301 kJ/mol
# GULP energy per Si atom -5584.554331 kJ/mol
# Density = 2.325255 g / cm^3
# Si number density = 23.305598 Si / 1000 Ang^3
#
#
#
# Elastic Constant Matrix: (Units=GPa)
#
#
# Indices 1 2 3 4 5 6 
#
# 1 87.8237 32.0762 4.1675 0.0000 -12.1945 0.0000
# 2 32.0762 105.4256 3.0788 0.0000 -15.2600 0.0000
# 3 4.1675 3.0788 157.2154 0.0000 -22.3604 0.0000
# 4 0.0000 0.0000 0.0000 -16.6159 0.0000 9.7938
# 5 -12.1945 -15.2600 -22.3604 0.0000 29.5844 0.0000
# 6 0.0000 0.0000 0.0000 9.7938 0.0000 -12.9789
#
#
#
# Elastic Compliance Matrix: (Units=1/GPa)
#
#
# Indices 1 2 3 4 5 6 
#
# 1 0.013171 -0.003458 0.000266 0.000000 0.003846 0.000000
# 2 -0.003458 0.011213 0.000551 0.000000 0.004775 0.000000
# 3 0.000266 0.000551 0.007170 0.000000 0.005813 0.000000
# 4 0.000000 0.000000 0.000000 -0.108394 0.000000 -0.081793
# 5 0.003846 0.004775 0.005813 0.000000 0.042243 0.000000
# 6 0.000000 0.000000 0.000000 -0.081793 0.000000 -0.138769
#
#
# Mechanical properties :
#
#
# Convention : Reuss Voigt Hill
#
# Bulk Modulus (GPa) = 38.06640 47.67885 42.87263
# Shear Modulus (GPa) = -31.38205 20.74074 -5.32066
#
# Velocity S-wave (km/s) = -3.67351 2.98643 -1.51260
# Velocity P-wave (km/s) = 1.27431 5.69159 3.92240
#
# Compressibility (1/GPa) = 0.02626988
#
# Stress axis : x y z
#
# Youngs Moduli (GPa) = 75.92453 89.18526 139.47794
#
# Poissons Ratio (x) = 0.30844 -0.03704
# Poissons Ratio (y) = 0.26258 -0.07688
# Poissons Ratio (z) = -0.02016 -0.04916
#
# Static dielectric constant tensor:
#      x y z
#    x 1.810960 0.000000 -0.017960 
#    y 0.000000 1.858520 0.000000 
#    z -0.017960 0.000000 1.963430 
# 
# From -- ./inp_files/45230.got.cif
#   From: 2010.05.17/outbox.cif.g08.bks.cpg/sg12_23_cif.got.tgz:45230.got - 2010.06.03 13:09:07.
