data_PCOD9188328
_publ_section_title
;
Structure prediction by ZEFSAII (Michael W. Deem and Ramdas Pophale) SiO2 
 PCOD9188328
Probable space group: C 2/M
;
_chemical_formula_sum "Si O2"
_cell_formula_units_Z 56
_cell_length_a 12.439075
_cell_length_b 17.989540
_cell_length_c 13.342171
_cell_angle_alpha 90.000000
_cell_angle_beta 111.754518
_cell_angle_gamma 90.000000
_cell_volume 2772.985869
_symmetry_space_group_name_H-M "C 2/M"
_symmetry_group_IT_number 12
_symmetry_cell_setting 'monoclinic'
loop_
_space_group_symop_operation_xyz
x,y,z
-x,y,-z
-x,-y,-z
x,-y,z
1/2+x,1/2+y,z
1/2-x,1/2+y,-z
1/2-x,1/2-y,-z
1/2+x,1/2-y,z
loop_
_atom_site_type_symbol
_atom_site_label
_atom_site_fract_x
_atom_site_fract_y
_atom_site_fract_z
Si Si1 0.339297 0.636754 0.664282
Si Si2 0.874805 0.708902 0.912201
Si Si3 0.884093 0.414957 0.521972
Si Si4 0.731790 0.422402 0.934888
Si Si5 0.371947 0.626960 0.907988
Si Si6 0.702025 0.813311 0.330449
Si Si7 0.087524 0.088025 0.683717
O O1 0.229735 0.591821 0.586245
O O2 0.367538 0.612164 0.788399
O O3 0.300555 0.724392 0.646784
O O4 0.456343 0.619421 0.641580
O O5 0.809010 0.648668 0.951767
O O6 0.819406 0.790080 0.897129
O O7 0.871692 0.682382 0.796921
O O8 0.000000 0.716178 0.000000
O O9 0.895201 0.500000 0.562242
O O10 0.860017 0.358205 0.603340
O O11 0.000000 0.396694 0.500000
O O12 0.791670 0.500000 0.929193
O O13 0.632993 0.412413 0.815434
O O14 0.692093 0.423986 0.035313
O O15 0.500000 0.628111 0.000000
O O16 0.823776 0.856669 0.345756
O O17 0.091149 0.000000 0.652306
#
# Coordination Sequence:
#
# PCOD9188328 Si02
#       7
#     8   8   8   8   8   8   8
#     4  11  23  40  67  95 125 167 220 262 312 388
#     4   9  20  37  59  87 119 163 208 251 298 376
#     4  11  26  46  65  90 128 167 209 265 324 383
#     4  10  20  33  54  87 126 163 198 251 310 363
#     4  10  19  36  58  89 123 160 197 251 313 361
#     4  10  23  42  66  92 127 170 212 266 320 374
#     4  10  21  39  64  95 129 164 213 268 319 374
#
# _framework density 20.194838000000001
#
# number of rings (size 3 to 8) (size 9 to 14) (size 15 to 20)
#    0.000    1.857    1.429    1.714    2.000    4.000 
#    0.000    2.857    0.000    0.000    0.000    0.000 
#    0.000    0.000    0.000    0.000    0.000    0.000 
#
# Total GULP energy -156020.116839 kJ/mol
# GULP energy per Si atom -5572.147030 kJ/mol
# Density = 2.014887 g / cm^3
# Si number density = 20.194838 Si / 1000 Ang^3
#
#
#
# Elastic Constant Matrix: (Units=GPa)
#
#
# Indices 1 2 3 4 5 6 
#
# 1 85.1711 44.9400 22.1547 0.0000 0.5888 0.0000
# 2 44.9400 87.2486 23.5060 0.0000 -9.4685 0.0000
# 3 22.1547 23.5060 66.5058 0.0000 -7.7245 0.0000
# 4 0.0000 0.0000 0.0000 23.0330 0.0000 -6.8655
# 5 0.5888 -9.4685 -7.7245 0.0000 24.6679 0.0000
# 6 0.0000 0.0000 0.0000 -6.8655 0.0000 35.7869
#
#
#
# Elastic Compliance Matrix: (Units=1/GPa)
#
#
# Indices 1 2 3 4 5 6 
#
# 1 0.017059 -0.008417 -0.003249 0.000000 -0.004655 0.000000
# 2 -0.008417 0.017135 -0.002558 0.000000 0.005977 0.000000
# 3 -0.003249 -0.002558 0.017556 0.000000 0.004593 0.000000
# 4 0.000000 0.000000 0.000000 0.046049 0.000000 0.008834
# 5 -0.004655 0.005977 0.004593 0.000000 0.044382 0.000000
# 6 0.000000 0.000000 0.000000 0.008834 0.000000 0.029638
#
#
# Mechanical properties :
#
#
# Convention : Reuss Voigt Hill
#
# Bulk Modulus (GPa) = 42.91317 46.68077 44.79697
# Shear Modulus (GPa) = 24.03447 26.58588 25.31018
#
# Velocity S-wave (km/s) = 3.45357 3.63225 3.54404
# Velocity P-wave (km/s) = 6.09906 6.38407 6.24319
#
# Compressibility (1/GPa) = 0.02330287
#
# Stress axis : x y z
#
# Youngs Moduli (GPa) = 58.61851 58.36109 56.96021
#
# Poissons Ratio (x) = 0.49122 0.18505
# Poissons Ratio (y) = 0.49339 0.14571
# Poissons Ratio (z) = 0.19043 0.14929
#
# Static dielectric constant tensor:
#      x y z
#    x 1.724010 0.000000 -0.027570 
#    y 0.000000 1.753340 0.000000 
#    z -0.027570 0.000000 1.783150 
# 
# From -- ./inp_files/206271.got.cif
#   From: 2010.05.17/outbox.cif.g08.bks.cpg/sg12_104_cif.got.tgz:206271.got - 2010.06.03 13:09:07.
