data_PCOD9188705
_publ_section_title
;
Structure prediction by ZEFSAII (Michael W. Deem and Ramdas Pophale) SiO2 
 PCOD9188705
Probable space group: C 2/M
;
_chemical_formula_sum "Si O2"
_cell_formula_units_Z 64
_cell_length_a 16.722523
_cell_length_b 8.377012
_cell_length_c 22.445325
_cell_angle_alpha 90.000000
_cell_angle_beta 89.924320
_cell_angle_gamma 90.000000
_cell_volume 3144.245578
_symmetry_space_group_name_H-M "C 2/M"
_symmetry_group_IT_number 12
_symmetry_cell_setting 'monoclinic'
loop_
_space_group_symop_operation_xyz
x,y,z
-x,y,-z
-x,-y,-z
x,-y,z
1/2+x,1/2+y,z
1/2-x,1/2+y,-z
1/2-x,1/2-y,-z
1/2+x,1/2-y,z
loop_
_atom_site_type_symbol
_atom_site_label
_atom_site_fract_x
_atom_site_fract_y
_atom_site_fract_z
Si Si1 0.160280 0.189211 0.495776
Si Si2 0.596577 0.187376 0.619637
Si Si3 0.345584 0.690763 0.752875
Si Si4 0.921558 0.807801 0.626144
Si Si5 0.250086 0.809421 0.067484
Si Si6 0.088936 0.304666 0.864025
Si Si7 0.911886 0.312320 0.870441
Si Si8 0.663914 0.194345 0.743273
O O1 0.250000 0.250000 0.500000
O O2 0.115837 0.235085 0.556390
O O3 0.118646 0.248214 0.435294
O O4 0.161901 0.000000 0.490853
O O5 0.504552 0.218283 0.633924
O O6 0.644677 0.251925 0.676814
O O7 0.614407 0.000000 0.613787
O O8 0.352719 0.500000 0.763847
O O9 0.368167 0.719752 0.684386
O O10 0.400119 0.781014 0.800064
O O11 0.253457 0.737757 0.761997
O O12 0.935793 0.000000 0.622259
O O13 0.331940 0.752128 0.099959
O O14 0.166510 0.760980 0.098536
O O15 0.253741 0.000000 0.068977
O O16 0.250000 0.750000 0.000000
O O17 0.087992 0.500000 0.865173
O O18 0.103511 0.255209 0.795250
O O19 0.001300 0.251668 0.886490
O O20 0.910033 0.500000 0.883266
O O21 0.661240 0.000000 0.740844
#
# Coordination Sequence:
#
# PCOD9188705 Si02
#       8
#     8   8   8   8   8   8   8   8
#     4  11  23  40  59  79 109 150 196 246 303 368
#     4  11  22  36  58  85 114 151 197 248 298 360
#     4  10  19  36  61  85 116 158 201 245 300 357
#     4  10  22  38  56  81 115 155 196 244 303 365
#     4  11  23  43  67  91 124 166 205 246 297 358
#     4   9  19  37  63  88 120 165 205 239 295 367
#     4  11  22  38  62  95 126 158 205 255 300 358
#     4   9  17  34  59  85 114 156 202 240 291 362
#
# _framework density 20.354642999999999
#
# number of rings (size 3 to 8) (size 9 to 14) (size 15 to 20)
#    0.000    1.750    1.250    3.375    0.000    6.500 
#    0.000    7.500    0.000    0.000    0.000    0.000 
#    0.000    0.000    0.000    0.000    0.000    0.000 
#
# Total GULP energy -178693.596303 kJ/mol
# GULP energy per Si atom -5584.174884 kJ/mol
# Density = 2.030831 g / cm^3
# Si number density = 20.354643 Si / 1000 Ang^3
#
#
#
# Elastic Constant Matrix: (Units=GPa)
#
#
# Indices 1 2 3 4 5 6 
#
# 1 124.3221 11.8494 35.8811 0.0000 -4.4143 0.0000
# 2 11.8494 15.6255 8.4476 0.0000 -1.9358 0.0000
# 3 35.8811 8.4476 100.8802 0.0000 -0.4906 0.0000
# 4 0.0000 0.0000 0.0000 28.8200 0.0000 -4.2730
# 5 -4.4143 -1.9358 -0.4906 0.0000 20.3184 0.0000
# 6 0.0000 0.0000 0.0000 -4.2730 0.0000 29.1121
#
#
#
# Elastic Compliance Matrix: (Units=1/GPa)
#
#
# Indices 1 2 3 4 5 6 
#
# 1 0.009449 -0.005416 -0.002900 0.000000 0.001467 0.000000
# 2 -0.005416 0.070941 -0.003987 0.000000 0.005486 0.000000
# 3 -0.002900 -0.003987 0.011275 0.000000 -0.000738 0.000000
# 4 0.000000 0.000000 0.000000 0.035470 0.000000 0.005206
# 5 0.001467 0.005486 -0.000738 0.000000 0.050040 0.000000
# 6 0.000000 0.000000 0.000000 0.005206 0.000000 0.035114
#
#
# Mechanical properties :
#
#
# Convention : Reuss Voigt Hill
#
# Bulk Modulus (GPa) = 14.91266 39.24266 27.07766
# Shear Modulus (GPa) = 19.28660 27.96009 23.62335
#
# Velocity S-wave (km/s) = 3.08153 3.71030 3.41044
# Velocity P-wave (km/s) = 4.47252 6.13811 5.37028
#
# Compressibility (1/GPa) = 0.06705710
#
# Stress axis : x y z
#
# Youngs Moduli (GPa) = 105.83219 14.09632 88.69501
#
# Poissons Ratio (x) = 0.07634 0.25723
# Poissons Ratio (y) = 0.57317 0.35367
# Poissons Ratio (z) = 0.30693 0.05621
#
# Static dielectric constant tensor:
#      x y z
#    x 1.724090 0.000000 0.015630 
#    y 0.000000 1.722430 0.000000 
#    z 0.015630 0.000000 1.683050 
# 
# From -- ./inp_files/338839.got.cif
#   From: 2010.05.17/outbox.cif.g08.bks.cpg/sg12_170_cif.got.tgz:338839.got - 2010.06.03 13:09:07.
