data_PCOD9188615
_publ_section_title
;
Structure prediction by ZEFSAII (Michael W. Deem and Ramdas Pophale) SiO2 
 PCOD9188615
Probable space group: C 2/M
;
_chemical_formula_sum "Si O2"
_cell_formula_units_Z 44
_cell_length_a 18.182925
_cell_length_b 13.916647
_cell_length_c 16.806399
_cell_angle_alpha 90.000000
_cell_angle_beta 145.990630
_cell_angle_gamma 90.000000
_cell_volume 2378.701562
_symmetry_space_group_name_H-M "C 2/M"
_symmetry_group_IT_number 12
_symmetry_cell_setting 'monoclinic'
loop_
_space_group_symop_operation_xyz
x,y,z
-x,y,-z
-x,-y,-z
x,-y,z
1/2+x,1/2+y,z
1/2-x,1/2+y,-z
1/2-x,1/2-y,-z
1/2+x,1/2-y,z
loop_
_atom_site_type_symbol
_atom_site_label
_atom_site_fract_x
_atom_site_fract_y
_atom_site_fract_z
Si Si1 0.446602 0.000000 0.775754
Si Si2 0.347911 0.702472 0.335561
Si Si3 0.122871 0.682138 0.385832
Si Si4 0.212135 0.500000 0.218266
Si Si5 0.747324 0.000000 0.060707
Si Si6 0.357335 0.296244 0.153944
Si Si7 0.638881 0.893425 0.577657
O O1 0.381510 0.095807 0.681222
O O2 0.417613 0.000000 0.843974
O O3 0.601549 0.000000 0.891733
O O4 0.500000 0.697154 0.500000
O O5 0.285317 0.600600 0.303200
O O6 0.337035 0.716992 0.230787
O O7 0.289442 0.798750 0.323523
O O8 0.250000 0.750000 0.500000
O O9 0.112425 0.630406 0.462120
O O10 0.997476 0.750474 0.260647
O O11 0.211297 0.500000 0.122079
O O12 0.835516 0.091401 0.120930
O O13 0.250000 0.250000 0.000000
O O14 0.500000 0.897362 0.500000
O O15 0.699826 0.000000 0.640376
#
# Coordination Sequence:
#
# PCOD9188615 Si02
#       7
#     4   8   8   4   4   8   8
#     4  12  23  38  61  90 129 163 205 261 331 368
#     4  10  19  36  60  87 120 162 214 257 308 372
#     4  12  24  39  63  95 129 160 205 266 320 371
#     4  10  22  36  58  89 121 163 214 259 316 376
#     4  10  23  40  64  87 122 172 211 260 310 391
#     4  11  22  41  62  91 126 161 213 256 313 377
#     4  10  19  36  60  89 119 159 206 252 303 378
#
# _framework density 18.497487
#
# number of rings (size 3 to 8) (size 9 to 14) (size 15 to 20)
#    0.000    1.273    6.364    1.636    0.000    0.727 
#    1.636    0.000    0.000    0.000    0.000    1.273 
#    0.000    0.000    0.000    0.000    0.000    0.000 
#
# Total GULP energy -122604.145335 kJ/mol
# GULP energy per Si atom -5572.915697 kJ/mol
# Density = 1.845539 g / cm^3
# Si number density = 18.497487 Si / 1000 Ang^3
#
#
#
# Elastic Constant Matrix: (Units=GPa)
#
#
# Indices 1 2 3 4 5 6 
#
# 1 70.5970 35.9793 28.2295 0.0000 -5.4644 0.0000
# 2 35.9793 201.3609 62.7266 0.0000 4.8987 0.0000
# 3 28.2295 62.7266 94.4996 0.0000 0.1131 0.0000
# 4 0.0000 0.0000 0.0000 23.1891 0.0000 -5.8837
# 5 -5.4644 4.8987 0.1131 0.0000 29.8977 0.0000
# 6 0.0000 0.0000 0.0000 -5.8837 0.0000 8.6927
#
#
#
# Elastic Compliance Matrix: (Units=1/GPa)
#
#
# Indices 1 2 3 4 5 6 
#
# 1 0.016925 -0.001930 -0.003779 0.000000 0.003424 0.000000
# 2 -0.001930 0.006512 -0.003744 0.000000 -0.001406 0.000000
# 3 -0.003779 -0.003744 0.014196 0.000000 -0.000131 0.000000
# 4 0.000000 0.000000 0.000000 0.052065 0.000000 0.035241
# 5 0.003424 -0.001406 -0.000131 0.000000 0.034304 0.000000
# 6 0.000000 0.000000 0.000000 0.035241 0.000000 0.138892
#
#
# Mechanical properties :
#
#
# Convention : Reuss Voigt Hill
#
# Bulk Modulus (GPa) = 53.39993 68.92536 61.16264
# Shear Modulus (GPa) = 17.35860 28.32406 22.84133
#
# Velocity S-wave (km/s) = 3.06670 3.91735 3.51783
# Velocity P-wave (km/s) = 6.43980 7.60288 7.04538
#
# Compressibility (1/GPa) = 0.01872662
#
# Stress axis : x y z
#
# Youngs Moduli (GPa) = 59.08546 153.57227 70.44184
#
# Poissons Ratio (x) = 0.29644 0.26617
# Poissons Ratio (y) = 0.11405 0.26373
# Poissons Ratio (z) = 0.22326 0.57496
#
# Static dielectric constant tensor:
#      x y z
#    x 1.634990 0.000000 -0.008230 
#    y 0.000000 1.712200 0.000000 
#    z -0.008230 0.000000 1.626070 
# 
# From -- ./inp_files/277977.got.cif
#   From: 2010.05.17/outbox.cif.g08.bks.cpg/sg12_139_cif.got.tgz:277977.got - 2010.06.03 13:09:07.
