data_PCOD9188477
_publ_section_title
;
Structure prediction by ZEFSAII (Michael W. Deem and Ramdas Pophale) SiO2 
 PCOD9188477
Probable space group: C 2/M
;
_chemical_formula_sum "Si O2"
_cell_formula_units_Z 64
_cell_length_a 18.198725
_cell_length_b 15.054548
_cell_length_c 25.809153
_cell_angle_alpha 90.000000
_cell_angle_beta 152.407832
_cell_angle_gamma 90.000000
_cell_volume 3275.121712
_symmetry_space_group_name_H-M "C 2/M"
_symmetry_group_IT_number 12
_symmetry_cell_setting 'monoclinic'
loop_
_space_group_symop_operation_xyz
x,y,z
-x,y,-z
-x,-y,-z
x,-y,z
1/2+x,1/2+y,z
1/2-x,1/2+y,-z
1/2-x,1/2-y,-z
1/2+x,1/2-y,z
loop_
_atom_site_type_symbol
_atom_site_label
_atom_site_fract_x
_atom_site_fract_y
_atom_site_fract_z
Si Si1 0.985453 0.602536 0.351737
Si Si2 0.458032 0.395414 0.816811
Si Si3 0.681664 0.107387 0.967668
Si Si4 0.225208 0.763768 0.232285
Si Si5 0.987929 0.397283 0.749795
Si Si6 0.428869 0.900590 0.899047
Si Si7 0.851227 0.642268 0.445591
Si Si8 0.168625 0.163962 0.597201
O O1 0.928951 0.500000 0.315169
O O2 0.856541 0.669364 0.293937
O O3 0.020084 0.633702 0.314693
O O4 0.124024 0.604425 0.481632
O O5 0.458943 0.500000 0.832004
O O6 0.634542 0.369773 0.908374
O O7 0.415121 0.329165 0.836830
O O8 0.314294 0.383186 0.685525
O O9 0.679210 0.000000 0.963014
O O10 0.609226 0.143356 0.868033
O O11 0.561169 0.126798 0.939141
O O12 0.279559 0.709599 0.316902
O O13 0.186354 0.683484 0.169985
O O14 0.033252 0.500000 0.774053
O O15 0.814049 0.390356 0.666072
O O16 0.366636 0.000000 0.845049
O O17 0.500000 0.909780 0.000000
O O18 0.857691 0.749012 0.454695
O O19 0.000000 0.617007 0.500000
O O20 0.000000 0.117550 0.500000
#
# Coordination Sequence:
#
# PCOD9188477 Si02
#       8
#     8   8   8   8   8   8   8   8
#     4  11  22  38  62  94 131 167 205 250 315 380
#     4  10  20  34  60  94 123 161 209 255 304 371
#     4   9  19  39  61  84 120 159 202 253 314 375
#     4  11  21  37  60  92 120 160 207 249 306 372
#     4  10  22  39  61  87 123 171 203 251 322 375
#     4  10  22  42  64  85 117 161 208 265 318 365
#     4  10  19  36  59  89 121 166 206 250 312 360
#     4  10  19  38  59  86 119 156 213 256 304 364
#
# _framework density 19.541257999999999
#
# number of rings (size 3 to 8) (size 9 to 14) (size 15 to 20)
#    0.000    1.875    5.000    0.750    0.000    2.750 
#    4.500    0.000    0.000    6.750    0.000    0.000 
#    0.000    0.000    0.000    0.000    0.000    0.000 
#
# Total GULP energy -178199.295962 kJ/mol
# GULP energy per Si atom -5568.727999 kJ/mol
# Density = 1.949678 g / cm^3
# Si number density = 19.541258 Si / 1000 Ang^3
#
#
#
# Elastic Constant Matrix: (Units=GPa)
#
#
# Indices 1 2 3 4 5 6 
#
# 1 67.8654 -2.5112 33.9814 -0.0050 -22.8724 -0.0002
# 2 -2.5112 68.5241 14.6957 -0.0040 -11.7272 0.0004
# 3 33.9814 14.6957 76.1364 -0.0074 -6.9390 -0.0006
# 4 -0.0050 -0.0040 -0.0074 19.7025 -0.0022 -3.6090
# 5 -22.8724 -11.7272 -6.9390 -0.0022 26.9644 0.0006
# 6 -0.0002 0.0004 -0.0006 -3.6090 0.0006 23.9705
#
#
#
# Elastic Compliance Matrix: (Units=1/GPa)
#
#
# Indices 1 2 3 4 5 6 
#
# 1 0.030097 0.008245 -0.012668 0.000007 0.025856 0.000000
# 2 0.008245 0.018495 -0.006020 0.000005 0.013488 0.000000
# 3 -0.012668 -0.006020 0.019182 0.000002 -0.008428 0.000001
# 4 0.000007 0.000005 0.000002 0.052195 0.000013 0.007858
# 5 0.025856 0.013488 -0.008428 0.000013 0.062715 0.000000
# 6 0.000000 0.000000 0.000001 0.007858 0.000000 0.042901
#
#
# Mechanical properties :
#
#
# Convention : Reuss Voigt Hill
#
# Bulk Modulus (GPa) = 21.32785 33.87307 27.60046
# Shear Modulus (GPa) = 19.07658 25.21815 22.14736
#
# Velocity S-wave (km/s) = 3.12784 3.59626 3.37020
# Velocity P-wave (km/s) = 4.89719 5.88353 5.41287
#
# Compressibility (1/GPa) = 0.04688705
#
# Stress axis : x y z
#
# Youngs Moduli (GPa) = 33.22574 54.06873 52.13146
#
# Poissons Ratio (x) = -0.44578 0.66040
# Poissons Ratio (y) = -0.27393 0.31385
# Poissons Ratio (z) = 0.42090 0.32551
#
# Static dielectric constant tensor:
#      x y z
#    x 1.679760 0.000000 -0.012950 
#    y 0.000000 1.752520 0.000000 
#    z -0.012950 0.000000 1.751590 
# 
# From -- ./inp_files/344087.got.cif
#   From: 2010.05.17/outbox.cif.g08.bks.cpg/sg12_173_cif.got.tgz:344087.got - 2010.06.03 13:09:07.
