data_PCOD9188309
_publ_section_title
;
Structure prediction by ZEFSAII (Michael W. Deem and Ramdas Pophale) SiO2 
 PCOD9188309
Probable space group: C 2/M
;
_chemical_formula_sum "Si O2"
_cell_formula_units_Z 56
_cell_length_a 17.201084
_cell_length_b 17.867906
_cell_length_c 9.961910
_cell_angle_alpha 90.000000
_cell_angle_beta 108.346756
_cell_angle_gamma 90.000000
_cell_volume 2906.133782
_symmetry_space_group_name_H-M "C 2/M"
_symmetry_group_IT_number 12
_symmetry_cell_setting 'monoclinic'
loop_
_space_group_symop_operation_xyz
x,y,z
-x,y,-z
-x,-y,-z
x,-y,z
1/2+x,1/2+y,z
1/2-x,1/2+y,-z
1/2-x,1/2-y,-z
1/2+x,1/2-y,z
loop_
_atom_site_type_symbol
_atom_site_label
_atom_site_fract_x
_atom_site_fract_y
_atom_site_fract_z
Si Si1 0.196186 0.583199 0.172550
Si Si2 0.908336 0.767641 0.432423
Si Si3 0.766201 0.343392 0.359419
Si Si4 0.880227 0.740658 0.827830
Si Si5 0.166078 0.083730 0.538015
Si Si6 0.853068 0.585189 0.152007
Si Si7 0.937963 0.264164 0.157841
O O1 0.161014 0.500000 0.181570
O O2 0.143286 0.653191 0.193680
O O3 0.282100 0.586605 0.296047
O O4 0.200472 0.590002 0.013612
O O5 0.839010 0.711512 0.448349
O O6 0.898293 0.849027 0.491064
O O7 0.896669 0.772417 0.265097
O O8 0.000000 0.737765 0.500000
O O9 0.693013 0.290672 0.267091
O O10 0.730303 0.395601 0.455735
O O11 0.802352 0.390232 0.254800
O O12 0.966288 0.754030 0.800953
O O13 0.896025 0.756663 0.994356
O O14 0.133338 0.000000 0.501286
O O15 0.882138 0.500000 0.180832
O O16 0.923893 0.646738 0.169842
#
# Coordination Sequence:
#
# PCOD9188309 Si02
#       7
#     8   8   8   8   8   8   8
#     4   9  19  33  55  82 112 143 184 225 267 325
#     4  11  23  37  58  83 114 147 185 231 278 327
#     4  11  22  36  62  81 112 146 187 232 270 334
#     4  10  19  36  58  85 112 145 188 225 279 321
#     4  11  23  38  57  83 110 147 188 229 277 330
#     4   9  19  36  56  83 113 149 183 222 275 328
#     4   9  21  34  57  86 114 144 182 234 271 330
#
# _framework density 19.269587999999999
#
# number of rings (size 3 to 8) (size 9 to 14) (size 15 to 20)
#    0.000    2.000    1.429    1.714    4.000    2.571 
#    0.000    2.857    0.000    2.143    0.000    4.000 
#    0.000    0.000    0.000    0.000    0.000    0.000 
#
# Total GULP energy -156278.220995 kJ/mol
# GULP energy per Si atom -5581.365036 kJ/mol
# Density = 1.922573 g / cm^3
# Si number density = 19.269588 Si / 1000 Ang^3
#
#
#
# Elastic Constant Matrix: (Units=GPa)
#
#
# Indices 1 2 3 4 5 6 
#
# 1 48.8256 16.2375 12.5888 0.0000 7.0148 0.0000
# 2 16.2375 90.4883 22.7605 0.0000 0.5501 0.0000
# 3 12.5888 22.7605 47.2815 0.0000 -2.3703 0.0000
# 4 0.0000 0.0000 0.0000 22.0348 0.0000 -5.4480
# 5 7.0148 0.5501 -2.3703 0.0000 32.3635 0.0000
# 6 0.0000 0.0000 0.0000 -5.4480 0.0000 14.7147
#
#
#
# Elastic Compliance Matrix: (Units=1/GPa)
#
#
# Indices 1 2 3 4 5 6 
#
# 1 0.023553 -0.002898 -0.005148 0.000000 -0.005433 0.000000
# 2 -0.002898 0.012944 -0.005459 0.000000 0.000008 0.000000
# 3 -0.005148 -0.005459 0.025302 0.000000 0.003062 0.000000
# 4 0.000000 0.000000 0.000000 0.049956 0.000000 0.018495
# 5 -0.005433 0.000008 0.003062 0.000000 0.032301 0.000000
# 6 0.000000 0.000000 0.000000 0.018495 0.000000 0.074807
#
#
# Mechanical properties :
#
#
# Convention : Reuss Voigt Hill
#
# Bulk Modulus (GPa) = 28.74554 32.19655 30.47105
# Shear Modulus (GPa) = 19.41979 22.82319 21.12149
#
# Velocity S-wave (km/s) = 3.17802 3.44527 3.31434
# Velocity P-wave (km/s) = 5.33070 5.70712 5.52212
#
# Compressibility (1/GPa) = 0.03478800
#
# Stress axis : x y z
#
# Youngs Moduli (GPa) = 42.45775 77.25400 39.52262
#
# Poissons Ratio (x) = 0.22392 0.20346
# Poissons Ratio (y) = 0.12306 0.21575
# Poissons Ratio (z) = 0.21858 0.42173
#
# Static dielectric constant tensor:
#      x y z
#    x 1.644190 0.000000 -0.008190 
#    y 0.000000 1.664410 0.000000 
#    z -0.008190 0.000000 1.716370 
# 
# From -- ./inp_files/75984.got.cif
#   From: 2010.05.17/outbox.cif.g08.bks.cpg/sg12_38_cif.got.tgz:75984.got - 2010.06.03 13:09:07.
