data_PCOD9188464
_publ_section_title
;
Structure prediction by ZEFSAII (Michael W. Deem and Ramdas Pophale) SiO2 
 PCOD9188464
Probable space group: C 2/M
;
_chemical_formula_sum "Si O2"
_cell_formula_units_Z 52
_cell_length_a 11.846523
_cell_length_b 22.551764
_cell_length_c 13.608139
_cell_angle_alpha 90.000000
_cell_angle_beta 134.406513
_cell_angle_gamma 90.000000
_cell_volume 2597.212196
_symmetry_space_group_name_H-M "C 2/M"
_symmetry_group_IT_number 12
_symmetry_cell_setting 'monoclinic'
loop_
_space_group_symop_operation_xyz
x,y,z
-x,y,-z
-x,-y,-z
x,-y,z
1/2+x,1/2+y,z
1/2-x,1/2+y,-z
1/2-x,1/2-y,-z
1/2+x,1/2-y,z
loop_
_atom_site_type_symbol
_atom_site_label
_atom_site_fract_x
_atom_site_fract_y
_atom_site_fract_z
Si Si1 0.500000 0.349192 0.500000
Si Si2 0.547173 0.567068 0.342561
Si Si3 0.722432 0.785202 0.226186
Si Si4 0.646371 0.805951 0.966907
Si Si5 0.342875 0.844866 0.233365
Si Si6 0.587707 0.568389 0.157188
Si Si7 0.425097 0.064358 0.562260
O O1 0.487193 0.389452 0.589314
O O2 0.342159 0.311423 0.379693
O O3 0.491419 0.500000 0.330587
O O4 0.493522 0.584128 0.199326
O O5 0.736970 0.565767 0.447256
O O6 0.538499 0.785172 0.147823
O O7 0.797112 0.721416 0.240310
O O8 0.702142 0.821702 0.110917
O O9 0.677973 0.850254 0.896679
O O10 0.750000 0.750000 0.000000
O O11 0.229035 0.886734 0.226461
O O12 0.513143 0.874133 0.354970
O O13 0.638889 0.500000 0.201940
O O14 0.500000 0.570932 0.000000
O O15 0.500000 0.062540 0.500000
O O16 0.470901 0.000000 0.637890
#
# Coordination Sequence:
#
# PCOD9188464 Si02
#       7
#     4   8   8   8   8   8   8
#     4  12  25  40  62  92 133 164 214 258 294 368
#     4  10  22  41  63  87 124 166 201 249 321 380
#     4  10  24  40  58  90 127 166 213 253 299 373
#     4   9  21  42  60  82 118 170 211 246 306 375
#     4  11  21  35  65  83 118 158 200 247 324 362
#     4  10  22  36  58  91 116 144 201 263 309 359
#     4  10  19  36  59  88 119 151 197 254 317 375
#
# _framework density 20.021467000000001
#
# number of rings (size 3 to 8) (size 9 to 14) (size 15 to 20)
#    0.000    1.846    1.538    1.615    7.538    1.231 
#    0.000    4.615    0.000    0.000    0.000    6.462 
#    0.000    0.000    0.000    0.000    0.000    0.000 
#
# Total GULP energy -144743.982392 kJ/mol
# GULP energy per Si atom -5567.076246 kJ/mol
# Density = 1.997590 g / cm^3
# Si number density = 20.021467 Si / 1000 Ang^3
#
#
#
# Elastic Constant Matrix: (Units=GPa)
#
#
# Indices 1 2 3 4 5 6 
#
# 1 75.9889 31.8401 34.1929 0.0000 -10.7377 0.0000
# 2 31.8401 60.6221 50.4859 0.0000 -8.0863 0.0000
# 3 34.1929 50.4859 120.8650 0.0000 -10.2228 0.0000
# 4 0.0000 0.0000 0.0000 -28.2107 0.0000 -5.6399
# 5 -10.7377 -8.0863 -10.2228 0.0000 34.3912 0.0000
# 6 0.0000 0.0000 0.0000 -5.6399 0.0000 25.5868
#
#
#
# Elastic Compliance Matrix: (Units=1/GPa)
#
#
# Indices 1 2 3 4 5 6 
#
# 1 0.017429 -0.007428 -0.001554 0.000000 0.003233 0.000000
# 2 -0.007428 0.028742 -0.009774 0.000000 0.001533 0.000000
# 3 -0.001554 -0.009774 0.012885 0.000000 0.001046 0.000000
# 4 0.000000 0.000000 0.000000 -0.033951 0.000000 -0.007484
# 5 0.003233 0.001533 0.001046 0.000000 0.030758 0.000000
# 6 0.000000 0.000000 0.000000 -0.007484 0.000000 0.037433
#
#
# Mechanical properties :
#
#
# Convention : Reuss Voigt Hill
#
# Bulk Modulus (GPa) = 46.42279 54.50152 50.46216
# Shear Modulus (GPa) = 36.23474 15.75059 25.99267
#
# Velocity S-wave (km/s) = 4.25878 2.80783 3.60702
# Velocity P-wave (km/s) = 6.88621 6.14756 6.52734
#
# Compressibility (1/GPa) = 0.02154114
#
# Stress axis : x y z
#
# Youngs Moduli (GPa) = 57.37721 34.79267 77.61120
#
# Poissons Ratio (x) = 0.25845 0.12063
# Poissons Ratio (y) = 0.42621 0.75860
# Poissons Ratio (z) = 0.08918 0.34008
#
# Static dielectric constant tensor:
#      x y z
#    x 1.710190 0.000000 0.014470 
#    y 0.000000 1.730940 0.000000 
#    z 0.014470 0.000000 1.886270 
# 
# From -- ./inp_files/136015.got.cif
#   From: 2010.05.17/outbox.cif.g08.bks.cpg/sg12_69_cif.got.tgz:136015.got - 2010.06.03 13:09:07.
