data_PCOD9188613
_publ_section_title
;
Structure prediction by ZEFSAII (Michael W. Deem and Ramdas Pophale) SiO2 
 PCOD9188613
Probable space group: C 2/M
;
_chemical_formula_sum "Si O2"
_cell_formula_units_Z 60
_cell_length_a 19.824941
_cell_length_b 9.515107
_cell_length_c 22.983975
_cell_angle_alpha 90.000000
_cell_angle_beta 38.710280
_cell_angle_gamma 90.000000
_cell_volume 2711.418554
_symmetry_space_group_name_H-M "C 2/M"
_symmetry_group_IT_number 12
_symmetry_cell_setting 'monoclinic'
loop_
_space_group_symop_operation_xyz
x,y,z
-x,y,-z
-x,-y,-z
x,-y,z
1/2+x,1/2+y,z
1/2-x,1/2+y,-z
1/2-x,1/2-y,-z
1/2+x,1/2-y,z
loop_
_atom_site_type_symbol
_atom_site_label
_atom_site_fract_x
_atom_site_fract_y
_atom_site_fract_z
Si Si1 0.062436 0.333041 0.796320
Si Si2 0.227036 0.500000 0.022122
Si Si3 0.237042 0.336571 0.388106
Si Si4 0.041389 0.166029 0.229706
Si Si5 0.658141 0.167938 0.853423
Si Si6 0.573629 0.164022 0.596257
Si Si7 0.144312 0.659234 0.328899
Si Si8 0.216591 0.738777 0.934967
O O1 0.048835 0.500000 0.794960
O O2 0.172193 0.272499 0.692925
O O3 0.974817 0.242776 0.820874
O O4 0.074437 0.306781 0.856962
O O5 0.269755 0.380113 0.039003
O O6 0.190644 0.619488 0.998770
O O7 0.277019 0.500000 0.362624
O O8 0.180065 0.304686 0.487406
O O9 0.148720 0.332684 0.395760
O O10 0.955328 0.233090 0.331748
O O11 0.161815 0.200115 0.169217
O O12 0.030606 0.000000 0.230885
O O13 0.769711 0.230365 0.752909
O O14 0.643655 0.236150 0.926376
O O15 0.664695 0.000000 0.856929
O O16 0.472418 0.177065 0.620375
O O17 0.577420 0.000000 0.613180
O O18 0.181105 0.500000 0.288522
#
# Coordination Sequence:
#
# PCOD9188613 Si02
#       8
#     8   4   8   8   8   8   8   8
#     4  10  23  39  59  84 116 166 205 243 291 344
#     4  10  24  40  68 100 126 148 180 234 302 346
#     4   9  18  35  53  79 120 157 205 252 295 340
#     4  12  24  39  60  87 122 155 198 247 294 345
#     4  10  19  36  60  87 120 153 198 241 286 347
#     4  10  20  32  54  84 116 160 201 250 299 346
#     4   9  17  29  52  84 115 155 197 247 295 344
#     4  11  22  42  67  98 122 152 187 237 287 359
#
# _framework density 22.128637999999999
#
# number of rings (size 3 to 8) (size 9 to 14) (size 15 to 20)
#    0.000    1.867    2.667    1.200    2.800    3.200 
#    0.000    0.000    0.000    8.800    0.000    0.000 
#    0.000    0.000    0.000    0.000    0.000    0.000 
#
# Total GULP energy -167143.534110 kJ/mol
# GULP energy per Si atom -5571.451137 kJ/mol
# Density = 2.207827 g / cm^3
# Si number density = 22.128638 Si / 1000 Ang^3
#
#
#
# Elastic Constant Matrix: (Units=GPa)
#
#
# Indices 1 2 3 4 5 6 
#
# 1 95.4955 30.1584 22.0735 0.0000 31.7137 0.0000
# 2 30.1584 125.3904 48.3721 0.0000 24.0769 0.0000
# 3 22.0735 48.3721 93.9836 0.0000 13.2792 0.0000
# 4 0.0000 0.0000 0.0000 113.2140 0.0000 -21.4010
# 5 31.7137 24.0769 13.2792 0.0000 36.0994 0.0000
# 6 0.0000 0.0000 0.0000 -21.4010 0.0000 32.0664
#
#
#
# Elastic Compliance Matrix: (Units=1/GPa)
#
#
# Indices 1 2 3 4 5 6 
#
# 1 0.015104 -0.000722 -0.001444 0.000000 -0.012256 0.000000
# 2 -0.000722 0.010927 -0.004762 0.000000 -0.004902 0.000000
# 3 -0.001444 -0.004762 0.013504 0.000000 -0.000523 0.000000
# 4 0.000000 0.000000 0.000000 0.010108 0.000000 0.006746
# 5 -0.012256 -0.004902 -0.000523 0.000000 0.041930 0.000000
# 6 0.000000 0.000000 0.000000 0.006746 0.000000 0.035688
#
#
# Mechanical properties :
#
#
# Convention : Reuss Voigt Hill
#
# Bulk Modulus (GPa) = 38.94280 57.34194 48.14237
# Shear Modulus (GPa) = 33.40559 50.56034 41.98296
#
# Velocity S-wave (km/s) = 3.88958 4.78518 4.36044
# Velocity P-wave (km/s) = 6.14885 7.51664 6.86689
#
# Compressibility (1/GPa) = 0.02567869
#
# Stress axis : x y z
#
# Youngs Moduli (GPa) = 66.20898 91.51671 74.05227
#
# Poissons Ratio (x) = 0.06611 0.10692
# Poissons Ratio (y) = 0.04783 0.35262
# Poissons Ratio (z) = 0.09560 0.43578
#
# Static dielectric constant tensor:
#      x y z
#    x 1.875190 0.000000 -0.044790 
#    y 0.000000 1.741860 0.000000 
#    z -0.044790 0.000000 1.865960 
# 
# From -- ./inp_files/320458.got.cif
#   From: 2010.05.17/outbox.cif.g08.bks.cpg/sg12_161_cif.got.tgz:320458.got - 2010.06.03 13:09:07.
