data_PCOD9188547
_publ_section_title
;
Structure prediction by ZEFSAII (Michael W. Deem and Ramdas Pophale) SiO2 
 PCOD9188547
Probable space group: C 2/M
;
_chemical_formula_sum "Si O2"
_cell_formula_units_Z 48
_cell_length_a 8.712872
_cell_length_b 22.982833
_cell_length_c 14.877477
_cell_angle_alpha 90.000000
_cell_angle_beta 139.863051
_cell_angle_gamma 90.000000
_cell_volume 1920.418093
_symmetry_space_group_name_H-M "C 2/M"
_symmetry_group_IT_number 12
_symmetry_cell_setting 'monoclinic'
loop_
_space_group_symop_operation_xyz
x,y,z
-x,y,-z
-x,-y,-z
x,-y,z
1/2+x,1/2+y,z
1/2-x,1/2+y,-z
1/2-x,1/2-y,-z
1/2+x,1/2-y,z
loop_
_atom_site_type_symbol
_atom_site_label
_atom_site_fract_x
_atom_site_fract_y
_atom_site_fract_z
Si Si1 0.220402 0.936822 0.400879
Si Si2 0.079690 0.876361 0.166498
Si Si3 0.469204 0.753427 0.862777
Si Si4 0.439748 0.913428 0.678754
Si Si5 0.520611 0.112454 0.909771
Si Si6 0.264144 0.210866 0.591410
O O1 0.500000 0.933554 0.500000
O O2 0.100356 0.887201 0.284978
O O3 0.247614 0.937405 0.521738
O O4 0.121750 0.000000 0.329506
O O5 0.279178 0.921410 0.218129
O O6 0.122966 0.810138 0.148868
O O7 0.804419 0.886479 0.018382
O O8 0.415268 0.820475 0.868379
O O9 0.387718 0.753487 0.724411
O O10 0.750000 0.750000 0.000000
O O11 0.403686 0.918112 0.769984
O O12 0.411304 0.846079 0.641561
O O13 0.500000 0.086393 0.000000
O O14 0.250000 0.250000 0.500000
O O15 0.000000 0.192909 0.500000
#
# Coordination Sequence:
#
# PCOD9188547 Si02
#       6
#     8   8   8   8   8   8
#     4   9  19  37  62  89 113 144 196 260 316 363
#     4  10  19  36  60  84 114 151 197 246 298 360
#     4   9  20  34  52  79 114 154 192 230 282 350
#     4  10  21  36  57  84 114 153 196 246 302 356
#     4  10  22  36  54  83 121 160 195 235 287 358
#     4  11  22  35  53  81 117 155 198 244 293 355
#
# _framework density 24.994557
#
# number of rings (size 3 to 8) (size 9 to 14) (size 15 to 20)
#    0.000    2.167    0.000    2.500    0.000   16.000 
#    0.000    0.833    0.000    9.500    0.000    0.000 
#    0.000    0.000    0.000    0.000    0.000    0.000 
#
# Total GULP energy -133734.397352 kJ/mol
# GULP energy per Si atom -5572.266556 kJ/mol
# Density = 2.493767 g / cm^3
# Si number density = 24.994557 Si / 1000 Ang^3
#
#
#
# Elastic Constant Matrix: (Units=GPa)
#
#
# Indices 1 2 3 4 5 6 
#
# 1 53.1217 13.3301 35.5157 0.0000 -22.1128 0.0000
# 2 13.3301 60.5406 27.8065 0.0000 -2.8165 0.0000
# 3 35.5157 27.8065 158.3704 0.0000 -38.2459 0.0000
# 4 0.0000 0.0000 0.0000 16.1558 0.0000 -19.0968
# 5 -22.1128 -2.8165 -38.2459 0.0000 68.2896 0.0000
# 6 0.0000 0.0000 0.0000 -19.0968 0.0000 11.0028
#
#
#
# Elastic Compliance Matrix: (Units=1/GPa)
#
#
# Indices 1 2 3 4 5 6 
#
# 1 0.024448 -0.003525 -0.003454 0.000000 0.005837 0.000000
# 2 -0.003525 0.018558 -0.002959 0.000000 -0.002033 0.000000
# 3 -0.003454 -0.002959 0.008452 0.000000 0.003493 0.000000
# 4 0.000000 0.000000 0.000000 -0.058861 0.000000 -0.102161
# 5 0.005837 -0.002033 0.003493 0.000000 0.018406 0.000000
# 6 0.000000 0.000000 0.000000 -0.102161 0.000000 -0.086428
#
#
# Mechanical properties :
#
#
# Convention : Reuss Voigt Hill
#
# Bulk Modulus (GPa) = 31.66338 47.25971 39.46154
# Shear Modulus (GPa) = -111.06170 32.11500 -39.47335
#
# Velocity S-wave (km/s) = -6.67314 3.58841 -3.97832
# Velocity P-wave (km/s) = 6.83219 6.00982 2.29792
#
# Compressibility (1/GPa) = 0.03158223
#
# Stress axis : x y z
#
# Youngs Moduli (GPa) = 40.90270 53.88372 118.31460
#
# Poissons Ratio (x) = 0.18994 0.40869
# Poissons Ratio (y) = 0.14418 0.35009
# Poissons Ratio (z) = 0.14129 0.15944
#
# Static dielectric constant tensor:
#      x y z
#    x 2.412920 0.000000 0.069040 
#    y 0.000000 1.806150 0.000000 
#    z 0.069040 0.000000 1.994200 
# 
# From -- ./inp_files/200209.got.cif
#   From: 2010.05.17/outbox.cif.g08.bks.cpg/sg12_101_cif.got.tgz:200209.got - 2010.06.03 13:09:07.
