data_PCOD9188279
_publ_section_title
;
Structure prediction by ZEFSAII (Michael W. Deem and Ramdas Pophale) SiO2 
 PCOD9188279
Probable space group: C 2/M
;
_chemical_formula_sum "Si O2"
_cell_formula_units_Z 56
_cell_length_a 31.010337
_cell_length_b 7.610698
_cell_length_c 11.381707
_cell_angle_alpha 90.000000
_cell_angle_beta 66.893858
_cell_angle_gamma 90.000000
_cell_volume 2470.711696
_symmetry_space_group_name_H-M "C 2/M"
_symmetry_group_IT_number 12
_symmetry_cell_setting 'monoclinic'
loop_
_space_group_symop_operation_xyz
x,y,z
-x,y,-z
-x,-y,-z
x,-y,z
1/2+x,1/2+y,z
1/2-x,1/2+y,-z
1/2-x,1/2-y,-z
1/2+x,1/2-y,z
loop_
_atom_site_type_symbol
_atom_site_label
_atom_site_fract_x
_atom_site_fract_y
_atom_site_fract_z
Si Si1 0.673326 0.287954 0.412548
Si Si2 0.126739 0.707632 0.684455
Si Si3 0.474500 0.211542 0.147296
Si Si4 0.723436 0.784928 0.684816
Si Si5 0.294784 0.792139 0.031082
Si Si6 0.477994 0.712232 0.649495
Si Si7 0.871907 0.793370 0.774148
O O1 0.676245 0.500000 0.408136
O O2 0.630522 0.233447 0.541068
O O3 0.724172 0.222463 0.403142
O O4 0.661133 0.223743 0.295152
O O5 0.127365 0.500000 0.710068
O O6 0.079018 0.779764 0.788688
O O7 0.176470 0.782529 0.673558
O O8 0.497219 0.246252 0.251709
O O9 0.472830 0.000000 0.139333
O O10 0.500000 0.275146 0.000000
O O11 0.723910 0.000000 0.675412
O O12 0.716321 0.731439 0.827009
O O13 0.342807 0.724402 0.924279
O O14 0.299643 0.000000 0.031704
O O15 0.250000 0.750000 0.000000
O O16 0.500000 0.772490 0.500000
O O17 0.478091 0.500000 0.643461
O O18 0.424328 0.778973 0.716725
O O19 0.877053 0.000000 0.744814
#
# Coordination Sequence:
#
# PCOD9188279 Si02
#       7
#     8   8   8   8   8   8   8
#     4  10  19  36  58  82 115 150 184 228 287 346
#     4  10  21  37  57  82 112 146 191 237 282 340
#     4  10  23  41  61  86 120 158 200 252 302 355
#     4   9  19  35  56  80 111 150 186 226 279 339
#     4  11  21  36  58  83 115 155 193 233 285 343
#     4  10  22  41  65  90 119 157 201 253 307 361
#     4  10  21  37  58  86 118 149 189 239 290 346
#
# _framework density 22.665533
#
# number of rings (size 3 to 8) (size 9 to 14) (size 15 to 20)
#    0.000    2.000    1.429    1.714    2.000    3.429 
#    0.000    1.429    0.000    0.000    0.000    0.000 
#    0.000    0.000    0.000    0.000    0.000    0.000 
#
# Total GULP energy -156262.712646 kJ/mol
# GULP energy per Si atom -5580.811166 kJ/mol
# Density = 2.261395 g / cm^3
# Si number density = 22.665533 Si / 1000 Ang^3
#
#
#
# Elastic Constant Matrix: (Units=GPa)
#
#
# Indices 1 2 3 4 5 6 
#
# 1 136.3425 8.7238 81.5413 0.0000 -28.8009 0.0000
# 2 8.7238 45.9798 -3.2991 0.0000 -2.5358 0.0000
# 3 81.5413 -3.2991 170.3042 0.0000 -30.4039 0.0000
# 4 0.0000 0.0000 0.0000 25.7567 0.0000 1.9123
# 5 -28.8009 -2.5358 -30.4039 0.0000 44.1768 0.0000
# 6 0.0000 0.0000 0.0000 1.9123 0.0000 14.0357
#
#
#
# Elastic Compliance Matrix: (Units=1/GPa)
#
#
# Indices 1 2 3 4 5 6 
#
# 1 0.011083 -0.002222 -0.004654 0.000000 0.003895 0.000000
# 2 -0.002222 0.022345 0.001673 0.000000 0.000985 0.000000
# 3 -0.004654 0.001673 0.008674 0.000000 0.003031 0.000000
# 4 0.000000 0.000000 0.000000 0.039222 0.000000 -0.005344
# 5 0.003895 0.000985 0.003031 0.000000 0.027318 0.000000
# 6 0.000000 0.000000 0.000000 -0.005344 0.000000 0.071975
#
#
# Mechanical properties :
#
#
# Convention : Reuss Voigt Hill
#
# Bulk Modulus (GPa) = 31.55147 58.50650 45.02899
# Shear Modulus (GPa) = 24.80308 34.50454 29.65381
#
# Velocity S-wave (km/s) = 3.31162 3.90594 3.62100
# Velocity P-wave (km/s) = 5.34538 6.79786 6.11490
#
# Compressibility (1/GPa) = 0.03169424
#
# Stress axis : x y z
#
# Youngs Moduli (GPa) = 90.22965 44.75362 115.28928
#
# Poissons Ratio (x) = 0.09944 0.53658
# Poissons Ratio (y) = 0.20048 -0.19283
# Poissons Ratio (z) = 0.41994 -0.07485
#
# Static dielectric constant tensor:
#      x y z
#    x 1.850680 0.000000 0.020480 
#    y 0.000000 1.844590 0.000000 
#    z 0.020480 0.000000 1.858840 
# 
# From -- ./inp_files/110345.got.cif
#   From: 2010.05.17/outbox.cif.g08.bks.cpg/sg12_56_cif.got.tgz:110345.got - 2010.06.03 13:09:07.
