data_PCOD9188176
_publ_section_title
;
Structure prediction by ZEFSAII (Michael W. Deem and Ramdas Pophale) SiO2 
 PCOD9188176
Probable space group: C 2/M
;
_chemical_formula_sum "Si O2"
_cell_formula_units_Z 48
_cell_length_a 21.629429
_cell_length_b 16.895874
_cell_length_c 19.693287
_cell_angle_alpha 90.000000
_cell_angle_beta 159.487449
_cell_angle_gamma 90.000000
_cell_volume 2521.875179
_symmetry_space_group_name_H-M "C 2/M"
_symmetry_group_IT_number 12
_symmetry_cell_setting 'monoclinic'
loop_
_space_group_symop_operation_xyz
x,y,z
-x,y,-z
-x,-y,-z
x,-y,z
1/2+x,1/2+y,z
1/2-x,1/2+y,-z
1/2-x,1/2-y,-z
1/2+x,1/2-y,z
loop_
_atom_site_type_symbol
_atom_site_label
_atom_site_fract_x
_atom_site_fract_y
_atom_site_fract_z
Si Si1 0.472202 0.408327 0.238214
Si Si2 0.966262 0.204982 0.361730
Si Si3 0.305766 0.910705 0.334354
Si Si4 0.815469 0.407701 0.508959
Si Si5 0.294517 0.765164 0.790289
Si Si6 0.344963 0.176927 0.135226
O O1 0.491503 0.500000 0.274444
O O2 0.466335 0.358059 0.301250
O O3 0.632178 0.383073 0.354277
O O4 0.294207 0.392898 0.012940
O O5 0.818648 0.191024 0.267251
O O6 0.897025 0.288089 0.260866
O O7 0.165091 0.215440 0.593630
O O8 0.500000 0.908283 0.500000
O O9 0.310728 0.903669 0.421891
O O10 0.211550 0.831077 0.210616
O O11 0.234500 0.000000 0.245858
O O12 0.847805 0.500000 0.558319
O O13 0.969124 0.354823 0.699834
O O14 0.500000 0.788967 0.000000
O O15 0.250000 0.250000 0.000000
#
# Coordination Sequence:
#
# PCOD9188176 Si02
#       6
#     8   8   8   8   8   8
#     4  10  23  40  62  88 119 158 200 245 300 359
#     4  10  22  40  57  88 121 151 198 249 300 343
#     4  10  19  36  57  80 118 156 189 234 285 341
#     4  10  20  36  57  85 120 157 194 238 289 353
#     4  11  22  38  61  84 117 159 203 244 294 354
#     4  10  20  34  58  87 119 153 190 237 299 353
#
# _framework density 19.033455
#
# number of rings (size 3 to 8) (size 9 to 14) (size 15 to 20)
#    0.000    1.833    3.333    0.500    2.333    5.667 
#    0.000    2.500    0.000    1.000    0.000    0.000 
#    0.000    0.000    0.000    0.000    0.000    0.000 
#
# Total GULP energy -133601.359983 kJ/mol
# GULP energy per Si atom -5566.723333 kJ/mol
# Density = 1.899013 g / cm^3
# Si number density = 19.033455 Si / 1000 Ang^3
#
#
#
# Elastic Constant Matrix: (Units=GPa)
#
#
# Indices 1 2 3 4 5 6 
#
# 1 91.1534 41.1049 56.6342 0.0031 7.5211 -0.0156
# 2 41.1049 49.6119 22.0652 0.0144 10.9022 -0.0033
# 3 56.6342 22.0652 142.2142 0.0159 13.7772 -0.0221
# 4 0.0031 0.0144 0.0159 26.1362 0.0058 -2.3924
# 5 7.5211 10.9022 13.7772 0.0058 20.3537 -0.0132
# 6 -0.0156 -0.0033 -0.0221 -2.3924 -0.0132 92.9828
#
#
#
# Elastic Compliance Matrix: (Units=1/GPa)
#
#
# Indices 1 2 3 4 5 6 
#
# 1 0.022213 -0.016537 -0.006788 0.000010 0.005245 0.000003
# 2 -0.016537 0.036037 0.002432 -0.000016 -0.014838 -0.000003
# 3 -0.006788 0.002432 0.009889 -0.000005 -0.005488 0.000000
# 4 0.000010 -0.000016 -0.000005 0.038351 -0.000001 0.000987
# 5 0.005245 -0.014838 -0.005488 -0.000001 0.058856 0.000007
# 6 0.000003 -0.000003 0.000000 0.000987 0.000007 0.010780
#
#
# Mechanical properties :
#
#
# Convention : Reuss Voigt Hill
#
# Bulk Modulus (GPa) = 37.94784 58.06534 48.00659
# Shear Modulus (GPa) = 22.05587 38.77289 30.41438
#
# Velocity S-wave (km/s) = 3.40780 4.51831 4.00176
# Velocity P-wave (km/s) = 5.95524 7.60220 6.82855
#
# Compressibility (1/GPa) = 0.02635196
#
# Stress axis : x y z
#
# Youngs Moduli (GPa) = 45.01957 27.74916 101.12026
#
# Poissons Ratio (x) = 0.45890 0.68640
# Poissons Ratio (y) = 0.74450 -0.24590
# Poissons Ratio (z) = 0.30559 -0.06748
#
# Static dielectric constant tensor:
#      x y z
#    x 1.678980 0.000010 -0.013510 
#    y 0.000010 1.705300 0.000010 
#    z -0.013510 0.000010 1.666150 
# 
# From -- ./inp_files/322580.got.cif
#   From: 2010.05.17/outbox.cif.g08.bks.cpg/sg12_162_cif.got.tgz:322580.got - 2010.06.03 13:09:07.
