data_PCOD9188720
_publ_section_title
;
Structure prediction by ZEFSAII (Michael W. Deem and Ramdas Pophale) SiO2 
 PCOD9188720
Probable space group: C 2/M
;
_chemical_formula_sum "Si O2"
_cell_formula_units_Z 56
_cell_length_a 14.653218
_cell_length_b 15.653118
_cell_length_c 12.123636
_cell_angle_alpha 90.000000
_cell_angle_beta 81.888945
_cell_angle_gamma 90.000000
_cell_volume 2752.963144
_symmetry_space_group_name_H-M "C 2/M"
_symmetry_group_IT_number 12
_symmetry_cell_setting 'monoclinic'
loop_
_space_group_symop_operation_xyz
x,y,z
-x,y,-z
-x,-y,-z
x,-y,z
1/2+x,1/2+y,z
1/2-x,1/2+y,-z
1/2-x,1/2-y,-z
1/2+x,1/2-y,z
loop_
_atom_site_type_symbol
_atom_site_label
_atom_site_fract_x
_atom_site_fract_y
_atom_site_fract_z
Si Si1 0.605345 0.136315 0.004665
Si Si2 0.097087 0.222180 0.473789
Si Si3 0.811874 0.592691 0.243958
Si Si4 0.757554 0.904622 0.140252
Si Si5 0.408042 0.661755 0.955888
Si Si6 0.591490 0.594906 0.283636
Si Si7 0.209903 0.223053 0.663816
O O1 0.655089 0.103889 0.106675
O O2 0.608643 0.238992 0.014433
O O3 0.500000 0.111195 0.000000
O O4 0.658567 0.105777 0.887152
O O5 0.067983 0.146374 0.396570
O O6 0.141540 0.189628 0.580700
O O7 0.185553 0.268481 0.401728
O O8 0.000000 0.272808 0.500000
O O9 0.848685 0.500000 0.277537
O O10 0.701960 0.587384 0.267876
O O11 0.830454 0.682064 0.302686
O O12 0.782683 0.834379 0.228050
O O13 0.771351 0.000000 0.181552
O O14 0.823379 0.888834 0.023394
O O15 0.425409 0.647896 0.824246
O O16 0.500000 0.632168 0.000000
O O17 0.550947 0.500000 0.283781
#
# Coordination Sequence:
#
# PCOD9188720 Si02
#       7
#     8   8   8   8   8   8   8
#     4  11  22  37  60  90 131 172 214 253 309 384
#     4  10  23  42  65  85 116 167 220 264 321 373
#     4  10  19  36  61  86 120 162 207 260 315 375
#     4  12  24  40  64  96 136 169 205 263 324 386
#     4  11  23  38  62  95 131 173 208 256 324 384
#     4  10  21  37  59  89 125 163 209 259 314 384
#     4  10  23  43  63  91 123 162 214 270 318 384
#
# _framework density 20.341718
#
# number of rings (size 3 to 8) (size 9 to 14) (size 15 to 20)
#    0.000    1.429    2.857    3.000    2.000    4.286 
#    0.000    2.143    0.000    0.857    0.000    0.000 
#    0.000    0.000    0.000    0.000    0.000    0.000 
#
# Total GULP energy -156189.523950 kJ/mol
# GULP energy per Si atom -5578.197284 kJ/mol
# Density = 2.029542 g / cm^3
# Si number density = 20.341718 Si / 1000 Ang^3
#
#
#
# Elastic Constant Matrix: (Units=GPa)
#
#
# Indices 1 2 3 4 5 6 
#
# 1 79.0189 31.7427 40.5477 0.0000 7.4430 0.0000
# 2 31.7427 93.9792 34.9460 0.0000 3.2439 0.0000
# 3 40.5477 34.9460 117.4156 0.0000 9.4955 0.0000
# 4 0.0000 0.0000 0.0000 9.2790 0.0000 -7.7655
# 5 7.4430 3.2439 9.4955 0.0000 19.8361 0.0000
# 6 0.0000 0.0000 0.0000 -7.7655 0.0000 4.7625
#
#
#
# Elastic Compliance Matrix: (Units=1/GPa)
#
#
# Indices 1 2 3 4 5 6 
#
# 1 0.016802 -0.003937 -0.004341 0.000000 -0.003583 0.000000
# 2 -0.003937 0.012889 -0.002523 0.000000 0.000577 0.000000
# 3 -0.004341 -0.002523 0.011029 0.000000 -0.003238 0.000000
# 4 0.000000 0.000000 0.000000 -0.295595 0.000000 -0.481980
# 5 -0.003583 0.000577 -0.003238 0.000000 0.053213 0.000000
# 6 0.000000 0.000000 0.000000 -0.481980 0.000000 -0.575918
#
#
# Mechanical properties :
#
#
# Convention : Reuss Voigt Hill
#
# Bulk Modulus (GPa) = 52.30934 56.09850 54.20392
# Shear Modulus (GPa) = -6.67016 18.98737 6.15860
#
# Velocity S-wave (km/s) = -1.81278 3.05851 1.74188
# Velocity P-wave (km/s) = 4.62489 6.33329 5.54527
#
# Compressibility (1/GPa) = 0.01911704
#
# Stress axis : x y z
#
# Youngs Moduli (GPa) = 59.51801 77.58691 90.67396
#
# Poissons Ratio (x) = 0.30548 0.39358
# Poissons Ratio (y) = 0.23434 0.22878
# Poissons Ratio (z) = 0.25835 0.19576
#
# Static dielectric constant tensor:
#      x y z
#    x 2.264430 0.000000 -0.444050 
#    y 0.000000 1.778430 0.000000 
#    z -0.444050 0.000000 2.057350 
# 
# From -- ./inp_files/143724.got.cif
#   From: 2010.05.17/outbox.cif.g08.bks.cpg/sg12_72_cif.got.tgz:143724.got - 2010.06.03 13:09:07.
