data_PCOD9188965
_publ_section_title
;
Structure prediction by ZEFSAII (Michael W. Deem and Ramdas Pophale) SiO2 
 PCOD9188965
Probable space group: C 2/M
;
_chemical_formula_sum "Si O2"
_cell_formula_units_Z 48
_cell_length_a 26.742792
_cell_length_b 14.086200
_cell_length_c 11.769621
_cell_angle_alpha 90.000000
_cell_angle_beta 31.275168
_cell_angle_gamma 90.000000
_cell_volume 2301.732658
_symmetry_space_group_name_H-M "C 2/M"
_symmetry_group_IT_number 12
_symmetry_cell_setting 'monoclinic'
loop_
_space_group_symop_operation_xyz
x,y,z
-x,y,-z
-x,-y,-z
x,-y,z
1/2+x,1/2+y,z
1/2-x,1/2+y,-z
1/2-x,1/2-y,-z
1/2+x,1/2-y,z
loop_
_atom_site_type_symbol
_atom_site_label
_atom_site_fract_x
_atom_site_fract_y
_atom_site_fract_z
Si Si1 0.260994 0.384595 0.025579
Si Si2 0.641648 0.113116 0.463593
Si Si3 0.259393 0.237494 0.348120
Si Si4 0.549228 0.389018 0.205343
Si Si5 0.973207 0.723683 0.919060
Si Si6 0.665946 0.388640 0.349893
O O1 0.265316 0.500000 0.012250
O O2 0.359190 0.355176 0.899757
O O3 0.267689 0.352224 0.882534
O O4 0.167072 0.362009 0.283169
O O5 0.733473 0.158458 0.349842
O O6 0.547819 0.161032 0.701326
O O7 0.637281 0.000000 0.483625
O O8 0.250000 0.250000 0.500000
O O9 0.185092 0.170240 0.426324
O O10 0.362772 0.191768 0.123076
O O11 0.563806 0.500000 0.151840
O O12 0.534138 0.327949 0.121403
O O13 0.445967 0.380362 0.468394
O O14 0.000000 0.724010 0.000000
O O15 0.684524 0.500000 0.333971
#
# Coordination Sequence:
#
# PCOD9188965 Si02
#       6
#     8   8   8   8   8   8
#     4   9  19  38  64  93 129 167 212 266 326 396
#     4  11  24  43  65  92 130 175 215 260 327 388
#     4  12  24  43  65  93 125 165 222 271 313 386
#     4  10  19  36  63  97 129 165 212 270 331 383
#     4  12  24  42  63  92 133 168 222 274 317 386
#     4  10  21  39  64  96 130 164 211 274 331 379
#
# _framework density 20.853856
#
# number of rings (size 3 to 8) (size 9 to 14) (size 15 to 20)
#    0.000    1.333    5.000    0.500    0.000    4.667 
#    0.000    0.833    0.000    3.000    0.000    0.000 
#    0.000    0.000    0.000    0.000    0.000    0.000 
#
# Total GULP energy -133878.046529 kJ/mol
# GULP energy per Si atom -5578.251939 kJ/mol
# Density = 2.080639 g / cm^3
# Si number density = 20.853856 Si / 1000 Ang^3
#
#
#
# Elastic Constant Matrix: (Units=GPa)
#
#
# Indices 1 2 3 4 5 6 
#
# 1 76.6462 34.1269 43.5778 0.0000 7.4426 0.0000
# 2 34.1269 90.7790 37.3128 0.0000 9.0788 0.0000
# 3 43.5778 37.3128 122.5936 0.0000 5.2947 0.0000
# 4 0.0000 0.0000 0.0000 24.2968 0.0000 -1.6841
# 5 7.4426 9.0788 5.2947 0.0000 40.6253 0.0000
# 6 0.0000 0.0000 0.0000 -1.6841 0.0000 4.7600
#
#
#
# Elastic Compliance Matrix: (Units=1/GPa)
#
#
# Indices 1 2 3 4 5 6 
#
# 1 0.018067 -0.004592 -0.004954 0.000000 -0.001638 0.000000
# 2 -0.004592 0.013981 -0.002539 0.000000 -0.001952 0.000000
# 3 -0.004954 -0.002539 0.010687 0.000000 0.000082 0.000000
# 4 0.000000 0.000000 0.000000 0.042192 0.000000 0.014927
# 5 -0.001638 -0.001952 0.000082 0.000000 0.025341 0.000000
# 6 0.000000 0.000000 0.000000 0.014927 0.000000 0.215365
#
#
# Mechanical properties :
#
#
# Convention : Reuss Voigt Hill
#
# Bulk Modulus (GPa) = 53.86187 57.78376 55.82282
# Shear Modulus (GPa) = 14.04530 25.60319 19.82425
#
# Velocity S-wave (km/s) = 2.59802 3.50772 3.08657
# Velocity P-wave (km/s) = 5.90627 6.64639 6.28723
#
# Compressibility (1/GPa) = 0.01856601
#
# Stress axis : x y z
#
# Youngs Moduli (GPa) = 55.34883 71.52693 93.57109
#
# Poissons Ratio (x) = 0.32846 0.46354
# Poissons Ratio (y) = 0.25417 0.23754
# Poissons Ratio (z) = 0.27419 0.18158
#
# Static dielectric constant tensor:
#      x y z
#    x 1.716780 0.000000 0.014240 
#    y 0.000000 1.761510 0.000000 
#    z 0.014240 0.000000 1.834760 
# 
# From -- ./inp_files/142858.got.cif
#   From: 2010.05.17/outbox.cif.g08.bks.cpg/sg12_72_cif.got.tgz:142858.got - 2010.06.03 13:09:07.
