data_PCOD9188924
_publ_section_title
;
Structure prediction by ZEFSAII (Michael W. Deem and Ramdas Pophale) SiO2 
 PCOD9188924
Probable space group: C 2/M
;
_chemical_formula_sum "Si O2"
_cell_formula_units_Z 60
_cell_length_a 20.246243
_cell_length_b 9.025967
_cell_length_c 18.484117
_cell_angle_alpha 90.000000
_cell_angle_beta 129.166939
_cell_angle_gamma 90.000000
_cell_volume 2618.856800
_symmetry_space_group_name_H-M "C 2/M"
_symmetry_group_IT_number 12
_symmetry_cell_setting 'monoclinic'
loop_
_space_group_symop_operation_xyz
x,y,z
-x,y,-z
-x,-y,-z
x,-y,z
1/2+x,1/2+y,z
1/2-x,1/2+y,-z
1/2-x,1/2-y,-z
1/2+x,1/2-y,z
loop_
_atom_site_type_symbol
_atom_site_label
_atom_site_fract_x
_atom_site_fract_y
_atom_site_fract_z
Si Si1 0.448271 0.822813 0.076771
Si Si2 0.190356 0.171647 0.095708
Si Si3 0.647526 0.677719 0.853552
Si Si4 0.893856 0.825755 0.745139
Si Si5 0.617838 0.254339 0.425333
Si Si6 0.777360 0.669686 0.314620
Si Si7 0.248545 0.500000 0.464481
Si Si8 0.063169 0.678312 0.654511
O O1 0.394147 0.758324 0.106911
O O2 0.542367 0.765673 0.160846
O O3 0.445555 0.000000 0.070965
O O4 0.401382 0.748089 0.976030
O O5 0.256572 0.265743 0.093651
O O6 0.230251 0.170825 0.203518
O O7 0.186086 0.000000 0.068943
O O8 0.643357 0.500000 0.857145
O O9 0.597699 0.736862 0.748803
O O10 0.916128 0.814719 0.676121
O O11 0.797535 0.765600 0.688026
O O12 0.896398 0.000000 0.767347
O O13 0.678680 0.374079 0.502031
O O14 0.679711 0.123643 0.445168
O O15 0.536929 0.208346 0.417210
O O16 0.788017 0.500000 0.347813
O O17 0.872001 0.727167 0.364358
O O18 0.075966 0.500000 0.672280
#
# Coordination Sequence:
#
# PCOD9188924 Si02
#       8
#     8   8   8   8   8   8   4   8
#     4  12  24  35  53  82 119 162 201 254 302 347
#     4  10  20  38  57  79 118 159 209 252 297 344
#     4  11  21  33  54  85 118 157 201 254 300 347
#     4  11  22  39  63  89 119 155 204 246 294 349
#     4  11  21  39  65  92 127 147 193 234 294 360
#     4   8  19  38  61  87 115 161 206 248 288 341
#     4  10  24  38  62  98 122 154 176 242 300 354
#     4  10  19  36  63  89 120 158 202 241 290 350
#
# _framework density 22.910761999999998
#
# number of rings (size 3 to 8) (size 9 to 14) (size 15 to 20)
#    0.000    1.600    2.667    4.000    1.867    0.533 
#    0.000    6.000    0.000    4.800    0.000    0.000 
#    0.000    0.000    0.000    0.000    0.000    0.000 
#
# Total GULP energy -167078.674590 kJ/mol
# GULP energy per Si atom -5569.289153 kJ/mol
# Density = 2.285862 g / cm^3
# Si number density = 22.910762 Si / 1000 Ang^3
#
#
#
# Elastic Constant Matrix: (Units=GPa)
#
#
# Indices 1 2 3 4 5 6 
#
# 1 141.9535 21.6612 42.5627 0.0000 39.8957 0.0000
# 2 21.6612 148.1665 37.0125 0.0000 20.9016 0.0000
# 3 42.5627 37.0125 95.4232 0.0000 19.0261 0.0000
# 4 0.0000 0.0000 0.0000 55.5938 0.0000 20.8791
# 5 39.8957 20.9016 19.0261 0.0000 41.2163 0.0000
# 6 0.0000 0.0000 0.0000 20.8791 0.0000 24.5455
#
#
#
# Elastic Compliance Matrix: (Units=1/GPa)
#
#
# Indices 1 2 3 4 5 6 
#
# 1 0.010383 0.000499 -0.003051 0.000000 -0.008895 0.000000
# 2 0.000499 0.007780 -0.002596 0.000000 -0.003230 0.000000
# 3 -0.003051 -0.002596 0.013212 0.000000 -0.001829 0.000000
# 4 0.000000 0.000000 0.000000 0.026432 0.000000 -0.022484
# 5 -0.008895 -0.003230 -0.001829 0.000000 0.035355 0.000000
# 6 0.000000 0.000000 0.000000 -0.022484 0.000000 0.059866
#
#
# Mechanical properties :
#
#
# Convention : Reuss Voigt Hill
#
# Bulk Modulus (GPa) = 47.44128 65.33510 56.38819
# Shear Modulus (GPa) = 29.35097 43.22490 36.28793
#
# Velocity S-wave (km/s) = 3.58313 4.34829 3.98412
# Velocity P-wave (km/s) = 6.15389 7.33411 6.76977
#
# Compressibility (1/GPa) = 0.02107869
#
# Stress axis : x y z
#
# Youngs Moduli (GPa) = 96.30877 128.52692 75.68652
#
# Poissons Ratio (x) = -0.06415 0.23095
# Poissons Ratio (y) = -0.04807 0.19651
# Poissons Ratio (z) = 0.29387 0.33371
#
# Static dielectric constant tensor:
#      x y z
#    x 1.876930 0.000000 -0.009570 
#    y 0.000000 7.209540 0.000000 
#    z -0.009570 0.000000 1.920940 
# 
# From -- ./inp_files/320576.got.cif
#   From: 2010.05.17/outbox.cif.g08.bks.cpg/sg12_161_cif.got.tgz:320576.got - 2010.06.03 13:09:07.
