data_PCOD9188362
_publ_section_title
;
Structure prediction by ZEFSAII (Michael W. Deem and Ramdas Pophale) SiO2 
 PCOD9188362
Probable space group: C 2/M
;
_chemical_formula_sum "Si O2"
_cell_formula_units_Z 48
_cell_length_a 15.534063
_cell_length_b 8.140012
_cell_length_c 20.101642
_cell_angle_alpha 90.000000
_cell_angle_beta 78.263954
_cell_angle_gamma 90.000000
_cell_volume 2488.665295
_symmetry_space_group_name_H-M "C 2/M"
_symmetry_group_IT_number 12
_symmetry_cell_setting 'monoclinic'
loop_
_space_group_symop_operation_xyz
x,y,z
-x,y,-z
-x,-y,-z
x,-y,z
1/2+x,1/2+y,z
1/2-x,1/2+y,-z
1/2-x,1/2-y,-z
1/2+x,1/2-y,z
loop_
_atom_site_type_symbol
_atom_site_label
_atom_site_fract_x
_atom_site_fract_y
_atom_site_fract_z
Si Si1 0.047731 0.697225 0.827638
Si Si2 0.872974 0.301136 0.929514
Si Si3 0.258722 0.303770 0.575211
Si Si4 0.320278 0.303851 0.081868
Si Si5 0.952854 0.302147 0.575068
Si Si6 0.579762 0.201434 0.672847
O O1 0.039918 0.500000 0.825152
O O2 0.129551 0.737049 0.862131
O O3 0.061037 0.758390 0.750526
O O4 0.958411 0.759012 0.876704
O O5 0.873501 0.500000 0.928887
O O6 0.780540 0.245559 0.911583
O O7 0.870792 0.246944 0.006552
O O8 0.257340 0.500000 0.576542
O O9 0.250000 0.250000 0.500000
O O10 0.351262 0.244903 0.589423
O O11 0.174523 0.244795 0.630224
O O12 0.318841 0.500000 0.085962
O O13 0.958367 0.500000 0.573170
O O14 0.000000 0.241662 0.500000
O O15 0.006095 0.245371 0.631397
O O16 0.579790 0.000000 0.673396
#
# Coordination Sequence:
#
# PCOD9188362 Si02
#       6
#     8   8   8   8   8   8
#     4  10  20  36  56  76 105 147 185 217 261 324
#     4   9  19  35  55  78 105 142 184 217 258 323
#     4  11  21  36  57  82 108 139 179 225 274 325
#     4  10  20  34  54  82 111 138 174 226 273 309
#     4  10  19  36  59  81 106 141 180 223 272 325
#     4   9  20  37  55  77 109 145 180 219 273 327
#
# _framework density 19.287448000000001
#
# number of rings (size 3 to 8) (size 9 to 14) (size 15 to 20)
#    0.000    2.167    1.667    1.500    0.000    5.000 
#    0.000    4.167    0.000    0.000    0.000    0.000 
#    0.000    0.000    0.000    0.000    0.000    0.000 
#
# Total GULP energy -134008.561266 kJ/mol
# GULP energy per Si atom -5583.690053 kJ/mol
# Density = 1.924355 g / cm^3
# Si number density = 19.287448 Si / 1000 Ang^3
#
#
#
# Elastic Constant Matrix: (Units=GPa)
#
#
# Indices 1 2 3 4 5 6 
#
# 1 129.4608 4.6491 83.7722 0.0000 24.4710 0.0000
# 2 4.6491 6.3057 9.7482 0.0000 -0.5693 0.0000
# 3 83.7722 9.7482 160.6816 0.0000 26.5442 0.0000
# 4 0.0000 0.0000 0.0000 16.4932 0.0000 4.9121
# 5 24.4710 -0.5693 26.5442 0.0000 21.7433 0.0000
# 6 0.0000 0.0000 0.0000 4.9121 0.0000 29.7381
#
#
#
# Elastic Compliance Matrix: (Units=1/GPa)
#
#
# Indices 1 2 3 4 5 6 
#
# 1 0.012638 -0.002095 -0.005140 0.000000 -0.008004 0.000000
# 2 -0.002095 0.184150 -0.014112 0.000000 0.024407 0.000000
# 3 -0.005140 -0.014112 0.011104 0.000000 -0.008141 0.000000
# 4 0.000000 0.000000 0.000000 0.063768 0.000000 -0.010533
# 5 -0.008004 0.024407 -0.008141 0.000000 0.065577 0.000000
# 6 0.000000 0.000000 0.000000 -0.010533 0.000000 0.035367
#
#
# Mechanical properties :
#
#
# Convention : Reuss Voigt Hill
#
# Bulk Modulus (GPa) = 6.05329 54.75412 30.40371
# Shear Modulus (GPa) = 10.63007 26.81348 18.72178
#
# Velocity S-wave (km/s) = 2.35018 3.73259 3.11894
# Velocity P-wave (km/s) = 3.24187 6.85758 5.36359
#
# Compressibility (1/GPa) = 0.16519953
#
# Stress axis : x y z
#
# Youngs Moduli (GPa) = 79.12399 5.43036 90.05716
#
# Poissons Ratio (x) = 0.01138 0.46287
# Poissons Ratio (y) = 0.16578 1.27085
# Poissons Ratio (z) = 0.40667 0.07663
#
# Static dielectric constant tensor:
#      x y z
#    x 1.662060 0.000000 -0.011070 
#    y 0.000000 1.684340 0.000000 
#    z -0.011070 0.000000 1.645120 
# 
# From -- ./inp_files/267672.got.cif
#   From: 2010.05.17/outbox.cif.g08.bks.cpg/sg12_134_cif.got.tgz:267672.got - 2010.06.03 13:09:07.
