data_PCOD9188115
_publ_section_title
;
Structure prediction by ZEFSAII (Michael W. Deem and Ramdas Pophale) SiO2 
 PCOD9188115
Probable space group: C 2/M
;
_chemical_formula_sum "Si O2"
_cell_formula_units_Z 52
_cell_length_a 21.810259
_cell_length_b 17.986313
_cell_length_c 12.090059
_cell_angle_alpha 90.000000
_cell_angle_beta 144.966527
_cell_angle_gamma 90.000000
_cell_volume 2722.606125
_symmetry_space_group_name_H-M "C 2/M"
_symmetry_group_IT_number 12
_symmetry_cell_setting 'monoclinic'
loop_
_space_group_symop_operation_xyz
x,y,z
-x,y,-z
-x,-y,-z
x,-y,z
1/2+x,1/2+y,z
1/2-x,1/2+y,-z
1/2-x,1/2-y,-z
1/2+x,1/2-y,z
loop_
_atom_site_type_symbol
_atom_site_label
_atom_site_fract_x
_atom_site_fract_y
_atom_site_fract_z
Si Si1 0.002369 0.500000 0.712915
Si Si2 0.262369 0.000000 0.026648
Si Si3 0.566151 0.854703 0.939086
Si Si4 0.757117 0.500000 0.277975
Si Si5 0.253982 0.337785 0.648597
Si Si6 0.364292 0.192929 0.744872
Si Si7 0.624240 0.790846 0.666869
Si Si8 0.759928 0.841875 0.071226
O O1 0.886771 0.500000 0.485767
O O2 0.107208 0.500000 0.789425
O O3 0.015662 0.426784 0.807645
O O4 0.232954 0.000000 0.111852
O O5 0.220477 0.928693 0.899871
O O6 0.471867 0.799230 0.832669
O O7 0.619807 0.868997 0.137274
O O8 0.656570 0.823658 0.993033
O O9 0.717880 0.421858 0.273595
O O10 0.336476 0.268914 0.767518
O O11 0.218498 0.335073 0.468245
O O12 0.161926 0.310595 0.598958
O O13 0.500000 0.812709 0.500000
O O14 0.643826 0.706474 0.738086
O O15 0.713052 0.828627 0.878495
#
# Coordination Sequence:
#
# PCOD9188115 Si02
#       8
#     4   4   8   4   8   8   8   8
#     4  10  21  32  56  92 121 152 189 241 320 370
#     4  10  21  34  58  84 128 149 191 251 299 364
#     4  10  19  36  56  84 117 153 194 239 295 349
#     4  12  21  35  56  88 122 158 186 247 311 362
#     4  11  22  37  54  85 118 155 198 236 295 353
#     4  10  21  35  56  78 114 161 195 236 277 353
#     4  11  22  36  60  87 122 152 199 247 294 363
#     4  10  21  38  58  92 116 156 197 243 304 353
#
# _framework density 19.099347999999999
#
# number of rings (size 3 to 8) (size 9 to 14) (size 15 to 20)
#    0.000    1.538    4.615    1.154    2.154    1.846 
#    0.000    0.385    0.000    1.846    0.000    4.308 
#    0.000    0.000    0.000    0.000    0.000    0.000 
#
# Total GULP energy -144738.386586 kJ/mol
# GULP energy per Si atom -5566.861023 kJ/mol
# Density = 1.905588 g / cm^3
# Si number density = 19.099348 Si / 1000 Ang^3
#
#
#
# Elastic Constant Matrix: (Units=GPa)
#
#
# Indices 1 2 3 4 5 6 
#
# 1 71.6208 33.1755 1.6814 0.0000 -7.8497 0.0000
# 2 33.1755 106.3601 -3.8468 0.0000 1.7823 0.0000
# 3 1.6814 -3.8468 23.7808 0.0000 -5.2203 0.0000
# 4 0.0000 0.0000 0.0000 14.4673 0.0000 3.8809
# 5 -7.8497 1.7823 -5.2203 0.0000 21.7481 0.0000
# 6 0.0000 0.0000 0.0000 3.8809 0.0000 13.4386
#
#
#
# Elastic Compliance Matrix: (Units=1/GPa)
#
#
# Indices 1 2 3 4 5 6 
#
# 1 0.017246 -0.005513 -0.000681 0.000000 0.006513 0.000000
# 2 -0.005513 0.011224 0.001654 0.000000 -0.002513 0.000000
# 3 -0.000681 0.001654 0.044635 0.000000 0.010332 0.000000
# 4 0.000000 0.000000 0.000000 0.074926 0.000000 -0.021637
# 5 0.006513 -0.002513 0.010332 0.000000 0.051018 0.000000
# 6 0.000000 0.000000 0.000000 -0.021637 0.000000 0.080661
#
#
# Mechanical properties :
#
#
# Convention : Reuss Voigt Hill
#
# Bulk Modulus (GPa) = 15.61950 29.30908 22.46429
# Shear Modulus (GPa) = 16.12222 21.31425 18.71823
#
# Velocity S-wave (km/s) = 2.90853 3.34423 3.13396
# Velocity P-wave (km/s) = 4.41307 5.50371 4.98829
#
# Compressibility (1/GPa) = 0.06402254
#
# Stress axis : x y z
#
# Youngs Moduli (GPa) = 57.98454 89.09823 22.40416
#
# Poissons Ratio (x) = 0.49121 0.01527
# Poissons Ratio (y) = 0.31967 -0.03705
# Poissons Ratio (z) = 0.03951 -0.14734
#
# Static dielectric constant tensor:
#      x y z
#    x 1.681330 0.000000 -0.013240 
#    y 0.000000 1.734770 0.000000 
#    z -0.013240 0.000000 1.749060 
# 
# From -- ./inp_files/168876.got.cif
#   From: 2010.05.17/outbox.cif.g08.bks.cpg/sg12_85_cif.got.tgz:168876.got - 2010.06.03 13:09:07.
