data_PCOD9188448
_publ_section_title
;
Structure prediction by ZEFSAII (Michael W. Deem and Ramdas Pophale) SiO2 
 PCOD9188448
Probable space group: C 2/M
;
_chemical_formula_sum "Si O2"
_cell_formula_units_Z 58
_cell_length_a 18.536832
_cell_length_b 7.836144
_cell_length_c 16.205219
_cell_angle_alpha 90.000000
_cell_angle_beta 67.545956
_cell_angle_gamma 90.000000
_cell_volume 2175.465980
_symmetry_space_group_name_H-M "C 2/M"
_symmetry_group_IT_number 12
_symmetry_cell_setting 'monoclinic'
loop_
_space_group_symop_operation_xyz
x,y,z
-x,y,-z
-x,-y,-z
x,-y,z
1/2+x,1/2+y,z
1/2-x,1/2+y,-z
1/2-x,1/2-y,-z
1/2+x,1/2-y,z
loop_
_atom_site_type_symbol
_atom_site_label
_atom_site_fract_x
_atom_site_fract_y
_atom_site_fract_z
Si Si1 0.391593 0.194434 0.722113
Si Si2 0.500000 0.500000 0.500000
Si Si3 0.221505 0.301284 0.801468
Si Si4 0.111233 0.311196 0.476863
Si Si5 0.668115 0.795538 0.995432
Si Si6 0.942025 0.799748 0.285455
Si Si7 0.497534 0.700644 0.909236
Si Si8 0.220645 0.700280 0.615121
O O1 0.312877 0.286290 0.785098
O O2 0.388409 0.195190 0.624232
O O3 0.472821 0.274636 0.713392
O O4 0.388801 0.000000 0.753258
O O5 0.556338 0.649798 0.517049
O O6 0.201746 0.500000 0.803429
O O7 0.172440 0.227857 0.898796
O O8 0.215865 0.228065 0.712084
O O9 0.082053 0.500000 0.513028
O O10 0.204136 0.292731 0.456464
O O11 0.660325 0.000000 0.997655
O O12 0.750000 0.750000 0.000000
O O13 0.593657 0.719229 0.073598
O O14 0.870848 0.717399 0.366674
O O15 0.951508 0.726739 0.187855
O O16 0.925945 0.000000 0.288284
O O17 0.516117 0.500000 0.906920
O O18 0.500000 0.778875 0.000000
O O19 0.241800 0.500000 0.608075
#
# Coordination Sequence:
#
# PCOD9188448 Si02
#       8
#     8   2   8   8   8   8   8   8
#     4  10  21  36  57  87 117 151 197 248 293 353
#     4  12  22  40  72 102 128 168 190 230 292 346
#     4   9  19  34  53  74 106 143 189 248 303 352
#     4  10  22  40  65 100 130 159 200 240 285 349
#     4  11  22  34  49  72 102 144 190 245 305 363
#     4  11  22  34  55  82 113 158 200 254 309 355
#     4  10  22  38  52  73 109 152 203 254 310 365
#     4  10  19  36  59  86 115 151 197 244 296 346
#
# _framework density 26.660955000000001
#
# number of rings (size 3 to 8) (size 9 to 14) (size 15 to 20)
#    0.000    1.793    0.690    3.517    1.931    6.345 
#    0.000    0.000    0.000    0.828    0.000    0.000 
#    0.000    0.000    0.000    0.000    0.000    0.000 
#
# Total GULP energy -162185.474346 kJ/mol
# GULP energy per Si atom -5592.602564 kJ/mol
# Density = 2.660027 g / cm^3
# Si number density = 26.660955 Si / 1000 Ang^3
#
#
#
# Elastic Constant Matrix: (Units=GPa)
#
#
# Indices 1 2 3 4 5 6 
#
# 1 135.6272 23.2581 13.6968 0.0000 -29.5880 0.0000
# 2 23.2581 127.5261 18.5730 0.0001 -6.3335 0.0002
# 3 13.6968 18.5730 127.5858 0.0000 -35.3854 0.0000
# 4 0.0000 0.0001 0.0000 17.9389 0.0000 -9.5070
# 5 -29.5880 -6.3335 -35.3854 0.0000 39.9011 0.0000
# 6 0.0000 0.0002 0.0000 -9.5070 0.0000 41.7277
#
#
#
# Elastic Compliance Matrix: (Units=1/GPa)
#
#
# Indices 1 2 3 4 5 6 
#
# 1 0.009194 -0.001492 0.001400 0.000000 0.007822 0.000000
# 2 -0.001492 0.008257 -0.001306 0.000000 -0.000955 0.000000
# 3 0.001400 -0.001306 0.010753 0.000000 0.010366 0.000000
# 4 0.000000 0.000000 0.000000 0.063400 0.000000 0.014445
# 5 0.007822 -0.000955 0.010366 0.000000 0.039904 0.000000
# 6 0.000000 0.000000 0.000000 0.014445 0.000000 0.027256
#
#
# Mechanical properties :
#
#
# Convention : Reuss Voigt Hill
#
# Bulk Modulus (GPa) = 39.36151 55.75500 47.55826
# Shear Modulus (GPa) = 29.40659 42.26096 35.83377
#
# Velocity S-wave (km/s) = 3.32472 3.98568 3.67011
# Velocity P-wave (km/s) = 5.43453 6.49145 5.98636
#
# Compressibility (1/GPa) = 0.02540553
#
# Stress axis : x y z
#
# Youngs Moduli (GPa) = 108.76489 121.11611 92.99827
#
# Poissons Ratio (x) = 0.18073 -0.13016
# Poissons Ratio (y) = 0.16230 0.12150
# Poissons Ratio (z) = -0.15223 0.15824
#
# Static dielectric constant tensor:
#      x y z
#    x 2.215020 0.000000 0.122920 
#    y 0.000000 1.961040 0.000000 
#    z 0.122920 0.000000 2.147520 
# 
# From -- ./inp_files/314782.got.cif
#   From: 2010.05.17/outbox.cif.g08.bks.cpg/sg12_158_cif.got.tgz:314782.got - 2010.06.03 13:09:07.
