data_PCOD9188505
_publ_section_title
;
Structure prediction by ZEFSAII (Michael W. Deem and Ramdas Pophale) SiO2 
 PCOD9188505
Probable space group: C 2/M
;
_chemical_formula_sum "Si O2"
_cell_formula_units_Z 56
_cell_length_a 15.266454
_cell_length_b 17.771256
_cell_length_c 20.692755
_cell_angle_alpha 90.000000
_cell_angle_beta 147.366524
_cell_angle_gamma 90.000000
_cell_volume 3027.437339
_symmetry_space_group_name_H-M "C 2/M"
_symmetry_group_IT_number 12
_symmetry_cell_setting 'monoclinic'
loop_
_space_group_symop_operation_xyz
x,y,z
-x,y,-z
-x,-y,-z
x,-y,z
1/2+x,1/2+y,z
1/2-x,1/2+y,-z
1/2-x,1/2-y,-z
1/2+x,1/2-y,z
loop_
_atom_site_type_symbol
_atom_site_label
_atom_site_fract_x
_atom_site_fract_y
_atom_site_fract_z
Si Si1 0.659840 0.721223 0.345455
Si Si2 0.742420 0.409543 0.196167
Si Si3 0.477558 0.798763 0.621638
Si Si4 0.162492 0.411626 0.136873
Si Si5 0.350983 0.678374 0.361214
Si Si6 0.587704 0.587768 0.825483
Si Si7 0.389203 0.589999 0.021428
O O1 0.554743 0.778583 0.323966
O O2 0.742545 0.766470 0.338381
O O3 0.552959 0.649038 0.262932
O O4 0.804581 0.691150 0.480717
O O5 0.758744 0.500000 0.209390
O O6 0.904126 0.368156 0.317662
O O7 0.578532 0.387194 0.132605
O O8 0.707460 0.382724 0.100828
O O9 0.558958 0.727612 0.637203
O O10 0.131585 0.500000 0.130521
O O11 0.231962 0.375623 0.246096
O O12 0.301458 0.405250 0.168488
O O13 0.000000 0.380574 0.000000
O O14 0.500000 0.647643 0.500000
O O15 0.532455 0.500000 0.794924
O O16 0.679217 0.604405 0.950166
O O17 0.392182 0.500000 0.014476
#
# Coordination Sequence:
#
# PCOD9188505 Si02
#       7
#     8   8   8   8   8   8   8
#     4  10  21  36  56  80 111 149 187 237 287 331
#     4   9  17  32  53  79 116 151 183 228 282 341
#     4  10  20  36  53  79 114 145 187 237 286 335
#     4  10  22  41  62  85 116 151 193 247 289 329
#     4  10  21  40  61  82 118 157 188 235 293 347
#     4  10  19  36  60  81 110 149 194 236 286 347
#     4   8  16  31  52  80 110 143 178 224 284 338
#
# _framework density 18.497492000000001
#
# number of rings (size 3 to 8) (size 9 to 14) (size 15 to 20)
#    0.000    2.429    1.429    1.714    0.000    2.000 
#    5.143    3.571    0.000    5.143    0.000    0.000 
#    0.000    0.000    0.000    0.000    0.000    0.000 
#
# Total GULP energy -155896.085464 kJ/mol
# GULP energy per Si atom -5567.717338 kJ/mol
# Density = 1.845539 g / cm^3
# Si number density = 18.497492 Si / 1000 Ang^3
#
#
#
# Elastic Constant Matrix: (Units=GPa)
#
#
# Indices 1 2 3 4 5 6 
#
# 1 60.7978 7.5747 16.9740 0.0000 -13.5455 0.0001
# 2 7.5747 37.7832 44.6307 -0.0011 -5.6851 -0.0006
# 3 16.9740 44.6307 90.0332 -0.0028 -5.9173 -0.0012
# 4 0.0000 -0.0011 -0.0028 31.3872 -0.0006 3.5039
# 5 -13.5455 -5.6851 -5.9173 -0.0006 21.1808 -0.0002
# 6 0.0001 -0.0006 -0.0012 3.5039 -0.0002 21.4138
#
#
#
# Elastic Compliance Matrix: (Units=1/GPa)
#
#
# Indices 1 2 3 4 5 6 
#
# 1 0.020095 0.003264 -0.004589 0.000000 0.012446 0.000000
# 2 0.003264 0.065912 -0.032587 0.000000 0.010675 0.000000
# 3 -0.004589 -0.032587 0.027870 0.000001 -0.003895 0.000001
# 4 0.000000 0.000000 0.000001 0.032453 0.000001 -0.005310
# 5 0.012446 0.010675 -0.003895 0.000001 0.056949 0.000000
# 6 0.000000 0.000000 0.000001 -0.005310 0.000000 0.047568
#
#
# Mechanical properties :
#
#
# Convention : Reuss Voigt Hill
#
# Bulk Modulus (GPa) = 21.71373 36.33033 29.02203
# Shear Modulus (GPa) = 14.96914 22.75868 18.86391
#
# Velocity S-wave (km/s) = 2.84782 3.51146 3.19691
# Velocity P-wave (km/s) = 4.75160 6.01031 5.41763
#
# Compressibility (1/GPa) = 0.04605380
#
# Stress axis : x y z
#
# Youngs Moduli (GPa) = 49.76309 15.17186 35.88086
#
# Poissons Ratio (x) = -0.04953 0.16465
# Poissons Ratio (y) = -0.16245 1.16925
# Poissons Ratio (z) = 0.22835 0.49441
#
# Static dielectric constant tensor:
#      x y z
#    x 1.664750 0.000000 -0.018270 
#    y 0.000000 1.623750 0.000000 
#    z -0.018270 0.000000 1.660010 
# 
# From -- ./inp_files/311746.got.cif
#   From: 2010.05.17/outbox.cif.g08.bks.cpg/sg12_156_cif.got.tgz:311746.got - 2010.06.03 13:09:07.
