data_PCOD9188294
_publ_section_title
;
Structure prediction by ZEFSAII (Michael W. Deem and Ramdas Pophale) SiO2 
 PCOD9188294
Probable space group: C 2/M
;
_chemical_formula_sum "Si O2"
_cell_formula_units_Z 50
_cell_length_a 14.397666
_cell_length_b 7.695309
_cell_length_c 27.241633
_cell_angle_alpha 90.000000
_cell_angle_beta 130.764379
_cell_angle_gamma 90.000000
_cell_volume 2286.005400
_symmetry_space_group_name_H-M "C 2/M"
_symmetry_group_IT_number 12
_symmetry_cell_setting 'monoclinic'
loop_
_space_group_symop_operation_xyz
x,y,z
-x,y,-z
-x,-y,-z
x,-y,z
1/2+x,1/2+y,z
1/2-x,1/2+y,-z
1/2-x,1/2-y,-z
1/2+x,1/2-y,z
loop_
_atom_site_type_symbol
_atom_site_label
_atom_site_fract_x
_atom_site_fract_y
_atom_site_fract_z
Si Si1 0.560829 0.708321 0.864131
Si Si2 0.666936 0.311724 0.035333
Si Si3 0.378298 0.291320 0.606006
Si Si4 0.560358 0.291201 0.751868
Si Si5 0.101758 0.709455 0.497710
Si Si6 0.836648 0.703772 0.856443
Si Si7 0.000000 0.500000 0.000000
O O1 0.571689 0.500000 0.865896
O O2 0.691327 0.776704 0.928727
O O3 0.544267 0.772367 0.802170
O O4 0.444425 0.758421 0.856246
O O5 0.626879 0.500000 0.002505
O O6 0.665902 0.312302 0.094682
O O7 0.576147 0.153136 0.995382
O O8 0.372970 0.500000 0.609359
O O9 0.465150 0.222119 0.679071
O O10 0.238253 0.225045 0.557779
O O11 0.427536 0.253592 0.568602
O O12 0.543093 0.500000 0.748129
O O13 0.702857 0.267923 0.786640
O O14 0.105311 0.500000 0.502449
O O15 0.000000 0.775203 0.500000
O O16 0.846238 0.500000 0.877930
#
# Coordination Sequence:
#
# PCOD9188294 Si02
#       7
#     8   8   8   8   8   8   2
#     4  10  19  36  59  85 116 149 187 233 289 349
#     4  11  22  40  65  88 119 159 193 236 293 340
#     4   9  17  32  50  70 101 139 185 228 280 340
#     4   8  17  32  52  78 107 144 182 231 287 343
#     4   9  18  31  47  68  99 141 180 230 288 335
#     4  10  19  36  58  83 115 149 189 237 289 346
#     4  12  22  44  64  90 124 154 198 244 280 338
#
# _framework density 21.872212999999999
#
# number of rings (size 3 to 8) (size 9 to 14) (size 15 to 20)
#    0.000    2.400    1.600    2.160    0.000    1.600 
#    0.000    7.200    0.000    0.000    0.000    0.000 
#    0.000    0.000    0.000    0.000    0.000    0.000 
#
# Total GULP energy -139508.024151 kJ/mol
# GULP energy per Si atom -5580.320966 kJ/mol
# Density = 2.182243 g / cm^3
# Si number density = 21.872213 Si / 1000 Ang^3
#
#
#
# Elastic Constant Matrix: (Units=GPa)
#
#
# Indices 1 2 3 4 5 6 
#
# 1 169.2456 8.9907 57.5663 0.0000 -5.1345 0.0000
# 2 8.9907 99.0455 14.2801 0.0000 7.1045 0.0000
# 3 57.5663 14.2801 139.6070 0.0000 -11.9895 0.0000
# 4 0.0000 0.0000 0.0000 16.9346 0.0000 -1.3000
# 5 -5.1345 7.1045 -11.9895 0.0000 11.6299 0.0000
# 6 0.0000 0.0000 0.0000 -1.3000 0.0000 20.5156
#
#
#
# Elastic Compliance Matrix: (Units=1/GPa)
#
#
# Indices 1 2 3 4 5 6 
#
# 1 0.006878 -0.000246 -0.002784 0.000000 0.000317 0.000000
# 2 -0.000246 0.010993 -0.001766 0.000000 -0.008644 0.000000
# 3 -0.002784 -0.001766 0.009302 0.000000 0.009439 0.000000
# 4 0.000000 0.000000 0.000000 0.059339 0.000000 0.003760
# 5 0.000317 -0.008644 0.009439 0.000000 0.101137 0.000000
# 6 0.000000 0.000000 0.000000 0.003760 0.000000 0.048982
#
#
# Mechanical properties :
#
#
# Convention : Reuss Voigt Hill
#
# Bulk Modulus (GPa) = 56.87196 63.28582 60.07889
# Shear Modulus (GPa) = 19.83478 31.62007 25.72743
#
# Velocity S-wave (km/s) = 3.01466 3.80633 3.43339
# Velocity P-wave (km/s) = 6.17867 6.95087 6.57612
#
# Compressibility (1/GPa) = 0.01758336
#
# Stress axis : x y z
#
# Youngs Moduli (GPa) = 145.38873 90.96477 107.50269
#
# Poissons Ratio (x) = 0.02235 0.29927
# Poissons Ratio (y) = 0.03572 0.18980
# Poissons Ratio (z) = 0.40474 0.16060
#
# Static dielectric constant tensor:
#      x y z
#    x 1.782190 0.000000 0.003350 
#    y 0.000000 1.823410 0.000000 
#    z 0.003350 0.000000 1.712440 
# 
# From -- ./inp_files/308533.got.cif
#   From: 2010.05.17/outbox.cif.g08.bks.cpg/sg12_155_cif.got.tgz:308533.got - 2010.06.03 13:09:07.
