data_PCOD9188429
_publ_section_title
;
Structure prediction by ZEFSAII (Michael W. Deem and Ramdas Pophale) SiO2 
 PCOD9188429
Probable space group: C 2/M
;
_chemical_formula_sum "Si O2"
_cell_formula_units_Z 50
_cell_length_a 18.041867
_cell_length_b 17.988419
_cell_length_c 8.709047
_cell_angle_alpha 90.000000
_cell_angle_beta 134.127061
_cell_angle_gamma 90.000000
_cell_volume 2028.836592
_symmetry_space_group_name_H-M "C 2/M"
_symmetry_group_IT_number 12
_symmetry_cell_setting 'monoclinic'
loop_
_space_group_symop_operation_xyz
x,y,z
-x,y,-z
-x,-y,-z
x,-y,z
1/2+x,1/2+y,z
1/2-x,1/2+y,-z
1/2-x,1/2-y,-z
1/2+x,1/2-y,z
loop_
_atom_site_type_symbol
_atom_site_label
_atom_site_fract_x
_atom_site_fract_y
_atom_site_fract_z
Si Si1 0.755922 0.086873 0.827019
Si Si2 0.849253 0.585534 0.794689
Si Si3 0.948708 0.198750 0.580179
Si Si4 0.500000 0.000000 0.500000
Si Si5 0.623456 0.582914 0.302085
Si Si6 0.047487 0.365550 0.364380
Si Si7 0.251909 0.321682 0.111128
O O1 0.845103 0.095242 0.829114
O O2 0.656505 0.129327 0.616890
O O3 0.722921 0.000000 0.781969
O O4 0.785211 0.114722 0.037490
O O5 0.874016 0.500000 0.868682
O O6 0.734087 0.582683 0.551053
O O7 0.921947 0.616108 0.765357
O O8 0.841035 0.641039 0.927016
O O9 0.947474 0.145248 0.723989
O O10 0.990925 0.281321 0.669494
O O11 0.830400 0.202476 0.356766
O O12 0.000000 0.166685 0.500000
O O13 0.486447 0.933673 0.350230
O O14 0.579322 0.500000 0.256766
O O15 0.250000 0.250000 0.000000
#
# Coordination Sequence:
#
# PCOD9188429 Si02
#       7
#     8   8   8   2   8   8   8
#     4  10  19  36  59  85 111 147 195 242 283 328
#     4   9  18  34  55  83 111 147 195 238 280 331
#     4  11  23  37  56  85 118 152 188 236 295 346
#     4  12  20  36  60  90 122 148 194 222 290 356
#     4   8  18  35  58  82 109 146 196 240 281 340
#     4  11  20  34  60  86 113 156 194 235 275 351
#     4  11  22  34  57  86 114 146 193 243 287 335
#
# _framework density 24.644666000000001
#
# number of rings (size 3 to 8) (size 9 to 14) (size 15 to 20)
#    0.000    1.920    4.000    1.440    2.240    2.880 
#    0.000    0.800    0.000    5.760    0.000    0.000 
#    0.000    0.000    0.000    0.000    0.000    0.000 
#
# Total GULP energy -139550.878817 kJ/mol
# GULP energy per Si atom -5582.035153 kJ/mol
# Density = 2.458857 g / cm^3
# Si number density = 24.644666 Si / 1000 Ang^3
#
#
#
# Elastic Constant Matrix: (Units=GPa)
#
#
# Indices 1 2 3 4 5 6 
#
# 1 106.0660 72.6643 22.2689 0.0000 -53.4465 0.0000
# 2 72.6643 100.8251 38.2413 0.0000 -34.3311 0.0000
# 3 22.2689 38.2413 100.4023 0.0000 -9.8664 0.0000
# 4 0.0000 0.0000 0.0000 17.3683 0.0000 -9.3140
# 5 -53.4465 -34.3311 -9.8664 0.0000 52.8780 0.0000
# 6 0.0000 0.0000 0.0000 -9.3140 0.0000 32.9365
#
#
#
# Elastic Compliance Matrix: (Units=1/GPa)
#
#
# Indices 1 2 3 4 5 6 
#
# 1 0.029778 -0.014831 0.001075 0.000000 0.020670 0.000000
# 2 -0.014831 0.022038 -0.005268 0.000000 -0.001665 0.000000
# 3 0.001075 -0.005268 0.011713 0.000000 -0.000148 0.000000
# 4 0.000000 0.000000 0.000000 0.067868 0.000000 0.019192
# 5 0.020670 -0.001665 -0.000148 0.000000 0.038695 0.000000
# 6 0.000000 0.000000 0.000000 0.019192 0.000000 0.035789
#
#
# Mechanical properties :
#
#
# Convention : Reuss Voigt Hill
#
# Bulk Modulus (GPa) = 39.24245 63.73802 51.49023
# Shear Modulus (GPa) = 19.80803 32.24449 26.02626
#
# Velocity S-wave (km/s) = 2.83812 3.62107 3.25323
# Velocity P-wave (km/s) = 5.16698 6.58801 5.92029
#
# Compressibility (1/GPa) = 0.02548261
#
# Stress axis : x y z
#
# Youngs Moduli (GPa) = 33.58131 45.37686 85.37247
#
# Poissons Ratio (x) = 0.67297 -0.09179
# Poissons Ratio (y) = 0.49804 0.44974
# Poissons Ratio (z) = -0.03611 0.23904
#
# Static dielectric constant tensor:
#      x y z
#    x 2.581210 0.000000 0.686020 
#    y 0.000000 1.940620 0.000000 
#    z 0.686020 0.000000 2.641520 
# 
# From -- ./inp_files/75162.got.cif
#   From: 2010.05.17/outbox.cif.g08.bks.cpg/sg12_38_cif.got.tgz:75162.got - 2010.06.03 13:09:07.
