data_PCOD9188208
_publ_section_title
;
Structure prediction by ZEFSAII (Michael W. Deem and Ramdas Pophale) SiO2 
 PCOD9188208
Probable space group: C 2/M
;
_chemical_formula_sum "Si O2"
_cell_formula_units_Z 48
_cell_length_a 24.130345
_cell_length_b 12.479700
_cell_length_c 24.203076
_cell_angle_alpha 90.000000
_cell_angle_beta 22.645929
_cell_angle_gamma 90.000000
_cell_volume 2806.329998
_symmetry_space_group_name_H-M "C 2/M"
_symmetry_group_IT_number 12
_symmetry_cell_setting 'monoclinic'
loop_
_space_group_symop_operation_xyz
x,y,z
-x,y,-z
-x,-y,-z
x,-y,z
1/2+x,1/2+y,z
1/2-x,1/2+y,-z
1/2-x,1/2-y,-z
1/2+x,1/2-y,z
loop_
_atom_site_type_symbol
_atom_site_label
_atom_site_fract_x
_atom_site_fract_y
_atom_site_fract_z
Si Si1 0.099486 0.624681 0.854667
Si Si2 0.168610 0.307764 0.353058
Si Si3 0.678268 0.881857 0.955258
Si Si4 0.072735 0.000000 0.068403
Si Si5 0.015029 0.500000 0.315093
Si Si6 0.268917 0.838814 0.828510
Si Si7 0.200470 0.500000 0.042225
Si Si8 0.733770 0.000000 0.376764
O O1 0.142335 0.500000 0.819857
O O2 0.232820 0.704043 0.727254
O O3 0.988983 0.635557 0.905361
O O4 0.000000 0.650673 0.000000
O O5 0.222181 0.353745 0.244932
O O6 0.189819 0.396418 0.380830
O O7 0.000000 0.282742 0.500000
O O8 0.715038 0.000000 0.896963
O O9 0.701519 0.899627 0.999089
O O10 0.764242 0.785214 0.849402
O O11 0.128806 0.102707 0.982419
O O12 0.164612 0.000000 0.040582
O O13 0.903621 0.000000 0.230397
O O14 0.097580 0.398556 0.265903
O O15 0.058577 0.500000 0.210933
O O16 0.854288 0.500000 0.485046
#
# Coordination Sequence:
#
# PCOD9188208 Si02
#       8
#     8   8   8   4   4   8   4   4
#     4  10  20  35  58  86 115 145 187 233 281 337
#     4  12  23  35  57  85 123 157 178 224 294 354
#     4   9  18  35  62  86 108 142 193 244 279 324
#     4  10  23  34  58  87 108 146 198 244 272 322
#     4  10  21  37  57  78 115 160 186 230 284 334
#     4  10  19  36  57  86 113 147 192 228 282 345
#     4   8  20  39  62  84 102 155 195 238 290 313
#     4  12  23  37  56  85 124 148 190 228 284 349
#
# _framework density 17.104189000000002
#
# number of rings (size 3 to 8) (size 9 to 14) (size 15 to 20)
#    0.500    1.500    3.333    2.250    0.000    3.667 
#    0.000    0.000    3.667    3.000    0.000    0.000 
#    0.000    0.000    0.000    0.000    0.000    0.000 
#
# Total GULP energy -133749.008831 kJ/mol
# GULP energy per Si atom -5572.875368 kJ/mol
# Density = 1.706526 g / cm^3
# Si number density = 17.104189 Si / 1000 Ang^3
#
#
#
# Elastic Constant Matrix: (Units=GPa)
#
#
# Indices 1 2 3 4 5 6 
#
# 1 62.4467 8.8391 22.2037 -0.0042 -1.7335 -0.0035
# 2 8.8391 97.8450 36.9097 -0.0030 -11.8298 -0.0014
# 3 22.2037 36.9097 110.3696 -0.0088 -16.6377 -0.0058
# 4 -0.0042 -0.0030 -0.0088 14.4034 0.0008 4.8677
# 5 -1.7335 -11.8298 -16.6377 0.0008 24.9938 0.0001
# 6 -0.0035 -0.0014 -0.0058 4.8677 0.0001 18.7560
#
#
#
# Elastic Compliance Matrix: (Units=1/GPa)
#
#
# Indices 1 2 3 4 5 6 
#
# 1 0.017294 -0.000385 -0.003554 0.000002 -0.001348 0.000002
# 2 -0.000385 0.011948 -0.003412 0.000000 0.003357 0.000000
# 3 -0.003554 -0.003412 0.011822 0.000005 0.006008 0.000002
# 4 0.000002 0.000000 0.000005 0.076103 0.000001 -0.019751
# 5 -0.001348 0.003357 0.006008 0.000001 0.045505 0.000001
# 6 0.000002 0.000000 0.000002 -0.019751 0.000001 0.058442
#
#
# Mechanical properties :
#
#
# Convention : Reuss Voigt Hill
#
# Bulk Modulus (GPa) = 37.93181 45.17404 41.55292
# Shear Modulus (GPa) = 20.44120 25.14455 22.79288
#
# Velocity S-wave (km/s) = 3.46077 3.83832 3.65443
# Velocity P-wave (km/s) = 6.18015 6.79059 6.49255
#
# Compressibility (1/GPa) = 0.02636310
#
# Stress axis : x y z
#
# Youngs Moduli (GPa) = 57.82258 83.69567 84.58656
#
# Poissons Ratio (x) = 0.03220 0.30060
# Poissons Ratio (y) = 0.02225 0.28863
# Poissons Ratio (z) = 0.20549 0.28559
#
# Static dielectric constant tensor:
#      x y z
#    x 1.589790 0.000000 0.005000 
#    y 0.000000 1.601680 0.000000 
#    z 0.005000 0.000000 1.565620 
# 
# From -- ./inp_files/369287.got.cif
#   From: 2010.05.17/outbox.cif.g08.bks.cpg/sg12_185_cif.got.tgz:369287.got - 2010.06.03 13:09:07.
