data_PCOD9188517
_publ_section_title
;
Structure prediction by ZEFSAII (Michael W. Deem and Ramdas Pophale) SiO2 
 PCOD9188517
Probable space group: C 2/M
;
_chemical_formula_sum "Si O2"
_cell_formula_units_Z 40
_cell_length_a 16.521521
_cell_length_b 25.633658
_cell_length_c 5.277148
_cell_angle_alpha 90.000000
_cell_angle_beta 70.789969
_cell_angle_gamma 90.000000
_cell_volume 2110.466746
_symmetry_space_group_name_H-M "C 2/M"
_symmetry_group_IT_number 12
_symmetry_cell_setting 'monoclinic'
loop_
_space_group_symop_operation_xyz
x,y,z
-x,y,-z
-x,-y,-z
x,-y,z
1/2+x,1/2+y,z
1/2-x,1/2+y,-z
1/2-x,1/2-y,-z
1/2+x,1/2-y,z
loop_
_atom_site_type_symbol
_atom_site_label
_atom_site_fract_x
_atom_site_fract_y
_atom_site_fract_z
Si Si1 0.257769 0.689990 0.426847
Si Si2 0.683813 0.404264 0.343110
Si Si3 0.406423 0.874391 0.549105
Si Si4 0.869658 0.559363 0.089478
Si Si5 0.400266 0.623148 0.076037
O O1 0.250000 0.750000 0.500000
O O2 0.276274 0.653999 0.654703
O O3 0.171037 0.666602 0.395910
O O4 0.339827 0.674319 0.170844
O O5 0.631844 0.412393 0.656003
O O6 0.766569 0.439765 0.229342
O O7 0.623708 0.403361 0.162905
O O8 0.500000 0.850380 0.500000
O O9 0.388375 0.912248 0.805036
O O10 0.406374 0.908173 0.289835
O O11 0.900048 0.500000 0.057553
O O12 0.500000 0.634760 0.000000
#
# Coordination Sequence:
#
# PCOD9188517 Si02
#       5
#     8   8   8   8   8
#     4   9  21  39  59  83 118 156 193 240 300 350
#     4   9  19  37  57  83 116 149 190 244 292 345
#     4  11  23  40  57  90 126 157 200 250 295 351
#     4  11  21  39  64  87 118 162 201 244 304 363
#     4  10  19  36  60  83 111 150 194 239 289 349
#
# _framework density 18.953154999999999
#
# number of rings (size 3 to 8) (size 9 to 14) (size 15 to 20)
#    1.200    0.800    2.000    1.800    0.000    3.200 
#    3.600    0.000    0.000    3.600    0.000    0.000 
#    0.000    0.000    0.000    0.000    0.000    0.000 
#
# Total GULP energy -111423.693792 kJ/mol
# GULP energy per Si atom -5571.184690 kJ/mol
# Density = 1.891002 g / cm^3
# Si number density = 18.953155 Si / 1000 Ang^3
#
#
#
# Elastic Constant Matrix: (Units=GPa)
#
#
# Indices 1 2 3 4 5 6 
#
# 1 177.9897 30.2241 39.2885 0.0000 -0.1477 0.0000
# 2 30.2241 67.3740 14.3035 0.0000 6.1874 0.0000
# 3 39.2885 14.3035 96.2480 0.0000 25.6485 0.0000
# 4 0.0000 0.0000 0.0000 9.2796 0.0000 2.3899
# 5 -0.1477 6.1874 25.6485 0.0000 37.0154 0.0000
# 6 0.0000 0.0000 0.0000 2.3899 0.0000 -4.8976
#
#
#
# Elastic Compliance Matrix: (Units=1/GPa)
#
#
# Indices 1 2 3 4 5 6 
#
# 1 0.006737 -0.002612 -0.003048 0.000000 0.002576 0.000000
# 2 -0.002612 0.016382 -0.000780 0.000000 -0.002208 0.000000
# 3 -0.003048 -0.000780 0.014372 0.000000 -0.009841 0.000000
# 4 0.000000 0.000000 0.000000 0.095732 0.000000 0.046714
# 5 0.002576 -0.002208 -0.009841 0.000000 0.034214 0.000000
# 6 0.000000 0.000000 0.000000 0.046714 0.000000 -0.181386
#
#
# Mechanical properties :
#
#
# Convention : Reuss Voigt Hill
#
# Bulk Modulus (GPa) = 40.63059 56.58265 48.60662
# Shear Modulus (GPa) = 700.76776 25.46586 363.11681
#
# Velocity S-wave (km/s) = 19.24940 3.66952 13.85649
# Velocity P-wave (km/s) = 22.70543 6.91900 16.78406
#
# Compressibility (1/GPa) = 0.02461200
#
# Stress axis : x y z
#
# Youngs Moduli (GPa) = 148.43982 61.04082 69.57786
#
# Poissons Ratio (x) = 0.15941 0.21209
# Poissons Ratio (y) = 0.38765 0.05428
# Poissons Ratio (z) = 0.45247 0.04762
#
# Static dielectric constant tensor:
#      x y z
#    x 1.663920 0.000000 -0.016860 
#    y 0.000000 1.630210 0.000000 
#    z -0.016860 0.000000 1.680300 
# 
# From -- ./inp_files/15748.got.cif
#   From: 2010.05.17/outbox.cif.g08.bks.cpg/sg12_8_cif.got.tgz:15748.got - 2010.06.03 13:09:07.
