data_PCOD9188885
_publ_section_title
;
Structure prediction by ZEFSAII (Michael W. Deem and Ramdas Pophale) SiO2 
 PCOD9188885
Probable space group: C 2/M
;
_chemical_formula_sum "Si O2"
_cell_formula_units_Z 40
_cell_length_a 9.566413
_cell_length_b 15.203313
_cell_length_c 12.563133
_cell_angle_alpha 90.000000
_cell_angle_beta 102.775035
_cell_angle_gamma 90.000000
_cell_volume 1781.965973
_symmetry_space_group_name_H-M "C 2/M"
_symmetry_group_IT_number 12
_symmetry_cell_setting 'monoclinic'
loop_
_space_group_symop_operation_xyz
x,y,z
-x,y,-z
-x,-y,-z
x,-y,z
1/2+x,1/2+y,z
1/2-x,1/2+y,-z
1/2-x,1/2-y,-z
1/2+x,1/2-y,z
loop_
_atom_site_type_symbol
_atom_site_label
_atom_site_fract_x
_atom_site_fract_y
_atom_site_fract_z
Si Si1 0.647188 0.392060 0.470587
Si Si2 0.772491 0.606328 0.274010
Si Si3 0.622733 0.099516 0.097826
Si Si4 0.170314 0.161994 0.024350
Si Si5 0.899703 0.607662 0.668453
O O1 0.500000 0.363067 0.500000
O O2 0.646239 0.500000 0.470318
O O3 0.669904 0.364255 0.352547
O O4 0.782460 0.362663 0.563978
O O5 0.769659 0.500000 0.270094
O O6 0.727961 0.638435 0.150528
O O7 0.936418 0.632246 0.326952
O O8 0.635255 0.139492 0.217120
O O9 0.572348 0.000000 0.110182
O O10 0.500000 0.138183 0.000000
O O11 0.768999 0.097711 0.056600
O O12 0.250000 0.250000 0.000000
O O13 0.000000 0.164031 0.000000
O O14 0.892553 0.500000 0.664352
#
# Coordination Sequence:
#
# PCOD9188885 Si02
#       5
#     8   8   8   8   8
#     4   9  18  31  52  90 129 155 190 245 300 349
#     4  10  20  37  62  91 121 157 201 245 298 361
#     4  10  19  36  62  92 121 153 197 249 303 364
#     4  12  27  42  59  85 118 163 203 254 306 365
#     4   9  17  31  57  88 122 157 188 235 294 356
#
# _framework density 22.447118
#
# number of rings (size 3 to 8) (size 9 to 14) (size 15 to 20)
#    0.000    2.000    2.000    1.800    2.800    4.000 
#    0.000    0.000    0.000    1.200    0.000    0.000 
#    0.000    0.000    0.000    0.000    0.000    0.000 
#
# Total GULP energy -111722.571709 kJ/mol
# GULP energy per Si atom -5586.128585 kJ/mol
# Density = 2.239603 g / cm^3
# Si number density = 22.447118 Si / 1000 Ang^3
#
#
#
# Elastic Constant Matrix: (Units=GPa)
#
#
# Indices 1 2 3 4 5 6 
#
# 1 172.1320 8.2881 64.8194 0.0000 -19.6800 0.0000
# 2 8.2881 24.4606 7.3570 0.0000 -2.6661 0.0000
# 3 64.8194 7.3570 139.3625 0.0000 -32.7098 0.0000
# 4 0.0000 0.0000 0.0000 -5.0814 0.0000 3.2477
# 5 -19.6800 -2.6661 -32.7098 0.0000 42.5701 0.0000
# 6 0.0000 0.0000 0.0000 3.2477 0.0000 8.1843
#
#
#
# Elastic Compliance Matrix: (Units=1/GPa)
#
#
# Indices 1 2 3 4 5 6 
#
# 1 0.007119 -0.001405 -0.003032 0.000000 0.000873 0.000000
# 2 -0.001405 0.041863 -0.001334 0.000000 0.000947 0.000000
# 3 -0.003032 -0.001334 0.010135 0.000000 0.006303 0.000000
# 4 0.000000 0.000000 0.000000 -0.156982 0.000000 0.062293
# 5 0.000873 0.000947 0.006303 0.000000 0.028797 0.000000
# 6 0.000000 0.000000 0.000000 0.062293 0.000000 0.097465
#
#
# Mechanical properties :
#
#
# Convention : Reuss Voigt Hill
#
# Bulk Modulus (GPa) = 21.01957 55.20936 38.11446
# Shear Modulus (GPa) = 89.61064 26.16731 57.88897
#
# Velocity S-wave (km/s) = 6.32514 3.41798 5.08380
# Velocity P-wave (km/s) = 7.92008 6.34236 7.17472
#
# Compressibility (1/GPa) = 0.04757470
#
# Stress axis : x y z
#
# Youngs Moduli (GPa) = 140.47523 23.88768 98.66404
#
# Poissons Ratio (x) = 0.03356 0.29913
# Poissons Ratio (y) = 0.19737 0.13163
# Poissons Ratio (z) = 0.42590 0.03187
#
# Static dielectric constant tensor:
#      x y z
#    x 1.810910 0.000000 -0.022950 
#    y 0.000000 1.860990 0.000000 
#    z -0.022950 0.000000 1.804620 
# 
# From -- ./inp_files/119065.got.cif
#   From: 2010.05.17/outbox.cif.g08.bks.cpg/sg12_60_cif.got.tgz:119065.got - 2010.06.03 13:09:07.
