data_PCOD9188966
_publ_section_title
;
Structure prediction by ZEFSAII (Michael W. Deem and Ramdas Pophale) SiO2 
 PCOD9188966
Probable space group: C 2/M
;
_chemical_formula_sum "Si O2"
_cell_formula_units_Z 48
_cell_length_a 8.777818
_cell_length_b 29.540455
_cell_length_c 8.707430
_cell_angle_alpha 90.000000
_cell_angle_beta 82.951098
_cell_angle_gamma 90.000000
_cell_volume 2240.777735
_symmetry_space_group_name_H-M "C 2/M"
_symmetry_group_IT_number 12
_symmetry_cell_setting 'monoclinic'
loop_
_space_group_symop_operation_xyz
x,y,z
-x,y,-z
-x,-y,-z
x,-y,z
1/2+x,1/2+y,z
1/2-x,1/2+y,-z
1/2-x,1/2-y,-z
1/2+x,1/2-y,z
loop_
_atom_site_type_symbol
_atom_site_label
_atom_site_fract_x
_atom_site_fract_y
_atom_site_fract_z
Si Si1 0.896980 0.049892 0.660084
Si Si2 0.698686 0.130866 0.616413
Si Si3 0.347149 0.869576 0.744979
Si Si4 0.708220 0.720775 0.852392
Si Si5 0.133033 0.947064 0.855247
Si Si6 0.917891 0.211655 0.674249
O O1 0.752215 0.080102 0.646749
O O2 0.000000 0.042919 0.500000
O O3 0.023027 0.075821 0.743300
O O4 0.857458 0.000000 0.729365
O O5 0.701883 0.135179 0.429805
O O6 0.529850 0.136082 0.707644
O O7 0.816201 0.166193 0.677900
O O8 0.276292 0.829318 0.854011
O O9 0.283838 0.916032 0.829918
O O10 0.802004 0.746831 0.708566
O O11 0.537080 0.715154 0.802894
O O12 0.750000 0.750000 0.000000
O O13 0.172282 0.000000 0.816475
O O14 0.000000 0.948631 0.000000
O O15 0.000000 0.214970 0.500000
#
# Coordination Sequence:
#
# PCOD9188966 Si02
#       6
#     8   8   8   8   8   8
#     4  10  19  36  63  97 133 172 226 280 330 397
#     4  11  23  40  67 101 134 178 229 287 340 406
#     4  11  24  42  66 100 139 175 228 283 347 408
#     4  12  27  44  66 100 136 177 232 290 346 406
#     4  10  22  42  68  97 135 180 224 274 340 414
#     4  12  24  44  70  94 132 185 236 280 341 417
#
# _framework density 21.421136000000001
#
# number of rings (size 3 to 8) (size 9 to 14) (size 15 to 20)
#    0.000    1.000    3.333    3.500    2.333    3.333 
#    0.000    4.167    0.000    3.000    0.000    0.000 
#    0.000    0.000    0.000    0.000    0.000    0.000 
#
# Total GULP energy -133698.612602 kJ/mol
# GULP energy per Si atom -5570.775525 kJ/mol
# Density = 2.137238 g / cm^3
# Si number density = 21.421136 Si / 1000 Ang^3
#
#
#
# Elastic Constant Matrix: (Units=GPa)
#
#
# Indices 1 2 3 4 5 6 
#
# 1 133.5543 62.9952 45.3885 0.0000 6.0142 0.0000
# 2 62.9952 130.0586 19.9638 0.0000 0.0816 0.0000
# 3 45.3885 19.9638 57.6182 0.0000 3.1190 0.0000
# 4 0.0000 0.0000 0.0000 29.9019 0.0000 -5.6488
# 5 6.0142 0.0816 3.1190 0.0000 22.9983 0.0000
# 6 0.0000 0.0000 0.0000 -5.6488 0.0000 46.4481
#
#
#
# Elastic Compliance Matrix: (Units=1/GPa)
#
#
# Indices 1 2 3 4 5 6 
#
# 1 0.012662 -0.004878 -0.008166 0.000000 -0.002186 0.000000
# 2 -0.004878 0.010003 0.000312 0.000000 0.001198 0.000000
# 3 -0.008166 0.000312 0.023739 0.000000 -0.001085 0.000000
# 4 0.000000 0.000000 0.000000 0.034229 0.000000 0.004163
# 5 -0.002186 0.001198 -0.001085 0.000000 0.044196 0.000000
# 6 0.000000 0.000000 0.000000 0.004163 0.000000 0.022036
#
#
# Mechanical properties :
#
#
# Convention : Reuss Voigt Hill
#
# Bulk Modulus (GPa) = 47.75576 64.21401 55.98488
# Shear Modulus (GPa) = 27.88472 32.72857 30.30664
#
# Velocity S-wave (km/s) = 3.61188 3.91303 3.76546
# Velocity P-wave (km/s) = 6.30368 7.10336 6.71543
#
# Compressibility (1/GPa) = 0.02093988
#
# Stress axis : x y z
#
# Youngs Moduli (GPa) = 78.97463 99.96982 42.12468
#
# Poissons Ratio (x) = 0.48768 0.34399
# Poissons Ratio (y) = 0.38526 -0.01315
# Poissons Ratio (z) = 0.64491 -0.03120
#
# Static dielectric constant tensor:
#      x y z
#    x 1.841920 0.000000 -0.030930 
#    y 0.000000 1.800390 0.000000 
#    z -0.030930 0.000000 1.864740 
# 
# From -- ./inp_files/42221.got.cif
#   From: 2010.05.17/outbox.cif.g08.bks.cpg/sg12_22_cif.got.tgz:42221.got - 2010.06.03 13:09:07.
