data_PCOD9188129
_publ_section_title
;
Structure prediction by ZEFSAII (Michael W. Deem and Ramdas Pophale) SiO2 
 PCOD9188129
Probable space group: C 2/M
;
_chemical_formula_sum "Si O2"
_cell_formula_units_Z 40
_cell_length_a 11.625744
_cell_length_b 25.508805
_cell_length_c 5.110656
_cell_angle_alpha 90.000000
_cell_angle_beta 80.858080
_cell_angle_gamma 90.000000
_cell_volume 1496.358656
_symmetry_space_group_name_H-M "C 2/M"
_symmetry_group_IT_number 12
_symmetry_cell_setting 'monoclinic'
loop_
_space_group_symop_operation_xyz
x,y,z
-x,y,-z
-x,-y,-z
x,-y,z
1/2+x,1/2+y,z
1/2-x,1/2+y,-z
1/2-x,1/2-y,-z
1/2+x,1/2-y,z
loop_
_atom_site_type_symbol
_atom_site_label
_atom_site_fract_x
_atom_site_fract_y
_atom_site_fract_z
Si Si1 0.402143 0.216868 0.348677
Si Si2 0.159757 0.500000 0.688017
Si Si3 0.194624 0.000000 0.880571
Si Si4 0.892071 0.901621 0.358758
Si Si5 0.661769 0.114719 0.791826
Si Si6 0.703769 0.309374 0.840590
O O1 0.500000 0.241239 0.500000
O O2 0.433562 0.157337 0.260916
O O3 0.359378 0.251848 0.115372
O O4 0.293428 0.204872 0.577851
O O5 0.194250 0.500000 0.366255
O O6 0.107703 0.555927 0.803075
O O7 0.275539 0.500000 0.826913
O O8 0.126334 0.947869 0.837604
O O9 0.771000 0.896323 0.560236
O O10 0.901340 0.845104 0.226032
O O11 0.000000 0.913228 0.500000
O O12 0.728478 0.149434 0.993772
#
# Coordination Sequence:
#
# PCOD9188129 Si02
#       6
#     8   4   4   8   8   8
#     4  10  22  39  61  88 118 155 202 254 307 369
#     4  10  20  38  64  89 124 170 208 259 314 372
#     4  10  19  36  56  88 129 169 213 255 310 370
#     4  10  20  34  54  87 124 163 205 251 303 371
#     4  10  21  38  59  87 119 163 202 254 310 367
#     4  10  20  38  60  85 121 154 199 250 311 368
#
# _framework density 26.731560999999999
#
# number of rings (size 3 to 8) (size 9 to 14) (size 15 to 20)
#    0.000    2.000    2.000    1.500    0.000    1.600 
#    0.000    4.500    0.000    1.200    0.000    0.000 
#    0.000    0.000    0.000    0.000    0.000    0.000 
#
# Total GULP energy -111421.675477 kJ/mol
# GULP energy per Si atom -5571.083774 kJ/mol
# Density = 2.667072 g / cm^3
# Si number density = 26.731561 Si / 1000 Ang^3
#
#
#
# Elastic Constant Matrix: (Units=GPa)
#
#
# Indices 1 2 3 4 5 6 
#
# 1 54.2330 -9.7185 9.6231 0.0000 -20.4680 0.0000
# 2 -9.7185 225.6919 20.2302 0.0000 -3.9063 0.0000
# 3 9.6231 20.2302 79.3534 0.0000 -3.8764 0.0000
# 4 0.0000 0.0000 0.0000 79.2204 0.0000 20.7465
# 5 -20.4680 -3.9063 -3.8764 0.0000 44.0281 0.0000
# 6 0.0000 0.0000 0.0000 20.7465 0.0000 1.3448
#
#
#
# Elastic Compliance Matrix: (Units=1/GPa)
#
#
# Indices 1 2 3 4 5 6 
#
# 1 0.023193 0.001421 -0.002654 0.000000 0.010675 0.000000
# 2 0.001421 0.004626 -0.001305 0.000000 0.000956 0.000000
# 3 -0.002654 -0.001305 0.013247 0.000000 -0.000183 0.000000
# 4 0.000000 0.000000 0.000000 -0.004152 0.000000 0.064056
# 5 0.010675 0.000956 -0.000183 0.000000 0.027744 0.000000
# 6 0.000000 0.000000 0.000000 0.064056 0.000000 -0.244597
#
#
# Mechanical properties :
#
#
# Convention : Reuss Voigt Hill
#
# Bulk Modulus (GPa) = 27.78397 44.39421 36.08909
# Shear Modulus (GPa) = -30.69979 47.52822 8.41421
#
# Velocity S-wave (km/s) = -3.39255 4.22119 1.77609
# Velocity P-wave (km/s) = 2.22027 6.35621 4.21140
#
# Compressibility (1/GPa) = 0.03599198
#
# Stress axis : x y z
#
# Youngs Moduli (GPa) = 43.11612 216.19107 75.48667
#
# Poissons Ratio (x) = -0.30728 0.20030
# Poissons Ratio (y) = -0.06128 0.09850
# Poissons Ratio (z) = 0.11441 0.28210
#
# Static dielectric constant tensor:
#      x y z
#    x 2.077120 0.000000 -0.012360 
#    y 0.000000 2.220030 0.000000 
#    z -0.012360 0.000000 2.150000 
# 
# From -- ./inp_files/7746.got.cif
#   From: 2010.05.17/outbox.cif.g08.bks.cpg/sg12_4_cif.got.tgz:7746.got - 2010.06.03 13:09:07.
