data_PCOD9188469
_publ_section_title
;
Structure prediction by ZEFSAII (Michael W. Deem and Ramdas Pophale) SiO2 
 PCOD9188469
Probable space group: C 2/M
;
_chemical_formula_sum "Si O2"
_cell_formula_units_Z 50
_cell_length_a 20.411469
_cell_length_b 7.526228
_cell_length_c 18.392243
_cell_angle_alpha 90.000000
_cell_angle_beta 127.086520
_cell_angle_gamma 90.000000
_cell_volume 2253.927694
_symmetry_space_group_name_H-M "C 2/M"
_symmetry_group_IT_number 12
_symmetry_cell_setting 'monoclinic'
loop_
_space_group_symop_operation_xyz
x,y,z
-x,y,-z
-x,-y,-z
x,-y,z
1/2+x,1/2+y,z
1/2-x,1/2+y,-z
1/2-x,1/2-y,-z
1/2+x,1/2-y,z
loop_
_atom_site_type_symbol
_atom_site_label
_atom_site_fract_x
_atom_site_fract_y
_atom_site_fract_z
Si Si1 0.465092 0.289569 0.246712
Si Si2 0.544120 0.784775 0.456024
Si Si3 0.271044 0.787699 0.431128
Si Si4 0.117979 0.795812 0.076706
Si Si5 0.610982 0.283165 0.240361
Si Si6 0.720089 0.711622 0.898343
Si Si7 0.500000 0.000000 0.000000
O O1 0.459561 0.500000 0.228050
O O2 0.499594 0.267490 0.351427
O O3 0.533353 0.219653 0.235631
O O4 0.372467 0.218826 0.176378
O O5 0.500000 0.725450 0.500000
O O6 0.637735 0.718909 0.521295
O O7 0.545168 0.000000 0.456663
O O8 0.250000 0.750000 0.500000
O O9 0.195795 0.719606 0.332939
O O10 0.273738 0.000000 0.421635
O O11 0.112926 0.734590 0.157354
O O12 0.210415 0.784022 0.109151
O O13 0.091975 0.000000 0.051309
O O14 0.057234 0.656768 0.999425
O O15 0.610440 0.500000 0.242394
O O16 0.718524 0.500000 0.886581
O O17 0.750000 0.750000 0.000000
#
# Coordination Sequence:
#
# PCOD9188469 Si02
#       7
#     8   8   8   8   8   8   2
#     4  10  22  41  64  90 127 169 217 271 326 393
#     4  10  22  37  57  89 126 166 214 266 325 393
#     4  10  19  36  59  88 123 164 214 268 320 388
#     4  11  25  46  72 102 135 180 218 276 350 398
#     4   9  20  39  64  92 128 171 218 268 333 403
#     4  11  25  45  67  99 135 174 226 280 336 407
#     4  12  26  48  72 102 140 162 238 288 320 418
#
# _framework density 22.183496999999999
#
# number of rings (size 3 to 8) (size 9 to 14) (size 15 to 20)
#    0.000    1.760    2.400    0.720    4.480    1.600 
#    2.880    0.000    0.000    0.000    0.000    0.000 
#    0.000    0.000    0.000    0.000    0.000    0.000 
#
# Total GULP energy -139498.647114 kJ/mol
# GULP energy per Si atom -5579.945885 kJ/mol
# Density = 2.213301 g / cm^3
# Si number density = 22.183497 Si / 1000 Ang^3
#
#
#
# Elastic Constant Matrix: (Units=GPa)
#
#
# Indices 1 2 3 4 5 6 
#
# 1 243.6120 13.3906 105.5240 0.0000 21.1020 0.0000
# 2 13.3906 89.3636 7.4315 0.0000 10.8699 0.0000
# 3 105.5240 7.4315 138.3994 0.0000 16.3778 0.0000
# 4 0.0000 0.0000 0.0000 9.4360 0.0000 -5.9309
# 5 21.1020 10.8699 16.3778 0.0000 46.5563 0.0000
# 6 0.0000 0.0000 0.0000 -5.9309 0.0000 20.0719
#
#
#
# Elastic Compliance Matrix: (Units=1/GPa)
#
#
# Indices 1 2 3 4 5 6 
#
# 1 0.006207 -0.000415 -0.004580 0.000000 -0.001106 0.000000
# 2 -0.000415 0.011558 -0.000008 0.000000 -0.002508 0.000000
# 3 -0.004580 -0.000008 0.010927 0.000000 -0.001766 0.000000
# 4 0.000000 0.000000 0.000000 0.130149 0.000000 0.038457
# 5 -0.001106 -0.002508 -0.001766 0.000000 0.023187 0.000000
# 6 0.000000 0.000000 0.000000 0.038457 0.000000 0.061184
#
#
# Mechanical properties :
#
#
# Convention : Reuss Voigt Hill
#
# Bulk Modulus (GPa) = 53.51049 80.45193 66.98121
# Shear Modulus (GPa) = 19.27181 38.21477 28.74329
#
# Velocity S-wave (km/s) = 2.95065 4.15500 3.60350
# Velocity P-wave (km/s) = 5.98185 7.70481 6.89734
#
# Compressibility (1/GPa) = 0.01868792
#
# Stress axis : x y z
#
# Youngs Moduli (GPa) = 161.10362 86.51962 91.51915
#
# Poissons Ratio (x) = 0.03589 0.41912
# Poissons Ratio (y) = 0.06682 0.00069
# Poissons Ratio (z) = 0.73779 0.00066
#
# Static dielectric constant tensor:
#      x y z
#    x 1.787590 0.000000 0.013710 
#    y 0.000000 1.910130 0.000000 
#    z 0.013710 0.000000 1.803790 
# 
# From -- ./inp_files/275753.got.cif
#   From: 2010.05.17/outbox.cif.g08.bks.cpg/sg12_138_cif.got.tgz:275753.got - 2010.06.03 13:09:07.
