data_PCOD9188785
_publ_section_title
;
Structure prediction by ZEFSAII (Michael W. Deem and Ramdas Pophale) SiO2 
 PCOD9188785
Probable space group: C 2/M
;
_chemical_formula_sum "Si O2"
_cell_formula_units_Z 56
_cell_length_a 25.835086
_cell_length_b 7.834049
_cell_length_c 15.009171
_cell_angle_alpha 90.000000
_cell_angle_beta 120.619506
_cell_angle_gamma 90.000000
_cell_volume 2614.197743
_symmetry_space_group_name_H-M "C 2/M"
_symmetry_group_IT_number 12
_symmetry_cell_setting 'monoclinic'
loop_
_space_group_symop_operation_xyz
x,y,z
-x,y,-z
-x,-y,-z
x,-y,z
1/2+x,1/2+y,z
1/2-x,1/2+y,-z
1/2-x,1/2-y,-z
1/2+x,1/2-y,z
loop_
_atom_site_type_symbol
_atom_site_label
_atom_site_fract_x
_atom_site_fract_y
_atom_site_fract_z
Si Si1 0.460283 0.700550 0.385384
Si Si2 0.497829 0.709161 0.223835
Si Si3 0.228688 0.205325 0.079575
Si Si4 0.386679 0.706515 0.774682
Si Si5 0.752036 0.301948 0.604684
Si Si6 0.326510 0.197819 0.305423
Si Si7 0.405329 0.291401 0.990734
O O1 0.500000 0.776838 0.500000
O O2 0.475836 0.500000 0.393336
O O3 0.475149 0.770168 0.300101
O O4 0.390504 0.715202 0.349148
O O5 0.496006 0.500000 0.221627
O O6 0.565857 0.759401 0.259089
O O7 0.454256 0.765935 0.105345
O O8 0.276661 0.270460 0.193606
O O9 0.161162 0.265854 0.038311
O O10 0.226701 0.000000 0.087441
O O11 0.250000 0.250000 0.000000
O O12 0.383328 0.500000 0.771701
O O13 0.319252 0.769610 0.700120
O O14 0.412293 0.759022 0.893825
O O15 0.737659 0.500000 0.599115
O O16 0.750000 0.250000 0.500000
O O17 0.703272 0.208978 0.623567
O O18 0.336395 0.000000 0.291498
O O19 0.407006 0.500000 0.993204
#
# Coordination Sequence:
#
# PCOD9188785 Si02
#       7
#     8   8   8   8   8   8   8
#     4  10  22  39  59  88 122 162 210 253 299 363
#     4   9  18  32  57  88 121 162 205 248 297 356
#     4  10  20  34  56  86 122 160 202 250 301 360
#     4  10  19  36  61  90 121 156 203 253 301 360
#     4  12  26  43  65  92 122 160 203 253 311 370
#     4  11  23  42  64  91 123 161 205 255 310 363
#     4   9  16  31  54  84 119 155 199 247 297 353
#
# _framework density 21.421486000000002
#
# number of rings (size 3 to 8) (size 9 to 14) (size 15 to 20)
#    0.000    1.857    1.429    3.000    2.000    4.286 
#    0.000    0.714    0.000    2.571    0.000    0.000 
#    0.000    0.000    0.000    0.000    0.000    0.000 
#
# Total GULP energy -156466.236652 kJ/mol
# GULP energy per Si atom -5588.079880 kJ/mol
# Density = 2.137273 g / cm^3
# Si number density = 21.421486 Si / 1000 Ang^3
#
#
#
# Elastic Constant Matrix: (Units=GPa)
#
#
# Indices 1 2 3 4 5 6 
#
# 1 133.0971 -13.4922 40.5701 0.0000 -14.8874 0.0000
# 2 -13.4922 25.4638 0.5925 0.0000 3.1601 0.0000
# 3 40.5701 0.5925 90.4844 0.0000 -21.9178 0.0000
# 4 0.0000 0.0000 0.0000 9.3557 0.0000 0.4969
# 5 -14.8874 3.1601 -21.9178 0.0000 34.7020 0.0000
# 6 0.0000 0.0000 0.0000 0.4969 0.0000 22.9997
#
#
#
# Elastic Compliance Matrix: (Units=1/GPa)
#
#
# Indices 1 2 3 4 5 6 
#
# 1 0.009337 0.004908 -0.003963 0.000000 0.001056 0.000000
# 2 0.004908 0.042439 -0.003429 0.000000 -0.003925 0.000000
# 3 -0.003963 -0.003429 0.014775 0.000000 0.007944 0.000000
# 4 0.000000 0.000000 0.000000 0.107010 0.000000 -0.002312
# 5 0.001056 -0.003925 0.007944 0.000000 0.034645 0.000000
# 6 0.000000 0.000000 0.000000 -0.002312 0.000000 0.043529
#
#
# Mechanical properties :
#
#
# Convention : Reuss Voigt Hill
#
# Bulk Modulus (GPa) = 16.23809 33.82067 25.02938
# Shear Modulus (GPa) = 18.03559 28.16981 23.10270
#
# Velocity S-wave (km/s) = 2.90477 3.63026 3.28759
# Velocity P-wave (km/s) = 4.34131 5.77877 5.11083
#
# Compressibility (1/GPa) = 0.06158360
#
# Stress axis : x y z
#
# Youngs Moduli (GPa) = 107.10224 23.56323 67.68113
#
# Poissons Ratio (x) = -0.11566 0.26820
# Poissons Ratio (y) = -0.52570 0.23210
# Poissons Ratio (z) = 0.42442 0.08081
#
# Static dielectric constant tensor:
#      x y z
#    x 1.720450 0.000000 -0.000050 
#    y 0.000000 1.780070 0.000000 
#    z -0.000050 0.000000 1.756380 
# 
# From -- ./inp_files/239004.got.cif
#   From: 2010.05.17/outbox.cif.g08.bks.cpg/sg12_120_cif.got.tgz:239004.got - 2010.06.03 13:09:07.
