data_PCOD9188171
_publ_section_title
;
Structure prediction by ZEFSAII (Michael W. Deem and Ramdas Pophale) SiO2 
 PCOD9188171
Probable space group: C 2/M
;
_chemical_formula_sum "Si O2"
_cell_formula_units_Z 40
_cell_length_a 18.220324
_cell_length_b 13.532054
_cell_length_c 15.419673
_cell_angle_alpha 90.000000
_cell_angle_beta 24.071465
_cell_angle_gamma 90.000000
_cell_volume 1550.682589
_symmetry_space_group_name_H-M "C 2/M"
_symmetry_group_IT_number 12
_symmetry_cell_setting 'monoclinic'
loop_
_space_group_symop_operation_xyz
x,y,z
-x,y,-z
-x,-y,-z
x,-y,z
1/2+x,1/2+y,z
1/2-x,1/2+y,-z
1/2-x,1/2-y,-z
1/2+x,1/2-y,z
loop_
_atom_site_type_symbol
_atom_site_label
_atom_site_fract_x
_atom_site_fract_y
_atom_site_fract_z
Si Si1 0.227592 0.865178 0.511627
Si Si2 0.385326 0.694994 0.786801
Si Si3 0.906826 0.391864 0.495798
Si Si4 0.626290 0.394025 0.945430
Si Si5 0.555804 0.167132 0.040575
O O1 0.250000 0.750000 0.500000
O O2 0.261507 0.900097 0.572922
O O3 0.036439 0.874537 0.668981
O O4 0.401222 0.886182 0.263598
O O5 0.491262 0.789541 0.633289
O O6 0.255808 0.638986 0.857971
O O7 0.250000 0.750000 0.000000
O O8 0.997683 0.500000 0.389667
O O9 0.813545 0.384419 0.690188
O O10 0.621316 0.500000 0.999324
O O11 0.570481 0.286826 0.041502
O O12 0.500000 0.404786 0.000000
O O13 0.500000 0.155359 0.000000
#
# Coordination Sequence:
#
# PCOD9188171 Si02
#       5
#     8   8   8   8   8
#     4  10  19  36  57  79 114 151 199 241 279 337
#     4  11  21  35  59  85 116 154 201 241 285 348
#     4  10  21  38  60  86 122 159 194 242 291 350
#     4   9  18  31  51  82 120 155 182 219 287 352
#     4  11  21  34  57  84 117 154 193 240 289 343
#
# _framework density 25.795092
#
# number of rings (size 3 to 8) (size 9 to 14) (size 15 to 20)
#    0.000    1.800    4.000    4.800    0.000    4.000 
#    0.000    3.000    0.000    0.600    0.000    1.400 
#    0.000    0.000    0.000    0.000    0.000    0.000 
#
# Total GULP energy -111461.020566 kJ/mol
# GULP energy per Si atom -5573.051028 kJ/mol
# Density = 2.573638 g / cm^3
# Si number density = 25.795092 Si / 1000 Ang^3
#
#
#
# Elastic Constant Matrix: (Units=GPa)
#
#
# Indices 1 2 3 4 5 6 
#
# 1 199.3576 17.7824 48.6479 -0.0004 -38.3883 0.0001
# 2 17.7824 89.9523 21.7953 0.0001 10.4606 -0.0001
# 3 48.6479 21.7953 133.7630 -0.0001 -22.1302 0.0004
# 4 -0.0004 0.0001 -0.0001 -4.5970 0.0001 -6.1541
# 5 -38.3883 10.4606 -22.1302 0.0001 66.4653 0.0000
# 6 0.0001 -0.0001 0.0004 -6.1541 0.0000 11.4203
#
#
#
# Elastic Compliance Matrix: (Units=1/GPa)
#
#
# Indices 1 2 3 4 5 6 
#
# 1 0.006110 -0.001222 -0.001489 0.000000 0.003225 0.000000
# 2 -0.001222 0.012256 -0.002104 0.000000 -0.003335 0.000000
# 3 -0.001489 -0.002104 0.008755 0.000000 0.002386 0.000000
# 4 0.000000 0.000000 0.000000 -0.126370 0.000000 -0.068098
# 5 0.003225 -0.003335 0.002386 0.000000 0.018228 0.000000
# 6 0.000000 0.000000 0.000000 -0.068098 0.000000 0.050868
#
#
# Mechanical properties :
#
#
# Convention : Reuss Voigt Hill
#
# Bulk Modulus (GPa) = 57.17650 66.61379 61.89515
# Shear Modulus (GPa) = -340.31459 36.98086 -151.66687
#
# Velocity S-wave (km/s) = -11.49854 3.79045 -7.67623
# Velocity P-wave (km/s) = 12.41268 6.71096 7.38369
#
# Compressibility (1/GPa) = 0.01748970
#
# Stress axis : x y z
#
# Youngs Moduli (GPa) = 163.67772 81.59024 114.21767
#
# Poissons Ratio (x) = 0.09970 0.17010
# Poissons Ratio (y) = 0.20001 0.24037
# Poissons Ratio (z) = 0.24376 0.17170
#
# Static dielectric constant tensor:
#      x y z
#    x 2.129790 0.000000 -0.162320 
#    y 0.000000 2.057920 0.000000 
#    z -0.162320 0.000000 2.287970 
# 
# From -- ./inp_files/284917.got.cif
#   From: 2010.05.17/outbox.cif.g08.bks.cpg/sg12_143_cif.got.tgz:284917.got - 2010.06.03 13:09:07.
