data_PCOD9188566
_publ_section_title
;
Structure prediction by ZEFSAII (Michael W. Deem and Ramdas Pophale) SiO2 
 PCOD9188566
Probable space group: C 2/M
;
_chemical_formula_sum "Si O2"
_cell_formula_units_Z 48
_cell_length_a 24.339232
_cell_length_b 9.268746
_cell_length_c 11.643519
_cell_angle_alpha 90.000000
_cell_angle_beta 67.512009
_cell_angle_gamma 90.000000
_cell_volume 2426.974128
_symmetry_space_group_name_H-M "C 2/M"
_symmetry_group_IT_number 12
_symmetry_cell_setting 'monoclinic'
loop_
_space_group_symop_operation_xyz
x,y,z
-x,y,-z
-x,-y,-z
x,-y,z
1/2+x,1/2+y,z
1/2-x,1/2+y,-z
1/2-x,1/2-y,-z
1/2+x,1/2-y,z
loop_
_atom_site_type_symbol
_atom_site_label
_atom_site_fract_x
_atom_site_fract_y
_atom_site_fract_z
Si Si1 0.732609 0.671244 0.631521
Si Si2 0.558879 0.335992 0.531080
Si Si3 0.891534 0.831314 0.151337
Si Si4 0.608934 0.671302 0.111611
Si Si5 0.823639 0.169875 0.718080
Si Si6 0.016646 0.670612 0.778778
O O1 0.741465 0.500000 0.612457
O O2 0.750000 0.750000 0.500000
O O3 0.664172 0.695769 0.721082
O O4 0.773299 0.734850 0.700195
O O5 0.500000 0.326477 0.500000
O O6 0.561326 0.500000 0.576964
O O7 0.616674 0.315258 0.406584
O O8 0.552750 0.222823 0.637718
O O9 0.946772 0.734122 0.143555
O O10 0.908640 0.000000 0.147079
O O11 0.872628 0.806267 0.034814
O O12 0.596996 0.500000 0.138378
O O13 0.657601 0.711530 0.167871
O O14 0.547893 0.756640 0.178706
O O15 0.806928 0.000000 0.729357
O O16 0.011815 0.500000 0.788579
#
# Coordination Sequence:
#
# PCOD9188566 Si02
#       6
#     8   8   8   8   8   8
#     4  11  24  42  63  89 119 155 198 245 296 351
#     4  10  19  36  60  85 115 155 200 238 283 352
#     4  10  23  42  63  84 114 161 209 243 285 356
#     4  10  21  41  64  86 116 159 204 242 290 358
#     4  10  21  38  63  91 118 153 197 245 295 350
#     4  12  24  36  57  91 127 156 193 250 306 349
#
# _framework density 19.777714
#
# number of rings (size 3 to 8) (size 9 to 14) (size 15 to 20)
#    0.000    1.500    1.667    3.500    0.000   10.333 
#    0.000    0.000    0.000    0.000    0.000    0.000 
#    0.000    0.000    0.000    0.000    0.000    0.000 
#
# Total GULP energy -134209.887962 kJ/mol
# GULP energy per Si atom -5592.078665 kJ/mol
# Density = 1.973270 g / cm^3
# Si number density = 19.777714 Si / 1000 Ang^3
#
#
#
# Elastic Constant Matrix: (Units=GPa)
#
#
# Indices 1 2 3 4 5 6 
#
# 1 93.4374 57.1978 17.5856 0.0000 26.3681 0.0000
# 2 57.1978 77.1593 44.5475 0.0000 11.1473 0.0000
# 3 17.5856 44.5475 82.5497 0.0000 25.7086 0.0000
# 4 0.0000 0.0000 0.0000 15.1057 0.0000 8.9737
# 5 26.3681 11.1473 25.7086 0.0000 28.4256 0.0000
# 6 0.0000 0.0000 0.0000 8.9737 0.0000 28.1130
#
#
#
# Elastic Compliance Matrix: (Units=1/GPa)
#
#
# Indices 1 2 3 4 5 6 
#
# 1 0.050047 -0.047904 0.033128 0.000000 -0.057600 0.000000
# 2 -0.047904 0.064809 -0.042727 0.000000 0.057665 0.000000
# 3 0.033128 -0.042727 0.045196 0.000000 -0.054851 0.000000
# 4 0.000000 0.000000 0.000000 0.081691 0.000000 -0.026076
# 5 -0.057600 0.057665 -0.054851 0.000000 0.115604 0.000000
# 6 0.000000 0.000000 0.000000 -0.026076 0.000000 0.043894
#
#
# Mechanical properties :
#
#
# Convention : Reuss Voigt Hill
#
# Bulk Modulus (GPa) = 22.19990 54.64537 38.42264
# Shear Modulus (GPa) = 9.41153 23.24989 16.33071
#
# Velocity S-wave (km/s) = 2.18380 3.43236 2.87664
# Velocity P-wave (km/s) = 4.19615 6.58771 5.52294
#
# Compressibility (1/GPa) = 0.04504525
#
# Stress axis : x y z
#
# Youngs Moduli (GPa) = 19.98135 15.42998 22.12562
#
# Poissons Ratio (x) = 0.73916 -0.73298
# Poissons Ratio (y) = 0.95719 0.94537
# Poissons Ratio (z) = -0.66195 0.65928
#
# Static dielectric constant tensor:
#      x y z
#    x 1.677210 0.000000 0.020900 
#    y 0.000000 1.658340 0.000000 
#    z 0.020900 0.000000 1.715350 
# 
# From -- ./inp_files/172884.got.cif
#   From: 2010.05.17/outbox.cif.g08.bks.cpg/sg12_87_cif.got.tgz:172884.got - 2010.06.03 13:09:07.
