data_PCOD9188449
_publ_section_title
;
Structure prediction by ZEFSAII (Michael W. Deem and Ramdas Pophale) SiO2 
 PCOD9188449
Probable space group: C 2/M
;
_chemical_formula_sum "Si O2"
_cell_formula_units_Z 58
_cell_length_a 25.068023
_cell_length_b 14.416674
_cell_length_c 17.632157
_cell_angle_alpha 90.000000
_cell_angle_beta 20.763108
_cell_angle_gamma 90.000000
_cell_volume 2258.982836
_symmetry_space_group_name_H-M "C 2/M"
_symmetry_group_IT_number 12
_symmetry_cell_setting 'monoclinic'
loop_
_space_group_symop_operation_xyz
x,y,z
-x,y,-z
-x,-y,-z
x,-y,z
1/2+x,1/2+y,z
1/2-x,1/2+y,-z
1/2-x,1/2-y,-z
1/2+x,1/2-y,z
loop_
_atom_site_type_symbol
_atom_site_label
_atom_site_fract_x
_atom_site_fract_y
_atom_site_fract_z
Si Si1 0.903521 0.603024 0.368933
Si Si2 0.662884 0.694048 0.315886
Si Si3 0.778159 0.612484 0.015745
Si Si4 0.000000 0.000000 0.000000
Si Si5 0.082916 0.169740 0.780327
Si Si6 0.339211 0.099051 0.673495
Si Si7 0.444851 0.867366 0.993992
Si Si8 0.572948 0.395515 0.150219
O O1 0.842424 0.500000 0.464979
O O2 0.760493 0.669102 0.560601
O O3 0.977859 0.598103 0.186204
O O4 0.043820 0.620571 0.239243
O O5 0.500000 0.668127 0.500000
O O6 0.756547 0.684335 0.113049
O O7 0.664274 0.795620 0.351952
O O8 0.763188 0.626365 0.233216
O O9 0.759089 0.500000 0.058148
O O10 0.651987 0.637646 0.122093
O O11 0.984947 0.081794 0.085552
O O12 0.995636 0.260003 0.923089
O O13 0.051335 0.158678 0.732205
O O14 0.500000 0.094259 0.500000
O O15 0.317260 0.000000 0.659899
O O16 0.213853 0.099444 0.905312
O O17 0.500000 0.904776 0.000000
O O18 0.517104 0.500000 0.238165
#
# Coordination Sequence:
#
# PCOD9188449 Si02
#       8
#     8   8   8   2   8   8   8   8
#     4  10  22  44  66  88 125 170 212 256 318 376
#     4  10  21  40  61  87 121 159 202 254 314 367
#     4   9  21  40  61  90 121 157 203 257 307 366
#     4  12  24  40  68  94 132 164 200 258 314 380
#     4  12  22  42  62  93 126 169 208 255 316 377
#     4   9  18  34  53  78 114 152 192 242 303 363
#     4  11  24  42  62  93 129 162 213 265 310 371
#     4  10  19  36  59  86 117 151 198 247 295 362
#
# _framework density 25.675273000000001
#
# number of rings (size 3 to 8) (size 9 to 14) (size 15 to 20)
#    0.000    1.793    3.448    0.414    0.000    2.207 
#    7.448    0.000    0.000    0.000    0.000    0.000 
#    0.000    0.000    0.000    0.000    0.000    0.000 
#
# Total GULP energy -161699.525063 kJ/mol
# GULP energy per Si atom -5575.845692 kJ/mol
# Density = 2.561684 g / cm^3
# Si number density = 25.675273 Si / 1000 Ang^3
#
#
#
# Elastic Constant Matrix: (Units=GPa)
#
#
# Indices 1 2 3 4 5 6 
#
# 1 135.6007 42.5905 10.2255 -0.0001 -19.2001 0.0001
# 2 42.5905 121.8328 32.4954 0.0000 -13.1799 0.0001
# 3 10.2255 32.4954 90.0826 -0.0004 -33.8606 0.0003
# 4 -0.0001 0.0000 -0.0004 19.8263 0.0002 9.7195
# 5 -19.2001 -13.1799 -33.8606 0.0002 33.5635 -0.0001
# 6 0.0001 0.0001 0.0003 9.7195 -0.0001 14.6985
#
#
#
# Elastic Compliance Matrix: (Units=1/GPa)
#
#
# Indices 1 2 3 4 5 6 
#
# 1 0.009102 -0.003158 0.002573 0.000000 0.006562 0.000000
# 2 -0.003158 0.010181 -0.004012 0.000000 -0.001856 0.000000
# 3 0.002573 -0.004012 0.019680 0.000000 0.019750 -0.000001
# 4 0.000000 0.000000 0.000000 0.074632 0.000000 -0.049351
# 5 0.006562 -0.001856 0.019750 0.000000 0.052744 0.000000
# 6 0.000000 0.000000 -0.000001 -0.049351 0.000000 0.100668
#
#
# Mechanical properties :
#
#
# Convention : Reuss Voigt Hill
#
# Bulk Modulus (GPa) = 33.59288 57.57098 45.58193
# Shear Modulus (GPa) = 17.47495 31.09798 24.28647
#
# Velocity S-wave (km/s) = 2.61169 3.48401 3.07890
# Velocity P-wave (km/s) = 4.71240 6.21738 5.51646
#
# Compressibility (1/GPa) = 0.02976822
#
# Stress axis : x y z
#
# Youngs Moduli (GPa) = 109.87066 98.22007 50.81319
#
# Poissons Ratio (x) = 0.31018 -0.13072
# Poissons Ratio (y) = 0.34698 0.20385
# Poissons Ratio (z) = -0.28264 0.39403
#
# Static dielectric constant tensor:
#      x y z
#    x 2.063230 0.000000 -0.032940 
#    y 0.000000 2.033690 0.000000 
#    z -0.032940 0.000000 2.062730 
# 
# From -- ./inp_files/328387.got.cif
#   From: 2010.05.17/outbox.cif.g08.bks.cpg/sg12_165_cif.got.tgz:328387.got - 2010.06.03 13:09:07.
