data_PCOD9188014
_publ_section_title
;
Structure prediction by ZEFSAII (Michael W. Deem and Ramdas Pophale) SiO2 
 PCOD9188014
Probable space group: C 2/M
;
_chemical_formula_sum "Si O2"
_cell_formula_units_Z 44
_cell_length_a 25.608512
_cell_length_b 11.428944
_cell_length_c 9.190646
_cell_angle_alpha 90.000000
_cell_angle_beta 72.830299
_cell_angle_gamma 90.000000
_cell_volume 2570.025628
_symmetry_space_group_name_H-M "C 2/M"
_symmetry_group_IT_number 12
_symmetry_cell_setting 'monoclinic'
loop_
_space_group_symop_operation_xyz
x,y,z
-x,y,-z
-x,-y,-z
x,-y,z
1/2+x,1/2+y,z
1/2-x,1/2+y,-z
1/2-x,1/2-y,-z
1/2+x,1/2-y,z
loop_
_atom_site_type_symbol
_atom_site_label
_atom_site_fract_x
_atom_site_fract_y
_atom_site_fract_z
Si Si1 0.951259 0.500000 0.311266
Si Si2 0.233285 0.711408 0.352589
Si Si3 0.560481 0.809758 0.928668
Si Si4 0.648268 0.000000 0.382541
Si Si5 0.425851 0.000000 0.831590
Si Si6 0.280777 0.363416 0.902021
Si Si7 0.846424 0.129542 0.116876
O O1 0.942659 0.390641 0.210628
O O2 0.905282 0.500000 0.471493
O O3 0.015510 0.500000 0.299558
O O4 0.250000 0.750000 0.500000
O O5 0.185785 0.613867 0.382291
O O6 0.216588 0.823177 0.267035
O O7 0.287927 0.656036 0.237134
O O8 0.608705 0.719834 0.872318
O O9 0.500000 0.757879 0.000000
O O10 0.573546 0.890261 0.058594
O O11 0.624573 0.000000 0.237613
O O12 0.259219 0.500000 0.932772
O O13 0.250000 0.250000 0.000000
O O14 0.335918 0.364747 0.951526
O O15 0.863486 0.000000 0.142743
#
# Coordination Sequence:
#
# PCOD9188014 Si02
#       7
#     4   8   8   4   4   8   8
#     4   9  19  35  53  81 109 136 174 230 281 323
#     4  11  23  35  51  76 112 146 188 224 273 336
#     4   9  18  35  56  78 103 137 177 224 281 325
#     4  12  21  34  54  80 107 148 185 217 283 333
#     4   9  19  35  57  79 105 130 180 235 273 328
#     4   9  20  36  55  74 106 147 189 233 275 320
#     4  10  19  36  51  75 109 139 178 229 262 324
#
# _framework density 17.120453000000001
#
# number of rings (size 3 to 8) (size 9 to 14) (size 15 to 20)
#    0.000    2.182    0.909    3.545    2.545    0.364 
#   13.091    0.000    0.000    0.000    0.000    0.000 
#    0.000   20.364    0.000    0.000    0.000    0.000 
#
# Total GULP energy -122481.339578 kJ/mol
# GULP energy per Si atom -5567.333617 kJ/mol
# Density = 1.708149 g / cm^3
# Si number density = 17.120453 Si / 1000 Ang^3
#
#
#
# Elastic Constant Matrix: (Units=GPa)
#
#
# Indices 1 2 3 4 5 6 
#
# 1 91.5158 43.7971 27.8689 0.0000 6.3747 0.0000
# 2 43.7971 104.1406 14.0809 0.0000 -1.0822 0.0000
# 3 27.8689 14.0809 68.9996 0.0000 13.3302 0.0000
# 4 0.0000 0.0000 0.0000 52.4291 0.0000 -204.6111
# 5 6.3747 -1.0822 13.3302 0.0000 36.1356 0.0000
# 6 0.0000 0.0000 0.0000 -204.6111 0.0000 948.3795
#
#
#
# Elastic Compliance Matrix: (Units=1/GPa)
#
#
# Indices 1 2 3 4 5 6 
#
# 1 0.015211 -0.005766 -0.004754 0.000000 -0.001102 0.000000
# 2 -0.005766 0.012103 -0.000439 0.000000 0.001541 0.000000
# 3 -0.004754 -0.000439 0.017597 0.000000 -0.005666 0.000000
# 4 0.000000 0.000000 0.000000 0.120706 0.000000 0.026042
# 5 -0.001102 0.001541 -0.005666 0.000000 0.030004 0.000000
# 6 0.000000 0.000000 0.000000 0.026042 0.000000 0.006673
#
#
# Mechanical properties :
#
#
# Convention : Reuss Voigt Hill
#
# Bulk Modulus (GPa) = 43.49077 48.46108 45.97593
# Shear Modulus (GPa) = 21.56331 219.31612 120.43972
#
# Velocity S-wave (km/s) = 3.55280 11.33049 8.39650
# Velocity P-wave (km/s) = 6.50291 14.12589 10.99610
#
# Compressibility (1/GPa) = 0.02299339
#
# Stress axis : x y z
#
# Youngs Moduli (GPa) = 65.74222 82.62704 56.82729
#
# Poissons Ratio (x) = 0.47640 0.27016
# Poissons Ratio (y) = 0.37905 0.02494
# Poissons Ratio (z) = 0.31255 0.03626
#
# Static dielectric constant tensor:
#      x y z
#    x 1.574050 0.000000 -0.001900 
#    y 0.000000 1.656860 0.000000 
#    z -0.001900 0.000000 1.658870 
# 
# From -- ./inp_files/84196.got.cif
#   From: 2010.05.17/outbox.cif.g08.bks.cpg/sg12_43_cif.got.tgz:84196.got - 2010.06.03 13:09:07.
