data_PCOD9188835
_publ_section_title
;
Structure prediction by ZEFSAII (Michael W. Deem and Ramdas Pophale) SiO2 
 PCOD9188835
Probable space group: C 2/M
;
_chemical_formula_sum "Si O2"
_cell_formula_units_Z 48
_cell_length_a 12.832713
_cell_length_b 21.766094
_cell_length_c 8.252991
_cell_angle_alpha 90.000000
_cell_angle_beta 109.816647
_cell_angle_gamma 90.000000
_cell_volume 2168.700084
_symmetry_space_group_name_H-M "C 2/M"
_symmetry_group_IT_number 12
_symmetry_cell_setting 'monoclinic'
loop_
_space_group_symop_operation_xyz
x,y,z
-x,y,-z
-x,-y,-z
x,-y,z
1/2+x,1/2+y,z
1/2-x,1/2+y,-z
1/2-x,1/2-y,-z
1/2+x,1/2-y,z
loop_
_atom_site_type_symbol
_atom_site_label
_atom_site_fract_x
_atom_site_fract_y
_atom_site_fract_z
Si Si1 0.767364 0.378731 0.606494
Si Si2 0.374835 0.263036 0.373835
Si Si3 0.000205 0.429703 0.697738
Si Si4 0.288876 0.867952 0.269589
Si Si5 0.094498 0.821059 0.941272
Si Si6 0.925911 0.931028 0.299926
O O1 0.711617 0.311083 0.593689
O O2 0.898282 0.388049 0.704003
O O3 0.748772 0.402454 0.411603
O O4 0.697840 0.417790 0.699764
O O5 0.500000 0.275641 0.500000
O O6 0.348682 0.191766 0.378959
O O7 0.367021 0.275924 0.178478
O O8 0.985495 0.500000 0.743628
O O9 0.000000 0.429426 0.500000
O O10 0.122433 0.403762 0.792804
O O11 0.190257 0.844506 0.107806
O O12 0.047042 0.879979 0.818784
O O13 0.000000 0.791508 0.000000
O O14 0.000000 0.923484 0.500000
O O15 0.937957 0.000000 0.244991
#
# Coordination Sequence:
#
# PCOD9188835 Si02
#       6
#     8   8   8   8   8   8
#     4  10  19  36  62  86 113 155 200 244 294 354
#     4  11  22  39  60  87 120 156 200 246 298 361
#     4   9  19  35  56  84 117 153 195 240 290 354
#     4  11  22  37  59  89 119 153 199 248 302 355
#     4  11  23  39  58  85 120 155 195 250 307 355
#     4  10  21  38  59  84 114 152 198 245 299 361
#
# _framework density 22.133075000000002
#
# number of rings (size 3 to 8) (size 9 to 14) (size 15 to 20)
#    0.000    1.667    0.000    7.000    0.000    3.000 
#    0.000    3.333    0.000    5.000    0.000    0.000 
#    0.000    0.000    0.000    0.000    0.000    0.000 
#
# Total GULP energy -134060.620505 kJ/mol
# GULP energy per Si atom -5585.859188 kJ/mol
# Density = 2.208270 g / cm^3
# Si number density = 22.133075 Si / 1000 Ang^3
#
#
#
# Elastic Constant Matrix: (Units=GPa)
#
#
# Indices 1 2 3 4 5 6 
#
# 1 109.8293 3.7043 23.3953 0.0000 -1.4585 0.0000
# 2 3.7043 81.0997 -20.0440 0.0000 0.4845 0.0000
# 3 23.3953 -20.0440 46.3023 0.0000 -0.2099 0.0000
# 4 0.0000 0.0000 0.0000 10.0107 0.0000 1.2112
# 5 -1.4585 0.4845 -0.2099 0.0000 33.4388 0.0000
# 6 0.0000 0.0000 0.0000 1.2112 0.0000 17.2653
#
#
#
# Elastic Compliance Matrix: (Units=1/GPa)
#
#
# Indices 1 2 3 4 5 6 
#
# 1 0.010493 -0.002006 -0.006168 0.000000 0.000448 0.000000
# 2 -0.002006 0.014192 0.007156 0.000000 -0.000248 0.000000
# 3 -0.006168 0.007156 0.027811 0.000000 -0.000198 0.000000
# 4 0.000000 0.000000 0.000000 0.100749 0.000000 -0.007068
# 5 0.000448 -0.000248 -0.000198 0.000000 0.029927 0.000000
# 6 0.000000 0.000000 0.000000 -0.007068 0.000000 0.058415
#
#
# Mechanical properties :
#
#
# Convention : Reuss Voigt Hill
#
# Bulk Modulus (GPa) = 19.81781 27.92692 23.87236
# Shear Modulus (GPa) = 19.19805 27.48801 23.34303
#
# Velocity S-wave (km/s) = 2.94835 3.52794 3.25109
# Velocity P-wave (km/s) = 4.53472 5.40743 4.99019
#
# Compressibility (1/GPa) = 0.05045967
#
# Stress axis : x y z
#
# Youngs Moduli (GPa) = 95.30567 70.46037 35.95717
#
# Poissons Ratio (x) = 0.14137 0.22179
# Poissons Ratio (y) = 0.19122 -0.25733
# Poissons Ratio (z) = 0.58786 -0.50425
#
# Static dielectric constant tensor:
#      x y z
#    x 1.831040 0.000000 0.008790 
#    y 0.000000 1.803970 0.000000 
#    z 0.008790 0.000000 1.809070 
# 
# From -- ./inp_files/51445.got.cif
#   From: 2010.05.17/outbox.cif.g08.bks.cpg/sg12_26_cif.got.tgz:51445.got - 2010.06.03 13:09:07.
