data_PCOD9188085
_publ_section_title
;
Structure prediction by ZEFSAII (Michael W. Deem and Ramdas Pophale) SiO2 
 PCOD9188085
Probable space group: C 2/M
;
_chemical_formula_sum "Si O2"
_cell_formula_units_Z 48
_cell_length_a 15.985710
_cell_length_b 32.326534
_cell_length_c 8.955887
_cell_angle_alpha 90.000000
_cell_angle_beta 32.243144
_cell_angle_gamma 90.000000
_cell_volume 2469.135586
_symmetry_space_group_name_H-M "C 2/M"
_symmetry_group_IT_number 12
_symmetry_cell_setting 'monoclinic'
loop_
_space_group_symop_operation_xyz
x,y,z
-x,y,-z
-x,-y,-z
x,-y,z
1/2+x,1/2+y,z
1/2-x,1/2+y,-z
1/2-x,1/2-y,-z
1/2+x,1/2-y,z
loop_
_atom_site_type_symbol
_atom_site_label
_atom_site_fract_x
_atom_site_fract_y
_atom_site_fract_z
Si Si1 0.181232 0.233101 0.255299
Si Si2 0.320720 0.696883 0.246716
Si Si3 0.675028 0.925852 0.692866
Si Si4 0.676417 0.832524 0.770921
Si Si5 0.006762 0.952437 0.314739
Si Si6 0.665166 0.395018 0.839928
O O1 0.220836 0.266768 0.323719
O O2 0.261691 0.190369 0.178742
O O3 0.000000 0.226881 0.500000
O O4 0.250000 0.250000 0.000000
O O5 0.271503 0.683598 0.485940
O O6 0.303528 0.653754 0.179851
O O7 0.500000 0.710332 0.000000
O O8 0.686003 0.881723 0.760455
O O9 0.829718 0.949919 0.514298
O O10 0.707180 0.914682 0.468260
O O11 0.500000 0.942226 0.000000
O O12 0.500000 0.820891 0.000000
O O13 0.000000 0.941655 0.500000
O O14 0.060349 0.000000 0.219515
O O15 0.123323 0.922403 0.047042
O O16 0.500000 0.394757 0.000000
#
# Coordination Sequence:
#
# PCOD9188085 Si02
#       6
#     8   8   8   8   8   8
#     4  12  24  34  49  79 110 139 180 226 271 315
#     4  10  19  36  56  73  99 140 185 222 267 320
#     4   9  19  35  58  84 106 138 186 231 268 314
#     4  10  20  37  56  74 104 145 182 218 268 322
#     4  10  21  37  57  83 114 146 177 216 276 340
#     4   8  17  34  57  80 102 140 187 225 265 324
#
# _framework density 19.440002
#
# number of rings (size 3 to 8) (size 9 to 14) (size 15 to 20)
#    0.000    2.167    0.000    4.000    0.000    5.333 
#    0.000    0.833    0.000    2.000    0.000    0.000 
#    0.000    0.000    0.000    0.000    0.000    0.000 
#
# Total GULP energy -133868.759143 kJ/mol
# GULP energy per Si atom -5577.864964 kJ/mol
# Density = 1.939576 g / cm^3
# Si number density = 19.440002 Si / 1000 Ang^3
#
#
#
# Elastic Constant Matrix: (Units=GPa)
#
#
# Indices 1 2 3 4 5 6 
#
# 1 53.7434 26.9563 6.9693 0.0000 -3.4254 0.0000
# 2 26.9563 73.2037 16.5315 0.0000 13.1473 0.0000
# 3 6.9693 16.5315 71.9525 0.0000 -11.7409 0.0000
# 4 0.0000 0.0000 0.0000 52.0073 0.0000 -2.2960
# 5 -3.4254 13.1473 -11.7409 0.0000 31.3998 0.0000
# 6 0.0000 0.0000 0.0000 -2.2960 0.0000 28.2545
#
#
#
# Elastic Compliance Matrix: (Units=1/GPa)
#
#
# Indices 1 2 3 4 5 6 
#
# 1 0.024223 -0.010576 0.001318 0.000000 0.007563 0.000000
# 2 -0.010576 0.021040 -0.005789 0.000000 -0.012128 0.000000
# 3 0.001318 -0.005789 0.016528 0.000000 0.008748 0.000000
# 4 0.000000 0.000000 0.000000 0.019297 0.000000 0.001568
# 5 0.007563 -0.012128 0.008748 0.000000 0.041021 0.000000
# 6 0.000000 0.000000 0.000000 0.001568 0.000000 0.035520
#
#
# Mechanical properties :
#
#
# Convention : Reuss Voigt Hill
#
# Bulk Modulus (GPa) = 31.54828 33.31264 32.43046
# Shear Modulus (GPa) = 25.21581 32.22848 28.72215
#
# Velocity S-wave (km/s) = 3.60545 4.07608 3.84797
# Velocity P-wave (km/s) = 5.79621 6.27104 6.03829
#
# Compressibility (1/GPa) = 0.03169745
#
# Stress axis : x y z
#
# Youngs Moduli (GPa) = 41.28388 47.52792 60.50407
#
# Poissons Ratio (x) = 0.50263 -0.07973
# Poissons Ratio (y) = 0.43660 0.35024
# Poissons Ratio (z) = -0.05440 0.27513
#
# Static dielectric constant tensor:
#      x y z
#    x 1.652050 0.000000 0.022280 
#    y 0.000000 1.705120 0.000000 
#    z 0.022280 0.000000 1.659670 
# 
# From -- ./inp_files/80553.got.cif
#   From: 2010.05.17/outbox.cif.g08.bks.cpg/sg12_41_cif.got.tgz:80553.got - 2010.06.03 13:09:07.
