data_PCOD9188947
_publ_section_title
;
Structure prediction by ZEFSAII (Michael W. Deem and Ramdas Pophale) SiO2 
 PCOD9188947
Probable space group: C 2/M
;
_chemical_formula_sum "Si O2"
_cell_formula_units_Z 44
_cell_length_a 10.494180
_cell_length_b 25.014895
_cell_length_c 8.661497
_cell_angle_alpha 90.000000
_cell_angle_beta 119.893056
_cell_angle_gamma 90.000000
_cell_volume 1971.232219
_symmetry_space_group_name_H-M "C 2/M"
_symmetry_group_IT_number 12
_symmetry_cell_setting 'monoclinic'
loop_
_space_group_symop_operation_xyz
x,y,z
-x,y,-z
-x,-y,-z
x,-y,z
1/2+x,1/2+y,z
1/2-x,1/2+y,-z
1/2-x,1/2-y,-z
1/2+x,1/2-y,z
loop_
_atom_site_type_symbol
_atom_site_label
_atom_site_fract_x
_atom_site_fract_y
_atom_site_fract_z
Si Si1 0.500000 0.581543 0.000000
Si Si2 0.426746 0.254134 0.124794
Si Si3 0.199392 0.556519 0.685769
Si Si4 0.063492 0.635014 0.824634
Si Si5 0.866931 0.861508 0.203080
Si Si6 0.285068 0.938114 0.671117
O O1 0.348796 0.553245 0.872204
O O2 0.527902 0.614073 0.862073
O O3 0.488984 0.196438 0.213848
O O4 0.432654 0.301796 0.254136
O O5 0.500000 0.266631 0.000000
O O6 0.250000 0.250000 0.000000
O O7 0.119395 0.500000 0.672417
O O8 0.120645 0.609274 0.700313
O O9 0.228534 0.560044 0.522167
O O10 0.937468 0.593243 0.796136
O O11 0.204988 0.638368 0.022703
O O12 0.840647 0.901067 0.329315
O O13 0.282657 0.000000 0.725933
#
# Coordination Sequence:
#
# PCOD9188947 Si02
#       6
#     4   8   8   8   8   8
#     4  10  21  40  62  84 114 158 215 252 304 386
#     4  10  19  36  63  92 126 166 216 263 316 371
#     4  10  22  39  61  87 123 164 203 258 318 375
#     4  10  20  36  62  92 119 163 208 254 308 376
#     4  10  21  37  61  90 120 165 205 251 307 371
#     4  11  23  39  60  91 130 164 205 263 322 372
#
# _framework density 22.321062999999999
#
# number of rings (size 3 to 8) (size 9 to 14) (size 15 to 20)
#    0.000    1.818    0.909    4.091    0.000    7.273 
#    0.000    2.727    4.000    0.000    0.000    0.000 
#    0.000    0.000    0.000    0.000    0.000    0.000 
#
# Total GULP energy -122579.792793 kJ/mol
# GULP energy per Si atom -5571.808763 kJ/mol
# Density = 2.227026 g / cm^3
# Si number density = 22.321063 Si / 1000 Ang^3
#
#
#
# Elastic Constant Matrix: (Units=GPa)
#
#
# Indices 1 2 3 4 5 6 
#
# 1 90.5620 47.7552 10.1209 0.0000 -18.5215 0.0000
# 2 47.7552 206.3811 38.3334 0.0000 -28.6019 0.0000
# 3 10.1209 38.3334 52.2104 0.0000 -7.0237 0.0000
# 4 0.0000 0.0000 0.0000 63.8258 0.0000 -72.2738
# 5 -18.5215 -28.6019 -7.0237 0.0000 51.5631 0.0000
# 6 0.0000 0.0000 0.0000 -72.2738 0.0000 159.7684
#
#
#
# Elastic Compliance Matrix: (Units=1/GPa)
#
#
# Indices 1 2 3 4 5 6 
#
# 1 0.013068 -0.002528 -0.000239 0.000000 0.003259 0.000000
# 2 -0.002528 0.006464 -0.003968 0.000000 0.002137 0.000000
# 3 -0.000239 -0.003968 0.022212 0.000000 0.000739 0.000000
# 4 0.000000 0.000000 0.000000 0.032122 0.000000 0.014531
# 5 0.003259 0.002137 0.000739 0.000000 0.021850 0.000000
# 6 0.000000 0.000000 0.000000 0.014531 0.000000 0.012832
#
#
# Mechanical properties :
#
#
# Convention : Reuss Voigt Hill
#
# Bulk Modulus (GPa) = 35.36723 60.17473 47.77098
# Shear Modulus (GPa) = 38.03922 71.89440 54.96681
#
# Velocity S-wave (km/s) = 4.13266 5.68147 4.96780
# Velocity P-wave (km/s) = 6.21699 8.36995 7.37249
#
# Compressibility (1/GPa) = 0.02827476
#
# Stress axis : x y z
#
# Youngs Moduli (GPa) = 76.52012 154.71482 45.01991
#
# Poissons Ratio (x) = 0.39110 0.01075
# Poissons Ratio (y) = 0.19343 0.17864
# Poissons Ratio (z) = 0.01827 0.61392
#
# Static dielectric constant tensor:
#      x y z
#    x -4.727540 0.000000 -2.636910 
#    y 0.000000 1.928760 0.000000 
#    z -2.636910 0.000000 0.755850 
# 
# From -- ./inp_files/50877.got.cif
#   From: 2010.05.17/outbox.cif.g08.bks.cpg/sg12_26_cif.got.tgz:50877.got - 2010.06.03 13:09:07.
