data_PCOD9188787
_publ_section_title
;
Structure prediction by ZEFSAII (Michael W. Deem and Ramdas Pophale) SiO2 
 PCOD9188787
Probable space group: C 2/M
;
_chemical_formula_sum "Si O2"
_cell_formula_units_Z 56
_cell_length_a 11.799209
_cell_length_b 26.128183
_cell_length_c 11.270223
_cell_angle_alpha 90.000000
_cell_angle_beta 55.135622
_cell_angle_gamma 90.000000
_cell_volume 2850.868149
_symmetry_space_group_name_H-M "C 2/M"
_symmetry_group_IT_number 12
_symmetry_cell_setting 'monoclinic'
loop_
_space_group_symop_operation_xyz
x,y,z
-x,y,-z
-x,-y,-z
x,-y,z
1/2+x,1/2+y,z
1/2-x,1/2+y,-z
1/2-x,1/2-y,-z
1/2+x,1/2-y,z
loop_
_atom_site_type_symbol
_atom_site_label
_atom_site_fract_x
_atom_site_fract_y
_atom_site_fract_z
Si Si1 0.792424 0.305377 0.022510
Si Si2 0.722478 0.315388 0.327528
Si Si3 0.126285 0.060227 0.655734
Si Si4 0.010406 0.654260 0.707438
Si Si5 0.000000 0.268278 0.500000
Si Si6 0.333167 0.939188 0.732810
Si Si7 0.603037 0.393976 0.039381
Si Si8 0.000000 0.893995 0.500000
O O1 0.799642 0.301628 0.159856
O O2 0.675785 0.346555 0.057850
O O3 0.750000 0.250000 0.000000
O O4 0.924366 0.327915 0.874655
O O5 0.829865 0.339746 0.354904
O O6 0.635079 0.267734 0.430493
O O7 0.606488 0.357442 0.368061
O O8 0.259525 0.078645 0.653141
O O9 0.992036 0.074969 0.813381
O O10 0.090797 0.076959 0.543563
O O11 0.143005 0.000000 0.645543
O O12 0.978899 0.695661 0.625178
O O13 0.957371 0.598879 0.694470
O O14 0.367272 0.000000 0.707397
O O15 0.216311 0.928933 0.903931
O O16 0.500000 0.373772 0.000000
#
# Coordination Sequence:
#
# PCOD9188787 Si02
#       8
#     8   8   8   8   4   8   8   4
#     4  11  21  41  60  93 122 161 208 252 305 369
#     4  11  24  43  63  89 128 165 203 254 312 374
#     4  10  19  36  61  90 124 164 210 257 305 363
#     4  11  24  41  67  91 128 164 206 258 313 373
#     4  11  24  44  62  96 122 164 208 253 314 378
#     4   9  20  39  64  93 122 162 213 261 308 364
#     4   9  18  34  60  89 120 157 204 258 307 357
#     4  11  23  38  61  90 131 162 205 253 310 374
#
# _framework density 19.643139000000001
#
# number of rings (size 3 to 8) (size 9 to 14) (size 15 to 20)
#    0.000    1.714    2.857    1.500    2.000    2.857 
#    2.571    1.786    0.000    1.714    0.000    0.000 
#    0.000    0.000    0.000    0.000    0.000    0.000 
#
# Total GULP energy -156203.583608 kJ/mol
# GULP energy per Si atom -5578.699415 kJ/mol
# Density = 1.959843 g / cm^3
# Si number density = 19.643139 Si / 1000 Ang^3
#
#
#
# Elastic Constant Matrix: (Units=GPa)
#
#
# Indices 1 2 3 4 5 6 
#
# 1 106.1978 58.0022 23.9605 0.0000 -2.1181 0.0000
# 2 58.0022 102.5381 21.4730 0.0000 0.7511 0.0000
# 3 23.9605 21.4730 80.6471 0.0000 6.6539 0.0000
# 4 0.0000 0.0000 0.0000 10.3406 0.0000 7.2399
# 5 -2.1181 0.7511 6.6539 0.0000 27.2664 0.0000
# 6 0.0000 0.0000 0.0000 7.2399 0.0000 29.2383
#
#
#
# Elastic Compliance Matrix: (Units=1/GPa)
#
#
# Indices 1 2 3 4 5 6 
#
# 1 0.014068 -0.007481 -0.002342 0.000000 0.001870 0.000000
# 2 -0.007481 0.014311 -0.001538 0.000000 -0.000600 0.000000
# 3 -0.002342 -0.001538 0.013794 0.000000 -0.003506 0.000000
# 4 0.000000 0.000000 0.000000 0.116988 0.000000 -0.028968
# 5 0.001870 -0.000600 -0.003506 0.000000 0.037693 0.000000
# 6 0.000000 0.000000 0.000000 -0.028968 0.000000 0.041375
#
#
# Mechanical properties :
#
#
# Convention : Reuss Voigt Hill
#
# Bulk Modulus (GPa) = 51.41268 55.13939 53.27604
# Shear Modulus (GPa) = 18.69619 25.76553 22.23086
#
# Velocity S-wave (km/s) = 3.08846 3.62564 3.36778
# Velocity P-wave (km/s) = 6.24086 6.75711 6.50411
#
# Compressibility (1/GPa) = 0.01945046
#
# Stress axis : x y z
#
# Youngs Moduli (GPa) = 71.08300 69.87747 72.49338
#
# Poissons Ratio (x) = 0.52276 0.16979
# Poissons Ratio (y) = 0.53178 0.11151
# Poissons Ratio (z) = 0.16648 0.10749
#
# Static dielectric constant tensor:
#      x y z
#    x 1.685940 0.000000 -0.005240 
#    y 0.000000 1.653550 0.000000 
#    z -0.005240 0.000000 1.701980 
# 
# From -- ./inp_files/136584.got.cif
#   From: 2010.05.17/outbox.cif.g08.bks.cpg/sg12_69_cif.got.tgz:136584.got - 2010.06.03 13:09:07.
