data_PCOD9188093
_publ_section_title
;
Structure prediction by ZEFSAII (Michael W. Deem and Ramdas Pophale) SiO2 
 PCOD9188093
Probable space group: C 2/M
;
_chemical_formula_sum "Si O2"
_cell_formula_units_Z 52
_cell_length_a 15.542022
_cell_length_b 19.983755
_cell_length_c 27.999145
_cell_angle_alpha 90.000000
_cell_angle_beta 19.779498
_cell_angle_gamma 90.000000
_cell_volume 2942.803833
_symmetry_space_group_name_H-M "C 2/M"
_symmetry_group_IT_number 12
_symmetry_cell_setting 'monoclinic'
loop_
_space_group_symop_operation_xyz
x,y,z
-x,y,-z
-x,-y,-z
x,-y,z
1/2+x,1/2+y,z
1/2-x,1/2+y,-z
1/2-x,1/2-y,-z
1/2+x,1/2-y,z
loop_
_atom_site_type_symbol
_atom_site_label
_atom_site_fract_x
_atom_site_fract_y
_atom_site_fract_z
Si Si1 0.383879 0.756195 0.723608
Si Si2 0.891359 0.423296 0.610286
Si Si3 0.221351 0.136601 0.514966
Si Si4 0.520439 0.693376 0.830072
Si Si5 0.366247 0.421846 0.620381
Si Si6 0.000000 0.191805 0.000000
Si Si7 0.869384 0.668440 0.884376
O O1 0.594916 0.814891 0.612164
O O2 0.530437 0.686434 0.642726
O O3 0.217121 0.769932 0.763374
O O4 0.189734 0.765106 0.868211
O O5 0.810782 0.500000 0.661091
O O6 0.666115 0.369517 0.732523
O O7 0.000000 0.419079 0.500000
O O8 0.104480 0.402984 0.538242
O O9 0.058993 0.092690 0.563145
O O10 0.437941 0.753460 0.838731
O O11 0.281493 0.669848 0.986657
O O12 0.500000 0.405653 0.500000
O O13 0.297984 0.500000 0.655514
O O14 0.117257 0.376421 0.755914
O O15 0.170556 0.148622 0.947174
#
# Coordination Sequence:
#
# PCOD9188093 Si02
#       7
#     8   8   8   8   8   4   8
#     4   9  18  33  54  85 106 137 183 226 275 324
#     4  10  22  37  55  82 114 149 187 222 268 329
#     4  10  19  36  56  79 113 146 179 225 276 326
#     4   9  19  36  56  77 108 143 181 230 270 322
#     4  11  23  37  56  82 113 148 186 226 273 328
#     4  10  20  32  55  82 111 136 176 238 274 322
#     4  10  20  36  55  82 109 140 184 229 277 324
#
# _framework density 17.670223
#
# number of rings (size 3 to 8) (size 9 to 14) (size 15 to 20)
#    0.000    2.154    1.538    1.385    2.154    1.231 
#    0.000    0.385    0.000    0.000    0.000    4.846 
#    0.000    0.000    0.000    0.000    0.000    0.000 
#
# Total GULP energy -145008.006373 kJ/mol
# GULP energy per Si atom -5577.231014 kJ/mol
# Density = 1.763000 g / cm^3
# Si number density = 17.670223 Si / 1000 Ang^3
#
#
#
# Elastic Constant Matrix: (Units=GPa)
#
#
# Indices 1 2 3 4 5 6 
#
# 1 75.0328 29.6547 22.9039 0.0722 -8.9110 -0.0582
# 2 29.6547 92.3347 53.4910 0.0903 1.2376 -0.1800
# 3 22.9039 53.4910 104.6068 0.2673 -3.7609 -0.1208
# 4 0.0722 0.0903 0.2673 15.0630 0.0788 6.7660
# 5 -8.9110 1.2376 -3.7609 0.0788 21.2619 -0.0706
# 6 -0.0582 -0.1800 -0.1208 6.7660 -0.0706 6.6211
#
#
#
# Elastic Compliance Matrix: (Units=1/GPa)
#
#
# Indices 1 2 3 4 5 6 
#
# 1 0.016331 -0.004848 -0.000845 -0.000189 0.006979 0.000264
# 2 -0.004848 0.016942 -0.007759 -0.000038 -0.004389 0.000269
# 3 -0.000845 -0.007759 0.013805 -0.000434 0.002543 0.000504
# 4 -0.000189 -0.000038 -0.000434 0.122761 -0.001026 -0.125470
# 5 0.006979 -0.004389 0.002543 -0.001026 0.050672 0.001577
# 6 0.000264 0.000269 0.000504 -0.125470 0.001577 0.279286
#
#
# Mechanical properties :
#
#
# Convention : Reuss Voigt Hill
#
# Bulk Modulus (GPa) = 49.57011 53.78594 51.67803
# Shear Modulus (GPa) = 9.37339 19.65084 14.51211
#
# Velocity S-wave (km/s) = 2.30568 3.33842 2.86890
# Velocity P-wave (km/s) = 5.93313 6.73534 6.34692
#
# Compressibility (1/GPa) = 0.02017345
#
# Stress axis : x y z
#
# Youngs Moduli (GPa) = 61.23430 59.02636 72.43613
#
# Poissons Ratio (x) = 0.28618 0.06119
# Poissons Ratio (y) = 0.29688 0.56203
# Poissons Ratio (z) = 0.05173 0.45798
#
# Static dielectric constant tensor:
#      x y z
#    x 1.622300 0.000070 -0.014680 
#    y 0.000070 1.581510 0.000010 
#    z -0.014680 0.000010 1.598560 
# 
# From -- ./inp_files/216732.got.cif
#   From: 2010.05.17/outbox.cif.g08.bks.cpg/sg12_109_cif.got.tgz:216732.got - 2010.06.03 13:09:07.
