data_PCOD9188596
_publ_section_title
;
Structure prediction by ZEFSAII (Michael W. Deem and Ramdas Pophale) SiO2 
 PCOD9188596
Probable space group: C 2/M
;
_chemical_formula_sum "Si O2"
_cell_formula_units_Z 60
_cell_length_a 16.888408
_cell_length_b 17.559867
_cell_length_c 11.868932
_cell_angle_alpha 90.000000
_cell_angle_beta 66.841995
_cell_angle_gamma 90.000000
_cell_volume 3236.214751
_symmetry_space_group_name_H-M "C 2/M"
_symmetry_group_IT_number 12
_symmetry_cell_setting 'monoclinic'
loop_
_space_group_symop_operation_xyz
x,y,z
-x,y,-z
-x,-y,-z
x,-y,z
1/2+x,1/2+y,z
1/2-x,1/2+y,-z
1/2-x,1/2-y,-z
1/2+x,1/2-y,z
loop_
_atom_site_type_symbol
_atom_site_label
_atom_site_fract_x
_atom_site_fract_y
_atom_site_fract_z
Si Si1 0.701692 0.293700 0.926424
Si Si2 0.393386 0.913166 0.348390
Si Si3 0.058281 0.832357 0.159989
Si Si4 0.000000 0.639116 0.500000
Si Si5 0.955691 0.088838 0.404163
Si Si6 0.717662 0.672549 0.460973
Si Si7 0.150333 0.733671 0.297587
Si Si8 0.937887 0.295072 0.128535
O O1 0.775460 0.320002 0.797926
O O2 0.647364 0.231442 0.887526
O O3 0.750000 0.250000 0.000000
O O4 0.631866 0.349192 0.025114
O O5 0.455682 0.905670 0.421890
O O6 0.295001 0.887521 0.428045
O O7 0.423642 0.852005 0.238758
O O8 0.394979 0.000000 0.306983
O O9 0.101751 0.773880 0.222712
O O10 0.018222 0.896291 0.263019
O O11 0.983423 0.782897 0.143916
O O12 0.921596 0.690185 0.590971
O O13 0.870319 0.139584 0.438636
O O14 0.000000 0.109329 0.500000
O O15 0.932894 0.000000 0.423816
O O16 0.750000 0.750000 0.500000
O O17 0.693551 0.700283 0.348834
O O18 0.000000 0.330916 0.000000
#
# Coordination Sequence:
#
# PCOD9188596 Si02
#       8
#     8   8   8   4   8   8   8   8
#     4   9  20  34  57  91 114 147 198 264 301 349
#     4  12  25  40  58  88 128 165 202 249 314 380
#     4  10  19  36  60  86 119 151 205 252 302 362
#     4  12  23  38  60  92 125 166 202 256 311 368
#     4  11  23  38  59  91 131 165 195 245 315 380
#     4  12  22  36  60  89 119 154 207 253 298 354
#     4  11  19  34  60  90 116 149 209 261 303 346
#     4  10  20  37  62  88 115 157 207 258 306 360
#
# _framework density 18.540178999999998
#
# number of rings (size 3 to 8) (size 9 to 14) (size 15 to 20)
#    0.000    1.200    5.333    2.200    0.000    0.267 
#    0.000    0.000    0.000    5.200    0.000    0.000 
#    0.000    0.000    0.000    0.000    0.000    0.000 
#
# Total GULP energy -167252.591309 kJ/mol
# GULP energy per Si atom -5575.086377 kJ/mol
# Density = 1.849798 g / cm^3
# Si number density = 18.540179 Si / 1000 Ang^3
#
#
#
# Elastic Constant Matrix: (Units=GPa)
#
#
# Indices 1 2 3 4 5 6 
#
# 1 114.2955 26.8480 36.2028 0.0000 4.1613 0.0000
# 2 26.8480 45.9478 16.0521 0.0000 -4.2612 0.0000
# 3 36.2028 16.0521 103.7811 0.0000 -21.6415 0.0000
# 4 0.0000 0.0000 0.0000 1.7933 0.0000 -3.0158
# 5 4.1613 -4.2612 -21.6415 0.0000 45.5063 0.0000
# 6 0.0000 0.0000 0.0000 -3.0158 0.0000 18.9976
#
#
#
# Elastic Compliance Matrix: (Units=1/GPa)
#
#
# Indices 1 2 3 4 5 6 
#
# 1 0.011406 -0.005647 -0.003811 0.000000 -0.003384 0.000000
# 2 -0.005647 0.025814 -0.001566 0.000000 0.002189 0.000000
# 3 -0.003811 -0.001566 0.012488 0.000000 0.006141 0.000000
# 4 0.000000 0.000000 0.000000 0.760713 0.000000 0.120761
# 5 -0.003384 0.002189 0.006141 0.000000 0.025410 0.000000
# 6 0.000000 0.000000 0.000000 0.120761 0.000000 0.071809
#
#
# Mechanical properties :
#
#
# Convention : Reuss Voigt Hill
#
# Bulk Modulus (GPa) = 36.15522 46.91445 41.53484
# Shear Modulus (GPa) = 5.32534 25.58753 15.45644
#
# Velocity S-wave (km/s) = 1.69663 3.71902 2.89047
# Velocity P-wave (km/s) = 4.83543 6.61820 5.79577
#
# Compressibility (1/GPa) = 0.02765852
#
# Stress axis : x y z
#
# Youngs Moduli (GPa) = 87.67175 38.73898 80.07732
#
# Poissons Ratio (x) = 0.21877 0.30519
# Poissons Ratio (y) = 0.49510 0.12542
# Poissons Ratio (z) = 0.33413 0.06068
#
# Static dielectric constant tensor:
#      x y z
#    x 1.749350 0.000000 -0.001070 
#    y 0.000000 1.585250 0.000000 
#    z -0.001070 0.000000 1.712270 
# 
# From -- ./inp_files/146102.got.cif
#   From: 2010.05.17/outbox.cif.g08.bks.cpg/sg12_74_cif.got.tgz:146102.got - 2010.06.03 13:09:07.
