data_PCOD9188249
_publ_section_title
;
Structure prediction by ZEFSAII (Michael W. Deem and Ramdas Pophale) SiO2 
 PCOD9188249
Probable space group: C 2/M
;
_chemical_formula_sum "Si O2"
_cell_formula_units_Z 56
_cell_length_a 9.723844
_cell_length_b 23.022573
_cell_length_c 15.988244
_cell_angle_alpha 90.000000
_cell_angle_beta 49.599239
_cell_angle_gamma 90.000000
_cell_volume 2725.708787
_symmetry_space_group_name_H-M "C 2/M"
_symmetry_group_IT_number 12
_symmetry_cell_setting 'monoclinic'
loop_
_space_group_symop_operation_xyz
x,y,z
-x,y,-z
-x,-y,-z
x,-y,z
1/2+x,1/2+y,z
1/2-x,1/2+y,-z
1/2-x,1/2-y,-z
1/2+x,1/2-y,z
loop_
_atom_site_type_symbol
_atom_site_label
_atom_site_fract_x
_atom_site_fract_y
_atom_site_fract_z
Si Si1 0.587375 0.663018 0.886591
Si Si2 0.594935 0.932875 0.382610
Si Si3 0.806407 0.271932 0.257485
Si Si4 0.110669 0.609436 0.869351
Si Si5 0.084816 0.774556 0.618457
Si Si6 0.627600 0.931853 0.187873
Si Si7 0.509940 0.610423 0.751138
O O1 0.689578 0.712176 0.795317
O O2 0.702275 0.611117 0.882379
O O3 0.465176 0.636145 0.861129
O O4 0.500000 0.693685 0.000000
O O5 0.500000 0.903980 0.500000
O O6 0.541555 0.912146 0.311128
O O7 0.812100 0.928432 0.305295
O O8 0.540131 0.000000 0.404085
O O9 0.866105 0.324715 0.174875
O O10 0.924137 0.265397 0.294319
O O11 0.596937 0.276751 0.363610
O O12 0.317851 0.586766 0.795796
O O13 0.000786 0.576763 0.840261
O O14 0.000000 0.607102 0.000000
O O15 0.250000 0.750000 0.500000
O O16 0.084984 0.838958 0.660059
O O17 0.677966 0.000000 0.174747
#
# Coordination Sequence:
#
# PCOD9188249 Si02
#       7
#     8   8   8   8   8   8   8
#     4  10  19  36  58  80 108 145 192 241 281 324
#     4   9  19  39  63  82 105 142 189 241 288 330
#     4  10  21  35  55  82 109 146 193 233 278 340
#     4  11  22  38  56  82 121 157 190 233 287 341
#     4  10  20  34  51  77 112 145 179 227 287 343
#     4  10  22  38  58  85 114 149 193 235 282 344
#     4   9  21  34  53  84 110 143 189 230 278 340
#
# _framework density 20.545116
#
# number of rings (size 3 to 8) (size 9 to 14) (size 15 to 20)
#    0.000    2.143    0.000    2.571    0.000    5.714 
#    0.000   10.714    0.000    2.571    0.000    0.000 
#    0.000    0.000    0.000    0.000    0.000    0.000 
#
# Total GULP energy -155907.070648 kJ/mol
# GULP energy per Si atom -5568.109666 kJ/mol
# Density = 2.049835 g / cm^3
# Si number density = 20.545116 Si / 1000 Ang^3
#
#
#
# Elastic Constant Matrix: (Units=GPa)
#
#
# Indices 1 2 3 4 5 6 
#
# 1 98.6189 4.3043 28.7764 0.0000 14.5956 0.0000
# 2 4.3043 41.2488 3.9606 0.0000 4.0806 0.0000
# 3 28.7764 3.9606 114.2887 0.0000 15.4135 0.0000
# 4 0.0000 0.0000 0.0000 10.1932 0.0000 -6.5347
# 5 14.5956 4.0806 15.4135 0.0000 24.1165 0.0000
# 6 0.0000 0.0000 0.0000 -6.5347 0.0000 15.2048
#
#
#
# Elastic Compliance Matrix: (Units=1/GPa)
#
#
# Indices 1 2 3 4 5 6 
#
# 1 0.011614 -0.000453 -0.002157 0.000000 -0.005574 0.000000
# 2 -0.000453 0.024684 -0.000235 0.000000 -0.003752 0.000000
# 3 -0.002157 -0.000235 0.009980 0.000000 -0.005033 0.000000
# 4 0.000000 0.000000 0.000000 0.135415 0.000000 0.058199
# 5 -0.005574 -0.003752 -0.005033 0.000000 0.048690 0.000000
# 6 0.000000 0.000000 0.000000 0.058199 0.000000 0.090782
#
#
# Mechanical properties :
#
#
# Convention : Reuss Voigt Hill
#
# Bulk Modulus (GPa) = 24.63844 36.47097 30.55471
# Shear Modulus (GPa) = 14.68924 24.37725 19.53325
#
# Velocity S-wave (km/s) = 2.67680 3.44833 3.08677
# Velocity P-wave (km/s) = 4.64458 5.80042 5.25438
#
# Compressibility (1/GPa) = 0.04058698
#
# Stress axis : x y z
#
# Youngs Moduli (GPa) = 86.10214 40.51179 100.20246
#
# Poissons Ratio (x) = 0.01837 0.21612
# Poissons Ratio (y) = 0.03904 0.02357
# Poissons Ratio (z) = 0.18571 0.00953
#
# Static dielectric constant tensor:
#      x y z
#    x 1.738010 0.000000 -0.002260 
#    y 0.000000 1.731370 0.000000 
#    z -0.002260 0.000000 1.792490 
# 
# From -- ./inp_files/198766.got.cif
#   From: 2010.05.17/outbox.cif.g08.bks.cpg/sg12_100_cif.got.tgz:198766.got - 2010.06.03 13:09:07.
