data_PCOD9188665
_publ_section_title
;
Structure prediction by ZEFSAII (Michael W. Deem and Ramdas Pophale) SiO2 
 PCOD9188665
Probable space group: C 2/M
;
_chemical_formula_sum "Si O2"
_cell_formula_units_Z 48
_cell_length_a 24.639941
_cell_length_b 13.581654
_cell_length_c 12.453817
_cell_angle_alpha 90.000000
_cell_angle_beta 36.848535
_cell_angle_gamma 90.000000
_cell_volume 2499.367227
_symmetry_space_group_name_H-M "C 2/M"
_symmetry_group_IT_number 12
_symmetry_cell_setting 'monoclinic'
loop_
_space_group_symop_operation_xyz
x,y,z
-x,y,-z
-x,-y,-z
x,-y,z
1/2+x,1/2+y,z
1/2-x,1/2+y,-z
1/2-x,1/2-y,-z
1/2+x,1/2-y,z
loop_
_atom_site_type_symbol
_atom_site_label
_atom_site_fract_x
_atom_site_fract_y
_atom_site_fract_z
Si Si1 0.556758 0.114449 0.299441
Si Si2 0.089323 0.886944 0.786422
Si Si3 0.752989 0.118339 0.297132
Si Si4 0.419289 0.245262 0.401707
Si Si5 0.765299 0.882613 0.034912
Si Si6 0.393997 0.613413 0.639148
O O1 0.500000 0.125898 0.500000
O O2 0.512101 0.190946 0.288071
O O3 0.662086 0.129529 0.159295
O O4 0.545445 0.000000 0.282899
O O5 0.171404 0.857546 0.734757
O O6 0.075901 0.811576 0.711167
O O7 0.104561 0.000000 0.723613
O O8 0.000000 0.888351 0.000000
O O9 0.657587 0.162452 0.483357
O O10 0.776391 0.154873 0.139120
O O11 0.746519 0.000000 0.301626
O O12 0.386948 0.317002 0.548464
O O13 0.781928 0.000000 0.015844
O O14 0.834886 0.849068 0.833269
O O15 0.500000 0.612754 0.500000
O O16 0.367042 0.500000 0.658510
#
# Coordination Sequence:
#
# PCOD9188665 Si02
#       6
#     8   8   8   8   8   8
#     4  10  19  36  60  92 125 154 192 241 300 361
#     4  10  24  43  61  82 114 161 209 250 293 349
#     4  10  21  39  62  85 114 155 200 246 294 352
#     4  12  22  36  61  90 120 152 198 251 297 355
#     4   9  19  37  60  86 120 157 194 239 299 361
#     4  10  23  38  54  84 124 161 195 240 299 357
#
# _framework density 19.20486
#
# number of rings (size 3 to 8) (size 9 to 14) (size 15 to 20)
#    0.000    1.833    1.667    2.000    2.333    2.000 
#    0.000    0.000    0.000    2.000    0.000    0.000 
#    0.000    0.000    0.000    0.000    0.000    0.000 
#
# Total GULP energy -134100.440927 kJ/mol
# GULP energy per Si atom -5587.518372 kJ/mol
# Density = 1.916115 g / cm^3
# Si number density = 19.204860 Si / 1000 Ang^3
#
#
#
# Elastic Constant Matrix: (Units=GPa)
#
#
# Indices 1 2 3 4 5 6 
#
# 1 121.7036 59.0574 38.5591 0.0000 17.9915 0.0000
# 2 59.0574 79.7104 18.3991 0.0000 18.9881 0.0000
# 3 38.5591 18.3991 94.1420 0.0000 12.8911 0.0000
# 4 0.0000 0.0000 0.0000 147.6717 0.0000 -43.1159
# 5 17.9915 18.9881 12.8911 0.0000 24.5836 0.0000
# 6 0.0000 0.0000 0.0000 -43.1159 0.0000 54.3361
#
#
#
# Elastic Compliance Matrix: (Units=1/GPa)
#
#
# Indices 1 2 3 4 5 6 
#
# 1 0.014103 -0.009298 -0.003802 0.000000 -0.001145 0.000000
# 2 -0.009298 0.021700 0.001003 0.000000 -0.010482 0.000000
# 3 -0.003802 0.001003 0.012614 0.000000 -0.004607 0.000000
# 4 0.000000 0.000000 0.000000 0.008814 0.000000 0.006994
# 5 -0.001145 -0.010482 -0.004607 0.000000 0.052027 0.000000
# 6 0.000000 0.000000 0.000000 0.006994 0.000000 0.023954
#
#
# Mechanical properties :
#
#
# Convention : Reuss Voigt Hill
#
# Bulk Modulus (GPa) = 41.28558 58.62080 49.95319
# Shear Modulus (GPa) = 30.21507 57.28766 43.75136
#
# Velocity S-wave (km/s) = 3.97079 5.46759 4.77816
# Velocity P-wave (km/s) = 6.52434 8.39342 7.51720
#
# Compressibility (1/GPa) = 0.02422153
#
# Stress axis : x y z
#
# Youngs Moduli (GPa) = 70.90887 46.08333 79.27469
#
# Poissons Ratio (x) = 0.42849 0.30141
# Poissons Ratio (y) = 0.65932 -0.07948
# Poissons Ratio (z) = 0.26961 -0.04620
#
# Static dielectric constant tensor:
#      x y z
#    x 1.659880 0.000000 -0.009480 
#    y 0.000000 1.717230 0.000000 
#    z -0.009480 0.000000 1.655880 
# 
# From -- ./inp_files/143195.got.cif
#   From: 2010.05.17/outbox.cif.g08.bks.cpg/sg12_72_cif.got.tgz:143195.got - 2010.06.03 13:09:07.
