data_PCOD9188086
_publ_section_title
;
Structure prediction by ZEFSAII (Michael W. Deem and Ramdas Pophale) SiO2 
 PCOD9188086
Probable space group: C 2/M
;
_chemical_formula_sum "Si O2"
_cell_formula_units_Z 64
_cell_length_a 8.936112
_cell_length_b 28.609668
_cell_length_c 14.193117
_cell_angle_alpha 90.000000
_cell_angle_beta 81.471776
_cell_angle_gamma 90.000000
_cell_volume 3588.479216
_symmetry_space_group_name_H-M "C 2/M"
_symmetry_group_IT_number 12
_symmetry_cell_setting 'monoclinic'
loop_
_space_group_symop_operation_xyz
x,y,z
-x,y,-z
-x,-y,-z
x,-y,z
1/2+x,1/2+y,z
1/2-x,1/2+y,-z
1/2-x,1/2-y,-z
1/2+x,1/2-y,z
loop_
_atom_site_type_symbol
_atom_site_label
_atom_site_fract_x
_atom_site_fract_y
_atom_site_fract_z
Si Si1 0.808305 0.719098 0.135607
Si Si2 0.087157 0.794022 0.334433
Si Si3 0.671731 0.053206 0.442061
Si Si4 0.750826 0.136159 0.553629
Si Si5 0.659818 0.315845 0.956043
Si Si6 0.944980 0.380214 0.699448
Si Si7 0.456747 0.863609 0.898758
Si Si8 0.267815 0.799552 0.627533
O O1 0.694074 0.709320 0.232000
O O2 0.853789 0.772974 0.116003
O O3 0.954780 0.685664 0.126221
O O4 0.727151 0.704829 0.046511
O O5 0.124305 0.840762 0.390480
O O6 0.142397 0.748840 0.387492
O O7 0.908610 0.790996 0.333393
O O8 0.500000 0.052633 0.500000
O O9 0.771968 0.086192 0.500681
O O10 0.648968 0.079706 0.345159
O O11 0.724171 0.000000 0.429892
O O12 0.598330 0.130688 0.628423
O O13 0.722567 0.172172 0.470944
O O14 0.779319 0.353612 0.912679
O O15 0.500000 0.336026 0.000000
O O16 0.989014 0.392667 0.802006
O O17 0.847152 0.332697 0.697706
O O18 0.500000 0.880003 0.000000
#
# Coordination Sequence:
#
# PCOD9188086 Si02
#       8
#     8   8   8   8   8   8   8   8
#     4  10  20  31  45  65  90 137 175 222 262 299
#     4  12  23  33  49  71 107 143 184 217 264 305
#     4   8  16  32  59  87 105 130 167 213 265 319
#     4  10  20  37  53  73 107 137 174 216 261 314
#     4  10  20  31  48  64  95 128 185 232 259 295
#     4  10  19  36  56  75 105 137 176 219 263 317
#     4  10  20  34  49  70 100 135 173 216 270 309
#     4  11  24  33  49  71 103 145 185 220 254 305
#
# _framework density 17.834852999999999
#
# number of rings (size 3 to 8) (size 9 to 14) (size 15 to 20)
#    0.000    1.875    1.250    5.250    5.250    1.000 
#    0.000    0.000    0.000    6.375    0.000    0.000 
#    0.000    0.500    0.000    0.000    0.000    0.000 
#
# Total GULP energy -178547.237989 kJ/mol
# GULP energy per Si atom -5579.601187 kJ/mol
# Density = 1.779426 g / cm^3
# Si number density = 17.834853 Si / 1000 Ang^3
#
#
#
# Elastic Constant Matrix: (Units=GPa)
#
#
# Indices 1 2 3 4 5 6 
#
# 1 72.9588 19.5397 11.9568 0.0000 -4.2280 0.0000
# 2 19.5397 82.9924 18.8126 0.0000 8.0847 0.0000
# 3 11.9568 18.8126 109.4869 0.0000 0.1472 0.0000
# 4 0.0000 0.0000 0.0000 9.3945 0.0000 1.6292
# 5 -4.2280 8.0847 0.1472 0.0000 24.2305 0.0000
# 6 0.0000 0.0000 0.0000 1.6292 0.0000 13.8105
#
#
#
# Elastic Compliance Matrix: (Units=1/GPa)
#
#
# Indices 1 2 3 4 5 6 
#
# 1 0.015088 -0.003699 -0.001017 0.000000 0.003873 0.000000
# 2 -0.003699 0.013881 -0.001974 0.000000 -0.005265 0.000000
# 3 -0.001017 -0.001974 0.009583 0.000000 0.000423 0.000000
# 4 0.000000 0.000000 0.000000 0.108668 0.000000 -0.012820
# 5 0.003873 -0.005265 0.000423 0.000000 0.043700 0.000000
# 6 0.000000 0.000000 0.000000 -0.012820 0.000000 0.073921
#
#
# Mechanical properties :
#
#
# Convention : Reuss Voigt Hill
#
# Bulk Modulus (GPa) = 39.72798 40.67293 40.20045
# Shear Modulus (GPa) = 17.44516 23.82905 20.63710
#
# Velocity S-wave (km/s) = 3.13093 3.65923 3.40534
# Velocity P-wave (km/s) = 5.94930 6.38029 6.16856
#
# Compressibility (1/GPa) = 0.02517118
#
# Stress axis : x y z
#
# Youngs Moduli (GPa) = 66.27679 72.04331 104.34897
#
# Poissons Ratio (x) = 0.26649 0.10616
# Poissons Ratio (y) = 0.24516 0.20598
# Poissons Ratio (z) = 0.06743 0.14221
#
# Static dielectric constant tensor:
#      x y z
#    x 1.633010 0.000000 -0.001680 
#    y 0.000000 1.594600 0.000000 
#    z -0.001680 0.000000 1.676190 
# 
# From -- ./inp_files/200565.got.cif
#   From: 2010.05.17/outbox.cif.g08.bks.cpg/sg12_101_cif.got.tgz:200565.got - 2010.06.03 13:09:07.
