data_PCOD9188659
_publ_section_title
;
Structure prediction by ZEFSAII (Michael W. Deem and Ramdas Pophale) SiO2 
 PCOD9188659
Probable space group: C 2/M
;
_chemical_formula_sum "Si O2"
_cell_formula_units_Z 48
_cell_length_a 12.156724
_cell_length_b 27.228092
_cell_length_c 14.624592
_cell_angle_alpha 90.000000
_cell_angle_beta 150.730616
_cell_angle_gamma 90.000000
_cell_volume 2366.748568
_symmetry_space_group_name_H-M "C 2/M"
_symmetry_group_IT_number 12
_symmetry_cell_setting 'monoclinic'
loop_
_space_group_symop_operation_xyz
x,y,z
-x,y,-z
-x,-y,-z
x,-y,z
1/2+x,1/2+y,z
1/2-x,1/2+y,-z
1/2-x,1/2-y,-z
1/2+x,1/2-y,z
loop_
_atom_site_type_symbol
_atom_site_label
_atom_site_fract_x
_atom_site_fract_y
_atom_site_fract_z
Si Si1 0.423473 0.500000 0.728685
Si Si2 0.239152 0.000000 0.800950
Si Si3 0.609625 0.268851 0.811059
Si Si4 0.317377 0.000000 0.280927
Si Si5 0.600428 0.921071 0.404151
Si Si6 0.760236 0.903714 0.316774
Si Si7 0.883961 0.310534 0.514329
Si Si8 0.000000 0.667877 0.000000
O O1 0.652879 0.500000 0.841515
O O2 0.412668 0.500000 0.829849
O O3 0.295055 0.452098 0.596206
O O4 0.180725 0.950921 0.702928
O O5 0.500000 0.000000 0.000000
O O6 0.382928 0.297697 0.677623
O O7 0.512135 0.224464 0.679182
O O8 0.787681 0.300510 0.881024
O O9 0.750000 0.250000 0.000000
O O10 0.500000 0.000000 0.500000
O O11 0.377830 0.952119 0.266961
O O12 0.660406 0.920154 0.341111
O O13 0.588777 0.866628 0.434363
O O14 0.000000 0.876608 0.500000
O O15 0.585722 0.867853 0.142065
O O16 0.000000 0.303500 0.500000
#
# Coordination Sequence:
#
# PCOD9188659 Si02
#       8
#     4   4   8   4   8   8   8   4
#     4  10  19  36  60  90 132 162 206 260 309 378
#     4  12  23  38  60  96 132 171 214 262 319 386
#     4  11  25  44  64  91 131 168 217 281 334 391
#     4   8  17  33  58  92 123 163 202 255 308 371
#     4  10  19  36  63  92 124 164 211 258 316 385
#     4  12  23  40  64  94 134 174 214 266 328 389
#     4  11  23  41  68  96 123 171 223 268 332 401
#     4  12  26  43  64  98 128 169 218 274 332 388
#
# _framework density 20.280989000000002
#
# number of rings (size 3 to 8) (size 9 to 14) (size 15 to 20)
#    0.000    1.333    2.500    5.750    0.000    3.333 
#    0.000    0.000    0.000    4.000    0.000    0.000 
#    0.000    1.333    0.000    0.000    0.000    0.000 
#
# Total GULP energy -134065.580322 kJ/mol
# GULP energy per Si atom -5586.065847 kJ/mol
# Density = 2.023483 g / cm^3
# Si number density = 20.280989 Si / 1000 Ang^3
#
#
#
# Elastic Constant Matrix: (Units=GPa)
#
#
# Indices 1 2 3 4 5 6 
#
# 1 210.2200 66.3267 54.0998 0.0002 21.4218 -0.0001
# 2 66.3267 138.5177 46.9239 0.0000 11.2705 0.0000
# 3 54.0998 46.9239 101.8952 0.0004 17.8723 -0.0003
# 4 0.0002 0.0000 0.0004 41.7528 0.0002 -32.8255
# 5 21.4218 11.2705 17.8723 0.0002 32.6600 -0.0002
# 6 -0.0001 0.0000 -0.0003 -32.8255 -0.0002 42.0094
#
#
#
# Elastic Compliance Matrix: (Units=1/GPa)
#
#
# Indices 1 2 3 4 5 6 
#
# 1 0.006142 -0.002117 -0.001889 0.000000 -0.002264 0.000000
# 2 -0.002117 0.009306 -0.003144 0.000000 -0.000103 0.000000
# 3 -0.001889 -0.003144 0.013116 0.000000 -0.004854 0.000000
# 4 0.000000 0.000000 0.000000 0.062098 0.000000 0.048522
# 5 -0.002264 -0.000103 -0.004854 0.000000 0.034795 0.000000
# 6 0.000000 0.000000 0.000000 0.048522 0.000000 0.061719
#
#
# Mechanical properties :
#
#
# Convention : Reuss Voigt Hill
#
# Bulk Modulus (GPa) = 70.10155 87.25930 78.68042
# Shear Modulus (GPa) = 24.24491 42.16996 33.20744
#
# Velocity S-wave (km/s) = 3.46128 4.56487 4.05083
# Velocity P-wave (km/s) = 7.11436 8.42037 7.79476
#
# Compressibility (1/GPa) = 0.01426502
#
# Stress axis : x y z
#
# Youngs Moduli (GPa) = 162.82430 107.45581 76.24320
#
# Poissons Ratio (x) = 0.22745 0.14402
# Poissons Ratio (y) = 0.34465 0.23969
# Poissons Ratio (z) = 0.30756 0.33781
#
# Static dielectric constant tensor:
#      x y z
#    x 0.725390 0.000000 1.688380 
#    y 0.000000 1.499370 0.000000 
#    z 1.688380 0.000000 -0.936080 
# 
# From -- ./inp_files/209523.got.cif
#   From: 2010.05.17/outbox.cif.g08.bks.cpg/sg12_105_cif.got.tgz:209523.got - 2010.06.03 13:09:07.
