data_PCOD9188599
_publ_section_title
;
Structure prediction by ZEFSAII (Michael W. Deem and Ramdas Pophale) SiO2 
 PCOD9188599
Probable space group: C 2/M
;
_chemical_formula_sum "Si O2"
_cell_formula_units_Z 64
_cell_length_a 28.900355
_cell_length_b 8.266929
_cell_length_c 15.315149
_cell_angle_alpha 90.000000
_cell_angle_beta 55.303248
_cell_angle_gamma 90.000000
_cell_volume 3008.386085
_symmetry_space_group_name_H-M "C 2/M"
_symmetry_group_IT_number 12
_symmetry_cell_setting 'monoclinic'
loop_
_space_group_symop_operation_xyz
x,y,z
-x,y,-z
-x,-y,-z
x,-y,z
1/2+x,1/2+y,z
1/2-x,1/2+y,-z
1/2-x,1/2-y,-z
1/2+x,1/2-y,z
loop_
_atom_site_type_symbol
_atom_site_label
_atom_site_fract_x
_atom_site_fract_y
_atom_site_fract_z
Si Si1 0.026826 0.815547 0.678339
Si Si2 0.088996 0.686283 0.774251
Si Si3 0.216104 0.806099 0.620551
Si Si4 0.266519 0.304199 0.204504
Si Si5 0.437722 0.195030 0.534767
Si Si6 0.157438 0.698210 0.224742
Si Si7 0.585541 0.187405 0.145996
Si Si8 0.104582 0.190167 0.941733
O O1 0.055641 0.792682 0.740844
O O2 0.068139 0.762587 0.556459
O O3 0.971237 0.705341 0.736988
O O4 0.009513 0.000000 0.684087
O O5 0.076591 0.500000 0.768323
O O6 0.155013 0.724045 0.690155
O O7 0.076925 0.724247 0.888461
O O8 0.250000 0.750000 0.500000
O O9 0.246194 0.765758 0.680423
O O10 0.208443 0.000000 0.626622
O O11 0.266789 0.500000 0.197277
O O12 0.218454 0.244902 0.190928
O O13 0.330496 0.250564 0.118803
O O14 0.500000 0.245455 0.500000
O O15 0.389007 0.247213 0.653410
O O16 0.436539 0.000000 0.532610
O O17 0.157168 0.500000 0.223205
O O18 0.136109 0.750666 0.152422
O O19 0.595080 0.000000 0.115015
O O20 0.577377 0.279867 0.064405
O O21 0.105928 0.000000 0.919913
#
# Coordination Sequence:
#
# PCOD9188599 Si02
#       8
#     8   8   8   8   8   8   8   8
#     4  12  25  40  59  88 123 156 196 248 305 359
#     4  11  23  41  63  86 115 156 202 248 300 360
#     4  10  20  35  56  86 122 159 201 247 296 353
#     4   8  17  34  56  83 117 157 196 238 291 346
#     4  10  19  36  60  86 119 161 202 243 290 348
#     4   9  18  34  58  87 119 157 202 243 283 344
#     4  11  22  39  62  88 116 155 205 246 291 357
#     4  10  21  40  62  87 121 154 192 249 307 355
#
# _framework density 21.273865000000001
#
# number of rings (size 3 to 8) (size 9 to 14) (size 15 to 20)
#    0.000    1.875    1.250    4.125    1.750    1.250 
#    0.000    2.500    0.000    9.000    0.000    0.000 
#    0.000    0.000    0.000    0.000    0.000    0.000 
#
# Total GULP energy -178789.212402 kJ/mol
# GULP energy per Si atom -5587.162888 kJ/mol
# Density = 2.122545 g / cm^3
# Si number density = 21.273865 Si / 1000 Ang^3
#
#
#
# Elastic Constant Matrix: (Units=GPa)
#
#
# Indices 1 2 3 4 5 6 
#
# 1 62.9568 -7.5583 -8.5036 0.0000 18.2675 0.0000
# 2 -7.5583 37.3697 -1.9280 0.0000 1.4964 0.0000
# 3 -8.5036 -1.9280 67.8835 0.0000 17.0855 0.0000
# 4 0.0000 0.0000 0.0000 15.2839 0.0000 0.5178
# 5 18.2675 1.4964 17.0855 0.0000 24.7349 0.0000
# 6 0.0000 0.0000 0.0000 0.5178 0.0000 16.6342
#
#
#
# Elastic Compliance Matrix: (Units=1/GPa)
#
#
# Indices 1 2 3 4 5 6 
#
# 1 0.025684 0.006766 0.010031 0.000000 -0.026306 0.000000
# 2 0.006766 0.028720 0.004065 0.000000 -0.009542 0.000000
# 3 0.010031 0.004065 0.021824 0.000000 -0.022728 0.000000
# 4 0.000000 0.000000 0.000000 0.065497 0.000000 -0.002039
# 5 -0.026306 -0.009542 -0.022728 0.000000 0.076133 0.000000
# 6 0.000000 0.000000 0.000000 -0.002039 0.000000 0.060181
#
#
# Mechanical properties :
#
#
# Convention : Reuss Voigt Hill
#
# Bulk Modulus (GPa) = 8.47820 14.69223 11.58522
# Shear Modulus (GPa) = 18.14005 23.74393 20.94199
#
# Velocity S-wave (km/s) = 2.92326 3.34444 3.14092
# Velocity P-wave (km/s) = 3.92273 4.67279 4.31409
#
# Compressibility (1/GPa) = 0.11794956
#
# Stress axis : x y z
#
# Youngs Moduli (GPa) = 38.93471 34.81909 45.82210
#
# Poissons Ratio (x) = -0.23557 -0.45962
# Poissons Ratio (y) = -0.26342 -0.18626
# Poissons Ratio (z) = -0.39054 -0.14153
#
# Static dielectric constant tensor:
#      x y z
#    x 1.775680 0.000000 0.006630 
#    y 0.000000 1.731130 0.000000 
#    z 0.006630 0.000000 1.754330 
# 
# From -- ./inp_files/249119.got.cif
#   From: 2010.05.17/outbox.cif.g08.bks.cpg/sg12_125_cif.got.tgz:249119.got - 2010.06.03 13:09:07.
