data_PCOD9188578
_publ_section_title
;
Structure prediction by ZEFSAII (Michael W. Deem and Ramdas Pophale) SiO2 
 PCOD9188578
Probable space group: C 2/M
;
_chemical_formula_sum "Si O2"
_cell_formula_units_Z 56
_cell_length_a 17.609432
_cell_length_b 13.661861
_cell_length_c 14.132093
_cell_angle_alpha 90.000000
_cell_angle_beta 49.182385
_cell_angle_gamma 90.000000
_cell_volume 2572.998027
_symmetry_space_group_name_H-M "C 2/M"
_symmetry_group_IT_number 12
_symmetry_cell_setting 'monoclinic'
loop_
_space_group_symop_operation_xyz
x,y,z
-x,y,-z
-x,-y,-z
x,-y,z
1/2+x,1/2+y,z
1/2-x,1/2+y,-z
1/2-x,1/2-y,-z
1/2+x,1/2-y,z
loop_
_atom_site_type_symbol
_atom_site_label
_atom_site_fract_x
_atom_site_fract_y
_atom_site_fract_z
Si Si1 0.277524 0.612000 0.569064
Si Si2 0.790165 0.672195 0.889517
Si Si3 0.404541 0.225173 0.256375
Si Si4 0.985389 0.894423 0.293497
Si Si5 0.615963 0.689695 0.913887
Si Si6 0.401910 0.296122 0.637954
Si Si7 0.082073 0.392561 0.047093
O O1 0.247811 0.500000 0.611261
O O2 0.182767 0.675498 0.612722
O O3 0.369644 0.609301 0.421021
O O4 0.324731 0.659322 0.625449
O O5 0.690836 0.629689 0.919019
O O6 0.850401 0.721033 0.752831
O O7 0.861113 0.608072 0.898054
O O8 0.750000 0.750000 0.000000
O O9 0.490620 0.294620 0.230381
O O10 0.353690 0.294785 0.219364
O O11 0.466684 0.136144 0.160118
O O12 0.053854 0.880877 0.329901
O O13 0.005690 0.000000 0.231952
O O14 0.500000 0.657592 0.000000
O O15 0.618695 0.800561 0.954774
O O16 0.500000 0.257892 0.500000
O O17 0.095007 0.500000 0.993987
#
# Coordination Sequence:
#
# PCOD9188578 Si02
#       7
#     8   8   8   8   8   8   8
#     4  10  20  33  55  87 115 147 196 247 292 340
#     4  10  19  38  59  83 117 154 191 236 291 354
#     4  11  19  34  57  80 116 154 189 237 292 348
#     4  10  21  36  54  82 118 154 195 238 287 349
#     4   9  20  35  58  80 111 148 189 238 288 340
#     4  10  19  36  60  86 113 151 197 248 295 339
#     4  10  21  36  58  85 114 147 188 245 298 347
#
# _framework density 21.764493999999999
#
# number of rings (size 3 to 8) (size 9 to 14) (size 15 to 20)
#    0.000    2.000    2.857    1.286    0.000    4.857 
#    0.000    1.429    0.000    4.714    0.000    0.000 
#    0.000    0.000    0.000    0.000    0.000    0.000 
#
# Total GULP energy -155997.304913 kJ/mol
# GULP energy per Si atom -5571.332318 kJ/mol
# Density = 2.171496 g / cm^3
# Si number density = 21.764494 Si / 1000 Ang^3
#
#
#
# Elastic Constant Matrix: (Units=GPa)
#
#
# Indices 1 2 3 4 5 6 
#
# 1 110.7112 7.8023 -4.6244 0.0000 -0.3610 0.0000
# 2 7.8023 62.8675 15.5061 0.0000 -2.4346 0.0000
# 3 -4.6244 15.5061 55.3432 0.0000 2.1957 0.0000
# 4 0.0000 0.0000 0.0000 13.5283 0.0000 2.2946
# 5 -0.3610 -2.4346 2.1957 0.0000 25.2932 0.0000
# 6 0.0000 0.0000 0.0000 2.2946 0.0000 11.5286
#
#
#
# Elastic Compliance Matrix: (Units=1/GPa)
#
#
# Indices 1 2 3 4 5 6 
#
# 1 0.009182 -0.001433 0.001173 0.000000 -0.000109 0.000000
# 2 -0.001433 0.017419 -0.005084 0.000000 0.002098 0.000000
# 3 0.001173 -0.005084 0.019678 0.000000 -0.002181 0.000000
# 4 0.000000 0.000000 0.000000 0.076502 0.000000 -0.015227
# 5 -0.000109 0.002098 -0.002181 0.000000 0.039926 0.000000
# 6 0.000000 0.000000 0.000000 -0.015227 0.000000 0.089772
#
#
# Mechanical properties :
#
#
# Convention : Reuss Voigt Hill
#
# Bulk Modulus (GPa) = 28.09594 29.58777 28.84186
# Shear Modulus (GPa) = 18.17980 24.08586 21.13283
#
# Velocity S-wave (km/s) = 2.89328 3.33026 3.11943
# Velocity P-wave (km/s) = 4.90903 5.33024 5.12397
#
# Compressibility (1/GPa) = 0.03559233
#
# Stress axis : x y z
#
# Youngs Moduli (GPa) = 108.90694 57.40723 50.81836
#
# Poissons Ratio (x) = 0.08227 -0.05961
# Poissons Ratio (y) = 0.15608 0.25834
# Poissons Ratio (z) = -0.12776 0.29183
#
# Static dielectric constant tensor:
#      x y z
#    x 1.855500 0.000000 0.012820 
#    y 0.000000 1.830260 0.000000 
#    z 0.012820 0.000000 1.849840 
# 
# From -- ./inp_files/225180.got.cif
#   From: 2010.05.17/outbox.cif.g08.bks.cpg/sg12_113_cif.got.tgz:225180.got - 2010.06.03 13:09:07.
