data_PCOD9188400
_publ_section_title
;
Structure prediction by ZEFSAII (Michael W. Deem and Ramdas Pophale) SiO2 
 PCOD9188400
Probable space group: C 2/M
;
_chemical_formula_sum "Si O2"
_cell_formula_units_Z 56
_cell_length_a 15.188149
_cell_length_b 8.856685
_cell_length_c 25.001334
_cell_angle_alpha 90.000000
_cell_angle_beta 116.992134
_cell_angle_gamma 90.000000
_cell_volume 2996.749822
_symmetry_space_group_name_H-M "C 2/M"
_symmetry_group_IT_number 12
_symmetry_cell_setting 'monoclinic'
loop_
_space_group_symop_operation_xyz
x,y,z
-x,y,-z
-x,-y,-z
x,-y,z
1/2+x,1/2+y,z
1/2-x,1/2+y,-z
1/2-x,1/2-y,-z
1/2+x,1/2-y,z
loop_
_atom_site_type_symbol
_atom_site_label
_atom_site_fract_x
_atom_site_fract_y
_atom_site_fract_z
Si Si1 0.824260 0.320041 0.865174
Si Si2 0.415910 0.181227 0.432631
Si Si3 0.989109 0.316518 0.653669
Si Si4 0.614145 0.327827 0.010923
Si Si5 0.881478 0.682487 0.210471
Si Si6 0.270050 0.819087 0.563881
Si Si7 0.956411 0.318245 0.113651
O O1 0.816702 0.500000 0.861444
O O2 0.829156 0.264413 0.928008
O O3 0.728424 0.245970 0.812578
O O4 0.928843 0.276908 0.866507
O O5 0.500000 0.213817 0.500000
O O6 0.453855 0.226100 0.384685
O O7 0.317118 0.265247 0.421951
O O8 0.400072 0.000000 0.429163
O O9 0.987916 0.500000 0.654877
O O10 0.875961 0.267765 0.615756
O O11 0.045567 0.265583 0.722303
O O12 0.650135 0.500000 0.019007
O O13 0.500000 0.329121 0.000000
O O14 0.609560 0.254435 0.951303
O O15 0.877352 0.500000 0.210263
O O16 0.922199 0.727304 0.163249
O O17 0.250000 0.750000 0.500000
O O18 0.271598 0.000000 0.559382
O O19 0.949694 0.500000 0.107297
#
# Coordination Sequence:
#
# PCOD9188400 Si02
#       7
#     8   8   8   8   8   8   8
#     4  10  20  35  55  80 111 143 179 231 285 325
#     4  10  19  36  59  83 113 148 181 223 278 331
#     4   9  20  38  57  78 111 150 184 223 277 334
#     4   9  17  31  54  82 108 139 182 229 273 326
#     4  10  21  38  57  77 105 148 192 223 266 334
#     4  11  21  36  59  87 114 145 183 227 278 332
#     4   9  19  35  55  78 108 144 181 225 278 329
#
# _framework density 18.686912
#
# number of rings (size 3 to 8) (size 9 to 14) (size 15 to 20)
#    0.000    2.286    1.429    1.286    0.000    4.857 
#    0.000    3.571    0.000    0.000    0.000    0.000 
#    0.000    0.000    0.000    0.000    0.000    0.000 
#
# Total GULP energy -156332.449006 kJ/mol
# GULP energy per Si atom -5583.301750 kJ/mol
# Density = 1.864438 g / cm^3
# Si number density = 18.686912 Si / 1000 Ang^3
#
#
#
# Elastic Constant Matrix: (Units=GPa)
#
#
# Indices 1 2 3 4 5 6 
#
# 1 84.0051 21.2180 28.1342 0.0000 8.9762 0.0000
# 2 21.2180 22.3096 15.4940 0.0000 3.2948 0.0000
# 3 28.1342 15.4940 91.1314 0.0000 10.3120 0.0000
# 4 0.0000 0.0000 0.0000 18.7118 0.0000 6.0536
# 5 8.9762 3.2948 10.3120 0.0000 32.5130 0.0000
# 6 0.0000 0.0000 0.0000 6.0536 0.0000 27.5553
#
#
#
# Elastic Compliance Matrix: (Units=1/GPa)
#
#
# Indices 1 2 3 4 5 6 
#
# 1 0.016409 -0.013521 -0.002499 0.000000 -0.002367 0.000000
# 2 -0.013521 0.062163 -0.006331 0.000000 -0.000558 0.000000
# 3 -0.002499 -0.006331 0.013142 0.000000 -0.002837 0.000000
# 4 0.000000 0.000000 0.000000 0.057531 0.000000 -0.012639
# 5 -0.002367 -0.000558 -0.002837 0.000000 0.032367 0.000000
# 6 0.000000 0.000000 0.000000 -0.012639 0.000000 0.039067
#
#
# Mechanical properties :
#
#
# Convention : Reuss Voigt Hill
#
# Bulk Modulus (GPa) = 21.27161 36.34874 28.81017
# Shear Modulus (GPa) = 17.79025 24.59601 21.19313
#
# Velocity S-wave (km/s) = 3.08882 3.63190 3.37132
# Velocity P-wave (km/s) = 4.91213 6.08944 5.53219
#
# Compressibility (1/GPa) = 0.04701102
#
# Stress axis : x y z
#
# Youngs Moduli (GPa) = 60.94175 16.08679 76.09103
#
# Poissons Ratio (x) = 0.21751 0.19016
# Poissons Ratio (y) = 0.82399 0.48177
# Poissons Ratio (z) = 0.15230 0.10185
#
# Static dielectric constant tensor:
#      x y z
#    x 1.651250 0.000000 0.004400 
#    y 0.000000 1.630060 0.000000 
#    z 0.004400 0.000000 1.625800 
# 
# From -- ./inp_files/338990.got.cif
#   From: 2010.05.17/outbox.cif.g08.bks.cpg/sg12_170_cif.got.tgz:338990.got - 2010.06.03 13:09:07.
