data_PCOD9188864
_publ_section_title
;
Structure prediction by ZEFSAII (Michael W. Deem and Ramdas Pophale) SiO2 
 PCOD9188864
Probable space group: C 2/M
;
_chemical_formula_sum "Si O2"
_cell_formula_units_Z 64
_cell_length_a 29.069089
_cell_length_b 9.469220
_cell_length_c 10.879194
_cell_angle_alpha 90.000000
_cell_angle_beta 100.413641
_cell_angle_gamma 90.000000
_cell_volume 2945.298276
_symmetry_space_group_name_H-M "C 2/M"
_symmetry_group_IT_number 12
_symmetry_cell_setting 'monoclinic'
loop_
_space_group_symop_operation_xyz
x,y,z
-x,y,-z
-x,-y,-z
x,-y,z
1/2+x,1/2+y,z
1/2-x,1/2+y,-z
1/2-x,1/2-y,-z
1/2+x,1/2-y,z
loop_
_atom_site_type_symbol
_atom_site_label
_atom_site_fract_x
_atom_site_fract_y
_atom_site_fract_z
Si Si1 0.895344 0.669679 0.897686
Si Si2 0.985967 0.336799 0.804776
Si Si3 0.319973 0.666758 0.717355
Si Si4 0.348633 0.663514 0.097154
Si Si5 0.225927 0.336603 0.804788
Si Si6 0.440102 0.338684 0.289972
Si Si7 0.318996 0.160459 0.486680
Si Si8 0.568935 0.841438 0.479707
O O1 0.890291 0.500000 0.895412
O O2 0.949669 0.701143 0.894932
O O3 0.864462 0.740639 0.775692
O O4 0.873785 0.741631 0.007067
O O5 0.000219 0.500000 0.828025
O O6 0.955758 0.326626 0.663573
O O7 0.030361 0.241164 0.799884
O O8 0.329975 0.500000 0.714888
O O9 0.280254 0.688549 0.801653
O O10 0.302612 0.725531 0.578200
O O11 0.343831 0.500000 0.055198
O O12 0.299962 0.730862 0.116524
O O13 0.385419 0.666672 0.227933
O O14 0.219642 0.500000 0.841398
O O15 0.201641 0.322024 0.659084
O O16 0.455174 0.500000 0.301116
O O17 0.447287 0.265656 0.424182
O O18 0.375220 0.171158 0.506014
O O19 0.307317 0.000000 0.522133
O O20 0.558793 0.000000 0.520951
#
# Coordination Sequence:
#
# PCOD9188864 Si02
#       8
#     8   8   8   8   8   8   8   8
#     4  11  24  44  66  87 115 158 208 250 296 356
#     4  10  22  40  62  89 118 156 202 243 291 354
#     4  11  23  38  61  94 127 157 196 247 305 357
#     4  11  25  43  62  88 120 156 201 253 306 355
#     4  10  22  40  63  91 122 162 204 243 293 357
#     4  11  24  39  59  91 125 156 193 243 306 360
#     4  10  19  36  62  90 124 162 201 242 291 354
#     4  10  19  36  62  89 121 159 199 242 289 351
#
# _framework density 21.729548000000001
#
# number of rings (size 3 to 8) (size 9 to 14) (size 15 to 20)
#    0.000    1.500    2.500    2.250    0.000    7.500 
#    0.000    2.500    0.000    0.000    0.000    0.000 
#    0.000    0.000    0.000    0.000    0.000    0.000 
#
# Total GULP energy -179007.066343 kJ/mol
# GULP energy per Si atom -5593.970823 kJ/mol
# Density = 2.168009 g / cm^3
# Si number density = 21.729548 Si / 1000 Ang^3
#
#
#
# Elastic Constant Matrix: (Units=GPa)
#
#
# Indices 1 2 3 4 5 6 
#
# 1 90.1506 59.4006 2.8314 0.0000 -18.6265 0.0000
# 2 59.4006 126.9584 42.9036 0.0000 -35.3678 0.0000
# 3 2.8314 42.9036 57.6622 0.0000 -17.5414 0.0000
# 4 0.0000 0.0000 0.0000 26.4624 0.0000 -6.1947
# 5 -18.6265 -35.3678 -17.5414 0.0000 39.4345 0.0000
# 6 0.0000 0.0000 0.0000 -6.1947 0.0000 32.1247
#
#
#
# Elastic Compliance Matrix: (Units=1/GPa)
#
#
# Indices 1 2 3 4 5 6 
#
# 1 0.018239 -0.010356 0.007639 0.000000 0.002725 0.000000
# 2 -0.010356 0.018313 -0.011113 0.000000 0.006590 0.000000
# 3 0.007639 -0.011113 0.026948 0.000000 0.005629 0.000000
# 4 0.000000 0.000000 0.000000 0.039576 0.000000 0.007632
# 5 0.002725 0.006590 0.005629 0.000000 0.035060 0.000000
# 6 0.000000 0.000000 0.000000 0.007632 0.000000 0.032600
#
#
# Mechanical properties :
#
#
# Convention : Reuss Voigt Hill
#
# Bulk Modulus (GPa) = 27.90143 53.89362 40.89753
# Shear Modulus (GPa) = 23.77076 30.91334 27.34205
#
# Velocity S-wave (km/s) = 3.31106 3.77588 3.55109
# Velocity P-wave (km/s) = 5.24268 6.62311 5.97291
#
# Compressibility (1/GPa) = 0.03584045
#
# Stress axis : x y z
#
# Youngs Moduli (GPa) = 54.82683 54.60611 37.10863
#
# Poissons Ratio (x) = 0.56550 -0.28346
# Poissons Ratio (y) = 0.56778 0.41237
# Poissons Ratio (z) = -0.41881 0.60682
#
# Static dielectric constant tensor:
#      x y z
#    x 1.800020 0.000000 0.037540 
#    y 0.000000 1.732850 0.000000 
#    z 0.037540 0.000000 1.829950 
# 
# From -- ./inp_files/187390.got.cif
#   From: 2010.05.17/outbox.cif.g08.bks.cpg/sg12_94_cif.got.tgz:187390.got - 2010.06.03 13:09:07.
