data_PCOD9188715
_publ_section_title
;
Structure prediction by ZEFSAII (Michael W. Deem and Ramdas Pophale) SiO2 
 PCOD9188715
Probable space group: C 2/M
;
_chemical_formula_sum "Si O2"
_cell_formula_units_Z 56
_cell_length_a 20.644278
_cell_length_b 8.370799
_cell_length_c 19.489142
_cell_angle_alpha 90.000000
_cell_angle_beta 120.095360
_cell_angle_gamma 90.000000
_cell_volume 2913.881213
_symmetry_space_group_name_H-M "C 2/M"
_symmetry_group_IT_number 12
_symmetry_cell_setting 'monoclinic'
loop_
_space_group_symop_operation_xyz
x,y,z
-x,y,-z
-x,-y,-z
x,-y,z
1/2+x,1/2+y,z
1/2-x,1/2+y,-z
1/2-x,1/2-y,-z
1/2+x,1/2-y,z
loop_
_atom_site_type_symbol
_atom_site_label
_atom_site_fract_x
_atom_site_fract_y
_atom_site_fract_z
Si Si1 0.668642 0.306617 0.433562
Si Si2 0.451310 0.190031 0.146971
Si Si3 0.522757 0.305058 0.436534
Si Si4 0.894289 0.806633 0.261835
Si Si5 0.315967 0.806488 0.984410
Si Si6 0.880825 0.190248 0.744399
Si Si7 0.725254 0.192725 0.190835
O O1 0.668578 0.500000 0.432876
O O2 0.750000 0.250000 0.500000
O O3 0.603733 0.253914 0.451924
O O4 0.645543 0.250198 0.344814
O O5 0.410759 0.235366 0.196336
O O6 0.395961 0.246927 0.057161
O O7 0.534585 0.258682 0.193803
O O8 0.457693 0.000000 0.144848
O O9 0.500000 0.249558 0.500000
O O10 0.523431 0.500000 0.438312
O O11 0.459458 0.257661 0.348436
O O12 0.812145 0.760258 0.244096
O O13 0.896203 0.000000 0.256705
O O14 0.314601 0.000000 0.984014
O O15 0.250000 0.750000 0.000000
O O16 0.301916 0.753035 0.898989
O O17 0.825508 0.246171 0.774645
O O18 0.879573 0.000000 0.740222
O O19 0.722052 0.000000 0.189782
#
# Coordination Sequence:
#
# PCOD9188715 Si02
#       7
#     8   8   8   8   8   8   8
#     4  10  22  39  60  85 117 152 191 239 291 352
#     4  11  22  37  61  88 117 155 196 242 296 351
#     4   9  18  34  58  86 113 146 190 236 282 343
#     4  10  19  36  61  86 116 154 195 238 290 349
#     4  10  21  37  59  88 120 153 194 247 298 348
#     4  11  24  42  60  83 120 161 198 241 293 352
#     4  10  22  38  60  89 118 154 199 247 293 349
#
# _framework density 19.218354999999999
#
# number of rings (size 3 to 8) (size 9 to 14) (size 15 to 20)
#    0.000    1.857    2.857    0.857    2.000    3.429 
#    0.000    2.857    0.000    0.857    0.000    0.000 
#    0.000    0.000    0.000    0.000    0.000    0.000 
#
# Total GULP energy -156375.962513 kJ/mol
# GULP energy per Si atom -5584.855804 kJ/mol
# Density = 1.917461 g / cm^3
# Si number density = 19.218355 Si / 1000 Ang^3
#
#
#
# Elastic Constant Matrix: (Units=GPa)
#
#
# Indices 1 2 3 4 5 6 
#
# 1 194.9957 22.9202 91.9736 0.0000 8.5026 0.0000
# 2 22.9202 7.3630 18.2083 0.0000 1.3611 0.0000
# 3 91.9736 18.2083 133.6033 0.0000 13.1508 0.0000
# 4 0.0000 0.0000 0.0000 22.7821 0.0000 -1.3258
# 5 8.5026 1.3611 13.1508 0.0000 39.4774 0.0000
# 6 0.0000 0.0000 0.0000 -1.3258 0.0000 28.5636
#
#
#
# Elastic Compliance Matrix: (Units=1/GPa)
#
#
# Indices 1 2 3 4 5 6 
#
# 1 0.009126 -0.019423 -0.003626 0.000000 -0.000088 0.000000
# 2 -0.019423 0.246398 -0.020456 0.000000 0.002502 0.000000
# 3 -0.003626 -0.020456 0.013051 0.000000 -0.002861 0.000000
# 4 0.000000 0.000000 0.000000 0.044013 0.000000 0.002043
# 5 -0.000088 0.002502 -0.002861 0.000000 0.026217 0.000000
# 6 0.000000 0.000000 0.000000 0.002043 0.000000 0.035104
#
#
# Mechanical properties :
#
#
# Convention : Reuss Voigt Hill
#
# Bulk Modulus (GPa) = 5.50771 66.90735 36.20753
# Shear Modulus (GPa) = 9.58883 31.68861 20.63872
#
# Velocity S-wave (km/s) = 2.23612 4.06504 3.28061
# Velocity P-wave (km/s) = 3.08854 7.54470 5.76462
#
# Compressibility (1/GPa) = 0.18156358
#
# Stress axis : x y z
#
# Youngs Moduli (GPa) = 109.58136 4.05848 76.62328
#
# Poissons Ratio (x) = 0.07883 0.27787
# Poissons Ratio (y) = 2.12837 1.56741
# Poissons Ratio (z) = 0.39740 0.08302
#
# Static dielectric constant tensor:
#      x y z
#    x 1.639390 0.000000 0.011610 
#    y 0.000000 1.671870 0.000000 
#    z 0.011610 0.000000 1.669930 
# 
# From -- ./inp_files/275606.got.cif
#   From: 2010.05.17/outbox.cif.g08.bks.cpg/sg12_138_cif.got.tgz:275606.got - 2010.06.03 13:09:07.
