data_PCOD9188614
_publ_section_title
;
Structure prediction by ZEFSAII (Michael W. Deem and Ramdas Pophale) SiO2 
 PCOD9188614
Probable space group: C 2/M
;
_chemical_formula_sum "Si O2"
_cell_formula_units_Z 64
_cell_length_a 15.856950
_cell_length_b 8.324372
_cell_length_c 24.525351
_cell_angle_alpha 90.000000
_cell_angle_beta 90.306557
_cell_angle_gamma 90.000000
_cell_volume 3237.279162
_symmetry_space_group_name_H-M "C 2/M"
_symmetry_group_IT_number 12
_symmetry_cell_setting 'monoclinic'
loop_
_space_group_symop_operation_xyz
x,y,z
-x,y,-z
-x,-y,-z
x,-y,z
1/2+x,1/2+y,z
1/2-x,1/2+y,-z
1/2-x,1/2-y,-z
1/2+x,1/2-y,z
loop_
_atom_site_type_symbol
_atom_site_label
_atom_site_fract_x
_atom_site_fract_y
_atom_site_fract_z
Si Si1 0.030092 0.694070 0.439837
Si Si2 0.373816 0.803325 0.364390
Si Si3 0.040058 0.189988 0.941534
Si Si4 0.380908 0.808605 0.240458
Si Si5 0.774477 0.313670 0.059523
Si Si6 0.222622 0.311364 0.173732
Si Si7 0.536578 0.195197 0.167950
Si Si8 0.279799 0.307619 0.559633
O O1 0.031396 0.500000 0.440045
O O2 0.958614 0.745971 0.396652
O O3 0.000000 0.746857 0.500000
O O4 0.124974 0.750923 0.428951
O O5 0.374650 0.746378 0.302049
O O6 0.290250 0.751486 0.396891
O O7 0.372991 0.000000 0.364412
O O8 0.978699 0.233194 0.891898
O O9 0.125519 0.288765 0.933782
O O10 0.060314 0.000000 0.940341
O O11 0.000000 0.226625 0.000000
O O12 0.296798 0.775441 0.206089
O O13 0.461333 0.747798 0.206778
O O14 0.392048 0.000000 0.244421
O O15 0.751594 0.500000 0.063713
O O16 0.732231 0.220235 0.109256
O O17 0.750000 0.250000 0.000000
O O18 0.231739 0.500000 0.184104
O O19 0.128748 0.259389 0.189685
O O20 0.534060 0.000000 0.163690
O O21 0.279024 0.500000 0.559721
O O22 0.250000 0.250000 0.500000
#
# Coordination Sequence:
#
# PCOD9188614 Si02
#       8
#     8   8   8   8   8   8   8   8
#     4  10  19  36  60  87 120 161 202 246 305 362
#     4   9  20  38  60  85 121 162 203 246 300 365
#     4  11  23  38  59  89 122 154 194 245 304 363
#     4  10  21  41  64  86 116 164 209 245 297 363
#     4  12  24  39  60  88 122 160 201 248 303 362
#     4  11  23  40  62  91 123 157 200 254 305 354
#     4  10  22  39  61  87 117 156 200 245 298 358
#     4  11  21  36  58  88 122 161 203 251 304 359
#
# _framework density 19.769687999999999
#
# number of rings (size 3 to 8) (size 9 to 14) (size 15 to 20)
#    0.000    1.500    2.500    3.000    0.000    5.250 
#    0.000    3.125    0.000    0.000    0.000    0.000 
#    0.000    0.000    0.000    0.000    0.000    0.000 
#
# Total GULP energy -178833.101020 kJ/mol
# GULP energy per Si atom -5588.534407 kJ/mol
# Density = 1.972469 g / cm^3
# Si number density = 19.769688 Si / 1000 Ang^3
#
#
#
# Elastic Constant Matrix: (Units=GPa)
#
#
# Indices 1 2 3 4 5 6 
#
# 1 155.5730 4.5636 68.9594 0.0000 -8.8327 0.0000
# 2 4.5636 10.1422 2.4803 0.0000 -6.8248 0.0000
# 3 68.9594 2.4803 144.3074 0.0000 -9.3261 0.0000
# 4 0.0000 0.0000 0.0000 10.9356 0.0000 1.3562
# 5 -8.8327 -6.8248 -9.3261 0.0000 25.5373 0.0000
# 6 0.0000 0.0000 0.0000 1.3562 0.0000 32.0160
#
#
#
# Elastic Compliance Matrix: (Units=1/GPa)
#
#
# Indices 1 2 3 4 5 6 
#
# 1 0.008246 -0.002190 -0.003847 0.000000 0.000862 0.000000
# 2 -0.002190 0.120799 0.001032 0.000000 0.031903 0.000000
# 3 -0.003847 0.001032 0.008892 0.000000 0.002192 0.000000
# 4 0.000000 0.000000 0.000000 0.091927 0.000000 -0.003894
# 5 0.000862 0.031903 0.002192 0.000000 0.048783 0.000000
# 6 0.000000 0.000000 0.000000 -0.003894 0.000000 0.031399
#
#
# Mechanical properties :
#
#
# Convention : Reuss Voigt Hill
#
# Bulk Modulus (GPa) = 7.81691 51.33655 29.57673
# Shear Modulus (GPa) = 13.78549 29.29907 21.54228
#
# Velocity S-wave (km/s) = 2.64352 3.85388 3.30458
# Velocity P-wave (km/s) = 3.64419 6.76955 5.43631
#
# Compressibility (1/GPa) = 0.12792773
#
# Stress axis : x y z
#
# Youngs Moduli (GPa) = 121.26522 8.27819 112.45937
#
# Poissons Ratio (x) = 0.01813 0.43267
# Poissons Ratio (y) = 0.26553 -0.11605
# Poissons Ratio (z) = 0.46655 -0.00854
#
# Static dielectric constant tensor:
#      x y z
#    x 1.687010 0.000000 -0.010980 
#    y 0.000000 1.694720 0.000000 
#    z -0.010980 0.000000 1.678950 
# 
# From -- ./inp_files/338903.got.cif
#   From: 2010.05.17/outbox.cif.g08.bks.cpg/sg12_170_cif.got.tgz:338903.got - 2010.06.03 13:09:07.
