data_PCOD9188689
_publ_section_title
;
Structure prediction by ZEFSAII (Michael W. Deem and Ramdas Pophale) SiO2 
 PCOD9188689
Probable space group: C 2/M
;
_chemical_formula_sum "Si O2"
_cell_formula_units_Z 64
_cell_length_a 20.752659
_cell_length_b 15.884408
_cell_length_c 11.764413
_cell_angle_alpha 90.000000
_cell_angle_beta 132.164830
_cell_angle_gamma 90.000000
_cell_volume 2874.486602
_symmetry_space_group_name_H-M "C 2/M"
_symmetry_group_IT_number 12
_symmetry_cell_setting 'monoclinic'
loop_
_space_group_symop_operation_xyz
x,y,z
-x,y,-z
-x,-y,-z
x,-y,z
1/2+x,1/2+y,z
1/2-x,1/2+y,-z
1/2-x,1/2-y,-z
1/2+x,1/2-y,z
loop_
_atom_site_type_symbol
_atom_site_label
_atom_site_fract_x
_atom_site_fract_y
_atom_site_fract_z
Si Si1 0.865798 0.819640 0.193806
Si Si2 0.156379 0.844420 0.306302
Si Si3 0.039070 0.630242 0.369618
Si Si4 0.169276 0.906466 0.066682
Si Si5 0.713658 0.595952 0.714374
Si Si6 0.448632 0.332957 0.611376
Si Si7 0.868249 0.627047 0.278474
Si Si8 0.170774 0.357678 0.342812
O O1 0.787643 0.870788 0.159375
O O2 0.859930 0.726119 0.236310
O O3 0.959932 0.861254 0.331890
O O4 0.861965 0.832623 0.054435
O O5 0.151617 0.882092 0.175922
O O6 0.076948 0.868613 0.295284
O O7 0.159256 0.742479 0.308955
O O8 0.246335 0.870255 0.474997
O O9 0.037936 0.732436 0.363270
O O10 0.092718 0.613578 0.548846
O O11 0.089440 0.605346 0.315270
O O12 0.942360 0.597386 0.278313
O O13 0.272727 0.909059 0.168968
O O14 0.133840 0.000000 0.998408
O O15 0.686367 0.500000 0.678676
O O16 0.637472 0.649863 0.563567
O O17 0.800492 0.606083 0.744100
#
# Coordination Sequence:
#
# PCOD9188689 Si02
#       8
#     8   8   8   8   8   8   8   8
#     4  11  22  38  57  78 109 153 196 226 271 330
#     4   9  18  34  57  78 106 145 183 225 278 327
#     4   9  16  34  63  87 104 132 181 245 287 318
#     4  12  25  38  52  80 123 158 182 221 278 348
#     4  11  21  32  52  83 113 146 187 232 277 326
#     4   9  19  35  58  83 105 138 190 245 279 315
#     4  10  19  36  61  84 106 141 187 233 279 329
#     4   9  17  34  58  83 108 137 181 236 284 325
#
# _framework density 22.264845999999999
#
# number of rings (size 3 to 8) (size 9 to 14) (size 15 to 20)
#    0.000    2.000    2.500    2.625    0.000    4.000 
#    0.000    2.500    0.000    2.250    0.000    1.750 
#    0.000    0.000    0.000    0.000    0.000    0.000 
#
# Total GULP energy -178559.297775 kJ/mol
# GULP energy per Si atom -5579.978055 kJ/mol
# Density = 2.221417 g / cm^3
# Si number density = 22.264846 Si / 1000 Ang^3
#
#
#
# Elastic Constant Matrix: (Units=GPa)
#
#
# Indices 1 2 3 4 5 6 
#
# 1 155.5480 22.3480 7.6423 0.0000 -19.9649 0.0000
# 2 22.3480 58.5558 -4.3118 0.0000 -7.9728 0.0000
# 3 7.6423 -4.3118 25.0436 0.0000 -14.9041 0.0000
# 4 0.0000 0.0000 0.0000 10.8914 0.0000 -1.8041
# 5 -19.9649 -7.9728 -14.9041 0.0000 32.5511 0.0000
# 6 0.0000 0.0000 0.0000 -1.8041 0.0000 -11.0940
#
#
#
# Elastic Compliance Matrix: (Units=1/GPa)
#
#
# Indices 1 2 3 4 5 6 
#
# 1 0.007253 -0.002294 -0.000406 0.000000 0.003701 0.000000
# 2 -0.002294 0.019550 0.008355 0.000000 0.007207 0.000000
# 3 -0.000406 0.008355 0.058504 0.000000 0.028584 0.000000
# 4 0.000000 0.000000 0.000000 0.089407 0.000000 -0.014539
# 5 0.003701 0.007207 0.028584 0.000000 0.047844 0.000000
# 6 0.000000 0.000000 0.000000 -0.014539 0.000000 -0.087774
#
#
# Mechanical properties :
#
#
# Convention : Reuss Voigt Hill
#
# Bulk Modulus (GPa) = 10.35020 32.27828 21.31424
# Shear Modulus (GPa) = 32.11723 20.70097 26.40910
#
# Velocity S-wave (km/s) = 3.80216 3.05250 3.44777
# Velocity P-wave (km/s) = 4.89223 5.19159 5.04413
#
# Compressibility (1/GPa) = 0.09661654
#
# Stress axis : x y z
#
# Youngs Moduli (GPa) = 137.86469 51.15142 17.09288
#
# Poissons Ratio (x) = 0.11736 0.00694
# Poissons Ratio (y) = 0.31630 -0.14281
# Poissons Ratio (z) = 0.05596 -0.42736
#
# Static dielectric constant tensor:
#      x y z
#    x 1.850950 0.000000 0.001910 
#    y 0.000000 1.824910 0.000000 
#    z 0.001910 0.000000 1.855620 
# 
# From -- ./inp_files/168814.got.cif
#   From: 2010.05.17/outbox.cif.g08.bks.cpg/sg12_85_cif.got.tgz:168814.got - 2010.06.03 13:09:07.
