data_PCOD9188361
_publ_section_title
;
Structure prediction by ZEFSAII (Michael W. Deem and Ramdas Pophale) SiO2 
 PCOD9188361
Probable space group: C 2/M
;
_chemical_formula_sum "Si O2"
_cell_formula_units_Z 56
_cell_length_a 14.673178
_cell_length_b 8.656026
_cell_length_c 25.502268
_cell_angle_alpha 90.000000
_cell_angle_beta 71.728374
_cell_angle_gamma 90.000000
_cell_volume 3075.767434
_symmetry_space_group_name_H-M "C 2/M"
_symmetry_group_IT_number 12
_symmetry_cell_setting 'monoclinic'
loop_
_space_group_symop_operation_xyz
x,y,z
-x,y,-z
-x,-y,-z
x,-y,z
1/2+x,1/2+y,z
1/2-x,1/2+y,-z
1/2-x,1/2-y,-z
1/2+x,1/2-y,z
loop_
_atom_site_type_symbol
_atom_site_label
_atom_site_fract_x
_atom_site_fract_y
_atom_site_fract_z
Si Si1 0.604805 0.814679 0.047726
Si Si2 0.128262 0.185252 0.735917
Si Si3 0.976813 0.187336 0.349574
Si Si4 0.303368 0.316921 0.070193
Si Si5 0.684430 0.686064 0.352211
Si Si6 0.412787 0.815885 0.143060
Si Si7 0.278801 0.685743 0.438508
O O1 0.697966 0.780784 0.066538
O O2 0.509583 0.765887 0.095319
O O3 0.600581 0.000000 0.040032
O O4 0.623247 0.736528 0.988482
O O5 0.053097 0.234093 0.703959
O O6 0.230651 0.255989 0.700994
O O7 0.097449 0.239418 0.798640
O O8 0.135915 0.000000 0.732812
O O9 0.887363 0.232922 0.402583
O O10 0.080345 0.240275 0.350732
O O11 0.979660 0.000000 0.349413
O O12 0.310600 0.500000 0.076551
O O13 0.327248 0.231682 0.119625
O O14 0.685331 0.500000 0.353700
O O15 0.710272 0.750679 0.404947
O O16 0.415882 0.000000 0.148721
O O17 0.274796 0.500000 0.439188
O O18 0.250000 0.750000 0.500000
#
# Coordination Sequence:
#
# PCOD9188361 Si02
#       7
#     8   8   8   8   8   8   8
#     4   9  20  37  54  75 106 139 172 213 262 316
#     4  10  21  38  55  77 107 138 175 221 265 312
#     4   8  18  36  57  77 105 143 179 214 261 314
#     4  10  20  35  55  79 105 135 172 215 264 317
#     4  10  19  36  59  81 105 141 181 218 263 314
#     4  11  22  36  54  77 105 139 176 216 263 314
#     4  10  20  36  55  82 115 146 179 219 261 306
#
# _framework density 18.206838000000001
#
# number of rings (size 3 to 8) (size 9 to 14) (size 15 to 20)
#    0.000    2.286    0.000    3.429    0.000    5.143 
#    0.000   14.286    0.000    0.000    0.000    0.000 
#    0.000    0.000    0.000    0.000    0.000    0.000 
#
# Total GULP energy -156308.755288 kJ/mol
# GULP energy per Si atom -5582.455546 kJ/mol
# Density = 1.816540 g / cm^3
# Si number density = 18.206838 Si / 1000 Ang^3
#
#
#
# Elastic Constant Matrix: (Units=GPa)
#
#
# Indices 1 2 3 4 5 6 
#
# 1 127.9107 30.7497 53.9237 0.0000 9.0039 0.0000
# 2 30.7497 47.3049 31.2219 0.0000 3.8295 0.0000
# 3 53.9237 31.2219 112.7289 0.0000 12.7437 0.0000
# 4 0.0000 0.0000 0.0000 36.7914 0.0000 2.2399
# 5 9.0039 3.8295 12.7437 0.0000 9.6388 0.0000
# 6 0.0000 0.0000 0.0000 2.2399 0.0000 24.1555
#
#
#
# Elastic Compliance Matrix: (Units=1/GPa)
#
#
# Indices 1 2 3 4 5 6 
#
# 1 0.010560 -0.004292 -0.003457 0.000000 -0.003589 0.000000
# 2 -0.004292 0.027620 -0.005655 0.000000 0.000512 0.000000
# 3 -0.003457 -0.005655 0.013487 0.000000 -0.012356 0.000000
# 4 0.000000 0.000000 0.000000 0.027335 0.000000 -0.002535
# 5 -0.003589 0.000512 -0.012356 0.000000 0.123233 0.000000
# 6 0.000000 0.000000 0.000000 -0.002535 0.000000 0.041634
#
#
# Mechanical properties :
#
#
# Convention : Reuss Voigt Hill
#
# Bulk Modulus (GPa) = 40.22479 57.74836 48.98658
# Shear Modulus (GPa) = 17.92360 25.58707 21.75534
#
# Velocity S-wave (km/s) = 3.14099 3.75287 3.46048
# Velocity P-wave (km/s) = 5.94101 7.11095 6.55214
#
# Compressibility (1/GPa) = 0.02486029
#
# Stress axis : x y z
#
# Youngs Moduli (GPa) = 94.70001 36.20556 74.14360
#
# Poissons Ratio (x) = 0.15540 0.25630
# Poissons Ratio (y) = 0.40646 0.41925
# Poissons Ratio (z) = 0.32736 0.20473
#
# Static dielectric constant tensor:
#      x y z
#    x 1.632100 0.000000 -0.000610 
#    y 0.000000 1.617390 0.000000 
#    z -0.000610 0.000000 1.591100 
# 
# From -- ./inp_files/337919.got.cif
#   From: 2010.05.17/outbox.cif.g08.bks.cpg/sg12_169_cif.got.tgz:337919.got - 2010.06.03 13:09:07.
