data_PCOD9188572
_publ_section_title
;
Structure prediction by ZEFSAII (Michael W. Deem and Ramdas Pophale) SiO2 
 PCOD9188572
Probable space group: C 2/M
;
_chemical_formula_sum "Si O2"
_cell_formula_units_Z 48
_cell_length_a 11.038483
_cell_length_b 14.046459
_cell_length_c 20.651186
_cell_angle_alpha 90.000000
_cell_angle_beta 131.602840
_cell_angle_gamma 90.000000
_cell_volume 2394.343665
_symmetry_space_group_name_H-M "C 2/M"
_symmetry_group_IT_number 12
_symmetry_cell_setting 'monoclinic'
loop_
_space_group_symop_operation_xyz
x,y,z
-x,y,-z
-x,-y,-z
x,-y,z
1/2+x,1/2+y,z
1/2-x,1/2+y,-z
1/2-x,1/2-y,-z
1/2+x,1/2-y,z
loop_
_atom_site_type_symbol
_atom_site_label
_atom_site_fract_x
_atom_site_fract_y
_atom_site_fract_z
Si Si1 0.293723 0.893099 0.729456
Si Si2 0.567058 0.750176 0.856435
Si Si3 0.148377 0.889894 0.003113
Si Si4 0.489948 0.605667 0.276947
Si Si5 0.682505 0.637191 0.548820
Si Si6 0.323511 0.134974 0.461030
O O1 0.402509 0.811376 0.799518
O O2 0.112477 0.883708 0.693377
O O3 0.287546 0.883538 0.649927
O O4 0.351201 0.000000 0.766584
O O5 0.707302 0.829060 0.913316
O O6 0.563181 0.689250 0.789422
O O7 0.592358 0.672275 0.921584
O O8 0.193311 0.000000 0.003438
O O9 0.000000 0.893079 0.000000
O O10 0.452031 0.500000 0.236837
O O11 0.679142 0.609615 0.360761
O O12 0.500000 0.602928 0.500000
O O13 0.670185 0.750646 0.536509
O O14 0.766335 0.603470 0.512307
O O15 0.500000 0.102705 0.500000
#
# Coordination Sequence:
#
# PCOD9188572 Si02
#       6
#     8   8   8   8   8   8
#     4  11  23  38  62  93 123 161 214 259 299 360
#     4  11  22  40  65  91 123 158 196 251 310 366
#     4  10  22  42  66  91 121 157 196 240 304 383
#     4  11  23  39  61  91 126 163 207 259 310 360
#     4  10  19  36  60  85 119 171 213 253 308 362
#     4  10  21  36  59  86 124 168 214 260 310 360
#
# _framework density 20.047248
#
# number of rings (size 3 to 8) (size 9 to 14) (size 15 to 20)
#    0.000    1.500    3.333    2.000    0.000    1.333 
#    3.000    0.000    0.000    8.000    0.000    0.000 
#    0.000    0.000    0.000    0.000    0.000    0.000 
#
# Total GULP energy -133967.227690 kJ/mol
# GULP energy per Si atom -5581.967820 kJ/mol
# Density = 2.000162 g / cm^3
# Si number density = 20.047248 Si / 1000 Ang^3
#
#
#
# Elastic Constant Matrix: (Units=GPa)
#
#
# Indices 1 2 3 4 5 6 
#
# 1 105.9118 51.0784 46.7182 0.0000 3.4534 0.0000
# 2 51.0784 169.7578 50.0485 0.0000 0.5437 0.0000
# 3 46.7182 50.0485 109.9451 0.0000 3.5939 0.0000
# 4 0.0000 0.0000 0.0000 5.9195 0.0000 -9.8516
# 5 3.4534 0.5437 3.5939 0.0000 23.6698 0.0000
# 6 0.0000 0.0000 0.0000 -9.8516 0.0000 -0.9850
#
#
#
# Elastic Compliance Matrix: (Units=1/GPa)
#
#
# Indices 1 2 3 4 5 6 
#
# 1 0.012529 -0.002550 -0.004126 0.000000 -0.001143 0.000000
# 2 -0.002550 0.007325 -0.002269 0.000000 0.000548 0.000000
# 3 -0.004126 -0.002269 0.011919 0.000000 -0.001156 0.000000
# 4 0.000000 0.000000 0.000000 0.009574 0.000000 -0.095754
# 5 -0.001143 0.000548 -0.001156 0.000000 0.042578 0.000000
# 6 0.000000 0.000000 0.000000 -0.095754 0.000000 -0.057535
#
#
# Mechanical properties :
#
#
# Convention : Reuss Voigt Hill
#
# Bulk Modulus (GPa) = 72.02445 75.70055 73.86250
# Shear Modulus (GPa) = 102.23709 21.57215 61.90462
#
# Velocity S-wave (km/s) = 7.14904 3.28390 5.56295
# Velocity P-wave (km/s) = 10.20541 7.22646 8.84229
#
# Compressibility (1/GPa) = 0.01388417
#
# Stress axis : x y z
#
# Youngs Moduli (GPa) = 79.81733 136.51638 83.89828
#
# Poissons Ratio (x) = 0.34808 0.34614
# Poissons Ratio (y) = 0.20351 0.19036
# Poissons Ratio (z) = 0.32930 0.30975
#
# Static dielectric constant tensor:
#      x y z
#    x 1.696030 0.000000 0.002230 
#    y 0.000000 1.723070 0.000000 
#    z 0.002230 0.000000 1.691950 
# 
# From -- ./inp_files/251399.got.cif
#   From: 2010.05.17/outbox.cif.g08.bks.cpg/sg12_126_cif.got.tgz:251399.got - 2010.06.03 13:09:07.
