data_PCOD9188236
_publ_section_title
;
Structure prediction by ZEFSAII (Michael W. Deem and Ramdas Pophale) SiO2 
 PCOD9188236
Probable space group: C 2/M
;
_chemical_formula_sum "Si O2"
_cell_formula_units_Z 48
_cell_length_a 19.049750
_cell_length_b 11.829423
_cell_length_c 13.536048
_cell_angle_alpha 90.000000
_cell_angle_beta 116.945222
_cell_angle_gamma 90.000000
_cell_volume 2719.173519
_symmetry_space_group_name_H-M "C 2/M"
_symmetry_group_IT_number 12
_symmetry_cell_setting 'monoclinic'
loop_
_space_group_symop_operation_xyz
x,y,z
-x,y,-z
-x,-y,-z
x,-y,z
1/2+x,1/2+y,z
1/2-x,1/2+y,-z
1/2-x,1/2-y,-z
1/2+x,1/2-y,z
loop_
_atom_site_type_symbol
_atom_site_label
_atom_site_fract_x
_atom_site_fract_y
_atom_site_fract_z
Si Si1 0.986081 0.745284 0.688884
Si Si2 0.630169 0.629890 0.685361
Si Si3 0.821107 0.262304 0.469727
Si Si4 0.295570 0.631622 0.051240
Si Si5 0.982517 0.500000 0.327771
Si Si6 0.028144 0.132182 0.912736
Si Si7 0.632416 0.000000 0.572301
O O1 0.052740 0.795482 0.658289
O O2 0.009118 0.615793 0.724796
O O3 0.988555 0.811160 0.792805
O O4 0.902645 0.750876 0.581751
O O5 0.606060 0.500000 0.655797
O O6 0.675702 0.675282 0.619071
O O7 0.681621 0.635362 0.818073
O O8 0.750000 0.250000 0.500000
O O9 0.820893 0.386955 0.421972
O O10 0.264596 0.500000 0.013148
O O11 0.377979 0.639796 0.044054
O O12 0.250000 0.750000 0.000000
O O13 0.902822 0.500000 0.340509
O O14 0.055657 0.500000 0.451741
O O15 0.007196 0.000000 0.896735
O O16 0.000000 0.178944 0.000000
#
# Coordination Sequence:
#
# PCOD9188236 Si02
#       7
#     8   8   8   8   4   8   4
#     4  10  19  36  58  79 107 145 190 222 264 328
#     4  10  21  37  57  81 110 144 182 228 271 317
#     4  11  23  35  53  82 115 146 179 224 277 329
#     4   9  19  38  60  83 113 145 183 229 281 331
#     4   9  16  32  59  72 100 150 184 220 258 312
#     4   9  19  37  60  82 109 142 181 232 279 321
#     4   9  18  36  50  74 109 146 182 217 268 317
#
# _framework density 17.652422000000001
#
# number of rings (size 3 to 8) (size 9 to 14) (size 15 to 20)
#    0.000    2.333    1.667    2.000    1.167    3.333 
#    7.500    0.417    0.000    0.000    0.000    0.000 
#    0.000    0.000    0.000    0.000    0.000    0.000 
#
# Total GULP energy -133742.619012 kJ/mol
# GULP energy per Si atom -5572.609125 kJ/mol
# Density = 1.761224 g / cm^3
# Si number density = 17.652422 Si / 1000 Ang^3
#
#
#
# Elastic Constant Matrix: (Units=GPa)
#
#
# Indices 1 2 3 4 5 6 
#
# 1 76.7568 40.0623 41.9597 0.0000 -23.3833 0.0000
# 2 40.0623 123.3250 33.0896 0.0000 0.7103 0.0000
# 3 41.9597 33.0896 56.2323 0.0000 -22.0165 0.0000
# 4 0.0000 0.0000 0.0000 33.8970 0.0000 -1.2887
# 5 -23.3833 0.7103 -22.0165 0.0000 27.8683 0.0000
# 6 0.0000 0.0000 0.0000 -1.2887 0.0000 19.9648
#
#
#
# Elastic Compliance Matrix: (Units=1/GPa)
#
#
# Indices 1 2 3 4 5 6 
#
# 1 0.025938 -0.005595 -0.010837 0.000000 0.013345 0.000000
# 2 -0.005595 0.011828 -0.006865 0.000000 -0.010419 0.000000
# 3 -0.010837 -0.006865 0.038249 0.000000 0.021299 0.000000
# 4 0.000000 0.000000 0.000000 0.029574 0.000000 0.001909
# 5 0.013345 -0.010419 0.021299 0.000000 0.064172 0.000000
# 6 0.000000 0.000000 0.000000 0.001909 0.000000 0.050211
#
#
# Mechanical properties :
#
#
# Convention : Reuss Voigt Hill
#
# Bulk Modulus (GPa) = 33.98992 54.05970 44.02481
# Shear Modulus (GPa) = 18.09145 25.75950 21.92547
#
# Velocity S-wave (km/s) = 3.20483 3.82417 3.52812
# Velocity P-wave (km/s) = 5.74382 7.08449 6.44909
#
# Compressibility (1/GPa) = 0.02942049
#
# Stress axis : x y z
#
# Youngs Moduli (GPa) = 38.55324 84.54424 26.14467
#
# Poissons Ratio (x) = 0.47303 0.28334
# Poissons Ratio (y) = 0.21571 0.17948
# Poissons Ratio (z) = 0.41782 0.58037
#
# Static dielectric constant tensor:
#      x y z
#    x 1.585060 0.000000 0.007190 
#    y 0.000000 1.629550 0.000000 
#    z 0.007190 0.000000 1.594260 
# 
# From -- ./inp_files/154254.got.cif
#   From: 2010.05.17/outbox.cif.g08.bks.cpg/sg12_78_cif.got.tgz:154254.got - 2010.06.03 13:09:07.
