data_PCOD9188034
_publ_section_title
;
Structure prediction by ZEFSAII (Michael W. Deem and Ramdas Pophale) SiO2 
 PCOD9188034
Probable space group: C 2/M
;
_chemical_formula_sum "Si O2"
_cell_formula_units_Z 46
_cell_length_a 5.218988
_cell_length_b 27.556849
_cell_length_c 18.321365
_cell_angle_alpha 90.000000
_cell_angle_beta 51.941897
_cell_angle_gamma 90.000000
_cell_volume 2074.729000
_symmetry_space_group_name_H-M "C 2/M"
_symmetry_group_IT_number 12
_symmetry_cell_setting 'monoclinic'
loop_
_space_group_symop_operation_xyz
x,y,z
-x,y,-z
-x,-y,-z
x,-y,z
1/2+x,1/2+y,z
1/2-x,1/2+y,-z
1/2-x,1/2-y,-z
1/2+x,1/2-y,z
loop_
_atom_site_type_symbol
_atom_site_label
_atom_site_fract_x
_atom_site_fract_y
_atom_site_fract_z
Si Si1 0.500000 0.500000 0.000000
Si Si2 0.857582 0.056939 0.636376
Si Si3 0.581381 0.363334 0.151269
Si Si4 0.000000 0.717033 0.000000
Si Si5 0.509109 0.228160 0.602542
Si Si6 0.633621 0.118499 0.371232
Si Si7 0.584081 0.918522 0.146967
O O1 0.334026 0.458549 0.079650
O O2 0.636190 0.081844 0.613314
O O3 0.640316 0.061514 0.748157
O O4 0.166766 0.090744 0.601009
O O5 0.929872 0.000000 0.610054
O O6 0.386577 0.365889 0.262066
O O7 0.305856 0.375130 0.139809
O O8 0.857696 0.403978 0.118515
O O9 0.784316 0.316750 0.091653
O O10 0.750000 0.750000 0.000000
O O11 0.750000 0.250000 0.500000
O O12 0.165948 0.254655 0.650661
O O13 0.509744 0.171146 0.587015
#
# Coordination Sequence:
#
# PCOD9188034 Si02
#       7
#     2   8   8   4   8   8   8
#     4  12  20  32  52  78 100 154 196 232 292 322
#     4  10  19  36  53  86 120 155 196 239 277 353
#     4  10  22  39  50  75 109 144 187 243 288 334
#     4  12  24  37  54  71  98 147 196 241 288 338
#     4  10  21  38  61  93 121 146 185 241 299 359
#     4  10  21  35  61  84 117 156 192 240 302 341
#     4  10  21  33  53  74 108 142 188 240 286 330
#
# _framework density 22.171572000000001
#
# number of rings (size 3 to 8) (size 9 to 14) (size 15 to 20)
#    0.000    1.739    0.870    3.652    0.000    2.783 
#    0.000    0.000    0.000    0.000    0.000   48.696 
#    0.000    0.000    0.000    0.000    0.000    0.000 
#
# Total GULP energy -128198.702652 kJ/mol
# GULP energy per Si atom -5573.856637 kJ/mol
# Density = 2.212111 g / cm^3
# Si number density = 22.171572 Si / 1000 Ang^3
#
#
#
# Elastic Constant Matrix: (Units=GPa)
#
#
# Indices 1 2 3 4 5 6 
#
# 1 139.2103 43.4525 8.0659 0.0000 -7.1218 0.0000
# 2 43.4525 162.9437 22.9683 0.0000 -9.5706 0.0000
# 3 8.0659 22.9683 51.0474 0.0000 -4.5779 0.0000
# 4 0.0000 0.0000 0.0000 19.9904 0.0000 15.6127
# 5 -7.1218 -9.5706 -4.5779 0.0000 12.8916 0.0000
# 6 0.0000 0.0000 0.0000 15.6127 0.0000 -9.6705
#
#
#
# Elastic Compliance Matrix: (Units=1/GPa)
#
#
# Indices 1 2 3 4 5 6 
#
# 1 0.007942 -0.001929 -0.000126 0.000000 0.002910 0.000000
# 2 -0.001929 0.007221 -0.002643 0.000000 0.003357 0.000000
# 3 -0.000126 -0.002643 0.021295 0.000000 0.005530 0.000000
# 4 0.000000 0.000000 0.000000 0.022126 0.000000 0.035721
# 5 0.002910 0.003357 0.005530 0.000000 0.083633 0.000000
# 6 0.000000 0.000000 0.000000 0.035721 0.000000 -0.045737
#
#
# Mechanical properties :
#
#
# Convention : Reuss Voigt Hill
#
# Bulk Modulus (GPa) = 36.95332 55.79720 46.37526
# Shear Modulus (GPa) = 43.51740 23.22328 33.37034
#
# Velocity S-wave (km/s) = 4.43511 3.23992 3.88377
# Velocity P-wave (km/s) = 6.55210 6.26234 6.40886
#
# Compressibility (1/GPa) = 0.02706116
#
# Stress axis : x y z
#
# Youngs Moduli (GPa) = 125.91736 138.47949 46.95987
#
# Poissons Ratio (x) = 0.26715 0.00591
# Poissons Ratio (y) = 0.24291 0.12413
# Poissons Ratio (z) = 0.01585 0.36604
#
# Static dielectric constant tensor:
#      x y z
#    x 2.252330 0.000000 0.113760 
#    y 0.000000 1.770610 0.000000 
#    z 0.113760 0.000000 1.854930 
# 
# From -- ./inp_files/298057.got.cif
#   From: 2010.05.17/outbox.cif.g08.bks.cpg/sg12_150_cif.got.tgz:298057.got - 2010.06.03 13:09:07.
