data_PCOD9188752
_publ_section_title
;
Structure prediction by ZEFSAII (Michael W. Deem and Ramdas Pophale) SiO2 
 PCOD9188752
Probable space group: C 2/M
;
_chemical_formula_sum "Si O2"
_cell_formula_units_Z 56
_cell_length_a 16.414794
_cell_length_b 8.955206
_cell_length_c 23.321356
_cell_angle_alpha 90.000000
_cell_angle_beta 57.776405
_cell_angle_gamma 90.000000
_cell_volume 2900.157955
_symmetry_space_group_name_H-M "C 2/M"
_symmetry_group_IT_number 12
_symmetry_cell_setting 'monoclinic'
loop_
_space_group_symop_operation_xyz
x,y,z
-x,y,-z
-x,-y,-z
x,-y,z
1/2+x,1/2+y,z
1/2-x,1/2+y,-z
1/2-x,1/2-y,-z
1/2+x,1/2-y,z
loop_
_atom_site_type_symbol
_atom_site_label
_atom_site_fract_x
_atom_site_fract_y
_atom_site_fract_z
Si Si1 0.561540 0.324479 0.202393
Si Si2 0.197113 0.180392 0.347858
Si Si3 0.116113 0.323146 0.788837
Si Si4 0.600492 0.173066 0.929153
Si Si5 0.768370 0.674944 0.931913
Si Si6 0.303648 0.819640 0.425510
Si Si7 0.515745 0.320671 0.348699
O O1 0.573946 0.500000 0.187924
O O2 0.456740 0.271179 0.221806
O O3 0.638677 0.238212 0.135363
O O4 0.568152 0.297071 0.267839
O O5 0.274944 0.216415 0.269219
O O6 0.245175 0.227193 0.389879
O O7 0.090452 0.231631 0.369828
O O8 0.190449 0.000000 0.352408
O O9 0.103182 0.500000 0.780911
O O10 0.092672 0.300966 0.864302
O O11 0.677561 0.283284 0.926965
O O12 0.633185 0.000000 0.924564
O O13 0.500000 0.188717 0.000000
O O14 0.779345 0.500000 0.936022
O O15 0.750000 0.750000 0.000000
O O16 0.250000 0.750000 0.500000
O O17 0.413261 0.760628 0.384929
O O18 0.303615 0.000000 0.427615
O O19 0.499252 0.500000 0.360804
#
# Coordination Sequence:
#
# PCOD9188752 Si02
#       7
#     8   8   8   8   8   8   8
#     4  11  22  37  61  91 124 157 200 255 310 367
#     4   9  19  37  62  88 120 166 211 248 301 375
#     4  10  19  36  61  87 121 162 205 247 301 373
#     4  10  21  37  58  85 117 155 198 249 309 372
#     4  12  25  40  59  83 117 158 205 257 310 371
#     4  11  23  41  64  91 126 164 208 259 313 374
#     4  10  21  40  65  93 124 163 208 253 304 369
#
# _framework density 19.309293
#
# number of rings (size 3 to 8) (size 9 to 14) (size 15 to 20)
#    0.000    1.571    1.429    3.857    0.000    5.429 
#    0.000    5.000    0.000    0.000    0.000    0.000 
#    0.000    0.000    0.000    0.000    0.000    0.000 
#
# Total GULP energy -156422.499542 kJ/mol
# GULP energy per Si atom -5586.517841 kJ/mol
# Density = 1.926534 g / cm^3
# Si number density = 19.309293 Si / 1000 Ang^3
#
#
#
# Elastic Constant Matrix: (Units=GPa)
#
#
# Indices 1 2 3 4 5 6 
#
# 1 137.5530 52.1605 51.5605 0.0000 1.5277 0.0000
# 2 52.1605 64.9606 48.3591 0.0000 -1.1282 0.0000
# 3 51.5605 48.3591 103.5837 0.0000 4.3853 0.0000
# 4 0.0000 0.0000 0.0000 32.9704 0.0000 -3.0739
# 5 1.5277 -1.1282 4.3853 0.0000 22.9129 0.0000
# 6 0.0000 0.0000 0.0000 -3.0739 0.0000 34.7784
#
#
#
# Elastic Compliance Matrix: (Units=1/GPa)
#
#
# Indices 1 2 3 4 5 6 
#
# 1 0.010732 -0.007164 -0.001968 0.000000 -0.000692 0.000000
# 2 -0.007164 0.028626 -0.009959 0.000000 0.003793 0.000000
# 3 -0.001968 -0.009959 0.015423 0.000000 -0.003311 0.000000
# 4 0.000000 0.000000 0.000000 0.030582 0.000000 0.002703
# 5 -0.000692 0.003793 -0.003311 0.000000 0.044510 0.000000
# 6 0.000000 0.000000 0.000000 0.002703 0.000000 0.028992
#
#
# Mechanical properties :
#
#
# Convention : Reuss Voigt Hill
#
# Bulk Modulus (GPa) = 60.24442 67.80637 64.02539
# Shear Modulus (GPa) = 24.68145 28.40018 26.54082
#
# Velocity S-wave (km/s) = 3.57909 3.83927 3.71146
# Velocity P-wave (km/s) = 6.95322 7.40577 7.18306
#
# Compressibility (1/GPa) = 0.01659905
#
# Stress axis : x y z
#
# Youngs Moduli (GPa) = 93.17916 34.93313 64.83726
#
# Poissons Ratio (x) = 0.25027 0.12760
# Poissons Ratio (y) = 0.66756 0.64570
# Poissons Ratio (z) = 0.18338 0.34789
#
# Static dielectric constant tensor:
#      x y z
#    x 1.681140 0.000000 0.003380 
#    y 0.000000 1.649910 0.000000 
#    z 0.003380 0.000000 1.828230 
# 
# From -- ./inp_files/338488.got.cif
#   From: 2010.05.17/outbox.cif.g08.bks.cpg/sg12_170_cif.got.tgz:338488.got - 2010.06.03 13:09:07.
