data_PCOD9188475
_publ_section_title
;
Structure prediction by ZEFSAII (Michael W. Deem and Ramdas Pophale) SiO2 
 PCOD9188475
Probable space group: C 2/M
;
_chemical_formula_sum "Si O2"
_cell_formula_units_Z 28
_cell_length_a 10.442754
_cell_length_b 21.083120
_cell_length_c 9.479682
_cell_angle_alpha 90.000000
_cell_angle_beta 31.649430
_cell_angle_gamma 90.000000
_cell_volume 1095.145283
_symmetry_space_group_name_H-M "C 2/M"
_symmetry_group_IT_number 12
_symmetry_cell_setting 'monoclinic'
loop_
_space_group_symop_operation_xyz
x,y,z
-x,y,-z
-x,-y,-z
x,-y,z
1/2+x,1/2+y,z
1/2-x,1/2+y,-z
1/2-x,1/2-y,-z
1/2+x,1/2-y,z
loop_
_atom_site_type_symbol
_atom_site_label
_atom_site_fract_x
_atom_site_fract_y
_atom_site_fract_z
Si Si1 0.878176 0.139291 0.810872
Si Si2 0.766218 0.000000 0.821630
Si Si3 0.500000 0.104068 0.500000
Si Si4 0.500000 0.394499 0.000000
Si Si5 0.121659 0.684494 0.664503
O O1 0.955373 0.147430 0.903034
O O2 0.144472 0.148131 0.486768
O O3 0.791118 0.066534 0.879651
O O4 0.639202 0.183311 0.008479
O O5 0.000000 0.000000 0.500000
O O6 0.500000 0.000000 0.000000
O O7 0.247952 0.068064 0.747620
O O8 0.541215 0.147724 0.598086
O O9 0.250000 0.750000 0.500000
#
# Coordination Sequence:
#
# PCOD9188475 Si02
#       5
#     8   4   4   4   8
#     4  10  21  39  62  87 120 162 204 259 318 357
#     4  12  26  45  62  85 132 176 216 260 288 372
#     4   8  16  30  50  81 118 145 172 250 302 352
#     4   8  16  33  60  84 110 138 192 251 312 354
#     4  10  19  36  59  89 120 153 202 258 313 375
#
# _framework density 25.567385000000002
#
# number of rings (size 3 to 8) (size 9 to 14) (size 15 to 20)
#    0.000    2.286    0.000    2.571    0.000    0.571 
#    7.714    0.000    0.000   12.000    0.000    0.000 
#    0.000    0.000    0.000    0.000    0.000    0.000 
#
# Total GULP energy -78005.953618 kJ/mol
# GULP energy per Si atom -5571.853830 kJ/mol
# Density = 2.550919 g / cm^3
# Si number density = 25.567385 Si / 1000 Ang^3
#
#
#
# Elastic Constant Matrix: (Units=GPa)
#
#
# Indices 1 2 3 4 5 6 
#
# 1 117.4019 17.1216 44.5384 0.0000 -37.5843 0.0000
# 2 17.1216 133.1797 33.9661 0.0000 -23.3688 0.0000
# 3 44.5384 33.9661 266.4849 0.0000 -82.6635 0.0000
# 4 0.0000 0.0000 0.0000 5.4313 0.0000 -9.6071
# 5 -37.5843 -23.3688 -82.6635 0.0000 65.2302 0.0000
# 6 0.0000 0.0000 0.0000 -9.6071 0.0000 -4.4455
#
#
#
# Elastic Compliance Matrix: (Units=1/GPa)
#
#
# Indices 1 2 3 4 5 6 
#
# 1 0.010463 -0.000314 0.000208 0.000000 0.006180 0.000000
# 2 -0.000314 0.008029 -0.000222 0.000000 0.002414 0.000000
# 3 0.000208 -0.000222 0.006193 0.000000 0.007889 0.000000
# 4 0.000000 0.000000 0.000000 0.038178 0.000000 -0.082506
# 5 0.006180 0.002414 0.007889 0.000000 0.029753 0.000000
# 6 0.000000 0.000000 0.000000 -0.082506 0.000000 -0.046644
#
#
# Mechanical properties :
#
#
# Convention : Reuss Voigt Hill
#
# Bulk Modulus (GPa) = 41.61401 78.70207 60.15804
# Shear Modulus (GPa) = 91.51261 41.33923 66.42592
#
# Velocity S-wave (km/s) = 5.98919 4.02540 5.10266
# Velocity P-wave (km/s) = 8.00867 7.24252 7.63521
#
# Compressibility (1/GPa) = 0.02403037
#
# Stress axis : x y z
#
# Youngs Moduli (GPa) = 95.57530 124.54446 161.46889
#
# Poissons Ratio (x) = 0.03909 -0.03365
# Poissons Ratio (y) = 0.03000 0.03585
# Poissons Ratio (z) = -0.01992 0.02765
#
# Static dielectric constant tensor:
#      x y z
#    x 2.014090 0.000000 0.049520 
#    y 0.000000 1.959750 0.000000 
#    z 0.049520 0.000000 2.304190 
# 
# From -- ./inp_files/5976.got.cif
#   From: 2010.05.17/outbox.cif.g08.bks.cpg/sg12_3_cif.got.tgz:5976.got - 2010.06.03 13:09:07.
