data_PCOD9188942
_publ_section_title
;
Structure prediction by ZEFSAII (Michael W. Deem and Ramdas Pophale) SiO2 
 PCOD9188942
Probable space group: C 2/M
;
_chemical_formula_sum "Si O2"
_cell_formula_units_Z 48
_cell_length_a 11.200342
_cell_length_b 14.740325
_cell_length_c 14.454775
_cell_angle_alpha 90.000000
_cell_angle_beta 56.401212
_cell_angle_gamma 90.000000
_cell_volume 1987.740653
_symmetry_space_group_name_H-M "C 2/M"
_symmetry_group_IT_number 12
_symmetry_cell_setting 'monoclinic'
loop_
_space_group_symop_operation_xyz
x,y,z
-x,y,-z
-x,-y,-z
x,-y,z
1/2+x,1/2+y,z
1/2-x,1/2+y,-z
1/2-x,1/2-y,-z
1/2+x,1/2-y,z
loop_
_atom_site_type_symbol
_atom_site_label
_atom_site_fract_x
_atom_site_fract_y
_atom_site_fract_z
Si Si1 0.700758 0.727071 0.295978
Si Si2 0.243203 0.895578 0.445169
Si Si3 0.967322 0.899561 0.307594
Si Si4 0.028495 0.699525 0.093328
Si Si5 0.580532 0.897012 0.259300
Si Si6 0.570559 0.597713 0.069177
O O1 0.680642 0.680358 0.403958
O O2 0.592040 0.670632 0.277755
O O3 0.865526 0.714308 0.198127
O O4 0.659610 0.829599 0.294136
O O5 0.176233 0.878445 0.574631
O O6 0.413797 0.891927 0.361431
O O7 0.203967 0.000000 0.435483
O O8 0.958668 0.903591 0.201739
O O9 0.014405 0.000000 0.318518
O O10 0.093348 0.636152 0.146535
O O11 0.113614 0.795782 0.053539
O O12 0.000000 0.665583 0.000000
O O13 0.629960 0.000000 0.244898
O O14 0.652661 0.500000 0.047348
O O15 0.500000 0.591720 0.000000
#
# Coordination Sequence:
#
# PCOD9188942 Si02
#       6
#     8   8   8   8   8   8
#     4  11  21  36  61  92 118 159 204 255 298 360
#     4   9  20  39  63  90 126 160 198 252 303 360
#     4  10  19  36  63  92 119 155 202 249 301 359
#     4  10  22  41  62  84 121 161 206 254 308 362
#     4  10  22  41  60  88 126 165 204 250 306 362
#     4   9  18  36  60  87 119 151 192 248 307 359
#
# _framework density 24.148019000000001
#
# number of rings (size 3 to 8) (size 9 to 14) (size 15 to 20)
#    0.000    2.167    1.667    1.000    0.000    4.333 
#    3.000    0.000    0.000    2.000    0.000    0.000 
#    0.000    0.000    0.000    0.000    0.000    0.000 
#
# Total GULP energy -133978.007649 kJ/mol
# GULP energy per Si atom -5582.416985 kJ/mol
# Density = 2.409306 g / cm^3
# Si number density = 24.148019 Si / 1000 Ang^3
#
#
#
# Elastic Constant Matrix: (Units=GPa)
#
#
# Indices 1 2 3 4 5 6 
#
# 1 54.0658 68.5683 51.4542 0.0000 4.7674 0.0000
# 2 68.5683 176.0245 46.1376 0.0000 4.3516 0.0000
# 3 51.4542 46.1376 148.0326 0.0000 23.4170 0.0000
# 4 0.0000 0.0000 0.0000 6.5767 0.0000 -11.5012
# 5 4.7674 4.3516 23.4170 0.0000 35.2848 0.0000
# 6 0.0000 0.0000 0.0000 -11.5012 0.0000 50.2962
#
#
#
# Elastic Compliance Matrix: (Units=1/GPa)
#
#
# Indices 1 2 3 4 5 6 
#
# 1 0.052842 -0.017099 -0.013678 0.000000 0.004047 0.000000
# 2 -0.017099 0.011730 0.002403 0.000000 -0.000731 0.000000
# 3 -0.013678 0.002403 0.011749 0.000000 -0.006245 0.000000
# 4 0.000000 0.000000 0.000000 0.253375 0.000000 0.057939
# 5 0.004047 -0.000731 -0.006245 0.000000 0.032029 0.000000
# 6 0.000000 0.000000 0.000000 0.057939 0.000000 0.033131
#
#
# Mechanical properties :
#
#
# Convention : Reuss Voigt Hill
#
# Bulk Modulus (GPa) = 51.09147 78.93812 65.01480
# Shear Modulus (GPa) = 10.91399 32.56239 21.73819
#
# Velocity S-wave (km/s) = 2.12825 3.67611 3.00360
# Velocity P-wave (km/s) = 5.21946 7.12591 6.24585
#
# Compressibility (1/GPa) = 0.01957274
#
# Stress axis : x y z
#
# Youngs Moduli (GPa) = 18.92440 85.25238 85.11714
#
# Poissons Ratio (x) = 1.45772 1.16424
# Poissons Ratio (y) = 0.32359 -0.20455
# Poissons Ratio (z) = 0.25885 -0.20487
#
# Static dielectric constant tensor:
#      x y z
#    x 1.907320 0.000000 -0.007950 
#    y 0.000000 1.988760 0.000000 
#    z -0.007950 0.000000 1.935140 
# 
# From -- ./inp_files/204841.got.cif
#   From: 2010.05.17/outbox.cif.g08.bks.cpg/sg12_103_cif.got.tgz:204841.got - 2010.06.03 13:09:07.
