data_PCOD9188549
_publ_section_title
;
Structure prediction by ZEFSAII (Michael W. Deem and Ramdas Pophale) SiO2 
 PCOD9188549
Probable space group: C 2/M
;
_chemical_formula_sum "Si O2"
_cell_formula_units_Z 64
_cell_length_a 26.284016
_cell_length_b 7.709170
_cell_length_c 14.803258
_cell_angle_alpha 90.000000
_cell_angle_beta 85.876364
_cell_angle_gamma 90.000000
_cell_volume 2991.788552
_symmetry_space_group_name_H-M "C 2/M"
_symmetry_group_IT_number 12
_symmetry_cell_setting 'monoclinic'
loop_
_space_group_symop_operation_xyz
x,y,z
-x,y,-z
-x,-y,-z
x,-y,z
1/2+x,1/2+y,z
1/2-x,1/2+y,-z
1/2-x,1/2-y,-z
1/2+x,1/2-y,z
loop_
_atom_site_type_symbol
_atom_site_label
_atom_site_fract_x
_atom_site_fract_y
_atom_site_fract_z
Si Si1 0.261974 0.807314 0.897498
Si Si2 0.441459 0.789342 0.723686
Si Si3 0.249567 0.291035 0.294747
Si Si4 0.553504 0.708877 0.950673
Si Si5 0.145325 0.287832 0.402679
Si Si6 0.125597 0.203440 0.097027
Si Si7 0.945131 0.291949 0.260335
Si Si8 0.149220 0.290798 0.608887
O O1 0.242675 0.718622 0.807903
O O2 0.323257 0.801535 0.882244
O O3 0.240649 0.000000 0.896729
O O4 0.250000 0.750000 0.000000
O O5 0.404654 0.734758 0.646818
O O6 0.416294 0.724712 0.819696
O O7 0.499813 0.729242 0.711746
O O8 0.441213 0.000000 0.726627
O O9 0.244493 0.500000 0.288240
O O10 0.196491 0.228457 0.344789
O O11 0.297115 0.253588 0.352387
O O12 0.552813 0.500000 0.958383
O O13 0.558811 0.754056 0.845530
O O14 0.500000 0.773153 0.000000
O O15 0.600287 0.768215 0.007419
O O16 0.145936 0.500000 0.402944
O O17 0.145679 0.229053 0.506178
O O18 0.138899 0.000000 0.086501
O O19 0.945302 0.500000 0.270080
O O20 0.897312 0.224657 0.323484
O O21 0.145940 0.500000 0.606594
#
# Coordination Sequence:
#
# PCOD9188549 Si02
#       8
#     8   8   8   8   8   8   8   8
#     4  11  24  41  60  86 120 153 191 235 288 345
#     4  10  19  36  60  84 115 154 192 238 290 340
#     4  10  21  39  61  84 112 152 193 231 284 348
#     4  10  21  37  56  79 111 152 190 226 277 338
#     4   9  18  37  62  84 111 147 191 240 292 343
#     4  11  22  37  58  85 114 150 196 238 285 342
#     4  10  22  36  55  87 118 149 193 237 287 343
#     4  10  22  38  57  86 118 149 190 240 288 342
#
# _framework density 21.391886
#
# number of rings (size 3 to 8) (size 9 to 14) (size 15 to 20)
#    0.000    1.875    2.500    1.125    1.750    3.250 
#    0.000    3.125    0.000    0.000    0.000    2.625 
#    0.000    0.000    0.000    0.000    0.000    0.000 
#
# Total GULP energy -178762.911198 kJ/mol
# GULP energy per Si atom -5586.340975 kJ/mol
# Density = 2.134320 g / cm^3
# Si number density = 21.391886 Si / 1000 Ang^3
#
#
#
# Elastic Constant Matrix: (Units=GPa)
#
#
# Indices 1 2 3 4 5 6 
#
# 1 76.0346 -9.4630 63.5880 0.0000 28.8371 0.0000
# 2 -9.4630 31.6267 3.1192 0.0000 -1.0119 0.0000
# 3 63.5880 3.1192 193.5779 0.0000 21.1865 0.0000
# 4 0.0000 0.0000 0.0000 -0.8736 0.0000 3.0286
# 5 28.8371 -1.0119 21.1865 0.0000 38.9161 0.0000
# 6 0.0000 0.0000 0.0000 3.0286 0.0000 19.8730
#
#
#
# Elastic Compliance Matrix: (Units=1/GPa)
#
#
# Indices 1 2 3 4 5 6 
#
# 1 0.025577 0.007852 -0.006887 0.000000 -0.015000 0.000000
# 2 0.007852 0.034130 -0.002754 0.000000 -0.003432 0.000000
# 3 -0.006887 -0.002754 0.007360 0.000000 0.001024 0.000000
# 4 0.000000 0.000000 0.000000 -0.748980 0.000000 0.114144
# 5 -0.015000 -0.003432 0.001024 0.000000 0.036164 0.000000
# 6 0.000000 0.000000 0.000000 0.114144 0.000000 0.032924
#
#
# Mechanical properties :
#
#
# Convention : Reuss Voigt Hill
#
# Bulk Modulus (GPa) = 15.75017 46.19196 30.97107
# Shear Modulus (GPa) = -8.50219 27.84945 9.67363
#
# Velocity S-wave (km/s) = -1.99578 3.61206 2.12883
# Velocity P-wave (km/s) = 1.43800 6.24788 4.53342
#
# Compressibility (1/GPa) = 0.06349136
#
# Stress axis : x y z
#
# Youngs Moduli (GPa) = 39.09713 29.29968 135.86349
#
# Poissons Ratio (x) = -0.23007 0.93565
# Poissons Ratio (y) = -0.30700 0.37413
# Poissons Ratio (z) = 0.26925 0.08068
#
# Static dielectric constant tensor:
#      x y z
#    x 1.745820 0.000000 -0.002640 
#    y 0.000000 1.792840 0.000000 
#    z -0.002640 0.000000 1.767690 
# 
# From -- ./inp_files/238713.got.cif
#   From: 2010.05.17/outbox.cif.g08.bks.cpg/sg12_120_cif.got.tgz:238713.got - 2010.06.03 13:09:07.
