data_PCOD9188447
_publ_section_title
;
Structure prediction by ZEFSAII (Michael W. Deem and Ramdas Pophale) SiO2 
 PCOD9188447
Probable space group: C 2/M
;
_chemical_formula_sum "Si O2"
_cell_formula_units_Z 36
_cell_length_a 20.209855
_cell_length_b 14.187514
_cell_length_c 17.555900
_cell_angle_alpha 90.000000
_cell_angle_beta 161.584554
_cell_angle_gamma 90.000000
_cell_volume 1590.189424
_symmetry_space_group_name_H-M "C 2/M"
_symmetry_group_IT_number 12
_symmetry_cell_setting 'monoclinic'
loop_
_space_group_symop_operation_xyz
x,y,z
-x,y,-z
-x,-y,-z
x,-y,z
1/2+x,1/2+y,z
1/2-x,1/2+y,-z
1/2-x,1/2-y,-z
1/2+x,1/2-y,z
loop_
_atom_site_type_symbol
_atom_site_label
_atom_site_fract_x
_atom_site_fract_y
_atom_site_fract_z
Si Si1 0.731089 0.000000 0.492289
Si Si2 0.245152 0.500000 0.992103
Si Si3 0.269934 0.500000 0.711985
Si Si4 0.232857 0.294016 0.109185
Si Si5 0.319331 0.500000 0.238840
Si Si6 0.500000 0.844083 0.500000
Si Si7 0.014806 0.832736 0.766408
O O1 0.483847 0.000000 0.225757
O O2 0.818364 0.902439 0.553310
O O3 0.802838 0.000000 0.658082
O O4 0.389831 0.500000 0.226589
O O5 0.300112 0.406742 0.007128
O O6 0.129557 0.411040 0.584312
O O7 0.500000 0.500000 0.000000
O O8 0.205701 0.397872 0.116498
O O9 0.328333 0.223163 0.273984
O O10 0.407690 0.299686 0.231818
O O11 0.031284 0.250472 0.845688
O O12 0.500000 0.500000 0.500000
#
# Coordination Sequence:
#
# PCOD9188447 Si02
#       7
#     4   4   4   8   4   4   8
#     4  11  20  39  65  94 130 157 202 262 313 376
#     4   9  19  36  63  93 121 160 201 253 320 366
#     4  11  24  39  60  93 126 161 196 255 321 371
#     4  10  19  37  62  87 118 165 207 252 308 363
#     4  10  19  36  59  86 114 160 213 254 298 357
#     4  11  22  39  62  86 124 161 202 245 312 376
#     4   9  20  37  61  93 124 156 206 257 307 370
#
# _framework density 22.638812999999999
#
# number of rings (size 3 to 8) (size 9 to 14) (size 15 to 20)
#    0.000    2.000    1.111    3.333    0.000    3.556 
#    0.000   23.333    0.000    9.333    0.000    0.000 
#    0.000    0.000    0.000    0.000    0.000    0.000 
#
# Total GULP energy -100370.965246 kJ/mol
# GULP energy per Si atom -5576.164736 kJ/mol
# Density = 2.258729 g / cm^3
# Si number density = 22.638813 Si / 1000 Ang^3
#
#
#
# Elastic Constant Matrix: (Units=GPa)
#
#
# Indices 1 2 3 4 5 6 
#
# 1 35.5934 14.2577 8.6896 -0.0003 -0.1295 -0.0010
# 2 14.2577 168.9588 33.7850 -0.0020 1.7258 -0.0105
# 3 8.6896 33.7850 77.4013 0.0158 6.3487 -0.0007
# 4 -0.0003 -0.0020 0.0158 37.5885 0.0082 -2.5855
# 5 -0.1295 1.7258 6.3487 0.0082 39.7078 -0.0034
# 6 -0.0010 -0.0105 -0.0007 -2.5855 -0.0034 26.9434
#
#
#
# Elastic Compliance Matrix: (Units=1/GPa)
#
#
# Indices 1 2 3 4 5 6 
#
# 1 0.029505 -0.001998 -0.002488 0.000001 0.000581 0.000000
# 2 -0.001998 0.006621 -0.002677 0.000002 0.000134 0.000003
# 3 -0.002488 -0.002677 0.014549 -0.000006 -0.002218 -0.000002
# 4 0.000001 0.000002 -0.000006 0.026781 -0.000004 0.002570
# 5 0.000581 0.000134 -0.002218 -0.000004 0.025535 0.000003
# 6 0.000000 0.000003 -0.000002 0.002570 0.000003 0.037361
#
#
# Mechanical properties :
#
#
# Convention : Reuss Voigt Hill
#
# Bulk Modulus (GPa) = 27.51051 43.93537 35.72294
# Shear Modulus (GPa) = 29.97703 35.86268 32.91985
#
# Velocity S-wave (km/s) = 3.64283 3.98442 3.81745
# Velocity P-wave (km/s) = 5.46552 6.37313 5.93669
#
# Compressibility (1/GPa) = 0.03634975
#
# Stress axis : x y z
#
# Youngs Moduli (GPa) = 33.89254 151.03247 68.73204
#
# Poissons Ratio (x) = 0.30180 0.17100
# Poissons Ratio (y) = 0.06773 0.18397
# Poissons Ratio (z) = 0.08432 0.40427
#
# Static dielectric constant tensor:
#      x y z
#    x 1.812870 0.000000 0.000960 
#    y 0.000000 1.945150 0.000000 
#    z 0.000960 0.000000 1.898460 
# 
# From -- ./inp_files/284395.got.cif
#   From: 2010.05.17/outbox.cif.g08.bks.cpg/sg12_143_cif.got.tgz:284395.got - 2010.06.03 13:09:07.
