data_PCOD9188193
_publ_section_title
;
Structure prediction by ZEFSAII (Michael W. Deem and Ramdas Pophale) SiO2 
 PCOD9188193
Probable space group: C 2/M
;
_chemical_formula_sum "Si O2"
_cell_formula_units_Z 64
_cell_length_a 14.404803
_cell_length_b 28.268109
_cell_length_c 8.760380
_cell_angle_alpha 90.000000
_cell_angle_beta 82.256572
_cell_angle_gamma 90.000000
_cell_volume 3534.668452
_symmetry_space_group_name_H-M "C 2/M"
_symmetry_group_IT_number 12
_symmetry_cell_setting 'monoclinic'
loop_
_space_group_symop_operation_xyz
x,y,z
-x,y,-z
-x,-y,-z
x,-y,z
1/2+x,1/2+y,z
1/2-x,1/2+y,-z
1/2-x,1/2-y,-z
1/2+x,1/2-y,z
loop_
_atom_site_type_symbol
_atom_site_label
_atom_site_fract_x
_atom_site_fract_y
_atom_site_fract_z
Si Si1 0.390829 0.881147 0.547548
Si Si2 0.756999 0.799253 0.908299
Si Si3 0.229413 0.698367 0.567289
Si Si4 0.730417 0.554547 0.440386
Si Si5 0.274954 0.117404 0.859819
Si Si6 0.671270 0.554057 0.104308
Si Si7 0.873391 0.867843 0.377465
Si Si8 0.050319 0.147348 0.147552
O O1 0.500000 0.887657 0.500000
O O2 0.354247 0.829768 0.498365
O O3 0.323653 0.917752 0.471759
O O4 0.362972 0.887526 0.730283
O O5 0.711773 0.798180 0.751231
O O6 0.863703 0.816579 0.855312
O O7 0.750000 0.750000 0.000000
O O8 0.713931 0.840431 0.022610
O O9 0.250000 0.750000 0.500000
O O10 0.321678 0.667597 0.504687
O O11 0.734437 0.500000 0.484968
O O12 0.717314 0.557509 0.261677
O O13 0.643441 0.581190 0.541302
O O14 0.189931 0.131069 0.762966
O O15 0.243872 0.071031 0.958762
O O16 0.640107 0.500000 0.087681
O O17 0.591597 0.594255 0.120696
O O18 0.976448 0.853911 0.302105
O O19 0.000000 0.159464 0.000000
#
# Coordination Sequence:
#
# PCOD9188193 Si02
#       8
#     8   8   8   8   8   8   8   8
#     4  10  21  39  61  84 111 143 195 247 284 337
#     4  11  21  38  59  80 113 152 188 227 287 348
#     4  10  22  40  59  80 113 150 185 233 292 346
#     4   9  20  37  58  83 118 157 187 227 288 344
#     4   9  18  36  57  80 113 149 182 232 289 333
#     4  10  20  35  56  85 119 157 190 222 281 345
#     4  10  19  36  57  83 116 149 187 232 281 331
#     4  11  21  36  56  88 118 148 190 241 274 329
#
# _framework density 18.106366000000001
#
# number of rings (size 3 to 8) (size 9 to 14) (size 15 to 20)
#    0.000    2.250    2.500    4.500    0.000    5.000 
#    4.500    3.750    0.000    1.500    0.000    0.000 
#    0.000    0.000    0.000    0.000    0.000    0.000 
#
# Total GULP energy -178474.850614 kJ/mol
# GULP energy per Si atom -5577.339082 kJ/mol
# Density = 1.806515 g / cm^3
# Si number density = 18.106366 Si / 1000 Ang^3
#
#
#
# Elastic Constant Matrix: (Units=GPa)
#
#
# Indices 1 2 3 4 5 6 
#
# 1 62.8268 0.7746 13.6482 0.0000 -28.8145 0.0000
# 2 0.7746 85.4153 10.8776 0.0000 -1.5401 0.0000
# 3 13.6482 10.8776 103.6852 0.0000 -10.5899 0.0000
# 4 0.0000 0.0000 0.0000 26.5476 0.0000 6.7715
# 5 -28.8145 -1.5401 -10.5899 0.0000 34.6526 0.0000
# 6 0.0000 0.0000 0.0000 6.7715 0.0000 9.0843
#
#
#
# Elastic Compliance Matrix: (Units=1/GPa)
#
#
# Indices 1 2 3 4 5 6 
#
# 1 0.025892 0.000310 -0.001280 0.000000 0.021153 0.000000
# 2 0.000310 0.011871 -0.001245 0.000000 0.000405 0.000000
# 3 -0.001280 -0.001245 0.010146 0.000000 0.001981 0.000000
# 4 0.000000 0.000000 0.000000 0.046512 0.000000 -0.034670
# 5 0.021153 0.000405 0.001981 0.000000 0.047070 0.000000
# 6 0.000000 0.000000 0.000000 -0.034670 0.000000 0.135924
#
#
# Mechanical properties :
#
#
# Convention : Reuss Voigt Hill
#
# Bulk Modulus (GPa) = 23.00011 33.61424 28.30718
# Shear Modulus (GPa) = 16.87259 29.16534 23.01896
#
# Velocity S-wave (km/s) = 3.05595 4.01780 3.56942
# Velocity P-wave (km/s) = 5.01818 6.33473 5.71450
#
# Compressibility (1/GPa) = 0.04347805
#
# Stress axis : x y z
#
# Youngs Moduli (GPa) = 38.62131 84.24237 98.56103
#
# Poissons Ratio (x) = -0.02608 0.12619
# Poissons Ratio (y) = -0.01196 0.12269
# Poissons Ratio (z) = 0.04945 0.10486
#
# Static dielectric constant tensor:
#      x y z
#    x 1.622060 0.000000 0.006700 
#    y 0.000000 0.336110 0.000000 
#    z 0.006700 0.000000 1.643010 
# 
# From -- ./inp_files/66951.got.cif
#   From: 2010.05.17/outbox.cif.g08.bks.cpg/sg12_34_cif.got.tgz:66951.got - 2010.06.03 13:09:07.
