data_PCOD9188511
_publ_section_title
;
Structure prediction by ZEFSAII (Michael W. Deem and Ramdas Pophale) SiO2 
 PCOD9188511
Probable space group: C 2/M
;
_chemical_formula_sum "Si O2"
_cell_formula_units_Z 56
_cell_length_a 16.454704
_cell_length_b 7.749590
_cell_length_c 23.558215
_cell_angle_alpha 90.000000
_cell_angle_beta 121.932034
_cell_angle_gamma 90.000000
_cell_volume 2549.489082
_symmetry_space_group_name_H-M "C 2/M"
_symmetry_group_IT_number 12
_symmetry_cell_setting 'monoclinic'
loop_
_space_group_symop_operation_xyz
x,y,z
-x,y,-z
-x,-y,-z
x,-y,z
1/2+x,1/2+y,z
1/2-x,1/2+y,-z
1/2-x,1/2-y,-z
1/2+x,1/2-y,z
loop_
_atom_site_type_symbol
_atom_site_label
_atom_site_fract_x
_atom_site_fract_y
_atom_site_fract_z
Si Si1 0.725757 0.706988 0.926474
Si Si2 0.913003 0.288732 0.928608
Si Si3 0.519493 0.794755 0.659840
Si Si4 0.637351 0.199689 0.212479
Si Si5 0.192478 0.791487 0.650920
Si Si6 0.699903 0.792566 0.422391
Si Si7 0.456766 0.702300 0.207809
O O1 0.721559 0.500000 0.920223
O O2 0.813831 0.765038 0.920501
O O3 0.625955 0.772898 0.864095
O O4 0.750000 0.750000 0.000000
O O5 0.918870 0.500000 0.931029
O O6 0.909169 0.227931 0.862180
O O7 0.000000 0.227355 0.000000
O O8 0.585229 0.753361 0.629954
O O9 0.410072 0.727824 0.617741
O O10 0.567627 0.723652 0.735182
O O11 0.515814 0.000000 0.663992
O O12 0.734543 0.276006 0.273485
O O13 0.557125 0.208068 0.231350
O O14 0.658969 0.000000 0.207430
O O15 0.235693 0.729807 0.606888
O O16 0.198200 0.000000 0.652378
O O17 0.750000 0.750000 0.500000
O O18 0.694834 0.000000 0.415424
O O19 0.470111 0.500000 0.201130
#
# Coordination Sequence:
#
# PCOD9188511 Si02
#       7
#     8   8   8   8   8   8   8
#     4  10  21  36  53  78 111 149 196 249 305 365
#     4   9  17  30  51  77 104 143 193 239 293 356
#     4  11  23  41  64  93 125 162 208 252 301 369
#     4  10  19  36  60  82 115 157 199 250 302 361
#     4  10  21  40  63  90 124 163 206 254 307 363
#     4  10  23  43  65  91 127 164 204 253 307 367
#     4  11  22  36  57  86 120 157 200 253 309 362
#
# _framework density 21.965185999999999
#
# number of rings (size 3 to 8) (size 9 to 14) (size 15 to 20)
#    0.000    1.857    1.429    2.571    0.000    7.429 
#    0.000    3.571    0.000    2.571    0.000    0.000 
#    0.000    0.000    0.000    0.000    0.000    0.000 
#
# Total GULP energy -156404.291629 kJ/mol
# GULP energy per Si atom -5585.867558 kJ/mol
# Density = 2.191519 g / cm^3
# Si number density = 21.965186 Si / 1000 Ang^3
#
#
#
# Elastic Constant Matrix: (Units=GPa)
#
#
# Indices 1 2 3 4 5 6 
#
# 1 138.4980 -2.8864 50.6118 0.0000 -8.2629 0.0000
# 2 -2.8864 35.7154 2.9735 0.0000 0.5971 0.0000
# 3 50.6118 2.9735 124.8998 0.0000 -9.3762 0.0000
# 4 0.0000 0.0000 0.0000 20.5768 0.0000 -4.8858
# 5 -8.2629 0.5971 -9.3762 0.0000 31.2384 0.0000
# 6 0.0000 0.0000 0.0000 -4.8858 0.0000 22.0190
#
#
#
# Elastic Compliance Matrix: (Units=1/GPa)
#
#
# Indices 1 2 3 4 5 6 
#
# 1 0.008555 0.000954 -0.003397 0.000000 0.001225 0.000000
# 2 0.000954 0.028178 -0.001104 0.000000 -0.000618 0.000000
# 3 -0.003397 -0.001104 0.009559 0.000000 0.001992 0.000000
# 4 0.000000 0.000000 0.000000 0.051301 0.000000 0.011383
# 5 0.001225 -0.000618 0.001992 0.000000 0.032945 0.000000
# 6 0.000000 0.000000 0.000000 0.011383 0.000000 0.047941
#
#
# Mechanical properties :
#
#
# Convention : Reuss Voigt Hill
#
# Bulk Modulus (GPa) = 25.51181 44.50123 35.00652
# Shear Modulus (GPa) = 25.17111 31.32778 28.24945
#
# Velocity S-wave (km/s) = 3.38887 3.78067 3.59012
# Velocity P-wave (km/s) = 5.19157 6.27390 5.75822
#
# Compressibility (1/GPa) = 0.03919753
#
# Stress axis : x y z
#
# Youngs Moduli (GPa) = 116.89388 35.48813 104.61505
#
# Poissons Ratio (x) = -0.03385 0.35541
# Poissons Ratio (y) = -0.11148 0.11546
# Poissons Ratio (z) = 0.39712 0.03917
#
# Static dielectric constant tensor:
#      x y z
#    x 1.806740 0.000000 -0.002170 
#    y 0.000000 1.836220 0.000000 
#    z -0.002170 0.000000 1.820960 
# 
# From -- ./inp_files/339037.got.cif
#   From: 2010.05.17/outbox.cif.g08.bks.cpg/sg12_170_cif.got.tgz:339037.got - 2010.06.03 13:09:07.
