data_PCOD9188211
_publ_section_title
;
Structure prediction by ZEFSAII (Michael W. Deem and Ramdas Pophale) SiO2 
 PCOD9188211
Probable space group: C 2/M
;
_chemical_formula_sum "Si O2"
_cell_formula_units_Z 64
_cell_length_a 25.661121
_cell_length_b 19.810019
_cell_length_c 17.313546
_cell_angle_alpha 90.000000
_cell_angle_beta 159.401458
_cell_angle_gamma 90.000000
_cell_volume 3096.452237
_symmetry_space_group_name_H-M "C 2/M"
_symmetry_group_IT_number 12
_symmetry_cell_setting 'monoclinic'
loop_
_space_group_symop_operation_xyz
x,y,z
-x,y,-z
-x,-y,-z
x,-y,z
1/2+x,1/2+y,z
1/2-x,1/2+y,-z
1/2-x,1/2-y,-z
1/2+x,1/2-y,z
loop_
_atom_site_type_symbol
_atom_site_label
_atom_site_fract_x
_atom_site_fract_y
_atom_site_fract_z
Si Si1 0.921651 0.758250 0.971592
Si Si2 0.081699 0.572890 0.531500
Si Si3 0.113167 0.700105 0.480315
Si Si4 0.343088 0.180565 0.626900
Si Si5 0.821837 0.075846 0.492068
Si Si6 0.008133 0.921143 0.603706
Si Si7 0.642059 0.305004 0.883220
Si Si8 0.108664 0.115735 0.982237
O O1 0.748690 0.767523 0.715923
O O2 0.968961 0.832309 0.067216
O O3 0.000000 0.743881 0.000000
O O4 0.987214 0.701528 0.118593
O O5 0.047075 0.500000 0.446155
O O6 0.039640 0.640637 0.427885
O O7 0.000000 0.573793 0.500000
O O8 0.259246 0.576745 0.793222
O O9 0.165738 0.662300 0.475331
O O10 0.010007 0.763201 0.316398
O O11 0.250000 0.250000 0.500000
O O12 0.279423 0.129082 0.602211
O O13 0.863849 0.089454 0.460087
O O14 0.981018 0.078051 0.757670
O O15 0.760954 0.000000 0.412981
O O16 0.000000 0.911119 0.500000
O O17 0.120384 0.866676 0.794377
O O18 0.049219 0.000000 0.673096
O O19 0.686061 0.336027 0.026024
O O20 0.750000 0.250000 0.000000
#
# Coordination Sequence:
#
# PCOD9188211 Si02
#       8
#     8   8   8   8   8   8   8   8
#     4  11  21  34  60  88 115 160 199 246 313 361
#     4  10  22  39  59  86 124 167 206 250 314 381
#     4  11  23  39  61  92 129 161 208 263 314 377
#     4  12  20  39  60  89 125 156 203 254 313 374
#     4  10  20  35  61  89 118 161 207 256 309 375
#     4   9  20  39  61  87 123 165 212 263 311 364
#     4  11  22  38  61  92 124 160 208 260 317 373
#     4  10  19  36  57  86 118 156 203 249 304 364
#
# _framework density 20.668816
#
# number of rings (size 3 to 8) (size 9 to 14) (size 15 to 20)
#    0.000    1.500    3.750    1.875    0.000    3.500 
#    0.000    0.625    0.000    5.250    0.000    0.000 
#    0.000    0.000    0.000    0.000    0.000    0.000 
#
# Total GULP energy -178435.194721 kJ/mol
# GULP energy per Si atom -5576.099835 kJ/mol
# Density = 2.062177 g / cm^3
# Si number density = 20.668816 Si / 1000 Ang^3
#
#
#
# Elastic Constant Matrix: (Units=GPa)
#
#
# Indices 1 2 3 4 5 6 
#
# 1 81.3148 41.5402 14.8351 0.0000 -12.4438 0.0000
# 2 41.5402 109.0672 10.3176 0.0000 -0.9653 0.0000
# 3 14.8351 10.3176 37.4946 0.0000 -1.6311 0.0000
# 4 0.0000 0.0000 0.0000 18.6974 0.0000 2.1747
# 5 -12.4438 -0.9653 -1.6311 0.0000 24.6661 0.0000
# 6 0.0000 0.0000 0.0000 2.1747 0.0000 26.3600
#
#
#
# Elastic Compliance Matrix: (Units=1/GPa)
#
#
# Indices 1 2 3 4 5 6 
#
# 1 0.017621 -0.006173 -0.004911 0.000000 0.008323 0.000000
# 2 -0.006173 0.011577 -0.000862 0.000000 -0.002718 0.000000
# 3 -0.004911 -0.000862 0.028824 0.000000 -0.000605 0.000000
# 4 0.000000 0.000000 0.000000 0.054002 0.000000 -0.004455
# 5 0.008323 -0.002718 -0.000605 0.000000 0.044594 0.000000
# 6 0.000000 0.000000 0.000000 -0.004455 0.000000 0.038304
#
#
# Mechanical properties :
#
#
# Convention : Reuss Voigt Hill
#
# Bulk Modulus (GPa) = 29.29881 40.14027 34.71954
# Shear Modulus (GPa) = 21.72107 24.69027 23.20567
#
# Velocity S-wave (km/s) = 3.24529 3.46000 3.35436
# Velocity P-wave (km/s) = 5.31495 5.95189 5.64241
#
# Compressibility (1/GPa) = 0.03413108
#
# Stress axis : x y z
#
# Youngs Moduli (GPa) = 56.74978 86.37633 34.69281
#
# Poissons Ratio (x) = 0.53321 0.17038
# Poissons Ratio (y) = 0.35032 0.02989
# Poissons Ratio (z) = 0.27871 0.07442
#
# Static dielectric constant tensor:
#      x y z
#    x 1.801780 0.000000 -0.008690 
#    y 0.000000 1.747110 0.000000 
#    z -0.008690 0.000000 1.801820 
# 
# From -- ./inp_files/294162.got.cif
#   From: 2010.05.17/outbox.cif.g08.bks.cpg/sg12_148_cif.got.tgz:294162.got - 2010.06.03 13:09:07.
