data_PCOD9188996
_publ_section_title
;
Structure prediction by ZEFSAII (Michael W. Deem and Ramdas Pophale) SiO2 
 PCOD9188996
Probable space group: C 2/M
;
_chemical_formula_sum "Si O2"
_cell_formula_units_Z 56
_cell_length_a 28.624350
_cell_length_b 15.455753
_cell_length_c 8.671206
_cell_angle_alpha 90.000000
_cell_angle_beta 47.219270
_cell_angle_gamma 90.000000
_cell_volume 2815.637323
_symmetry_space_group_name_H-M "C 2/M"
_symmetry_group_IT_number 12
_symmetry_cell_setting 'monoclinic'
loop_
_space_group_symop_operation_xyz
x,y,z
-x,y,-z
-x,-y,-z
x,-y,z
1/2+x,1/2+y,z
1/2-x,1/2+y,-z
1/2-x,1/2-y,-z
1/2+x,1/2-y,z
loop_
_atom_site_type_symbol
_atom_site_label
_atom_site_fract_x
_atom_site_fract_y
_atom_site_fract_z
Si Si1 0.895464 0.674264 0.587638
Si Si2 0.142217 0.323954 0.968871
Si Si3 0.857033 0.904762 0.468573
Si Si4 0.770450 0.238413 0.776920
Si Si5 0.469398 0.643807 0.407396
Si Si6 0.549418 0.000000 0.678700
Si Si7 0.941725 0.197787 0.034988
Si Si8 0.100302 0.500000 0.915450
O O1 0.832270 0.698870 0.627478
O O2 0.943382 0.756430 0.470748
O O3 0.927433 0.587042 0.457402
O O4 0.874393 0.663962 0.813236
O O5 0.205888 0.263679 0.822371
O O6 0.089259 0.267697 0.003918
O O7 0.138893 0.415798 0.888859
O O8 0.797763 0.855541 0.673632
O O9 0.907898 0.907623 0.492834
O O10 0.891369 0.847368 0.260170
O O11 0.842222 0.000000 0.444198
O O12 0.750000 0.250000 0.000000
O O13 0.500000 0.621643 0.500000
O O14 0.522022 0.631215 0.157306
O O15 0.583698 0.000000 0.770208
O O16 0.472308 0.000000 0.855003
O O17 0.000000 0.238777 0.000000
#
# Coordination Sequence:
#
# PCOD9188996 Si02
#       8
#     8   8   8   8   8   4   8   4
#     4  10  21  41  65  90 124 172 215 264 320 381
#     4  11  22  40  64  90 124 169 219 261 319 388
#     4  10  23  41  62  90 125 166 205 260 322 369
#     4   9  22  43  68  88 120 163 224 258 309 378
#     4  10  19  36  64  93 121 162 211 257 314 386
#     4  11  25  41  59  95 142 159 214 275 330 383
#     4  10  22  36  63  91 127 163 204 259 322 382
#     4  11  27  35  59 101 133 172 202 273 334 387
#
# _framework density 19.888925
#
# number of rings (size 3 to 8) (size 9 to 14) (size 15 to 20)
#    0.000    1.857    1.429    1.286    9.000    4.000 
#    1.286    0.000    0.000    0.000    0.000    0.000 
#    0.000    0.000    0.000    0.000    0.000    0.000 
#
# Total GULP energy -156096.054975 kJ/mol
# GULP energy per Si atom -5574.859106 kJ/mol
# Density = 1.984366 g / cm^3
# Si number density = 19.888925 Si / 1000 Ang^3
#
#
#
# Elastic Constant Matrix: (Units=GPa)
#
#
# Indices 1 2 3 4 5 6 
#
# 1 105.5062 3.0958 13.0982 0.0000 6.1877 0.0000
# 2 3.0958 65.1143 2.2816 0.0000 -2.1627 0.0000
# 3 13.0982 2.2816 58.7658 0.0000 -1.5461 0.0000
# 4 0.0000 0.0000 0.0000 -32.1984 0.0000 42.2215
# 5 6.1877 -2.1627 -1.5461 0.0000 20.5662 0.0000
# 6 0.0000 0.0000 0.0000 42.2215 0.0000 -23.1697
#
#
#
# Elastic Compliance Matrix: (Units=1/GPa)
#
#
# Indices 1 2 3 4 5 6 
#
# 1 0.009966 -0.000501 -0.002287 0.000000 -0.003223 0.000000
# 2 -0.000501 0.015455 -0.000443 0.000000 0.001743 0.000000
# 3 -0.002287 -0.000443 0.017595 0.000000 0.001964 0.000000
# 4 0.000000 0.000000 0.000000 0.022351 0.000000 0.040730
# 5 -0.003223 0.001743 0.001964 0.000000 0.049924 0.000000
# 6 0.000000 0.000000 0.000000 0.040730 0.000000 0.031061
#
#
# Mechanical properties :
#
#
# Convention : Reuss Voigt Hill
#
# Bulk Modulus (GPa) = 27.35534 29.59304 28.47419
# Shear Modulus (GPa) = 30.30363 7.10033 18.70198
#
# Velocity S-wave (km/s) = 3.90762 1.89149 3.06979
# Velocity P-wave (km/s) = 5.84322 4.43642 5.18773
#
# Compressibility (1/GPa) = 0.03655593
#
# Stress axis : x y z
#
# Youngs Moduli (GPa) = 100.34425 64.70480 56.83363
#
# Poissons Ratio (x) = 0.03240 0.12995
# Poissons Ratio (y) = 0.05025 0.02515
# Poissons Ratio (z) = 0.22945 0.02864
#
# Static dielectric constant tensor:
#      x y z
#    x 1.773080 0.000000 -0.035180 
#    y 0.000000 1.768280 0.000000 
#    z -0.035180 0.000000 1.730040 
# 
# From -- ./inp_files/111599.got.cif
#   From: 2010.05.17/outbox.cif.g08.bks.cpg/sg12_56_cif.got.tgz:111599.got - 2010.06.03 13:09:07.
