data_PCOD9188382
_publ_section_title
;
Structure prediction by ZEFSAII (Michael W. Deem and Ramdas Pophale) SiO2 
 PCOD9188382
Probable space group: C 2/M
;
_chemical_formula_sum "Si O2"
_cell_formula_units_Z 56
_cell_length_a 20.919137
_cell_length_b 8.977924
_cell_length_c 17.899792
_cell_angle_alpha 90.000000
_cell_angle_beta 71.142540
_cell_angle_gamma 90.000000
_cell_volume 3181.326621
_symmetry_space_group_name_H-M "C 2/M"
_symmetry_group_IT_number 12
_symmetry_cell_setting 'monoclinic'
loop_
_space_group_symop_operation_xyz
x,y,z
-x,y,-z
-x,-y,-z
x,-y,z
1/2+x,1/2+y,z
1/2-x,1/2+y,-z
1/2-x,1/2-y,-z
1/2+x,1/2-y,z
loop_
_atom_site_type_symbol
_atom_site_label
_atom_site_fract_x
_atom_site_fract_y
_atom_site_fract_z
Si Si1 0.658555 0.822529 0.597779
Si Si2 0.301898 0.177230 0.582917
Si Si3 0.670832 0.178179 0.834641
Si Si4 0.678285 0.178433 0.005276
Si Si5 0.324094 0.321771 0.726569
Si Si6 0.929141 0.177932 0.246421
Si Si7 0.414306 0.320876 0.835159
O O1 0.658530 0.791645 0.509130
O O2 0.728929 0.755558 0.602031
O O3 0.598438 0.750018 0.666958
O O4 0.659246 0.000000 0.608777
O O5 0.336414 0.239625 0.644028
O O6 0.292017 0.000000 0.592042
O O7 0.747767 0.213589 0.781939
O O8 0.618646 0.261852 0.801393
O O9 0.662023 0.000000 0.828667
O O10 0.662335 0.214915 0.925060
O O11 0.622140 0.240748 0.082442
O O12 0.683489 0.000000 0.009232
O O13 0.750000 0.250000 0.000000
O O14 0.327918 0.500000 0.713825
O O15 0.374993 0.281238 0.773728
O O16 0.006941 0.216301 0.201425
O O17 0.923458 0.000000 0.253570
O O18 0.407566 0.500000 0.847234
#
# Coordination Sequence:
#
# PCOD9188382 Si02
#       7
#     8   8   8   8   8   8   8
#     4  10  20  35  55  81 117 152 182 230 285 334
#     4  10  20  33  55  87 114 142 190 238 276 327
#     4  10  21  37  59  84 114 149 186 231 283 336
#     4  11  22  38  61  87 114 149 190 236 283 333
#     4  10  19  36  59  82 113 151 186 229 282 335
#     4  11  23  38  59  85 115 151 190 234 279 334
#     4  10  23  42  59  82 117 152 189 233 283 336
#
# _framework density 17.602720999999999
#
# number of rings (size 3 to 8) (size 9 to 14) (size 15 to 20)
#    0.000    1.714    2.857    1.714    0.000    5.143 
#    0.000    3.571    0.000    4.286    0.000    0.000 
#    0.000    0.000    0.000    0.000    0.000    0.000 
#
# Total GULP energy -156402.093320 kJ/mol
# GULP energy per Si atom -5585.789047 kJ/mol
# Density = 1.756266 g / cm^3
# Si number density = 17.602721 Si / 1000 Ang^3
#
#
#
# Elastic Constant Matrix: (Units=GPa)
#
#
# Indices 1 2 3 4 5 6 
#
# 1 113.9702 51.9623 70.7300 0.0000 -5.1229 0.0000
# 2 51.9623 52.4359 66.3138 0.0000 -3.5668 0.0000
# 3 70.7300 66.3138 152.4808 0.0000 -1.9462 0.0000
# 4 0.0000 0.0000 0.0000 35.9801 0.0000 1.3104
# 5 -5.1229 -3.5668 -1.9462 0.0000 28.7784 0.0000
# 6 0.0000 0.0000 0.0000 1.3104 0.0000 26.7044
#
#
#
# Elastic Compliance Matrix: (Units=1/GPa)
#
#
# Indices 1 2 3 4 5 6 
#
# 1 0.016129 -0.014376 -0.001217 0.000000 0.001007 0.000000
# 2 -0.014376 0.055662 -0.017498 0.000000 0.003156 0.000000
# 3 -0.001217 -0.017498 0.014715 0.000000 -0.001390 0.000000
# 4 0.000000 0.000000 0.000000 0.027843 0.000000 -0.001366
# 5 0.001007 0.003156 -0.001390 0.000000 0.035225 0.000000
# 6 0.000000 0.000000 0.000000 -0.001366 0.000000 0.037514
#
#
# Mechanical properties :
#
#
# Convention : Reuss Voigt Hill
#
# Bulk Modulus (GPa) = 49.20523 77.43323 63.31923
# Shear Modulus (GPa) = 19.22753 26.95130 23.08941
#
# Velocity S-wave (km/s) = 3.30859 3.91716 3.62566
# Velocity P-wave (km/s) = 6.52760 8.03391 7.31960
#
# Compressibility (1/GPa) = 0.02032304
#
# Stress axis : x y z
#
# Youngs Moduli (GPa) = 61.99967 17.96570 67.95924
#
# Poissons Ratio (x) = 0.25828 0.08267
# Poissons Ratio (y) = 0.89134 1.18916
# Poissons Ratio (z) = 0.07542 0.31437
#
# Static dielectric constant tensor:
#      x y z
#    x 1.568840 0.000000 0.006200 
#    y 0.000000 1.588830 0.000000 
#    z 0.006200 0.000000 1.597970 
# 
# From -- ./inp_files/275010.got.cif
#   From: 2010.05.17/outbox.cif.g08.bks.cpg/sg12_138_cif.got.tgz:275010.got - 2010.06.03 13:09:07.
