data_PCOD9188396
_publ_section_title
;
Structure prediction by ZEFSAII (Michael W. Deem and Ramdas Pophale) SiO2 
 PCOD9188396
Probable space group: C 2/M
;
_chemical_formula_sum "Si O2"
_cell_formula_units_Z 56
_cell_length_a 15.447561
_cell_length_b 17.583509
_cell_length_c 14.078553
_cell_angle_alpha 90.000000
_cell_angle_beta 125.877981
_cell_angle_gamma 90.000000
_cell_volume 3098.500702
_symmetry_space_group_name_H-M "C 2/M"
_symmetry_group_IT_number 12
_symmetry_cell_setting 'monoclinic'
loop_
_space_group_symop_operation_xyz
x,y,z
-x,y,-z
-x,-y,-z
x,-y,z
1/2+x,1/2+y,z
1/2-x,1/2+y,-z
1/2-x,1/2-y,-z
1/2+x,1/2-y,z
loop_
_atom_site_type_symbol
_atom_site_label
_atom_site_fract_x
_atom_site_fract_y
_atom_site_fract_z
Si Si1 0.107657 0.588606 0.806745
Si Si2 0.564459 0.910732 0.136189
Si Si3 0.262761 0.196511 0.656802
Si Si4 0.656159 0.407992 0.041861
Si Si5 0.064999 0.909221 0.182103
Si Si6 0.608110 0.316404 0.388079
Si Si7 0.073211 0.721723 0.638000
O O1 0.112035 0.500000 0.777724
O O2 0.226448 0.610870 0.918364
O O3 0.081546 0.646958 0.706842
O O4 0.020704 0.593638 0.833075
O O5 0.665447 0.860598 0.234700
O O6 0.594591 0.000000 0.142145
O O7 0.500000 0.885896 0.000000
O O8 0.338881 0.247907 0.638871
O O9 0.180162 0.162297 0.525540
O O10 0.186908 0.247554 0.675037
O O11 0.648900 0.500000 0.035848
O O12 0.637594 0.383973 0.139489
O O13 0.554748 0.379846 0.917340
O O14 0.101241 0.882652 0.307425
O O15 0.063753 0.000000 0.178313
O O16 0.493253 0.286823 0.349419
O O17 0.000000 0.703875 0.500000
#
# Coordination Sequence:
#
# PCOD9188396 Si02
#       7
#     8   8   8   8   8   8   8
#     4  10  19  36  59  83 111 146 192 237 283 340
#     4  10  22  41  61  82 114 155 196 237 279 335
#     4  10  21  39  57  78 116 151 182 237 289 337
#     4   8  16  31  51  79 113 141 173 233 294 326
#     4   9  17  32  53  79 112 148 186 230 284 341
#     4  10  20  36  56  80 112 149 188 232 288 338
#     4  10  21  37  57  83 115 148 185 237 292 337
#
# _framework density 18.073257000000002
#
# number of rings (size 3 to 8) (size 9 to 14) (size 15 to 20)
#    0.000    2.429    1.429    1.714    0.000    2.000 
#    5.143    3.571    0.000    2.571    0.000    0.000 
#    0.000    0.000    0.000    0.000    0.000    0.000 
#
# Total GULP energy -156006.581304 kJ/mol
# GULP energy per Si atom -5571.663618 kJ/mol
# Density = 1.803212 g / cm^3
# Si number density = 18.073257 Si / 1000 Ang^3
#
#
#
# Elastic Constant Matrix: (Units=GPa)
#
#
# Indices 1 2 3 4 5 6 
#
# 1 62.2461 20.1619 25.8198 0.0000 7.6575 0.0000
# 2 20.1619 41.1854 53.7097 0.0000 6.6983 0.0000
# 3 25.8198 53.7097 107.8482 0.0000 0.5912 0.0000
# 4 0.0000 0.0000 0.0000 44.5437 0.0000 -10.5148
# 5 7.6575 6.6983 0.5912 0.0000 23.6750 0.0000
# 6 0.0000 0.0000 0.0000 -10.5148 0.0000 18.5267
#
#
#
# Elastic Compliance Matrix: (Units=1/GPa)
#
#
# Indices 1 2 3 4 5 6 
#
# 1 0.019420 -0.008056 -0.000616 0.000000 -0.003987 0.000000
# 2 -0.008056 0.082051 -0.038826 0.000000 -0.019639 0.000000
# 3 -0.000616 -0.038826 0.028698 0.000000 0.010467 0.000000
# 4 0.000000 0.000000 0.000000 0.025923 0.000000 0.014712
# 5 -0.003987 -0.019639 0.010467 0.000000 0.048823 0.000000
# 6 0.000000 0.000000 0.000000 0.014712 0.000000 0.062326
#
#
# Mechanical properties :
#
#
# Convention : Reuss Voigt Hill
#
# Bulk Modulus (GPa) = 28.42964 45.62917 37.02941
# Shear Modulus (GPa) = 13.37035 24.78828 19.07931
#
# Velocity S-wave (km/s) = 2.72285 3.70745 3.25263
# Velocity P-wave (km/s) = 5.06454 6.60519 5.88550
#
# Compressibility (1/GPa) = 0.03517456
#
# Stress axis : x y z
#
# Youngs Moduli (GPa) = 51.49216 12.18755 34.84545
#
# Poissons Ratio (x) = 0.09818 0.02146
# Poissons Ratio (y) = 0.41480 1.35291
# Poissons Ratio (z) = 0.03171 0.47319
#
# Static dielectric constant tensor:
#      x y z
#    x 1.626900 0.000000 0.015800 
#    y 0.000000 1.612490 0.000000 
#    z 0.015800 0.000000 1.620680 
# 
# From -- ./inp_files/146214.got.cif
#   From: 2010.05.17/outbox.cif.g08.bks.cpg/sg12_74_cif.got.tgz:146214.got - 2010.06.03 13:09:07.
