data_PCOD9188064
_publ_section_title
;
Structure prediction by ZEFSAII (Michael W. Deem and Ramdas Pophale) SiO2 
 PCOD9188064
Probable space group: C 2/M
;
_chemical_formula_sum "Si O2"
_cell_formula_units_Z 64
_cell_length_a 24.476162
_cell_length_b 12.781770
_cell_length_c 19.591516
_cell_angle_alpha 90.000000
_cell_angle_beta 31.635433
_cell_angle_gamma 90.000000
_cell_volume 3214.831614
_symmetry_space_group_name_H-M "C 2/M"
_symmetry_group_IT_number 12
_symmetry_cell_setting 'monoclinic'
loop_
_space_group_symop_operation_xyz
x,y,z
-x,y,-z
-x,-y,-z
x,-y,z
1/2+x,1/2+y,z
1/2-x,1/2+y,-z
1/2-x,1/2-y,-z
1/2+x,1/2-y,z
loop_
_atom_site_type_symbol
_atom_site_label
_atom_site_fract_x
_atom_site_fract_y
_atom_site_fract_z
Si Si1 0.158497 0.383063 0.381701
Si Si2 0.442947 0.826120 0.656281
Si Si3 0.752187 0.192242 0.068876
Si Si4 0.296395 0.886424 0.118560
Si Si5 0.252530 0.830932 0.317088
Si Si6 0.964224 0.119846 0.384202
Si Si7 0.018613 0.118106 0.169006
Si Si8 0.980772 0.296200 0.099049
O O1 0.201417 0.500000 0.331811
O O2 0.111153 0.348678 0.358837
O O3 0.236857 0.294184 0.323188
O O4 0.055058 0.380742 0.538575
O O5 0.357587 0.862758 0.801243
O O6 0.471671 0.704686 0.640166
O O7 0.759643 0.285742 0.116157
O O8 0.750000 0.250000 0.000000
O O9 0.855525 0.124195 0.964401
O O10 0.250145 0.879082 0.243886
O O11 0.271064 0.000000 0.115324
O O12 0.421454 0.871550 0.990488
O O13 0.156077 0.869164 0.464816
O O14 0.367854 0.849517 0.222686
O O15 0.980417 0.143756 0.286611
O O16 0.998028 0.000000 0.359625
O O17 0.983609 0.201890 0.150126
O O18 0.984716 0.000000 0.189113
O O19 0.000000 0.259840 0.000000
#
# Coordination Sequence:
#
# PCOD9188064 Si02
#       8
#     8   8   8   8   8   8   8   8
#     4  10  21  37  56  83 113 145 187 232 275 327
#     4  10  19  36  55  78 113 149 184 223 273 324
#     4  11  21  37  56  81 115 151 186 223 272 329
#     4  10  21  38  59  85 113 143 185 231 275 332
#     4  10  20  38  60  84 109 145 185 232 282 328
#     4  10  21  36  57  84 113 145 183 226 277 332
#     4  10  22  38  56  82 114 145 183 229 274 327
#     4   9  21  39  59  82 111 143 182 231 280 326
#
# _framework density 19.907730999999998
#
# number of rings (size 3 to 8) (size 9 to 14) (size 15 to 20)
#    0.000    2.000    2.500    1.125    0.000    6.000 
#    0.000    1.875    0.000    0.000    0.000    0.000 
#    0.000    0.000    0.000    0.000    0.000    0.000 
#
# Total GULP energy -178541.483379 kJ/mol
# GULP energy per Si atom -5579.421356 kJ/mol
# Density = 1.986242 g / cm^3
# Si number density = 19.907731 Si / 1000 Ang^3
#
#
#
# Elastic Constant Matrix: (Units=GPa)
#
#
# Indices 1 2 3 4 5 6 
#
# 1 25.9832 10.9780 14.3070 0.0000 2.7814 0.0000
# 2 10.9780 102.0930 3.2230 0.0000 15.5331 0.0000
# 3 14.3070 3.2230 126.9922 0.0000 2.5851 0.0000
# 4 0.0000 0.0000 0.0000 2.5366 0.0000 5.3102
# 5 2.7814 15.5331 2.5851 0.0000 27.7104 0.0000
# 6 0.0000 0.0000 0.0000 5.3102 0.0000 8.9383
#
#
#
# Elastic Compliance Matrix: (Units=1/GPa)
#
#
# Indices 1 2 3 4 5 6 
#
# 1 0.043036 -0.004251 -0.004710 0.000000 -0.001497 0.000000
# 2 -0.004251 0.011131 0.000315 0.000000 -0.005842 0.000000
# 3 -0.004710 0.000315 0.008407 0.000000 -0.000488 0.000000
# 4 0.000000 0.000000 0.000000 -1.617899 0.000000 0.961179
# 5 -0.001497 -0.005842 -0.000488 0.000000 0.039558 0.000000
# 6 0.000000 0.000000 0.000000 0.961179 0.000000 -0.459149
#
#
# Mechanical properties :
#
#
# Convention : Reuss Voigt Hill
#
# Bulk Modulus (GPa) = 22.08353 34.67606 28.37979
# Shear Modulus (GPa) = -2.57396 22.94111 10.18357
#
# Velocity S-wave (km/s) = -1.13831 3.39834 2.26418
# Velocity P-wave (km/s) = 3.06420 5.73189 4.59586
#
# Compressibility (1/GPa) = 0.04528262
#
# Stress axis : x y z
#
# Youngs Moduli (GPa) = 23.23612 89.83888 118.94735
#
# Poissons Ratio (x) = 0.38192 0.56026
# Poissons Ratio (y) = 0.09878 -0.03751
# Poissons Ratio (z) = 0.10945 -0.02833
#
# Static dielectric constant tensor:
#      x y z
#    x 1.682460 0.000000 0.002270 
#    y 0.000000 1.710920 0.000000 
#    z 0.002270 0.000000 1.748280 
# 
# From -- ./inp_files/327776.got.cif
#   From: 2010.05.17/outbox.cif.g08.bks.cpg/sg12_164_cif.got.tgz:327776.got - 2010.06.03 13:09:07.
