data_PCOD9188278
_publ_section_title
;
Structure prediction by ZEFSAII (Michael W. Deem and Ramdas Pophale) SiO2 
 PCOD9188278
Probable space group: C 2/M
;
_chemical_formula_sum "Si O2"
_cell_formula_units_Z 64
_cell_length_a 20.007518
_cell_length_b 17.242517
_cell_length_c 23.139082
_cell_angle_alpha 90.000000
_cell_angle_beta 157.169479
_cell_angle_gamma 90.000000
_cell_volume 3097.270370
_symmetry_space_group_name_H-M "C 2/M"
_symmetry_group_IT_number 12
_symmetry_cell_setting 'monoclinic'
loop_
_space_group_symop_operation_xyz
x,y,z
-x,y,-z
-x,-y,-z
x,-y,z
1/2+x,1/2+y,z
1/2-x,1/2+y,-z
1/2-x,1/2-y,-z
1/2+x,1/2-y,z
loop_
_atom_site_type_symbol
_atom_site_label
_atom_site_fract_x
_atom_site_fract_y
_atom_site_fract_z
Si Si1 0.025744 0.914028 0.629387
Si Si2 0.844497 0.380037 0.420682
Si Si3 0.821116 0.299909 0.176147
Si Si4 0.312332 0.799800 0.824830
Si Si5 0.984501 0.143536 0.257095
Si Si6 0.168867 0.793569 0.593703
Si Si7 0.636878 0.087237 0.438013
Si Si8 0.543785 0.409922 0.897650
O O1 0.064005 0.911065 0.727906
O O2 0.866461 0.859579 0.481385
O O3 0.197425 0.876264 0.740461
O O4 0.994168 0.000000 0.583405
O O5 0.830514 0.291342 0.431512
O O6 0.881649 0.424380 0.508367
O O7 0.658857 0.403382 0.247868
O O8 0.000000 0.386843 0.500000
O O9 0.782434 0.266423 0.210659
O O10 0.888371 0.224707 0.193796
O O11 0.971556 0.363333 0.289157
O O12 0.653878 0.345685 0.019592
O O13 0.319769 0.790735 0.761442
O O14 0.500000 0.807329 0.000000
O O15 0.191341 0.139366 0.430561
O O16 0.946242 0.111204 0.162891
O O17 0.000000 0.797308 0.500000
O O18 0.655220 0.000000 0.426315
O O19 0.598066 0.500000 0.949936
#
# Coordination Sequence:
#
# PCOD9188278 Si02
#       8
#     8   8   8   8   8   8   8   8
#     4  10  20  36  59  84 113 149 191 242 297 345
#     4  10  19  36  58  82 114 155 198 235 287 358
#     4  11  22  38  60  84 113 157 199 234 289 359
#     4  10  21  37  56  81 115 152 191 237 288 345
#     4  10  21  40  60  83 114 155 200 240 290 351
#     4   9  18  33  55  80 107 144 188 237 281 334
#     4  11  22  36  57  85 117 148 191 251 296 336
#     4  11  23  38  59  88 122 154 192 247 295 337
#
# _framework density 20.663356
#
# number of rings (size 3 to 8) (size 9 to 14) (size 15 to 20)
#    0.000    1.750    0.000    7.125    0.000    4.500 
#    0.000    2.500    0.000    3.000    0.000    0.000 
#    0.000    0.000    0.000    0.000    0.000    0.000 
#
# Total GULP energy -178265.661704 kJ/mol
# GULP energy per Si atom -5570.801928 kJ/mol
# Density = 2.061633 g / cm^3
# Si number density = 20.663356 Si / 1000 Ang^3
#
#
#
# Elastic Constant Matrix: (Units=GPa)
#
#
# Indices 1 2 3 4 5 6 
#
# 1 55.6872 37.3046 4.9755 0.0002 -2.0225 -0.0024
# 2 37.3046 152.5279 54.2391 0.0011 -5.3114 0.0012
# 3 4.9755 54.2391 77.5554 0.0062 -8.3073 -0.0043
# 4 0.0002 0.0011 0.0062 56.5207 -0.0025 3.9210
# 5 -2.0225 -5.3114 -8.3073 -0.0025 27.1527 -0.0024
# 6 -0.0024 0.0012 -0.0043 3.9210 -0.0024 2.6582
#
#
#
# Elastic Compliance Matrix: (Units=1/GPa)
#
#
# Indices 1 2 3 4 5 6 
#
# 1 0.022084 -0.006524 0.003294 -0.000003 0.001376 0.000033
# 2 -0.006524 0.010655 -0.007094 0.000002 -0.000572 -0.000026
# 3 0.003294 -0.007094 0.018115 -0.000005 0.004400 0.000046
# 4 -0.000003 0.000002 -0.000005 0.019710 -0.000002 -0.029073
# 5 0.001376 -0.000572 0.004400 -0.000002 0.038166 0.000045
# 6 0.000033 -0.000026 0.000046 -0.029073 0.000045 0.419084
#
#
# Mechanical properties :
#
#
# Convention : Reuss Voigt Hill
#
# Bulk Modulus (GPa) = 33.10838 53.20100 43.15469
# Shear Modulus (GPa) = 8.95205 29.88305 19.41755
#
# Velocity S-wave (km/s) = 2.08368 3.80700 3.06879
# Velocity P-wave (km/s) = 4.67403 6.71765 5.78676
#
# Compressibility (1/GPa) = 0.03020383
#
# Stress axis : x y z
#
# Youngs Moduli (GPa) = 45.28198 93.85565 55.20175
#
# Poissons Ratio (x) = 0.61236 -0.18181
# Poissons Ratio (y) = 0.29544 0.39161
# Poissons Ratio (z) = -0.14914 0.66583
#
# Static dielectric constant tensor:
#      x y z
#    x 1.807090 -0.000010 -0.018560 
#    y -0.000010 1.764580 -0.000010 
#    z -0.018560 -0.000010 1.778360 
# 
# From -- ./inp_files/347901.got.cif
#   From: 2010.05.17/outbox.cif.g08.bks.cpg/sg12_174_cif.got.tgz:347901.got - 2010.06.03 13:09:07.
