data_PCOD9188257
_publ_section_title
;
Structure prediction by ZEFSAII (Michael W. Deem and Ramdas Pophale) SiO2 
 PCOD9188257
Probable space group: C 2/M
;
_chemical_formula_sum "Si O2"
_cell_formula_units_Z 42
_cell_length_a 15.306706
_cell_length_b 7.500221
_cell_length_c 22.454014
_cell_angle_alpha 90.000000
_cell_angle_beta 133.433804
_cell_angle_gamma 90.000000
_cell_volume 1871.921344
_symmetry_space_group_name_H-M "C 2/M"
_symmetry_group_IT_number 12
_symmetry_cell_setting 'monoclinic'
loop_
_space_group_symop_operation_xyz
x,y,z
-x,y,-z
-x,-y,-z
x,-y,z
1/2+x,1/2+y,z
1/2-x,1/2+y,-z
1/2-x,1/2-y,-z
1/2+x,1/2-y,z
loop_
_atom_site_type_symbol
_atom_site_label
_atom_site_fract_x
_atom_site_fract_y
_atom_site_fract_z
Si Si1 0.427752 0.706946 0.409769
Si Si2 0.840183 0.718235 0.711506
Si Si3 0.415698 0.785003 0.117572
Si Si4 0.875046 0.711504 0.591981
Si Si5 0.829612 0.293005 0.945650
Si Si6 0.500000 0.500000 0.000000
O O1 0.500000 0.787258 0.500000
O O2 0.406573 0.500000 0.416175
O O3 0.294402 0.779961 0.336056
O O4 0.514573 0.713947 0.394050
O O5 0.842920 0.500000 0.715640
O O6 0.865515 0.773147 0.655336
O O7 0.951765 0.778103 0.803758
O O8 0.314279 0.724595 0.116935
O O9 0.412727 0.000000 0.115526
O O10 0.374631 0.727480 0.032518
O O11 0.891196 0.500000 0.601048
O O12 0.750000 0.750000 0.500000
O O13 0.859364 0.500000 0.949778
O O14 0.899731 0.157814 0.937066
#
# Coordination Sequence:
#
# PCOD9188257 Si02
#       6
#     8   8   8   8   8   2
#     4  10  19  36  58  80 111 153 196 243 301 361
#     4   9  19  37  60  83 116 162 200 244 308 365
#     4   9  18  39  63  86 117 164 205 248 305 376
#     4  11  21  36  57  83 114 153 200 249 305 365
#     4  10  21  38  65  92 124 164 208 248 310 372
#     4  12  22  40  64  98 124 162 198 268 302 362
#
# _framework density 22.436838999999999
#
# number of rings (size 3 to 8) (size 9 to 14) (size 15 to 20)
#    0.000    2.095    2.857    0.857    1.333    0.381 
#    3.429    2.857    0.000    0.000    0.000    0.000 
#    0.000    0.000    0.000    0.000    0.000    0.000 
#
# Total GULP energy -117054.085415 kJ/mol
# GULP energy per Si atom -5574.004067 kJ/mol
# Density = 2.238577 g / cm^3
# Si number density = 22.436839 Si / 1000 Ang^3
#
#
#
# Elastic Constant Matrix: (Units=GPa)
#
#
# Indices 1 2 3 4 5 6 
#
# 1 95.0526 -7.0925 47.1998 0.0000 40.5289 0.0000
# 2 -7.0925 88.2691 2.3914 0.0000 6.8221 0.0000
# 3 47.1998 2.3914 141.2588 0.0000 44.4020 0.0000
# 4 0.0000 0.0000 0.0000 9.6876 0.0000 3.4956
# 5 40.5289 6.8221 44.4020 0.0000 41.5320 0.0000
# 6 0.0000 0.0000 0.0000 3.4956 0.0000 10.8855
#
#
#
# Elastic Compliance Matrix: (Units=1/GPa)
#
#
# Indices 1 2 3 4 5 6 
#
# 1 0.018786 0.002929 -0.000622 0.000000 -0.018148 0.000000
# 2 0.002929 0.011965 0.000505 0.000000 -0.005363 0.000000
# 3 -0.000622 0.000505 0.010714 0.000000 -0.010930 0.000000
# 4 0.000000 0.000000 0.000000 0.116754 0.000000 -0.037493
# 5 -0.018148 -0.005363 -0.010930 0.000000 0.054354 0.000000
# 6 0.000000 0.000000 0.000000 -0.037493 0.000000 0.103905
#
#
# Mechanical properties :
#
#
# Convention : Reuss Voigt Hill
#
# Bulk Modulus (GPa) = 21.23671 45.50867 33.37269
# Shear Modulus (GPa) = 15.31148 31.22648 23.26898
#
# Velocity S-wave (km/s) = 2.61516 3.73466 3.22388
# Velocity P-wave (km/s) = 4.31328 6.23891 5.36323
#
# Compressibility (1/GPa) = 0.04708826
#
# Stress axis : x y z
#
# Youngs Moduli (GPa) = 53.23075 83.57606 93.33303
#
# Poissons Ratio (x) = -0.24479 0.05807
# Poissons Ratio (y) = -0.15591 -0.04709
# Poissons Ratio (z) = 0.03312 -0.04217
#
# Static dielectric constant tensor:
#      x y z
#    x 1.891640 0.000000 0.002920 
#    y 0.000000 1.837180 0.000000 
#    z 0.002920 0.000000 1.831380 
# 
# From -- ./inp_files/360124.got.cif
#   From: 2010.05.17/outbox.cif.g08.bks.cpg/sg12_181_cif.got.tgz:360124.got - 2010.06.03 13:09:07.
