data_PCOD9188731
_publ_section_title
;
Structure prediction by ZEFSAII (Michael W. Deem and Ramdas Pophale) SiO2 
 PCOD9188731
Probable space group: C 2/M
;
_chemical_formula_sum "Si O2"
_cell_formula_units_Z 56
_cell_length_a 17.645574
_cell_length_b 20.667097
_cell_length_c 23.241052
_cell_angle_alpha 90.000000
_cell_angle_beta 160.965063
_cell_angle_gamma 90.000000
_cell_volume 2764.275307
_symmetry_space_group_name_H-M "C 2/M"
_symmetry_group_IT_number 12
_symmetry_cell_setting 'monoclinic'
loop_
_space_group_symop_operation_xyz
x,y,z
-x,y,-z
-x,-y,-z
x,-y,z
1/2+x,1/2+y,z
1/2-x,1/2+y,-z
1/2-x,1/2-y,-z
1/2+x,1/2-y,z
loop_
_atom_site_type_symbol
_atom_site_label
_atom_site_fract_x
_atom_site_fract_y
_atom_site_fract_z
Si Si1 0.643704 0.922274 0.878949
Si Si2 0.545936 0.828258 0.966301
Si Si3 0.497681 0.368611 0.230695
Si Si4 0.751373 0.500000 0.401102
Si Si5 0.761394 0.422946 0.692309
Si Si6 0.273114 0.724718 0.692368
Si Si7 0.285900 0.500000 0.765562
Si Si8 0.488388 0.633387 0.052351
O O1 0.396305 0.908665 0.729696
O O2 0.660718 0.000000 0.880755
O O3 0.827065 0.899488 0.059381
O O4 0.725938 0.876252 0.886387
O O5 0.401723 0.892237 0.845549
O O6 0.441994 0.778482 0.843105
O O7 0.500000 0.812071 0.000000
O O8 0.817681 0.841812 0.148838
O O9 0.650460 0.432591 0.354376
O O10 0.640446 0.307917 0.305684
O O11 0.711317 0.500000 0.302556
O O12 0.026892 0.500000 0.603311
O O13 0.500000 0.398793 0.500000
O O14 0.760493 0.500000 0.698402
O O15 0.326764 0.665672 0.773243
O O16 0.000000 0.741669 0.500000
O O17 0.418030 0.561535 0.882954
O O18 0.500000 0.667053 0.000000
#
# Coordination Sequence:
#
# PCOD9188731 Si02
#       8
#     8   8   8   4   8   8   4   8
#     4   9  15  29  52  78 108 147 188 224 270 343
#     4  11  24  40  60  85 119 153 201 245 296 345
#     4  10  19  36  61  87 115 154 199 239 287 355
#     4  11  18  34  59  92 118 151 202 243 280 354
#     4   9  19  37  60  81 106 147 198 245 285 332
#     4  11  22  40  62  85 114 155 204 245 289 349
#     4  11  19  30  56  88 128 151 185 243 300 352
#     4  11  20  32  53  85 124 154 184 231 297 357
#
# _framework density 20.258474
#
# number of rings (size 3 to 8) (size 9 to 14) (size 15 to 20)
#    0.000    1.714    4.286    2.357    1.000    0.286 
#    0.000    3.571    0.000    0.000    0.000    0.000 
#    0.000    0.000    0.000    0.000    0.000    0.000 
#
# Total GULP energy -155911.519468 kJ/mol
# GULP energy per Si atom -5568.268552 kJ/mol
# Density = 2.021237 g / cm^3
# Si number density = 20.258474 Si / 1000 Ang^3
#
#
#
# Elastic Constant Matrix: (Units=GPa)
#
#
# Indices 1 2 3 4 5 6 
#
# 1 88.5296 34.1921 27.2885 -0.0686 22.9927 0.0901
# 2 34.1921 83.7294 21.6717 0.1185 15.3665 0.0039
# 3 27.2885 21.6717 69.5917 -0.1264 36.9387 0.0846
# 4 -0.0686 0.1185 -0.1264 5.5865 0.0058 1.8046
# 5 22.9927 15.3665 36.9387 0.0058 33.1023 0.0311
# 6 0.0901 0.0039 0.0846 1.8046 0.0311 17.9741
#
#
#
# Elastic Compliance Matrix: (Units=1/GPa)
#
#
# Indices 1 2 3 4 5 6 
#
# 1 0.015306 -0.004693 -0.000130 0.000323 -0.008308 -0.000093
# 2 -0.004693 0.014619 -0.002064 -0.000438 -0.001224 0.000076
# 3 -0.000130 -0.002064 0.035587 0.000950 -0.038664 -0.000195
# 4 0.000323 -0.000438 0.000950 0.185043 -0.001097 -0.018582
# 5 -0.008308 -0.001224 -0.038664 -0.001097 0.079693 0.000196
# 6 -0.000093 0.000076 -0.000195 -0.018582 0.000196 0.057502
#
#
# Mechanical properties :
#
#
# Convention : Reuss Voigt Hill
#
# Bulk Modulus (GPa) = 19.32727 45.35058 32.33893
# Shear Modulus (GPa) = 11.93974 21.91247 16.92610
#
# Velocity S-wave (km/s) = 2.43033 3.29240 2.89365
# Velocity P-wave (km/s) = 4.17569 6.07353 5.21173
#
# Compressibility (1/GPa) = 0.05174036
#
# Stress axis : x y z
#
# Youngs Moduli (GPa) = 65.33284 68.40457 28.09983
#
# Poissons Ratio (x) = 0.32099 0.00365
# Poissons Ratio (y) = 0.30658 0.05799
# Poissons Ratio (z) = 0.00849 0.14116
#
# Static dielectric constant tensor:
#      x y z
#    x 1.800540 0.000010 0.023810 
#    y 0.000010 1.791430 -0.000030 
#    z 0.023810 -0.000030 1.700080 
# 
# From -- ./inp_files/344819.got.cif
#   From: 2010.05.17/outbox.cif.g08.bks.cpg/sg12_173_cif.got.tgz:344819.got - 2010.06.03 13:09:07.
