data_PCOD9188934
_publ_section_title
;
Structure prediction by ZEFSAII (Michael W. Deem and Ramdas Pophale) SiO2 
 PCOD9188934
Probable space group: C 2/M
;
_chemical_formula_sum "Si O2"
_cell_formula_units_Z 64
_cell_length_a 20.123248
_cell_length_b 8.088622
_cell_length_c 32.117310
_cell_angle_alpha 90.000000
_cell_angle_beta 144.197797
_cell_angle_gamma 90.000000
_cell_volume 3058.154194
_symmetry_space_group_name_H-M "C 2/M"
_symmetry_group_IT_number 12
_symmetry_cell_setting 'monoclinic'
loop_
_space_group_symop_operation_xyz
x,y,z
-x,y,-z
-x,-y,-z
x,-y,z
1/2+x,1/2+y,z
1/2-x,1/2+y,-z
1/2-x,1/2-y,-z
1/2+x,1/2-y,z
loop_
_atom_site_type_symbol
_atom_site_label
_atom_site_fract_x
_atom_site_fract_y
_atom_site_fract_z
Si Si1 0.732425 0.699783 0.376585
Si Si2 0.934544 0.304561 0.006909
Si Si3 0.293075 0.810760 0.727610
Si Si4 0.349846 0.199544 0.519246
Si Si5 0.680381 0.297604 0.895000
Si Si6 0.484515 0.308363 0.119303
Si Si7 0.088703 0.303885 0.678394
Si Si8 0.027477 0.800192 0.738505
O O1 0.735329 0.500000 0.376725
O O2 0.755348 0.763962 0.342147
O O3 0.816220 0.756113 0.455816
O O4 0.603863 0.750289 0.323247
O O5 0.920009 0.500000 0.991858
O O6 0.001269 0.280584 0.083908
O O7 0.807775 0.238109 0.951119
O O8 0.000000 0.234768 0.000000
O O9 0.404136 0.705742 0.795487
O O10 0.196517 0.781592 0.712637
O O11 0.329846 0.000000 0.746032
O O12 0.250000 0.250000 0.500000
O O13 0.471508 0.257567 0.597709
O O14 0.353098 0.000000 0.520397
O O15 0.680774 0.500000 0.897072
O O16 0.621317 0.240162 0.907686
O O17 0.599827 0.250751 0.815528
O O18 0.463712 0.500000 0.099413
O O19 0.098931 0.500000 0.676053
O O20 0.078246 0.270996 0.722015
O O21 0.030014 0.000000 0.737122
#
# Coordination Sequence:
#
# PCOD9188934 Si02
#       8
#     8   8   8   8   8   8   8   8
#     4  10  20  39  64  89 121 161 204 255 309 362
#     4  10  22  39  60  91 128 163 201 245 297 360
#     4  12  26  42  62  89 121 160 206 258 315 371
#     4  10  21  37  61  90 123 163 205 252 306 364
#     4   9  19  37  61  88 121 163 202 243 297 355
#     4  11  22  41  65  88 120 161 205 253 304 361
#     4  11  24  40  59  90 127 162 203 254 310 367
#     4  10  19  36  63  90 121 163 208 250 302 362
#
# _framework density 20.927657
#
# number of rings (size 3 to 8) (size 9 to 14) (size 15 to 20)
#    0.000    1.625    2.500    2.250    1.750    2.250 
#    0.000    3.750    0.000    0.000    0.000    0.000 
#    0.000    0.000    0.000    0.000    0.000    0.000 
#
# Total GULP energy -178861.004010 kJ/mol
# GULP energy per Si atom -5589.406375 kJ/mol
# Density = 2.088002 g / cm^3
# Si number density = 20.927657 Si / 1000 Ang^3
#
#
#
# Elastic Constant Matrix: (Units=GPa)
#
#
# Indices 1 2 3 4 5 6 
#
# 1 123.1662 5.7750 19.4217 0.0001 -13.7087 -0.0003
# 2 5.7750 16.3496 -2.8050 0.0004 2.3479 -0.0012
# 3 19.4217 -2.8050 64.7544 0.0000 -12.3770 0.0000
# 4 0.0001 0.0004 0.0000 12.8679 0.0000 -4.8981
# 5 -13.7087 2.3479 -12.3770 0.0000 35.8961 0.0001
# 6 -0.0003 -0.0012 0.0000 -4.8981 0.0001 24.6018
#
#
#
# Elastic Compliance Matrix: (Units=1/GPa)
#
#
# Indices 1 2 3 4 5 6 
#
# 1 0.008994 -0.003990 -0.002317 0.000000 0.002897 0.000000
# 2 -0.003990 0.063766 0.003073 -0.000001 -0.004635 0.000003
# 3 -0.002317 0.003073 0.017197 0.000000 0.004844 0.000000
# 4 0.000000 -0.000001 0.000000 0.084085 0.000000 0.016741
# 5 0.002897 -0.004635 0.004844 0.000000 0.030938 0.000000
# 6 0.000000 0.000003 0.000000 0.016741 0.000000 0.043981
#
#
# Mechanical properties :
#
#
# Convention : Reuss Voigt Hill
#
# Bulk Modulus (GPa) = 11.97767 27.67264 19.82515
# Shear Modulus (GPa) = 17.65176 26.79839 22.22508
#
# Velocity S-wave (km/s) = 2.90740 3.58232 3.26236
# Velocity P-wave (km/s) = 4.12388 5.51021 4.86666
#
# Compressibility (1/GPa) = 0.08348871
#
# Stress axis : x y z
#
# Youngs Moduli (GPa) = 111.18573 15.68235 58.15061
#
# Poissons Ratio (x) = 0.06258 0.13472
# Poissons Ratio (y) = 0.44367 -0.17870
# Poissons Ratio (z) = 0.25758 -0.04819
#
# Static dielectric constant tensor:
#      x y z
#    x 1.721460 0.000000 0.002590 
#    y 0.000000 1.751360 0.000000 
#    z 0.002590 0.000000 1.741040 
# 
# From -- ./inp_files/378038.got.cif
#   From: 2010.05.17/outbox.cif.g08.bks.cpg/sg12_190_cif.got.tgz:378038.got - 2010.06.03 13:09:07.
