data_PCOD9188796
_publ_section_title
;
Structure prediction by ZEFSAII (Michael W. Deem and Ramdas Pophale) SiO2 
 PCOD9188796
Probable space group: C 2/M
;
_chemical_formula_sum "Si O2"
_cell_formula_units_Z 42
_cell_length_a 14.062605
_cell_length_b 7.558897
_cell_length_c 17.379389
_cell_angle_alpha 90.000000
_cell_angle_beta 58.039708
_cell_angle_gamma 90.000000
_cell_volume 1567.354093
_symmetry_space_group_name_H-M "C 2/M"
_symmetry_group_IT_number 12
_symmetry_cell_setting 'monoclinic'
loop_
_space_group_symop_operation_xyz
x,y,z
-x,y,-z
-x,-y,-z
x,-y,z
1/2+x,1/2+y,z
1/2-x,1/2+y,-z
1/2-x,1/2-y,-z
1/2+x,1/2-y,z
loop_
_atom_site_type_symbol
_atom_site_label
_atom_site_fract_x
_atom_site_fract_y
_atom_site_fract_z
Si Si1 0.341436 0.789653 0.732823
Si Si2 0.678373 0.788874 0.928732
Si Si3 0.664231 0.294360 0.684938
Si Si4 0.500000 0.500000 0.500000
Si Si5 0.510152 0.786409 0.119223
Si Si6 0.578038 0.204199 0.565512
O O1 0.294477 0.762245 0.838876
O O2 0.250029 0.718384 0.711325
O O3 0.461915 0.724540 0.655022
O O4 0.347706 0.000000 0.721825
O O5 0.584182 0.739847 0.904897
O O6 0.677782 0.000000 0.933997
O O7 0.627086 0.721199 0.031395
O O8 0.690829 0.500000 0.662567
O O9 0.543281 0.280549 0.779193
O O10 0.660728 0.212244 0.602445
O O11 0.586538 0.342428 0.493710
O O12 0.515079 0.000000 0.123328
O O13 0.570634 0.000000 0.543648
#
# Coordination Sequence:
#
# PCOD9188796 Si02
#       6
#     8   8   8   2   8   8
#     4   9  20  36  60  89 124 161 205 249 300 358
#     4   8  14  25  47  78 118 161 207 249 291 340
#     4  10  19  36  61  91 123 163 208 250 295 361
#     4  12  26  48  72  94 120 150 202 248 312 378
#     4   8  14  26  45  79 119 162 205 250 293 340
#     4  11  24  45  69  92 124 158 194 248 314 367
#
# _framework density 26.796755000000001
#
# number of rings (size 3 to 8) (size 9 to 14) (size 15 to 20)
#    0.000    2.667    0.952    2.000    1.333    1.524 
#    0.000    5.714    0.000    0.000    0.000    0.000 
#    0.000    0.000    0.000    0.000    0.000    0.000 
#
# Total GULP energy -117208.547807 kJ/mol
# GULP energy per Si atom -5581.359419 kJ/mol
# Density = 2.673576 g / cm^3
# Si number density = 26.796755 Si / 1000 Ang^3
#
#
#
# Elastic Constant Matrix: (Units=GPa)
#
#
# Indices 1 2 3 4 5 6 
#
# 1 97.9540 -1.7968 41.3102 0.0000 -0.8482 0.0000
# 2 -1.7968 114.6110 1.8503 0.0000 15.9912 0.0001
# 3 41.3102 1.8503 159.4121 0.0000 0.9396 0.0000
# 4 0.0000 0.0000 0.0000 -32.9380 0.0000 52.9632
# 5 -0.8482 15.9912 0.9396 0.0000 59.6113 0.0000
# 6 0.0000 0.0001 0.0000 52.9632 0.0000 -23.2638
#
#
#
# Elastic Compliance Matrix: (Units=1/GPa)
#
#
# Indices 1 2 3 4 5 6 
#
# 1 0.011469 0.000206 -0.002975 0.000000 0.000155 0.000000
# 2 0.000206 0.009069 -0.000144 0.000000 -0.002428 0.000000
# 3 -0.002975 -0.000144 0.007046 0.000000 -0.000115 0.000000
# 4 0.000000 0.000000 0.000000 0.011410 0.000000 0.025977
# 5 0.000155 -0.002428 -0.000115 0.000000 0.017431 0.000000
# 6 0.000000 0.000000 0.000000 0.025977 0.000000 0.016155
#
#
# Mechanical properties :
#
#
# Convention : Reuss Voigt Hill
#
# Bulk Modulus (GPa) = 45.96078 50.52271 48.24175
# Shear Modulus (GPa) = 58.37004 22.72279 40.54641
#
# Velocity S-wave (km/s) = 4.67224 2.91515 3.89409
# Velocity P-wave (km/s) = 6.80406 5.49780 6.18551
#
# Compressibility (1/GPa) = 0.02175768
#
# Stress axis : x y z
#
# Youngs Moduli (GPa) = 87.19321 110.26014 141.91578
#
# Poissons Ratio (x) = -0.02274 0.42225
# Poissons Ratio (y) = -0.01798 0.02049
# Poissons Ratio (z) = 0.25943 0.01592
#
# Static dielectric constant tensor:
#      x y z
#    x 2.194140 0.000000 -0.036710 
#    y 0.000000 1.980410 0.000000 
#    z -0.036710 0.000000 2.184790 
# 
# From -- ./inp_files/267075.got.cif
#   From: 2010.05.17/outbox.cif.g08.bks.cpg/sg12_134_cif.got.tgz:267075.got - 2010.06.03 13:09:07.
