data_PCOD9188285
_publ_section_title
;
Structure prediction by ZEFSAII (Michael W. Deem and Ramdas Pophale) SiO2 
 PCOD9188285
Probable space group: C 2/M
;
_chemical_formula_sum "Si O2"
_cell_formula_units_Z 64
_cell_length_a 15.470042
_cell_length_b 7.968309
_cell_length_c 25.441079
_cell_angle_alpha 90.000000
_cell_angle_beta 90.424560
_cell_angle_gamma 90.000000
_cell_volume 3136.037616
_symmetry_space_group_name_H-M "C 2/M"
_symmetry_group_IT_number 12
_symmetry_cell_setting 'monoclinic'
loop_
_space_group_symop_operation_xyz
x,y,z
-x,y,-z
-x,-y,-z
x,-y,z
1/2+x,1/2+y,z
1/2-x,1/2+y,-z
1/2-x,1/2-y,-z
1/2+x,1/2-y,z
loop_
_atom_site_type_symbol
_atom_site_label
_atom_site_fract_x
_atom_site_fract_y
_atom_site_fract_z
Si Si1 0.974469 0.200894 0.441974
Si Si2 0.285213 0.793872 0.170615
Si Si3 0.231164 0.314944 0.941986
Si Si4 0.985270 0.700604 0.165217
Si Si5 0.456128 0.695386 0.055247
Si Si6 0.124106 0.205961 0.365543
Si Si7 0.278572 0.200304 0.441457
Si Si8 0.634589 0.702117 0.245841
O O1 0.874773 0.237126 0.430953
O O2 0.000000 0.267399 0.500000
O O3 0.039799 0.262608 0.397539
O O4 0.985617 0.000000 0.444118
O O5 0.247547 0.731635 0.114008
O O6 0.385859 0.743493 0.176479
O O7 0.221663 0.739611 0.216615
O O8 0.284959 0.000000 0.168566
O O9 0.269694 0.500000 0.940656
O O10 0.127224 0.311519 0.939023
O O11 0.250000 0.250000 0.000000
O O12 0.985246 0.500000 0.161075
O O13 0.010602 0.775574 0.108293
O O14 0.052129 0.752301 0.210183
O O15 0.428687 0.500000 0.053729
O O16 0.500000 0.732580 0.000000
O O17 0.207876 0.260193 0.399095
O O18 0.126481 0.263850 0.305470
O O19 0.123734 0.000000 0.364883
O O20 0.250000 0.250000 0.500000
O O21 0.279362 0.000000 0.439207
O O22 0.639438 0.500000 0.247899
#
# Coordination Sequence:
#
# PCOD9188285 Si02
#       8
#     8   8   8   8   8   8   8   8
#     4  10  19  36  58  82 119 159 189 235 292 340
#     4   8  18  36  56  76 107 146 183 225 281 338
#     4  10  20  34  52  79 112 145 182 230 287 345
#     4  10  21  38  57  82 114 147 184 238 298 343
#     4  10  21  36  55  80 109 144 186 232 286 348
#     4   9  20  37  57  83 115 152 194 231 283 344
#     4  11  21  36  58  87 118 155 196 239 288 344
#     4  10  20  38  62  82 106 152 199 231 272 345
#
# _framework density 20.407917999999999
#
# number of rings (size 3 to 8) (size 9 to 14) (size 15 to 20)
#    0.000    2.250    1.250    2.250    1.750    2.250 
#    0.000    6.250    0.000    0.000    0.000    0.000 
#    0.000    0.000    0.000    0.000    0.000    0.000 
#
# Total GULP energy -178536.873549 kJ/mol
# GULP energy per Si atom -5579.277298 kJ/mol
# Density = 2.036147 g / cm^3
# Si number density = 20.407918 Si / 1000 Ang^3
#
#
#
# Elastic Constant Matrix: (Units=GPa)
#
#
# Indices 1 2 3 4 5 6 
#
# 1 126.2862 -1.9234 99.3557 0.0000 -7.5575 0.0000
# 2 -1.9234 16.5045 13.2884 0.0000 -7.8255 0.0000
# 3 99.3557 13.2884 219.5896 0.0000 -7.7702 0.0000
# 4 0.0000 0.0000 0.0000 16.7578 0.0000 6.5402
# 5 -7.5575 -7.8255 -7.7702 0.0000 36.7505 0.0000
# 6 0.0000 0.0000 0.0000 6.5402 0.0000 23.8709
#
#
#
# Elastic Compliance Matrix: (Units=1/GPa)
#
#
# Indices 1 2 3 4 5 6 
#
# 1 0.013245 0.008153 -0.006376 0.000000 0.003112 0.000000
# 2 0.008153 0.075356 -0.007679 0.000000 0.016099 0.000000
# 3 -0.006376 -0.007679 0.007858 0.000000 -0.001285 0.000000
# 4 0.000000 0.000000 0.000000 0.066819 0.000000 -0.018307
# 5 0.003112 0.016099 -0.001285 0.000000 0.031007 0.000000
# 6 0.000000 0.000000 0.000000 -0.018307 0.000000 0.046908
#
#
# Mechanical properties :
#
#
# Convention : Reuss Voigt Hill
#
# Bulk Modulus (GPa) = 11.81280 64.86909 38.34094
# Shear Modulus (GPa) = 17.77991 32.25315 25.01653
#
# Velocity S-wave (km/s) = 2.95486 3.97977 3.50498
# Velocity P-wave (km/s) = 4.17642 7.27828 5.93362
#
# Compressibility (1/GPa) = 0.08465392
#
# Stress axis : x y z
#
# Youngs Moduli (GPa) = 75.49741 13.27037 127.25513
#
# Poissons Ratio (x) = -0.10819 0.81142
# Poissons Ratio (y) = -0.61552 0.97723
# Poissons Ratio (z) = 0.48140 0.10191
#
# Static dielectric constant tensor:
#      x y z
#    x 1.705410 0.000000 0.002330 
#    y 0.000000 1.741470 0.000000 
#    z 0.002330 0.000000 1.743860 
# 
# From -- ./inp_files/338746.got.cif
#   From: 2010.05.17/outbox.cif.g08.bks.cpg/sg12_170_cif.got.tgz:338746.got - 2010.06.03 13:09:07.
