data_PCOD9188892
_publ_section_title
;
Structure prediction by ZEFSAII (Michael W. Deem and Ramdas Pophale) SiO2 
 PCOD9188892
Probable space group: C 2/M
;
_chemical_formula_sum "Si O2"
_cell_formula_units_Z 64
_cell_length_a 27.315327
_cell_length_b 22.422662
_cell_length_c 12.647766
_cell_angle_alpha 90.000000
_cell_angle_beta 154.576445
_cell_angle_gamma 90.000000
_cell_volume 3325.636893
_symmetry_space_group_name_H-M "C 2/M"
_symmetry_group_IT_number 12
_symmetry_cell_setting 'monoclinic'
loop_
_space_group_symop_operation_xyz
x,y,z
-x,y,-z
-x,-y,-z
x,-y,z
1/2+x,1/2+y,z
1/2-x,1/2+y,-z
1/2-x,1/2-y,-z
1/2+x,1/2-y,z
loop_
_atom_site_type_symbol
_atom_site_label
_atom_site_fract_x
_atom_site_fract_y
_atom_site_fract_z
Si Si1 0.738697 0.929606 0.570810
Si Si2 0.247925 0.070420 0.646098
Si Si3 0.254073 0.243797 0.881091
Si Si4 0.730247 0.430109 0.951517
Si Si5 0.562847 0.849592 0.726884
Si Si6 0.006311 0.431337 0.232682
Si Si7 0.596363 0.359979 0.519635
Si Si8 0.169817 0.129679 0.045063
O O1 0.762306 0.912062 0.496426
O O2 0.604926 0.922859 0.338919
O O3 0.765197 0.000000 0.632290
O O4 0.806506 0.893834 0.791868
O O5 0.167720 0.108522 0.565455
O O6 0.219766 0.000000 0.601517
O O7 0.379726 0.076652 0.938801
O O8 0.144994 0.206433 0.631081
O O9 0.250000 0.250000 0.000000
O O10 0.364415 0.202115 0.075930
O O11 0.268409 0.307757 0.857443
O O12 0.731515 0.500000 0.931337
O O13 0.630538 0.396887 0.691662
O O14 0.714445 0.416941 0.044245
O O15 0.844997 0.398485 0.133654
O O16 0.500000 0.826470 0.500000
O O17 0.481940 0.884262 0.649883
O O18 0.015398 0.500000 0.288907
O O19 0.463844 0.361541 0.237152
#
# Coordination Sequence:
#
# PCOD9188892 Si02
#       8
#     8   8   8   8   8   8   8   8
#     4  10  23  40  63  94 126 162 205 254 310 361
#     4  10  20  41  67  92 124 164 207 251 304 368
#     4  11  24  42  60  85 119 165 208 249 298 366
#     4  11  22  37  56  88 128 161 196 243 308 373
#     4  11  22  34  60  89 122 160 205 250 307 360
#     4  10  19  36  62  93 126 161 202 251 304 364
#     4  11  24  41  64  90 122 160 209 249 306 365
#     4  12  25  40  61  90 125 161 202 259 302 366
#
# _framework density 19.244433999999998
#
# number of rings (size 3 to 8) (size 9 to 14) (size 15 to 20)
#    0.000    1.250    5.000    2.625    1.750    6.500 
#    0.000    1.875    0.000    0.000    0.000    0.000 
#    0.000    0.000    0.000    0.000    0.000    0.000 
#
# Total GULP energy -178953.934941 kJ/mol
# GULP energy per Si atom -5592.310467 kJ/mol
# Density = 1.920063 g / cm^3
# Si number density = 19.244434 Si / 1000 Ang^3
#
#
#
# Elastic Constant Matrix: (Units=GPa)
#
#
# Indices 1 2 3 4 5 6 
#
# 1 78.4619 15.6573 18.3278 0.0000 -16.1240 0.0000
# 2 15.6573 59.0397 19.6677 0.0000 1.3921 0.0000
# 3 18.3278 19.6677 66.2100 0.0000 0.6046 0.0000
# 4 0.0000 0.0000 0.0000 22.6334 0.0000 -8.6078
# 5 -16.1240 1.3921 0.6046 0.0000 31.4874 0.0000
# 6 0.0000 0.0000 0.0000 -8.6078 0.0000 13.1119
#
#
#
# Elastic Compliance Matrix: (Units=1/GPa)
#
#
# Indices 1 2 3 4 5 6 
#
# 1 0.015937 -0.003250 -0.003522 0.000000 0.008372 0.000000
# 2 -0.003250 0.019477 -0.004864 0.000000 -0.002432 0.000000
# 3 -0.003522 -0.004864 0.017541 0.000000 -0.001926 0.000000
# 4 0.000000 0.000000 0.000000 0.058884 0.000000 0.038657
# 5 0.008372 -0.002432 -0.001926 0.000000 0.036191 0.000000
# 6 0.000000 0.000000 0.000000 0.038657 0.000000 0.101644
#
#
# Mechanical properties :
#
#
# Convention : Reuss Voigt Hill
#
# Bulk Modulus (GPa) = 33.69065 34.55748 34.12407
# Shear Modulus (GPa) = 17.67773 23.45046 20.56409
#
# Velocity S-wave (km/s) = 3.03411 3.49457 3.27245
# Velocity P-wave (km/s) = 5.46069 5.85481 5.66118
#
# Compressibility (1/GPa) = 0.02968183
#
# Stress axis : x y z
#
# Youngs Moduli (GPa) = 62.74709 51.34158 57.00967
#
# Poissons Ratio (x) = 0.16688 0.20081
# Poissons Ratio (y) = 0.20396 0.27728
# Poissons Ratio (z) = 0.22102 0.24971
#
# Static dielectric constant tensor:
#      x y z
#    x 1.650500 0.000000 0.010690 
#    y 0.000000 1.660940 0.000000 
#    z 0.010690 0.000000 1.685960 
# 
# From -- ./inp_files/184706.got.cif
#   From: 2010.05.17/outbox.cif.g08.bks.cpg/sg12_93_cif.got.tgz:184706.got - 2010.06.03 13:09:07.
