data_PCOD9188150
_publ_section_title
;
Structure prediction by ZEFSAII (Michael W. Deem and Ramdas Pophale) SiO2 
 PCOD9188150
Probable space group: C 2/M
;
_chemical_formula_sum "Si O2"
_cell_formula_units_Z 64
_cell_length_a 16.834505
_cell_length_b 12.204004
_cell_length_c 17.031145
_cell_angle_alpha 90.000000
_cell_angle_beta 89.243430
_cell_angle_gamma 90.000000
_cell_volume 3498.715873
_symmetry_space_group_name_H-M "C 2/M"
_symmetry_group_IT_number 12
_symmetry_cell_setting 'monoclinic'
loop_
_space_group_symop_operation_xyz
x,y,z
-x,y,-z
-x,-y,-z
x,-y,z
1/2+x,1/2+y,z
1/2-x,1/2+y,-z
1/2-x,1/2-y,-z
1/2+x,1/2-y,z
loop_
_atom_site_type_symbol
_atom_site_label
_atom_site_fract_x
_atom_site_fract_y
_atom_site_fract_z
Si Si1 0.659303 0.789882 0.932074
Si Si2 0.886416 0.236486 0.783417
Si Si3 0.044704 0.373000 0.803408
Si Si4 0.410592 0.372121 0.469487
Si Si5 0.333825 0.623411 0.938441
Si Si6 0.269806 0.373078 0.196512
Si Si7 0.178859 0.130321 0.368773
Si Si8 0.346999 0.762256 0.327411
O O1 0.592760 0.852860 0.883800
O O2 0.737780 0.863167 0.946019
O O3 0.691413 0.694612 0.874369
O O4 0.632876 0.723844 0.009626
O O5 0.861790 0.147117 0.849306
O O6 0.819586 0.330324 0.792253
O O7 0.876225 0.185101 0.697291
O O8 0.971053 0.290165 0.798565
O O9 0.020858 0.500000 0.798365
O O10 0.102719 0.341125 0.730334
O O11 0.500000 0.363256 0.500000
O O12 0.397929 0.500000 0.446149
O O13 0.353379 0.347111 0.543810
O O14 0.394246 0.289046 0.399146
O O15 0.356172 0.500000 0.961948
O O16 0.273030 0.500000 0.181181
O O17 0.317439 0.337828 0.273302
O O18 0.267498 0.175941 0.356079
O O19 0.177946 0.000000 0.357084
#
# Coordination Sequence:
#
# PCOD9188150 Si02
#       8
#     8   8   8   8   8   8   8   8
#     4   9  20  34  55  82 104 138 181 220 266 319
#     4  10  21  34  53  79 106 141 180 218 266 322
#     4  11  22  38  56  77 108 139 174 220 271 321
#     4  10  20  34  54  81 114 146 175 216 269 319
#     4  10  19  36  57  78 108 141 181 226 266 312
#     4   9  17  32  52  75 104 136 175 220 266 315
#     4  10  20  36  57  80 107 142 182 220 264 315
#     4  10  20  34  56  80 104 139 184 224 261 314
#
# _framework density 18.292425999999999
#
# number of rings (size 3 to 8) (size 9 to 14) (size 15 to 20)
#    0.000    2.125    0.000    4.125    0.000    0.500 
#    0.000   10.000    0.000    9.000    0.000    0.000 
#    0.000    0.000    0.000    0.000    0.000    0.000 
#
# Total GULP energy -178593.815872 kJ/mol
# GULP energy per Si atom -5581.056746 kJ/mol
# Density = 1.825079 g / cm^3
# Si number density = 18.292426 Si / 1000 Ang^3
#
#
#
# Elastic Constant Matrix: (Units=GPa)
#
#
# Indices 1 2 3 4 5 6 
#
# 1 46.4476 2.5162 5.4937 0.0000 9.5080 0.0000
# 2 2.5162 67.4652 10.1542 0.0000 2.6137 0.0000
# 3 5.4937 10.1542 58.8216 0.0000 14.2952 0.0000
# 4 0.0000 0.0000 0.0000 11.6526 0.0000 1.5174
# 5 9.5080 2.6137 14.2952 0.0000 20.6626 0.0000
# 6 0.0000 0.0000 0.0000 1.5174 0.0000 11.5386
#
#
#
# Elastic Compliance Matrix: (Units=1/GPa)
#
#
# Indices 1 2 3 4 5 6 
#
# 1 0.023801 -0.000543 0.000620 0.000000 -0.011313 0.000000
# 2 -0.000543 0.015231 -0.002610 0.000000 0.000129 0.000000
# 3 0.000620 -0.002610 0.020896 0.000000 -0.014412 0.000000
# 4 0.000000 0.000000 0.000000 0.087313 0.000000 -0.011482
# 5 -0.011313 0.000129 -0.014412 0.000000 0.063557 0.000000
# 6 0.000000 0.000000 0.000000 -0.011482 0.000000 0.088176
#
#
# Mechanical properties :
#
#
# Convention : Reuss Voigt Hill
#
# Bulk Modulus (GPa) = 18.22739 23.22918 20.72829
# Shear Modulus (GPa) = 15.51227 19.07544 17.29385
#
# Velocity S-wave (km/s) = 2.91523 3.23275 3.07809
# Velocity P-wave (km/s) = 4.61709 5.16339 4.89786
#
# Compressibility (1/GPa) = 0.05486248
#
# Stress axis : x y z
#
# Youngs Moduli (GPa) = 42.01424 65.65766 47.85707
#
# Poissons Ratio (x) = 0.03564 -0.02967
# Poissons Ratio (y) = 0.02280 0.12490
# Poissons Ratio (z) = -0.02605 0.17135
#
# Static dielectric constant tensor:
#      x y z
#    x 1.621320 0.000000 0.003100 
#    y 0.000000 1.590910 0.000000 
#    z 0.003100 0.000000 1.645550 
# 
# From -- ./inp_files/269310.got.cif
#   From: 2010.05.17/outbox.cif.g08.bks.cpg/sg12_135_cif.got.tgz:269310.got - 2010.06.03 13:09:07.
