data_PCOD9188539
_publ_section_title
;
Structure prediction by ZEFSAII (Michael W. Deem and Ramdas Pophale) SiO2 
 PCOD9188539
Probable space group: C 2/M
;
_chemical_formula_sum "Si O2"
_cell_formula_units_Z 64
_cell_length_a 18.930824
_cell_length_b 10.979308
_cell_length_c 34.120984
_cell_angle_alpha 90.000000
_cell_angle_beta 28.254506
_cell_angle_gamma 90.000000
_cell_volume 3357.253561
_symmetry_space_group_name_H-M "C 2/M"
_symmetry_group_IT_number 12
_symmetry_cell_setting 'monoclinic'
loop_
_space_group_symop_operation_xyz
x,y,z
-x,y,-z
-x,-y,-z
x,-y,z
1/2+x,1/2+y,z
1/2-x,1/2+y,-z
1/2-x,1/2-y,-z
1/2+x,1/2-y,z
loop_
_atom_site_type_symbol
_atom_site_label
_atom_site_fract_x
_atom_site_fract_y
_atom_site_fract_z
Si Si1 0.115996 0.238833 0.771125
Si Si2 0.143040 0.139093 0.458133
Si Si3 0.951669 0.859178 0.928272
Si Si4 0.404483 0.635054 0.732362
Si Si5 0.314736 0.144285 0.893855
Si Si6 0.670556 0.367885 0.663688
Si Si7 0.560806 0.641466 0.372888
Si Si8 0.723183 0.358992 0.850546
O O1 0.137086 0.140815 0.726266
O O2 0.280101 0.294298 0.697948
O O3 0.043932 0.198138 0.847499
O O4 0.987122 0.324616 0.815929
O O5 0.244542 0.245122 0.390651
O O6 0.000000 0.130843 0.500000
O O7 0.074575 0.181232 0.533194
O O8 0.207184 0.000000 0.429374
O O9 0.054807 0.858292 0.916916
O O10 0.928789 0.000000 0.927827
O O11 0.795044 0.802647 0.019106
O O12 0.328603 0.500000 0.769111
O O13 0.521485 0.633670 0.710466
O O14 0.479418 0.647705 0.653150
O O15 0.304114 0.753643 0.786631
O O16 0.253915 0.175950 0.880503
O O17 0.298482 0.000000 0.904552
O O18 0.745473 0.500000 0.619188
O O19 0.584834 0.500000 0.371704
O O20 0.776603 0.500000 0.818774
#
# Coordination Sequence:
#
# PCOD9188539 Si02
#       8
#     8   8   8   8   8   8   8   8
#     4  12  20  35  59  83 116 154 193 239 286 353
#     4  10  21  39  62  90 119 152 191 239 285 338
#     4  10  21  36  54  82 118 152 193 246 294 339
#     4  10  21  40  60  83 118 153 191 237 288 345
#     4  10  21  35  56  85 114 150 198 246 289 338
#     4  11  24  39  59  88 121 157 188 235 295 347
#     4  10  21  38  61  85 113 152 194 239 287 338
#     4  10  19  36  60  84 111 151 199 242 287 341
#
# _framework density 19.063199999999998
#
# number of rings (size 3 to 8) (size 9 to 14) (size 15 to 20)
#    0.000    1.625    3.750    1.500    0.000    3.250 
#    0.000    0.625    0.000    3.000    0.000    0.000 
#    0.000    0.000    0.000    0.000    0.000    0.000 
#
# Total GULP energy -178191.894565 kJ/mol
# GULP energy per Si atom -5568.496705 kJ/mol
# Density = 1.901981 g / cm^3
# Si number density = 19.063200 Si / 1000 Ang^3
#
#
#
# Elastic Constant Matrix: (Units=GPa)
#
#
# Indices 1 2 3 4 5 6 
#
# 1 68.2508 1.5846 4.3523 0.0000 15.2763 -0.0001
# 2 1.5846 68.0799 39.4186 0.0003 9.3290 0.0000
# 3 4.3523 39.4186 66.1064 -0.0003 15.8589 0.0001
# 4 0.0000 0.0003 -0.0003 23.5037 0.0001 2.4780
# 5 15.2763 9.3290 15.8589 0.0001 25.4279 0.0000
# 6 -0.0001 0.0000 0.0001 2.4780 0.0000 17.6880
#
#
#
# Elastic Compliance Matrix: (Units=1/GPa)
#
#
# Indices 1 2 3 4 5 6 
#
# 1 0.017071 0.000355 0.001359 0.000000 -0.011234 0.000000
# 2 0.000355 0.022442 -0.013381 0.000000 -0.000101 0.000000
# 3 0.001359 -0.013381 0.025912 0.000001 -0.012068 0.000000
# 4 0.000000 0.000000 0.000001 0.043184 0.000000 -0.006050
# 5 -0.011234 -0.000101 -0.012068 0.000000 0.053640 0.000000
# 6 0.000000 0.000000 0.000000 -0.006050 0.000000 0.057383
#
#
# Mechanical properties :
#
#
# Convention : Reuss Voigt Hill
#
# Bulk Modulus (GPa) = 23.75759 32.57202 28.16480
# Shear Modulus (GPa) = 19.45555 23.79601 21.62578
#
# Velocity S-wave (km/s) = 3.19812 3.53692 3.37178
# Velocity P-wave (km/s) = 5.11145 5.81405 5.47403
#
# Compressibility (1/GPa) = 0.04209181
#
# Stress axis : x y z
#
# Youngs Moduli (GPa) = 58.57761 44.55952 38.59260
#
# Poissons Ratio (x) = -0.01582 -0.05246
# Poissons Ratio (y) = -0.02079 0.51641
# Poissons Ratio (z) = -0.07963 0.59625
#
# Static dielectric constant tensor:
#      x y z
#    x 1.665930 0.000000 0.027360 
#    y 0.000000 1.688310 0.000000 
#    z 0.027360 0.000000 1.697860 
# 
# From -- ./inp_files/245936.got.cif
#   From: 2010.05.17/outbox.cif.g08.bks.cpg/sg12_123_cif.got.tgz:245936.got - 2010.06.03 13:09:07.
