data_PCOD9188235
_publ_section_title
;
Structure prediction by ZEFSAII (Michael W. Deem and Ramdas Pophale) SiO2 
 PCOD9188235
Probable space group: C 2/M
;
_chemical_formula_sum "Si O2"
_cell_formula_units_Z 64
_cell_length_a 31.475492
_cell_length_b 8.646012
_cell_length_c 20.543743
_cell_angle_alpha 90.000000
_cell_angle_beta 143.962874
_cell_angle_gamma 90.000000
_cell_volume 3289.074300
_symmetry_space_group_name_H-M "C 2/M"
_symmetry_group_IT_number 12
_symmetry_cell_setting 'monoclinic'
loop_
_space_group_symop_operation_xyz
x,y,z
-x,y,-z
-x,-y,-z
x,-y,z
1/2+x,1/2+y,z
1/2-x,1/2+y,-z
1/2-x,1/2-y,-z
1/2+x,1/2-y,z
loop_
_atom_site_type_symbol
_atom_site_label
_atom_site_fract_x
_atom_site_fract_y
_atom_site_fract_z
Si Si1 0.073605 0.186378 0.683100
Si Si2 0.917599 0.187335 0.910531
Si Si3 0.173039 0.186129 0.927923
Si Si4 0.183518 0.314739 0.329025
Si Si5 0.673120 0.815584 0.692990
Si Si6 0.583914 0.315798 0.469682
Si Si7 0.841050 0.315471 0.554483
Si Si8 0.334525 0.688140 0.934916
O O1 0.114163 0.224357 0.800594
O O2 0.116498 0.265794 0.678086
O O3 0.990571 0.233311 0.588235
O O4 0.076282 0.000000 0.676298
O O5 0.863215 0.245800 0.787404
O O6 0.888996 0.239361 0.945977
O O7 0.916005 0.000000 0.907318
O O8 0.000000 0.237194 0.000000
O O9 0.178780 0.000000 0.937434
O O10 0.250000 0.250000 0.000000
O O11 0.153196 0.241393 0.975897
O O12 0.184700 0.500000 0.324990
O O13 0.151069 0.271838 0.359914
O O14 0.265672 0.254301 0.434673
O O15 0.648775 0.737702 0.596122
O O16 0.753201 0.767477 0.813880
O O17 0.672627 0.000000 0.684516
O O18 0.582670 0.500000 0.462634
O O19 0.595794 0.244656 0.413544
O O20 0.836189 0.500000 0.544610
O O21 0.337087 0.500000 0.938921
#
# Coordination Sequence:
#
# PCOD9188235 Si02
#       8
#     8   8   8   8   8   8   8   8
#     4  10  22  37  55  80 113 149 187 237 290 343
#     4  10  21  37  59  86 117 156 199 241 289 348
#     4  10  19  36  58  79 107 143 186 237 286 335
#     4  10  21  38  61  86 115 151 190 239 295 345
#     4  11  21  35  57  81 110 151 193 237 287 342
#     4  11  23  37  54  82 117 151 188 232 288 347
#     4  10  21  38  60  86 114 148 192 239 287 348
#     4   9  19  35  56  83 111 142 187 239 285 333
#
# _framework density 19.458362999999999
#
# number of rings (size 3 to 8) (size 9 to 14) (size 15 to 20)
#    0.000    1.875    1.250    2.625    0.000    6.250 
#    0.000    3.750    0.000    0.000    0.000    0.000 
#    0.000    0.000    0.000    0.000    0.000    0.000 
#
# Total GULP energy -178758.893316 kJ/mol
# GULP energy per Si atom -5586.215416 kJ/mol
# Density = 1.941408 g / cm^3
# Si number density = 19.458363 Si / 1000 Ang^3
#
#
#
# Elastic Constant Matrix: (Units=GPa)
#
#
# Indices 1 2 3 4 5 6 
#
# 1 135.8491 16.8207 17.4646 0.0000 -20.1829 0.0000
# 2 16.8207 13.4254 8.1602 0.0000 -3.5534 0.0000
# 3 17.4646 8.1602 52.3612 0.0000 -22.4054 0.0000
# 4 0.0000 0.0000 0.0000 23.3298 0.0000 -3.0776
# 5 -20.1829 -3.5534 -22.4054 0.0000 27.0012 0.0000
# 6 0.0000 0.0000 0.0000 -3.0776 0.0000 28.3067
#
#
#
# Elastic Compliance Matrix: (Units=1/GPa)
#
#
# Indices 1 2 3 4 5 6 
#
# 1 0.009570 -0.011066 0.001505 0.000000 0.006945 0.000000
# 2 -0.011066 0.095078 -0.014439 0.000000 -0.007740 0.000000
# 3 0.001505 -0.014439 0.031809 0.000000 0.025619 0.000000
# 4 0.000000 0.000000 0.000000 0.043487 0.000000 0.004728
# 5 0.006945 -0.007740 0.025619 0.000000 0.062467 0.000000
# 6 0.000000 0.000000 0.000000 0.004728 0.000000 0.035841
#
#
# Mechanical properties :
#
#
# Convention : Reuss Voigt Hill
#
# Bulk Modulus (GPa) = 11.30499 31.83631 21.57065
# Shear Modulus (GPa) = 14.05527 26.34021 20.19774
#
# Velocity S-wave (km/s) = 2.69053 3.68322 3.22529
# Velocity P-wave (km/s) = 3.93375 5.87238 4.99796
#
# Compressibility (1/GPa) = 0.08845655
#
# Stress axis : x y z
#
# Youngs Moduli (GPa) = 104.49581 10.51768 31.43765
#
# Poissons Ratio (x) = 0.11639 -0.04730
# Poissons Ratio (y) = 1.15638 0.45391
# Poissons Ratio (z) = -0.15723 0.15186
#
# Static dielectric constant tensor:
#      x y z
#    x 1.693670 0.000000 -0.015120 
#    y 0.000000 1.658600 0.000000 
#    z -0.015120 0.000000 1.661240 
# 
# From -- ./inp_files/295868.got.cif
#   From: 2010.05.17/outbox.cif.g08.bks.cpg/sg12_148_cif.got.tgz:295868.got - 2010.06.03 13:09:07.
