data_PCOD9188310
_publ_section_title
;
Structure prediction by ZEFSAII (Michael W. Deem and Ramdas Pophale) SiO2 
 PCOD9188310
Probable space group: C 2/M
;
_chemical_formula_sum "Si O2"
_cell_formula_units_Z 48
_cell_length_a 9.505474
_cell_length_b 17.385067
_cell_length_c 18.274428
_cell_angle_alpha 90.000000
_cell_angle_beta 62.478859
_cell_angle_gamma 90.000000
_cell_volume 2678.177806
_symmetry_space_group_name_H-M "C 2/M"
_symmetry_group_IT_number 12
_symmetry_cell_setting 'monoclinic'
loop_
_space_group_symop_operation_xyz
x,y,z
-x,y,-z
-x,-y,-z
x,-y,z
1/2+x,1/2+y,z
1/2-x,1/2+y,-z
1/2-x,1/2-y,-z
1/2+x,1/2-y,z
loop_
_atom_site_type_symbol
_atom_site_label
_atom_site_fract_x
_atom_site_fract_y
_atom_site_fract_z
Si Si1 0.998871 0.280660 0.189625
Si Si2 0.394769 0.310224 0.452648
Si Si3 0.088720 0.412903 0.055785
Si Si4 0.668332 0.089704 0.418072
Si Si5 0.879319 0.182176 0.961986
Si Si6 0.661712 0.777192 0.300244
O O1 0.823974 0.270683 0.263862
O O2 0.016625 0.351410 0.129475
O O3 0.036845 0.202753 0.134533
O O4 0.122242 0.293154 0.225281
O O5 0.500000 0.323185 0.500000
O O6 0.250000 0.250000 0.500000
O O7 0.308750 0.384139 0.438897
O O8 0.517032 0.272582 0.366580
O O9 0.070043 0.500000 0.086582
O O10 0.272911 0.393368 0.995645
O O11 0.000000 0.404152 0.000000
O O12 0.500000 0.101830 0.500000
O O13 0.674224 0.146897 0.347351
O O14 0.680233 0.000000 0.395682
O O15 0.750000 0.250000 0.000000
O O16 0.000000 0.187425 0.000000
#
# Coordination Sequence:
#
# PCOD9188310 Si02
#       6
#     8   8   8   8   8   8
#     4  11  21  34  60  89 115 152 199 244 299 353
#     4  12  20  39  66  90 116 157 211 242 279 363
#     4  10  21  39  59  81 117 160 198 243 295 350
#     4  11  24  42  62  89 123 159 198 251 303 349
#     4  10  19  36  58  85 113 149 201 242 280 351
#     4  12  21  36  61  90 120 156 194 249 297 355
#
# _framework density 17.922633999999999
#
# number of rings (size 3 to 8) (size 9 to 14) (size 15 to 20)
#    0.000    1.000    5.000    5.000    0.000    1.333 
#    0.000    1.667    0.000    0.000    0.000    0.000 
#    0.000    0.000    0.000    0.000    0.000    0.000 
#
# Total GULP energy -133946.582549 kJ/mol
# GULP energy per Si atom -5581.107606 kJ/mol
# Density = 1.788184 g / cm^3
# Si number density = 17.922634 Si / 1000 Ang^3
#
#
#
# Elastic Constant Matrix: (Units=GPa)
#
#
# Indices 1 2 3 4 5 6 
#
# 1 139.4159 40.4273 32.2203 0.0000 11.9386 0.0000
# 2 40.4273 102.1125 37.1362 0.0000 5.5031 0.0000
# 3 32.2203 37.1362 75.4991 0.0000 0.7207 0.0000
# 4 0.0000 0.0000 0.0000 23.1354 0.0000 0.6443
# 5 11.9386 5.5031 0.7207 0.0000 40.6748 0.0000
# 6 0.0000 0.0000 0.0000 0.6443 0.0000 24.5925
#
#
#
# Elastic Compliance Matrix: (Units=1/GPa)
#
#
# Indices 1 2 3 4 5 6 
#
# 1 0.008627 -0.002396 -0.002482 0.000000 -0.002164 0.000000
# 2 -0.002396 0.012686 -0.005208 0.000000 -0.000921 0.000000
# 3 -0.002482 -0.005208 0.016856 0.000000 0.001135 0.000000
# 4 0.000000 0.000000 0.000000 0.043255 0.000000 -0.001133
# 5 -0.002164 -0.000921 0.001135 0.000000 0.025325 0.000000
# 6 0.000000 0.000000 0.000000 -0.001133 0.000000 0.040693
#
#
# Mechanical properties :
#
#
# Convention : Reuss Voigt Hill
#
# Bulk Modulus (GPa) = 55.57314 59.62168 57.59741
# Shear Modulus (GPa) = 28.79988 31.49678 30.14833
#
# Velocity S-wave (km/s) = 4.01296 4.19665 4.10584
# Velocity P-wave (km/s) = 7.24889 7.53796 7.39484
#
# Compressibility (1/GPa) = 0.01799430
#
# Stress axis : x y z
#
# Youngs Moduli (GPa) = 115.92134 78.83012 59.32738
#
# Poissons Ratio (x) = 0.18887 0.14727
# Poissons Ratio (y) = 0.27774 0.30900
# Poissons Ratio (z) = 0.28776 0.41058
#
# Static dielectric constant tensor:
#      x y z
#    x 1.635450 0.000000 0.009170 
#    y 0.000000 1.616260 0.000000 
#    z 0.009170 0.000000 1.644560 
# 
# From -- ./inp_files/196478.got.cif
#   From: 2010.05.17/outbox.cif.g08.bks.cpg/sg12_99_cif.got.tgz:196478.got - 2010.06.03 13:09:07.
