data_PCOD9188756
_publ_section_title
;
Structure prediction by ZEFSAII (Michael W. Deem and Ramdas Pophale) SiO2 
 PCOD9188756
Probable space group: C 2/M
;
_chemical_formula_sum "Si O2"
_cell_formula_units_Z 44
_cell_length_a 20.784194
_cell_length_b 14.895966
_cell_length_c 15.897669
_cell_angle_alpha 90.000000
_cell_angle_beta 153.980093
_cell_angle_gamma 90.000000
_cell_volume 2159.168376
_symmetry_space_group_name_H-M "C 2/M"
_symmetry_group_IT_number 12
_symmetry_cell_setting 'monoclinic'
loop_
_space_group_symop_operation_xyz
x,y,z
-x,y,-z
-x,-y,-z
x,-y,z
1/2+x,1/2+y,z
1/2-x,1/2+y,-z
1/2-x,1/2-y,-z
1/2+x,1/2-y,z
loop_
_atom_site_type_symbol
_atom_site_label
_atom_site_fract_x
_atom_site_fract_y
_atom_site_fract_z
Si Si1 0.806035 0.901653 0.916984
Si Si2 0.013859 0.740564 0.830899
Si Si3 0.940834 0.182779 0.564683
Si Si4 0.257674 0.400790 0.061502
Si Si5 0.865568 0.396620 0.776616
Si Si6 0.500000 0.165273 0.500000
O O1 0.648826 0.889095 0.689204
O O2 0.867949 0.000000 0.970432
O O3 0.917261 0.820035 0.031397
O O4 0.772720 0.897894 0.978066
O O5 0.946233 0.786533 0.668636
O O6 0.904365 0.674710 0.749984
O O7 0.149678 0.677493 0.962857
O O8 0.788168 0.135157 0.364723
O O9 0.970092 0.270140 0.543693
O O10 0.079728 0.118191 0.713732
O O11 0.205166 0.500000 0.025183
O O12 0.851790 0.500000 0.731167
O O13 0.000000 0.392820 0.000000
#
# Coordination Sequence:
#
# PCOD9188756 Si02
#       6
#     8   8   8   8   8   4
#     4  10  20  34  58  87 118 152 196 248 294 348
#     4  11  20  42  61  86 119 160 201 244 303 354
#     4  11  22  38  62  89 120 163 200 244 297 356
#     4  10  19  36  61  88 117 152 202 247 293 356
#     4  11  25  42  60  89 125 159 199 249 304 359
#     4  12  19  36  59  88 126 158 193 242 303 348
#
# _framework density 20.378218
#
# number of rings (size 3 to 8) (size 9 to 14) (size 15 to 20)
#    0.000    1.273    3.636    4.091    0.000    0.727 
#    0.000    0.909    0.000    6.000    0.000    0.000 
#    0.000    0.000    0.000    0.000    0.000    0.000 
#
# Total GULP energy -122944.356833 kJ/mol
# GULP energy per Si atom -5588.379856 kJ/mol
# Density = 2.033184 g / cm^3
# Si number density = 20.378218 Si / 1000 Ang^3
#
#
#
# Elastic Constant Matrix: (Units=GPa)
#
#
# Indices 1 2 3 4 5 6 
#
# 1 12.0091 1.1201 -0.5235 0.0000 4.9166 0.0000
# 2 1.1201 132.3906 20.5583 0.0000 4.6290 0.0000
# 3 -0.5235 20.5583 95.6417 0.0000 8.4114 0.0000
# 4 0.0000 0.0000 0.0000 24.6443 0.0000 3.7653
# 5 4.9166 4.6290 8.4114 0.0000 22.7249 0.0000
# 6 0.0000 0.0000 0.0000 3.7653 0.0000 14.6854
#
#
#
# Elastic Compliance Matrix: (Units=1/GPa)
#
#
# Indices 1 2 3 4 5 6 
#
# 1 0.091885 -0.000429 0.002414 0.000000 -0.020686 0.000000
# 2 -0.000429 0.007838 -0.001607 0.000000 -0.000909 0.000000
# 3 0.002414 -0.001607 0.011196 0.000000 -0.004339 0.000000
# 4 0.000000 0.000000 0.000000 0.042232 0.000000 -0.010828
# 5 -0.020686 -0.000909 -0.004339 0.000000 0.050271 0.000000
# 6 0.000000 0.000000 0.000000 -0.010828 0.000000 0.070871
#
#
# Mechanical properties :
#
#
# Convention : Reuss Voigt Hill
#
# Bulk Modulus (GPa) = 8.95452 31.37235 20.16343
# Shear Modulus (GPa) = 16.08947 27.00335 21.54641
#
# Velocity S-wave (km/s) = 2.81293 3.64415 3.25518
# Velocity P-wave (km/s) = 3.86701 5.75629 4.90350
#
# Compressibility (1/GPa) = 0.11167546
#
# Stress axis : x y z
#
# Youngs Moduli (GPa) = 10.88319 127.57694 89.31757
#
# Poissons Ratio (x) = 0.05474 -0.21566
# Poissons Ratio (y) = 0.00467 0.14356
# Poissons Ratio (z) = -0.02628 0.20505
#
# Static dielectric constant tensor:
#      x y z
#    x 1.715210 0.000000 -0.016820 
#    y 0.000000 1.725060 0.000000 
#    z -0.016820 0.000000 1.724850 
# 
# From -- ./inp_files/73219.got.cif
#   From: 2010.05.17/outbox.cif.g08.bks.cpg/sg12_37_cif.got.tgz:73219.got - 2010.06.03 13:09:07.
