data_PCOD9188771
_publ_section_title
;
Structure prediction by ZEFSAII (Michael W. Deem and Ramdas Pophale) SiO2 
 PCOD9188771
Probable space group: C 2/M
;
_chemical_formula_sum "Si O2"
_cell_formula_units_Z 28
_cell_length_a 14.890433
_cell_length_b 16.837687
_cell_length_c 12.084910
_cell_angle_alpha 90.000000
_cell_angle_beta 27.022099
_cell_angle_gamma 90.000000
_cell_volume 1376.602454
_symmetry_space_group_name_H-M "C 2/M"
_symmetry_group_IT_number 12
_symmetry_cell_setting 'monoclinic'
loop_
_space_group_symop_operation_xyz
x,y,z
-x,y,-z
-x,-y,-z
x,-y,z
1/2+x,1/2+y,z
1/2-x,1/2+y,-z
1/2-x,1/2-y,-z
1/2+x,1/2-y,z
loop_
_atom_site_type_symbol
_atom_site_label
_atom_site_fract_x
_atom_site_fract_y
_atom_site_fract_z
Si Si1 0.389886 0.591435 0.003074
Si Si2 0.500000 0.164866 0.000000
Si Si3 0.182960 0.257128 0.200341
Si Si4 0.169220 0.825031 0.517670
O O1 0.337119 0.500000 0.043398
O O2 0.540670 0.620889 0.741297
O O3 0.500000 0.599221 0.000000
O O4 0.202187 0.650111 0.207501
O O5 0.645382 0.216126 0.917098
O O6 0.654448 0.129018 0.740792
O O7 0.971619 0.214987 0.420976
O O8 0.250000 0.250000 0.000000
O O9 0.250000 0.750000 0.500000
#
# Coordination Sequence:
#
# PCOD9188771 Si02
#       4
#     8   4   8   8
#     4  10  20  38  62  92 127 158 199 259 313 360
#     4  12  20  36  62  92 120 154 212 252 300 350
#     4  10  19  36  61  89 118 159 205 251 297 361
#     4  11  21  36  62  91 120 162 207 249 302 366
#
# _framework density 20.339931
#
# number of rings (size 3 to 8) (size 9 to 14) (size 15 to 20)
#    0.000    1.429    7.143    0.857    0.000    0.000 
#    0.000    2.143    0.000   18.857    0.000    0.000 
#    0.000    0.000    0.000    0.000    0.000    0.000 
#
# Total GULP energy -77963.411639 kJ/mol
# GULP energy per Si atom -5568.815117 kJ/mol
# Density = 2.029364 g / cm^3
# Si number density = 20.339931 Si / 1000 Ang^3
#
#
#
# Elastic Constant Matrix: (Units=GPa)
#
#
# Indices 1 2 3 4 5 6 
#
# 1 145.5628 27.2630 17.9404 -0.0056 -7.6814 0.0033
# 2 27.2630 81.7532 10.3777 -0.0047 -7.5399 0.0030
# 3 17.9404 10.3777 146.3441 -0.0002 4.5618 0.0012
# 4 -0.0056 -0.0047 -0.0002 14.9922 0.0087 0.9115
# 5 -7.6814 -7.5399 4.5618 0.0087 30.8758 -0.0058
# 6 0.0033 0.0030 0.0012 0.9115 -0.0058 22.0063
#
#
#
# Elastic Compliance Matrix: (Units=1/GPa)
#
#
# Indices 1 2 3 4 5 6 
#
# 1 0.007466 -0.002257 -0.000800 0.000001 0.001424 0.000000
# 2 -0.002257 0.013340 -0.000757 0.000002 0.002808 -0.000001
# 3 -0.000800 -0.000757 0.007029 0.000000 -0.001422 -0.000001
# 4 0.000001 0.000002 0.000000 0.066870 -0.000019 -0.002770
# 5 0.001424 0.002808 -0.001422 -0.000019 0.033638 0.000009
# 6 0.000000 -0.000001 -0.000001 -0.002770 0.000009 0.045556
#
#
# Mechanical properties :
#
#
# Convention : Reuss Voigt Hill
#
# Bulk Modulus (GPa) = 49.48453 53.86913 51.67683
# Shear Modulus (GPa) = 26.55870 34.78013 30.66941
#
# Velocity S-wave (km/s) = 3.61743 4.13963 3.88731
# Velocity P-wave (km/s) = 6.46755 7.02785 6.75351
#
# Compressibility (1/GPa) = 0.02020834
#
# Stress axis : x y z
#
# Youngs Moduli (GPa) = 133.93456 74.96463 142.26284
#
# Poissons Ratio (x) = 0.16919 0.11376
# Poissons Ratio (y) = 0.30229 0.10766
# Poissons Ratio (z) = 0.10710 0.05673
#
# Static dielectric constant tensor:
#      x y z
#    x 1.947700 0.000060 0.113210 
#    y 0.000060 1.690120 0.000020 
#    z 0.113210 0.000020 1.960040 
# 
# From -- ./inp_files/9909.got.cif
#   From: 2010.05.17/outbox.cif.g08.bks.cpg/sg12_5_cif.got.tgz:9909.got - 2010.06.03 13:09:07.
