data_PCOD9188344
_publ_section_title
;
Structure prediction by ZEFSAII (Michael W. Deem and Ramdas Pophale) SiO2 
 PCOD9188344
Probable space group: C 2/M
;
_chemical_formula_sum "Si O2"
_cell_formula_units_Z 64
_cell_length_a 25.447178
_cell_length_b 7.622516
_cell_length_c 14.549553
_cell_angle_alpha 90.000000
_cell_angle_beta 91.283405
_cell_angle_gamma 90.000000
_cell_volume 2821.490951
_symmetry_space_group_name_H-M "C 2/M"
_symmetry_group_IT_number 12
_symmetry_cell_setting 'monoclinic'
loop_
_space_group_symop_operation_xyz
x,y,z
-x,y,-z
-x,-y,-z
x,-y,z
1/2+x,1/2+y,z
1/2-x,1/2+y,-z
1/2-x,1/2-y,-z
1/2+x,1/2-y,z
loop_
_atom_site_type_symbol
_atom_site_label
_atom_site_fract_x
_atom_site_fract_y
_atom_site_fract_z
Si Si1 0.005838 0.202328 0.102018
Si Si2 0.425496 0.714283 0.251894
Si Si3 0.232974 0.701123 0.144664
Si Si4 0.169783 0.291616 0.487308
Si Si5 0.656675 0.712851 0.896219
Si Si6 0.056087 0.211567 0.540467
Si Si7 0.242559 0.702517 0.652112
Si Si8 0.379792 0.204774 0.908165
O O1 0.067492 0.207561 0.125941
O O2 0.971152 0.274566 0.183613
O O3 0.987839 0.000000 0.091948
O O4 0.000000 0.284339 0.000000
O O5 0.426479 0.500000 0.256017
O O6 0.371498 0.765284 0.199445
O O7 0.433628 0.777248 0.355454
O O8 0.227846 0.500000 0.112745
O O9 0.283672 0.779521 0.096250
O O10 0.248305 0.701464 0.252234
O O11 0.175642 0.781716 0.128676
O O12 0.178832 0.500000 0.484474
O O13 0.107900 0.256984 0.484035
O O14 0.196165 0.227429 0.584170
O O15 0.204423 0.212968 0.406873
O O16 0.657694 0.500000 0.898606
O O17 0.623539 0.775133 0.981840
O O18 0.000000 0.274674 0.500000
O O19 0.053382 0.000000 0.543211
O O20 0.231529 0.500000 0.673528
O O21 0.383267 0.000000 0.883382
#
# Coordination Sequence:
#
# PCOD9188344 Si02
#       8
#     8   8   8   8   8   8   8   8
#     4  10  19  36  59  79 104 145 197 238 275 335
#     4   9  18  34  58  83 105 139 191 241 280 326
#     4  10  22  37  55  82 117 151 185 229 288 347
#     4  10  21  38  60  85 116 150 188 236 291 341
#     4  10  19  36  59  78 104 149 195 232 277 337
#     4  10  21  37  58  86 118 151 192 238 285 344
#     4  10  21  37  60  87 113 148 194 238 282 341
#     4  11  23  36  52  82 118 148 182 233 292 341
#
# _framework density 22.683042
#
# number of rings (size 3 to 8) (size 9 to 14) (size 15 to 20)
#    0.000    2.000    1.250    2.250    0.000    5.500 
#    0.000    2.500    0.000    0.000    0.000    0.000 
#    0.000    0.000    0.000    0.000    0.000    0.000 
#
# Total GULP energy -178827.989701 kJ/mol
# GULP energy per Si atom -5588.374678 kJ/mol
# Density = 2.263141 g / cm^3
# Si number density = 22.683042 Si / 1000 Ang^3
#
#
#
# Elastic Constant Matrix: (Units=GPa)
#
#
# Indices 1 2 3 4 5 6 
#
# 1 151.7817 -5.8129 13.9299 0.0000 2.3648 0.0000
# 2 -5.8129 56.2561 -2.6718 0.0000 3.3836 0.0000
# 3 13.9299 -2.6718 45.3663 0.0000 2.8905 0.0000
# 4 0.0000 0.0000 0.0000 12.2902 0.0000 -1.4229
# 5 2.3648 3.3836 2.8905 0.0000 27.2938 0.0000
# 6 0.0000 0.0000 0.0000 -1.4229 0.0000 -2.1459
#
#
#
# Elastic Compliance Matrix: (Units=1/GPa)
#
#
# Indices 1 2 3 4 5 6 
#
# 1 0.006805 0.000634 -0.002023 0.000000 -0.000454 0.000000
# 2 0.000634 0.018034 0.001020 0.000000 -0.002399 0.000000
# 3 -0.002023 0.001020 0.022875 0.000000 -0.002374 0.000000
# 4 0.000000 0.000000 0.000000 0.075565 0.000000 -0.050103
# 5 -0.000454 -0.002399 -0.002374 0.000000 0.037227 0.000000
# 6 0.000000 0.000000 0.000000 -0.050103 0.000000 -0.432774
#
#
# Mechanical properties :
#
#
# Convention : Reuss Voigt Hill
#
# Bulk Modulus (GPa) = 21.28684 29.36606 25.32645
# Shear Modulus (GPa) = -19.54111 24.01820 2.23855
#
# Velocity S-wave (km/s) = -2.93829 3.25755 0.99450
# Velocity P-wave (km/s) = 1.45140 5.20799 3.53671
#
# Compressibility (1/GPa) = 0.04697737
#
# Stress axis : x y z
#
# Youngs Moduli (GPa) = 146.94052 55.45038 43.71509
#
# Poissons Ratio (x) = -0.03518 0.08845
# Poissons Ratio (y) = -0.09322 -0.04459
# Poissons Ratio (z) = 0.29731 -0.05657
#
# Static dielectric constant tensor:
#      x y z
#    x 1.854340 0.000000 0.018970 
#    y 0.000000 1.842380 0.000000 
#    z 0.018970 0.000000 1.824550 
# 
# From -- ./inp_files/238699.got.cif
#   From: 2010.05.17/outbox.cif.g08.bks.cpg/sg12_120_cif.got.tgz:238699.got - 2010.06.03 13:09:07.
