data_PCOD9188898
_publ_section_title
;
Structure prediction by ZEFSAII (Michael W. Deem and Ramdas Pophale) SiO2 
 PCOD9188898
Probable space group: C 2/M
;
_chemical_formula_sum "Si O2"
_cell_formula_units_Z 48
_cell_length_a 19.095403
_cell_length_b 14.683087
_cell_length_c 9.295300
_cell_angle_alpha 90.000000
_cell_angle_beta 54.719826
_cell_angle_gamma 90.000000
_cell_volume 2127.547949
_symmetry_space_group_name_H-M "C 2/M"
_symmetry_group_IT_number 12
_symmetry_cell_setting 'monoclinic'
loop_
_space_group_symop_operation_xyz
x,y,z
-x,y,-z
-x,-y,-z
x,-y,z
1/2+x,1/2+y,z
1/2-x,1/2+y,-z
1/2-x,1/2-y,-z
1/2+x,1/2-y,z
loop_
_atom_site_type_symbol
_atom_site_label
_atom_site_fract_x
_atom_site_fract_y
_atom_site_fract_z
Si Si1 0.254951 0.833892 0.385633
Si Si2 0.088868 0.892762 0.732773
Si Si3 0.558873 0.900300 0.818363
Si Si4 0.062142 0.396878 0.311501
Si Si5 0.398045 0.388793 0.956735
Si Si6 0.262840 0.887713 0.048392
O O1 0.250000 0.750000 0.500000
O O2 0.165066 0.882070 0.529960
O O3 0.346064 0.872267 0.329005
O O4 0.263315 0.838374 0.202617
O O5 0.994517 0.856963 0.801615
O O6 0.075802 0.000000 0.768631
O O7 0.114942 0.858397 0.861617
O O8 0.499836 0.905110 0.750690
O O9 0.574504 0.000000 0.867779
O O10 0.500000 0.845162 0.000000
O O11 0.081342 0.500000 0.345754
O O12 0.000000 0.348151 0.500000
O O13 0.153220 0.362428 0.145704
O O14 0.395585 0.500000 0.957155
O O15 0.322067 0.362247 0.940334
O O16 0.265196 0.000000 0.066571
#
# Coordination Sequence:
#
# PCOD9188898 Si02
#       6
#     8   8   8   8   8   8
#     4  12  25  38  54  85 125 167 210 247 307 371
#     4   9  18  37  62  89 117 154 204 254 305 364
#     4  10  19  37  63  87 115 155 204 258 308 360
#     4   9  18  31  56  93 121 144 190 254 312 358
#     4   8  17  34  61  92 117 147 199 259 311 358
#     4  10  19  36  62  94 126 158 202 259 311 370
#
# _framework density 22.561183
#
# number of rings (size 3 to 8) (size 9 to 14) (size 15 to 20)
#    0.000    2.333    1.667    2.500    2.333    0.667 
#    3.000    3.333    3.667    0.000    0.000    0.000 
#    0.000    0.000    0.000    0.000    0.000    1.667 
#
# Total GULP energy -133701.114300 kJ/mol
# GULP energy per Si atom -5570.879762 kJ/mol
# Density = 2.250983 g / cm^3
# Si number density = 22.561183 Si / 1000 Ang^3
#
#
#
# Elastic Constant Matrix: (Units=GPa)
#
#
# Indices 1 2 3 4 5 6 
#
# 1 141.3656 24.8039 28.1100 0.0000 -24.2646 0.0000
# 2 24.8039 41.2357 40.5228 0.0000 -6.5325 0.0000
# 3 28.1100 40.5228 117.8994 0.0000 -30.5853 0.0000
# 4 0.0000 0.0000 0.0000 -0.7928 0.0000 9.5766
# 5 -24.2646 -6.5325 -30.5853 0.0000 44.7406 0.0000
# 6 0.0000 0.0000 0.0000 9.5766 0.0000 8.4132
#
#
#
# Elastic Compliance Matrix: (Units=1/GPa)
#
#
# Indices 1 2 3 4 5 6 
#
# 1 0.008612 -0.005440 0.000999 0.000000 0.004560 0.000000
# 2 -0.005440 0.040642 -0.014463 0.000000 -0.006903 0.000000
# 3 0.000999 -0.014463 0.015568 0.000000 0.009073 0.000000
# 4 0.000000 0.000000 0.000000 -0.085516 0.000000 0.097341
# 5 0.004560 -0.006903 0.009073 0.000000 0.030018 0.000000
# 6 0.000000 0.000000 0.000000 0.097341 0.000000 0.008059
#
#
# Mechanical properties :
#
#
# Convention : Reuss Voigt Hill
#
# Bulk Modulus (GPa) = 37.01578 54.15270 45.58424
# Shear Modulus (GPa) = 77.88655 24.27647 51.08151
#
# Velocity S-wave (km/s) = 5.88195 3.28385 4.76345
# Velocity P-wave (km/s) = 7.91026 6.19943 7.10651
#
# Compressibility (1/GPa) = 0.02701551
#
# Stress axis : x y z
#
# Youngs Moduli (GPa) = 116.11297 24.60489 64.23349
#
# Poissons Ratio (x) = 0.13385 -0.06419
# Poissons Ratio (y) = 0.63167 0.92900
# Poissons Ratio (z) = -0.11603 0.35586
#
# Static dielectric constant tensor:
#      x y z
#    x 1.866940 0.000000 -0.015400 
#    y 0.000000 1.955380 0.000000 
#    z -0.015400 0.000000 1.567900 
# 
# From -- ./inp_files/87710.got.cif
#   From: 2010.05.17/outbox.cif.g08.bks.cpg/sg12_44_cif.got.tgz:87710.got - 2010.06.03 13:09:07.
