data_PCOD9188341
_publ_section_title
;
Structure prediction by ZEFSAII (Michael W. Deem and Ramdas Pophale) SiO2 
 PCOD9188341
Probable space group: C 2/M
;
_chemical_formula_sum "Si O2"
_cell_formula_units_Z 56
_cell_length_a 23.206782
_cell_length_b 7.590793
_cell_length_c 17.733894
_cell_angle_alpha 90.000000
_cell_angle_beta 124.629382
_cell_angle_gamma 90.000000
_cell_volume 2570.539294
_symmetry_space_group_name_H-M "C 2/M"
_symmetry_group_IT_number 12
_symmetry_cell_setting 'monoclinic'
loop_
_space_group_symop_operation_xyz
x,y,z
-x,y,-z
-x,-y,-z
x,-y,z
1/2+x,1/2+y,z
1/2-x,1/2+y,-z
1/2-x,1/2-y,-z
1/2+x,1/2-y,z
loop_
_atom_site_type_symbol
_atom_site_label
_atom_site_fract_x
_atom_site_fract_y
_atom_site_fract_z
Si Si1 0.808199 0.709597 0.306411
Si Si2 0.850625 0.702074 0.177391
Si Si3 0.489347 0.705209 0.704630
Si Si4 0.974499 0.706282 0.857586
Si Si5 0.433928 0.212993 0.502042
Si Si6 0.660391 0.212343 0.157910
Si Si7 0.864736 0.716190 0.024792
O O1 0.821315 0.500000 0.311490
O O2 0.824426 0.786594 0.235309
O O3 0.862762 0.775815 0.409060
O O4 0.726272 0.737385 0.257840
O O5 0.825889 0.500000 0.157267
O O6 0.835553 0.780409 0.083472
O O7 0.935319 0.701585 0.246889
O O8 0.504167 0.500000 0.726418
O O9 0.454081 0.774274 0.754742
O O10 0.445701 0.729183 0.596287
O O11 0.980259 0.500000 0.880991
O O12 0.913402 0.780020 0.864635
O O13 0.053896 0.774285 0.922155
O O14 0.500000 0.269956 0.500000
O O15 0.434459 0.000000 0.503357
O O16 0.656783 0.000000 0.154087
O O17 0.671478 0.271227 0.079626
O O18 0.864428 0.500000 0.028247
#
# Coordination Sequence:
#
# PCOD9188341 Si02
#       7
#     8   8   8   8   8   8   8
#     4  10  21  35  53  77 107 143 177 211 257 320
#     4   9  17  34  55  76 105 144 182 210 252 318
#     4  11  21  32  53  85 111 129 166 227 279 304
#     4   9  18  35  57  76 103 144 185 215 252 314
#     4  10  19  36  59  78 101 139 182 210 250 323
#     4  10  20  34  53  79 108 141 179 222 264 302
#     4   8  15  30  56  81 101 134 184 225 251 299
#
# _framework density 21.785312000000001
#
# number of rings (size 3 to 8) (size 9 to 14) (size 15 to 20)
#    0.000    2.429    1.429    2.571    0.000    4.286 
#    0.000    3.571    0.000    4.286    0.000    0.000 
#    0.000    0.000    0.000    0.000    0.000    0.000 
#
# Total GULP energy -156305.705590 kJ/mol
# GULP energy per Si atom -5582.346628 kJ/mol
# Density = 2.173573 g / cm^3
# Si number density = 21.785312 Si / 1000 Ang^3
#
#
#
# Elastic Constant Matrix: (Units=GPa)
#
#
# Indices 1 2 3 4 5 6 
#
# 1 17.9501 -4.4770 15.0650 -0.0002 -4.2157 0.0003
# 2 -4.4770 55.1088 -10.6434 -0.0014 4.7521 0.0017
# 3 15.0650 -10.6434 129.5536 0.0000 3.5979 0.0000
# 4 -0.0002 -0.0014 0.0000 -602.1902 0.0000 773.3429
# 5 -4.2157 4.7521 3.5979 0.0000 24.4633 0.0000
# 6 0.0003 0.0017 0.0000 773.3429 0.0000 -957.1333
#
#
#
# Elastic Compliance Matrix: (Units=1/GPa)
#
#
# Indices 1 2 3 4 5 6 
#
# 1 0.065707 0.002816 -0.007740 0.000000 0.011915 0.000000
# 2 0.002816 0.018922 0.001321 0.000000 -0.003385 0.000000
# 3 -0.007740 0.001321 0.008808 0.000000 -0.002886 0.000000
# 4 0.000000 0.000000 0.000000 0.044142 0.000000 0.035666
# 5 0.011915 -0.003385 -0.002886 0.000000 0.044013 0.000000
# 6 0.000000 0.000000 0.000000 0.035666 0.000000 0.027773
#
#
# Mechanical properties :
#
#
# Convention : Reuss Voigt Hill
#
# Bulk Modulus (GPa) = 11.59704 22.50020 17.04862
# Shear Modulus (GPa) = 20.38208 -293.46086 -136.53939
#
# Velocity S-wave (km/s) = 3.06206 -11.61888 -7.92534
# Velocity P-wave (km/s) = 4.22333 13.02487 8.71237
#
# Compressibility (1/GPa) = 0.08622887
#
# Stress axis : x y z
#
# Youngs Moduli (GPa) = 15.21916 52.84943 113.53890
#
# Poissons Ratio (x) = -0.14880 0.87882
# Poissons Ratio (y) = -0.04285 -0.14999
# Poissons Ratio (z) = 0.11780 -0.06982
#
# Static dielectric constant tensor:
#      x y z
#    x 1.794070 0.000000 -0.009380 
#    y 0.000000 1.826150 0.000000 
#    z -0.009380 0.000000 1.797910 
# 
# From -- ./inp_files/288466.got.cif
#   From: 2010.05.17/outbox.cif.g08.bks.cpg/sg12_145_cif.got.tgz:288466.got - 2010.06.03 13:09:07.
