data_PCOD9188329
_publ_section_title
;
Structure prediction by ZEFSAII (Michael W. Deem and Ramdas Pophale) SiO2 
 PCOD9188329
Probable space group: C 2/M
;
_chemical_formula_sum "Si O2"
_cell_formula_units_Z 48
_cell_length_a 18.862905
_cell_length_b 13.245994
_cell_length_c 35.692961
_cell_angle_alpha 90.000000
_cell_angle_beta 164.596849
_cell_angle_gamma 90.000000
_cell_volume 2368.747239
_symmetry_space_group_name_H-M "C 2/M"
_symmetry_group_IT_number 12
_symmetry_cell_setting 'monoclinic'
loop_
_space_group_symop_operation_xyz
x,y,z
-x,y,-z
-x,-y,-z
x,-y,z
1/2+x,1/2+y,z
1/2-x,1/2+y,-z
1/2-x,1/2-y,-z
1/2+x,1/2-y,z
loop_
_atom_site_type_symbol
_atom_site_label
_atom_site_fract_x
_atom_site_fract_y
_atom_site_fract_z
Si Si1 0.016618 0.328904 0.462841
Si Si2 0.830669 0.891766 0.451968
Si Si3 0.047103 0.799481 0.845054
Si Si4 0.524072 0.113899 0.134789
Si Si5 0.098312 0.110988 0.738842
Si Si6 0.706981 0.795871 0.847007
O O1 0.064374 0.210978 0.476322
O O2 0.279992 0.383366 0.582307
O O3 0.000000 0.335951 0.500000
O O4 0.731748 0.358608 0.301241
O O5 0.523960 0.870412 0.284668
O O6 0.000000 0.897132 0.500000
O O7 0.860052 0.000000 0.486580
O O8 0.004403 0.702016 0.849667
O O9 0.117819 0.754100 0.840582
O O10 0.283267 0.866006 0.982625
O O11 0.795917 0.122586 0.249439
O O12 0.503844 0.000000 0.139891
O O13 0.217654 0.202749 0.823429
O O14 0.190316 0.000000 0.798700
O O15 0.000000 0.842015 0.000000
#
# Coordination Sequence:
#
# PCOD9188329 Si02
#       6
#     8   8   8   8   8   8
#     4  10  19  36  58  90 118 147 189 245 300 337
#     4   9  17  31  51  79 113 146 184 231 283 339
#     4  11  21  39  61  85 117 158 192 243 289 342
#     4  10  24  41  59  83 117 162 199 231 286 352
#     4  10  21  37  58  88 119 149 191 240 292 350
#     4  11  20  35  58  87 117 149 193 245 294 335
#
# _framework density 20.263876
#
# number of rings (size 3 to 8) (size 9 to 14) (size 15 to 20)
#    0.000    1.833    6.667    0.000    0.000    4.333 
#    0.000    0.000    0.000    0.000    0.000    0.000 
#    0.000    0.000    0.000    0.000    0.000    0.000 
#
# Total GULP energy -133895.422399 kJ/mol
# GULP energy per Si atom -5578.975933 kJ/mol
# Density = 2.021775 g / cm^3
# Si number density = 20.263876 Si / 1000 Ang^3
#
#
#
# Elastic Constant Matrix: (Units=GPa)
#
#
# Indices 1 2 3 4 5 6 
#
# 1 24.0148 10.7145 -6.0803 0.0055 11.6377 -0.0089
# 2 10.7145 82.5425 -14.1089 -0.0144 10.2355 0.0024
# 3 -6.0803 -14.1089 100.3137 -0.0878 17.9367 -0.0164
# 4 0.0055 -0.0144 -0.0878 11.5342 0.0017 6.8313
# 5 11.6377 10.2355 17.9367 0.0017 29.4850 -0.0008
# 6 -0.0089 0.0024 -0.0164 6.8313 -0.0008 18.3660
#
#
#
# Elastic Compliance Matrix: (Units=1/GPa)
#
#
# Indices 1 2 3 4 5 6 
#
# 1 0.057797 -0.002861 0.007857 0.000016 -0.026599 0.000028
# 2 -0.002861 0.013589 0.002670 0.000051 -0.005212 -0.000020
# 3 0.007857 0.002670 0.012949 0.000117 -0.011905 -0.000029
# 4 0.000016 0.000051 0.000117 0.111196 -0.000103 -0.041360
# 5 -0.026599 -0.005212 -0.011905 -0.000103 0.053466 0.000018
# 6 0.000028 -0.000020 -0.000029 -0.041360 0.000018 0.069832
#
#
# Mechanical properties :
#
#
# Convention : Reuss Voigt Hill
#
# Bulk Modulus (GPa) = 10.03348 20.88016 15.45682
# Shear Modulus (GPa) = 14.84915 26.30009 20.57462
#
# Velocity S-wave (km/s) = 2.70994 3.60652 3.18989
# Velocity P-wave (km/s) = 3.84108 5.26015 4.60560
#
# Compressibility (1/GPa) = 0.09966632
#
# Stress axis : x y z
#
# Youngs Moduli (GPa) = 17.30204 73.58866 77.22401
#
# Poissons Ratio (x) = 0.21054 -0.60674
# Poissons Ratio (y) = 0.04950 -0.20618
# Poissons Ratio (z) = -0.13594 -0.19647
#
# Static dielectric constant tensor:
#      x y z
#    x 1.694520 0.000010 -0.007940 
#    y 0.000010 1.705210 -0.000010 
#    z -0.007940 -0.000010 1.750970 
# 
# From -- ./inp_files/376627.got.cif
#   From: 2010.05.17/outbox.cif.g08.bks.cpg/sg12_189_cif.got.tgz:376627.got - 2010.06.03 13:09:07.
