data_PCOD9188958
_publ_section_title
;
Structure prediction by ZEFSAII (Michael W. Deem and Ramdas Pophale) SiO2 
 PCOD9188958
Probable space group: C 2/M
;
_chemical_formula_sum "Si O2"
_cell_formula_units_Z 48
_cell_length_a 14.064929
_cell_length_b 13.211504
_cell_length_c 26.953083
_cell_angle_alpha 90.000000
_cell_angle_beta 25.181579
_cell_angle_gamma 90.000000
_cell_volume 2131.012212
_symmetry_space_group_name_H-M "C 2/M"
_symmetry_group_IT_number 12
_symmetry_cell_setting 'monoclinic'
loop_
_space_group_symop_operation_xyz
x,y,z
-x,y,-z
-x,-y,-z
x,-y,z
1/2+x,1/2+y,z
1/2-x,1/2+y,-z
1/2-x,1/2-y,-z
1/2+x,1/2-y,z
loop_
_atom_site_type_symbol
_atom_site_label
_atom_site_fract_x
_atom_site_fract_y
_atom_site_fract_z
Si Si1 0.126397 0.882783 0.621682
Si Si2 0.793531 0.183767 0.152958
Si Si3 0.783236 0.323901 0.922518
Si Si4 0.002417 0.881635 0.791712
Si Si5 0.136010 0.388670 0.837725
Si Si6 0.035579 0.382485 0.366390
O O1 0.065144 0.846945 0.705955
O O2 0.334108 0.837774 0.493987
O O3 0.897377 0.884827 0.698377
O O4 0.192040 0.000000 0.600177
O O5 0.719576 0.146674 0.134228
O O6 0.868273 0.301360 0.119164
O O7 0.600306 0.167541 0.283873
O O8 0.034809 0.139815 0.056000
O O9 0.841872 0.202866 0.892060
O O10 0.970753 0.367608 0.870276
O O11 0.236548 0.878685 0.710058
O O12 0.924988 0.000000 0.827894
O O13 0.094682 0.500000 0.877759
O O14 0.983027 0.500000 0.380493
#
# Coordination Sequence:
#
# PCOD9188958 Si02
#       6
#     8   8   8   8   8   8
#     4   9  19  38  62  93 126 156 204 264 316 369
#     4  11  24  42  63  88 126 167 211 256 305 376
#     4  11  24  42  60  93 128 159 212 263 304 369
#     4  10  19  36  63  95 126 159 203 261 318 365
#     4  11  23  41  64  91 125 165 205 257 316 365
#     4  10  21  38  63  92 124 163 208 257 312 372
#
# _framework density 22.524507
#
# number of rings (size 3 to 8) (size 9 to 14) (size 15 to 20)
#    0.000    1.667    3.333    1.000    0.000    4.667 
#    0.000    4.167    0.000    3.000    0.000    0.000 
#    0.000    0.000    0.000    0.000    0.000    0.000 
#
# Total GULP energy -133862.269584 kJ/mol
# GULP energy per Si atom -5577.594566 kJ/mol
# Density = 2.247324 g / cm^3
# Si number density = 22.524507 Si / 1000 Ang^3
#
#
#
# Elastic Constant Matrix: (Units=GPa)
#
#
# Indices 1 2 3 4 5 6 
#
# 1 106.1549 -15.9121 7.8803 0.0047 -5.7890 0.0045
# 2 -15.9121 39.4290 -18.3273 -0.0124 -1.7353 -0.0013
# 3 7.8803 -18.3273 94.1104 -0.0568 7.4490 -0.0107
# 4 0.0047 -0.0124 -0.0568 4.5558 -0.0350 -3.9245
# 5 -5.7890 -1.7353 7.4490 -0.0350 22.3057 -0.0086
# 6 0.0045 -0.0013 -0.0107 -3.9245 -0.0086 20.3892
#
#
#
# Elastic Compliance Matrix: (Units=1/GPa)
#
#
# Indices 1 2 3 4 5 6 
#
# 1 0.010228 0.004125 -0.000296 0.000024 0.003074 0.000004
# 2 0.004125 0.029553 0.005283 0.000190 0.001606 0.000041
# 3 -0.000296 0.005283 0.011969 0.000168 -0.003663 0.000037
# 4 0.000024 0.000190 0.000168 0.263133 0.000397 0.050648
# 5 0.003074 0.001606 -0.003663 0.000397 0.046978 0.000094
# 6 0.000004 0.000041 0.000037 0.050648 0.000094 0.058794
#
#
# Mechanical properties :
#
#
# Convention : Reuss Voigt Hill
#
# Bulk Modulus (GPa) = 14.29096 20.77511 17.53303
# Shear Modulus (GPa) = 11.74376 27.18702 19.46539
#
# Velocity S-wave (km/s) = 2.28585 3.47796 2.94290
# Velocity P-wave (km/s) = 3.65037 5.03702 4.39868
#
# Compressibility (1/GPa) = 0.06997432
#
# Stress axis : x y z
#
# Youngs Moduli (GPa) = 97.76867 33.83729 83.54588
#
# Poissons Ratio (x) = -0.13959 0.02477
# Poissons Ratio (y) = -0.40332 -0.44136
# Poissons Ratio (z) = 0.02898 -0.17876
#
# Static dielectric constant tensor:
#      x y z
#    x 1.821470 0.000000 -0.005760 
#    y 0.000000 1.936130 0.000010 
#    z -0.005760 0.000010 1.896500 
# 
# From -- ./inp_files/376554.got.cif
#   From: 2010.05.17/outbox.cif.g08.bks.cpg/sg12_189_cif.got.tgz:376554.got - 2010.06.03 13:09:07.
