data_PCOD9188146
_publ_section_title
;
Structure prediction by ZEFSAII (Michael W. Deem and Ramdas Pophale) SiO2 
 PCOD9188146
Probable space group: C 2/M
;
_chemical_formula_sum "Si O2"
_cell_formula_units_Z 56
_cell_length_a 19.102222
_cell_length_b 13.521672
_cell_length_c 23.396966
_cell_angle_alpha 90.000000
_cell_angle_beta 35.269975
_cell_angle_gamma 90.000000
_cell_volume 3489.579263
_symmetry_space_group_name_H-M "C 2/M"
_symmetry_group_IT_number 12
_symmetry_cell_setting 'monoclinic'
loop_
_space_group_symop_operation_xyz
x,y,z
-x,y,-z
-x,-y,-z
x,-y,z
1/2+x,1/2+y,z
1/2-x,1/2+y,-z
1/2-x,1/2-y,-z
1/2+x,1/2-y,z
loop_
_atom_site_type_symbol
_atom_site_label
_atom_site_fract_x
_atom_site_fract_y
_atom_site_fract_z
Si Si1 0.467995 0.883850 0.382799
Si Si2 0.499301 0.750000 0.750699
Si Si3 0.233592 0.116150 0.617203
Si Si4 0.735166 0.383050 0.116168
Si Si5 0.032501 0.383050 0.116166
Si Si6 0.780535 0.615462 0.219465
Si Si7 0.884110 0.282303 0.615890
O O1 0.480317 0.819117 0.317949
O O2 0.335745 0.871468 0.500001
O O3 0.563740 0.845989 0.366295
O O4 0.485964 0.000000 0.359299
O O5 0.616214 0.680884 0.682053
O O6 0.381738 0.682219 0.819107
O O7 0.480044 0.817782 0.819109
O O8 0.296332 0.154009 0.633705
O O9 0.204561 0.000000 0.640703
O O10 0.707606 0.500000 0.128152
O O11 0.775261 0.367374 0.155083
O O12 0.846474 0.359085 0.000001
O O13 0.036093 0.500000 0.128150
O O14 0.914574 0.367373 0.155083
O O15 0.750037 0.500000 0.249964
O O16 0.687188 0.688017 0.312813
O O17 0.000000 0.253206 0.500000
#
# Coordination Sequence:
#
# PCOD9188146 Si02
#       7
#     8   8   8   8   8   8   8
#     4  10  21  36  55  79 107 142 179 214 259 316
#     4  12  20  34  56  80 112 138 168 220 268 316
#     4  10  21  36  55  79 107 142 179 214 259 316
#     4  10  21  36  55  79 105 138 179 219 263 314
#     4  10  21  36  55  79 105 138 179 219 263 314
#     4  10  19  36  57  78 104 138 179 222 262 310
#     4  10  19  36  57  78 104 138 181 222 256 310
#
# _framework density 16.047779999999999
#
# number of rings (size 3 to 8) (size 9 to 14) (size 15 to 20)
#    0.000    1.714    2.857    2.571    0.000    3.714 
#    0.000    0.000    0.000    0.000    0.000    2.000 
#    0.000    0.000    0.000    0.000    0.000    0.000 
#
# Total GULP energy -156300.130724 kJ/mol
# GULP energy per Si atom -5582.147526 kJ/mol
# Density = 1.601125 g / cm^3
# Si number density = 16.047780 Si / 1000 Ang^3
#
#
#
# Elastic Constant Matrix: (Units=GPa)
#
#
# Indices 1 2 3 4 5 6 
#
# 1 151.4123 97.0136 95.2997 0.0000 -0.1275 0.0000
# 2 97.0136 126.7004 106.9028 0.0000 0.0842 0.0000
# 3 95.2997 106.9028 125.9597 0.0001 -0.0652 -0.0001
# 4 0.0000 0.0000 0.0001 33.8839 -0.0001 0.0460
# 5 -0.1275 0.0842 -0.0652 -0.0001 19.7195 0.0000
# 6 0.0000 0.0000 -0.0001 0.0460 0.0000 28.2405
#
#
#
# Elastic Compliance Matrix: (Units=1/GPa)
#
#
# Indices 1 2 3 4 5 6 
#
# 1 0.013875 -0.006223 -0.005216 0.000000 0.000099 0.000000
# 2 -0.006223 0.030592 -0.021255 0.000000 -0.000241 0.000000
# 3 -0.005216 -0.021255 0.029925 0.000000 0.000156 0.000000
# 4 0.000000 0.000000 0.000000 0.029513 0.000000 -0.000048
# 5 0.000099 -0.000241 0.000156 0.000000 0.050714 0.000000
# 6 0.000000 0.000000 0.000000 -0.000048 0.000000 0.035410
#
#
# Mechanical properties :
#
#
# Convention : Reuss Voigt Hill
#
# Bulk Modulus (GPa) = 111.07390 111.38940 111.23165
# Shear Modulus (GPa) = 19.34856 23.35918 21.35387
#
# Velocity S-wave (km/s) = 3.47606 3.81937 3.65176
# Velocity P-wave (km/s) = 9.24529 9.43461 9.34043
#
# Compressibility (1/GPa) = 0.00900302
#
# Stress axis : x y z
#
# Youngs Moduli (GPa) = 72.07372 32.68868 33.41673
#
# Poissons Ratio (x) = 0.20341 0.17430
# Poissons Ratio (y) = 0.44850 0.71028
# Poissons Ratio (z) = 0.37594 0.69481
#
# Static dielectric constant tensor:
#      x y z
#    x 1.517150 0.000000 -0.000070 
#    y 0.000000 1.509850 0.000000 
#    z -0.000070 0.000000 1.508110 
# 
# From -- ./inp_files/143749.got.cif
#   From: 2010.05.17/outbox.cif.g08.bks.cpg/sg12_72_cif.got.tgz:143749.got - 2010.06.03 13:09:07.
