data_PCOD9188825
_publ_section_title
;
Structure prediction by ZEFSAII (Michael W. Deem and Ramdas Pophale) SiO2 
 PCOD9188825
Probable space group: C 2/M
;
_chemical_formula_sum "Si O2"
_cell_formula_units_Z 64
_cell_length_a 25.930088
_cell_length_b 17.264237
_cell_length_c 11.668390
_cell_angle_alpha 90.000000
_cell_angle_beta 32.039614
_cell_angle_gamma 90.000000
_cell_volume 2771.099918
_symmetry_space_group_name_H-M "C 2/M"
_symmetry_group_IT_number 12
_symmetry_cell_setting 'monoclinic'
loop_
_space_group_symop_operation_xyz
x,y,z
-x,y,-z
-x,-y,-z
x,-y,z
1/2+x,1/2+y,z
1/2-x,1/2+y,-z
1/2-x,1/2-y,-z
1/2+x,1/2-y,z
loop_
_atom_site_type_symbol
_atom_site_label
_atom_site_fract_x
_atom_site_fract_y
_atom_site_fract_z
Si Si1 0.428578 0.790216 0.941446
Si Si2 0.245635 0.915801 0.011243
Si Si3 0.771463 0.715245 0.773382
Si Si4 0.246194 0.085338 0.656744
Si Si5 0.023818 0.877508 0.086771
Si Si6 0.691595 0.086852 0.718071
Si Si7 0.959216 0.587368 0.703056
Si Si8 0.362844 0.623464 0.573316
O O1 0.480437 0.716101 0.896591
O O2 0.481363 0.845557 0.750949
O O3 0.332738 0.754447 0.058898
O O4 0.388785 0.848173 0.112809
O O5 0.256177 0.840668 0.911348
O O6 0.342830 0.914797 0.905648
O O7 0.244995 0.000000 0.951992
O O8 0.154829 0.912041 0.268400
O O9 0.796772 0.655494 0.625164
O O10 0.848656 0.784796 0.627093
O O11 0.257494 0.095040 0.499991
O O12 0.283122 0.000000 0.616321
O O13 0.132753 0.093077 0.902158
O O14 0.954576 0.900335 0.323263
O O15 0.000000 0.900753 0.000000
O O16 0.773370 0.099344 0.659976
O O17 0.651399 0.000000 0.804608
O O18 0.991062 0.500000 0.675346
O O19 0.000000 0.604122 0.500000
#
# Coordination Sequence:
#
# PCOD9188825 Si02
#       8
#     8   8   8   8   8   8   8   8
#     4  10  22  36  59  83 117 150 193 243 287 353
#     4  11  22  39  61  86 117 153 197 243 291 350
#     4  10  22  37  60  85 114 153 192 238 288 349
#     4  10  22  39  59  84 117 156 197 241 290 345
#     4  11  24  38  56  88 121 156 190 239 298 345
#     4  10  19  36  62  85 110 151 200 245 287 340
#     4  10  21  36  56  83 113 150 193 242 296 344
#     4  11  22  36  61  88 116 151 198 241 290 344
#
# _framework density 23.095521999999999
#
# number of rings (size 3 to 8) (size 9 to 14) (size 15 to 20)
#    0.000    1.625    3.750    1.500    3.500    2.750 
#    0.000    1.875    0.000    5.250    0.000    0.000 
#    0.000    0.000    0.000    0.000    0.000    0.000 
#
# Total GULP energy -178798.687260 kJ/mol
# GULP energy per Si atom -5587.458977 kJ/mol
# Density = 2.304296 g / cm^3
# Si number density = 23.095522 Si / 1000 Ang^3
#
#
#
# Elastic Constant Matrix: (Units=GPa)
#
#
# Indices 1 2 3 4 5 6 
#
# 1 33.9070 17.8489 20.5089 0.0000 13.5951 0.0000
# 2 17.8489 140.3755 28.2043 0.0000 20.3839 0.0000
# 3 20.5089 28.2043 128.6292 0.0000 25.7534 0.0000
# 4 0.0000 0.0000 0.0000 24.2345 0.0000 15.4965
# 5 13.5951 20.3839 25.7534 0.0000 32.3464 0.0000
# 6 0.0000 0.0000 0.0000 15.4965 0.0000 -5.6326
#
#
#
# Elastic Compliance Matrix: (Units=1/GPa)
#
#
# Indices 1 2 3 4 5 6 
#
# 1 0.037325 -0.002428 -0.003074 0.000000 -0.011710 0.000000
# 2 -0.002428 0.008082 -0.000678 0.000000 -0.003533 0.000000
# 3 -0.003074 -0.000678 0.009599 0.000000 -0.005923 0.000000
# 4 0.000000 0.000000 0.000000 0.014955 0.000000 0.041144
# 5 -0.011710 -0.003533 -0.005923 0.000000 0.042779 0.000000
# 6 0.000000 0.000000 0.000000 0.041144 0.000000 -0.064343
#
#
# Mechanical properties :
#
#
# Convention : Reuss Voigt Hill
#
# Bulk Modulus (GPa) = 23.44877 48.44842 35.94860
# Shear Modulus (GPa) = 66.69194 25.94630 46.31912
#
# Velocity S-wave (km/s) = 5.37952 3.35540 4.48319
# Velocity P-wave (km/s) = 6.98288 6.00288 6.51135
#
# Compressibility (1/GPa) = 0.04264616
#
# Stress axis : x y z
#
# Youngs Moduli (GPa) = 26.79163 123.73775 104.17782
#
# Poissons Ratio (x) = 0.30041 0.32028
# Poissons Ratio (y) = 0.06505 0.07059
# Poissons Ratio (z) = 0.08237 0.08384
#
# Static dielectric constant tensor:
#      x y z
#    x 1.847910 0.000000 0.003540 
#    y 0.000000 1.196630 0.000000 
#    z 0.003540 0.000000 1.891330 
# 
# From -- ./inp_files/190009.got.cif
#   From: 2010.05.17/outbox.cif.g08.bks.cpg/sg12_96_cif.got.tgz:190009.got - 2010.06.03 13:09:07.
