data_PCOD9188774
_publ_section_title
;
Structure prediction by ZEFSAII (Michael W. Deem and Ramdas Pophale) SiO2 
 PCOD9188774
Probable space group: C 2/M
;
_chemical_formula_sum "Si O2"
_cell_formula_units_Z 48
_cell_length_a 8.982381
_cell_length_b 30.439808
_cell_length_c 16.526066
_cell_angle_alpha 90.000000
_cell_angle_beta 146.412004
_cell_angle_gamma 90.000000
_cell_volume 2499.760531
_symmetry_space_group_name_H-M "C 2/M"
_symmetry_group_IT_number 12
_symmetry_cell_setting 'monoclinic'
loop_
_space_group_symop_operation_xyz
x,y,z
-x,y,-z
-x,-y,-z
x,-y,z
1/2+x,1/2+y,z
1/2-x,1/2+y,-z
1/2-x,1/2-y,-z
1/2+x,1/2-y,z
loop_
_atom_site_type_symbol
_atom_site_label
_atom_site_fract_x
_atom_site_fract_y
_atom_site_fract_z
Si Si1 0.781353 0.631359 0.285924
Si Si2 0.903951 0.866338 0.618865
Si Si3 0.169207 0.949513 0.659870
Si Si4 0.252429 0.213665 0.167166
Si Si5 0.722373 0.050029 0.825890
Si Si6 0.680448 0.716552 0.660568
O O1 0.620614 0.638620 0.295948
O O2 0.691182 0.666409 0.178446
O O3 0.755139 0.582853 0.238339
O O4 0.099014 0.637164 0.447635
O O5 0.035706 0.913113 0.656268
O O6 0.068470 0.827782 0.650143
O O7 0.473457 0.937533 0.771643
O O8 0.000000 0.948649 0.500000
O O9 0.164470 0.000000 0.688567
O O10 0.322073 0.245610 0.273331
O O11 0.515907 0.210354 0.231583
O O12 0.000000 0.229435 0.000000
O O13 0.666732 0.000000 0.774082
O O14 0.000000 0.051005 0.000000
O O15 0.500000 0.727630 0.500000
#
# Coordination Sequence:
#
# PCOD9188774 Si02
#       6
#     8   8   8   8   8   8
#     4  11  23  39  61  91 125 159 203 252 306 360
#     4  11  23  38  62  93 122 159 205 253 302 362
#     4  10  19  36  61  89 120 156 203 250 296 354
#     4  12  26  43  65  93 125 159 205 257 308 363
#     4  10  21  39  62  88 122 163 202 245 305 367
#     4  12  24  43  67  90 122 164 206 250 306 371
#
# _framework density 19.201837999999999
#
# number of rings (size 3 to 8) (size 9 to 14) (size 15 to 20)
#    0.000    1.000    3.333    4.000    2.333    0.667 
#    0.000    4.167    0.000    3.000    0.000    0.000 
#    0.000    0.000    0.000    0.000    0.000    0.000 
#
# Total GULP energy -134188.432300 kJ/mol
# GULP energy per Si atom -5591.184679 kJ/mol
# Density = 1.915813 g / cm^3
# Si number density = 19.201838 Si / 1000 Ang^3
#
#
#
# Elastic Constant Matrix: (Units=GPa)
#
#
# Indices 1 2 3 4 5 6 
#
# 1 129.6897 56.1225 49.5588 0.0000 10.6254 0.0000
# 2 56.1225 81.4648 22.4328 0.0000 -6.2940 0.0000
# 3 49.5588 22.4328 83.1115 0.0000 19.3313 0.0000
# 4 0.0000 0.0000 0.0000 9.6879 0.0000 10.1045
# 5 10.6254 -6.2940 19.3313 0.0000 20.9138 0.0000
# 6 0.0000 0.0000 0.0000 10.1045 0.0000 16.6629
#
#
#
# Elastic Compliance Matrix: (Units=1/GPa)
#
#
# Indices 1 2 3 4 5 6 
#
# 1 0.013559 -0.008480 -0.004587 0.000000 -0.005201 0.000000
# 2 -0.008480 0.020154 -0.003562 0.000000 0.013666 0.000000
# 3 -0.004587 -0.003562 0.019663 0.000000 -0.016917 0.000000
# 4 0.000000 0.000000 0.000000 0.280864 0.000000 -0.170319
# 5 -0.005201 0.013666 -0.016917 0.000000 0.070207 0.000000
# 6 0.000000 0.000000 0.000000 -0.170319 0.000000 0.163297
#
#
# Mechanical properties :
#
#
# Convention : Reuss Voigt Hill
#
# Bulk Modulus (GPa) = 49.70329 61.16602 55.43465
# Shear Modulus (GPa) = 8.22764 20.52971 14.37867
#
# Velocity S-wave (km/s) = 2.07223 3.27334 2.73942
# Velocity P-wave (km/s) = 5.62728 6.79777 6.24003
#
# Compressibility (1/GPa) = 0.02011939
#
# Stress axis : x y z
#
# Youngs Moduli (GPa) = 73.75039 49.61813 50.85655
#
# Poissons Ratio (x) = 0.42076 0.23326
# Poissons Ratio (y) = 0.62541 0.18114
# Poissons Ratio (z) = 0.33826 0.17673
#
# Static dielectric constant tensor:
#      x y z
#    x 1.639640 0.000000 0.004660 
#    y 0.000000 1.676070 0.000000 
#    z 0.004660 0.000000 1.654970 
# 
# From -- ./inp_files/80555.got.cif
#   From: 2010.05.17/outbox.cif.g08.bks.cpg/sg12_41_cif.got.tgz:80555.got - 2010.06.03 13:09:07.
