data_PCOD9188245
_publ_section_title
;
Structure prediction by ZEFSAII (Michael W. Deem and Ramdas Pophale) SiO2 
 PCOD9188245
Probable space group: C 2/M
;
_chemical_formula_sum "Si O2"
_cell_formula_units_Z 56
_cell_length_a 16.763548
_cell_length_b 9.344932
_cell_length_c 24.553284
_cell_angle_alpha 90.000000
_cell_angle_beta 134.049139
_cell_angle_gamma 90.000000
_cell_volume 2764.558401
_symmetry_space_group_name_H-M "C 2/M"
_symmetry_group_IT_number 12
_symmetry_cell_setting 'monoclinic'
loop_
_space_group_symop_operation_xyz
x,y,z
-x,y,-z
-x,-y,-z
x,-y,z
1/2+x,1/2+y,z
1/2-x,1/2+y,-z
1/2-x,1/2-y,-z
1/2+x,1/2-y,z
loop_
_atom_site_type_symbol
_atom_site_label
_atom_site_fract_x
_atom_site_fract_y
_atom_site_fract_z
Si Si1 0.992727 0.836435 0.157541
Si Si2 0.409565 0.330522 0.409487
Si Si3 0.816335 0.831379 0.664856
Si Si4 0.505867 0.326999 0.669326
Si Si5 0.784425 0.666837 0.070415
Si Si6 0.471806 0.156752 0.922965
Si Si7 0.265779 0.337933 0.161130
O O1 0.106339 0.823784 0.244587
O O2 0.992203 0.792508 0.094279
O O3 0.909366 0.719359 0.141765
O O4 0.955495 0.000000 0.146098
O O5 0.500000 0.315913 0.500000
O O6 0.384329 0.500000 0.390206
O O7 0.296988 0.251763 0.375341
O O8 0.467102 0.279504 0.379840
O O9 0.896672 0.779955 0.652395
O O10 0.791786 0.000000 0.643519
O O11 0.496083 0.500000 0.663364
O O12 0.619893 0.296204 0.756084
O O13 0.771032 0.500000 0.058236
O O14 0.726201 0.730893 0.095581
O O15 0.750000 0.750000 0.000000
O O16 0.339684 0.153794 0.849832
O O17 0.517217 0.000000 0.925752
O O18 0.500000 0.162597 0.000000
O O19 0.278405 0.500000 0.144940
#
# Coordination Sequence:
#
# PCOD9188245 Si02
#       7
#     8   8   8   8   8   8   8
#     4  11  22  38  59  83 114 152 200 252 301 362
#     4  10  22  40  64  96 129 162 205 254 305 370
#     4  10  21  39  63  89 122 165 208 250 309 377
#     4   9  18  37  62  86 122 169 205 245 313 380
#     4  12  24  37  56  82 115 152 196 249 301 355
#     4  10  21  35  54  82 115 155 201 250 310 374
#     4  10  19  36  58  79 112 157 201 245 304 370
#
# _framework density 20.256399999999999
#
# number of rings (size 3 to 8) (size 9 to 14) (size 15 to 20)
#    0.000    1.714    1.429    3.429    0.000    5.143 
#    0.000    1.429    0.000    0.000    0.000    0.000 
#    0.000    0.000    0.000    0.000    0.000    0.000 
#
# Total GULP energy -156016.472816 kJ/mol
# GULP energy per Si atom -5572.016886 kJ/mol
# Density = 2.021030 g / cm^3
# Si number density = 20.256400 Si / 1000 Ang^3
#
#
#
# Elastic Constant Matrix: (Units=GPa)
#
#
# Indices 1 2 3 4 5 6 
#
# 1 120.5943 39.3602 47.8145 0.0000 -3.5399 0.0000
# 2 39.3602 95.8565 40.1638 0.0000 -2.3691 0.0000
# 3 47.8145 40.1638 69.5999 0.0000 -2.7950 0.0000
# 4 0.0000 0.0000 0.0000 23.5084 0.0000 4.0387
# 5 -3.5399 -2.3691 -2.7950 0.0000 35.5174 0.0000
# 6 0.0000 0.0000 0.0000 4.0387 0.0000 29.0938
#
#
#
# Elastic Compliance Matrix: (Units=1/GPa)
#
#
# Indices 1 2 3 4 5 6 
#
# 1 0.011658 -0.001883 -0.006903 0.000000 0.000493 0.000000
# 2 -0.001883 0.014066 -0.006815 0.000000 0.000214 0.000000
# 3 -0.006903 -0.006815 0.023070 0.000000 0.000673 0.000000
# 4 0.000000 0.000000 0.000000 0.043577 0.000000 -0.006049
# 5 0.000493 0.000214 0.000673 0.000000 0.028272 0.000000
# 6 0.000000 0.000000 0.000000 -0.006049 0.000000 0.035211
#
#
# Mechanical properties :
#
#
# Convention : Reuss Voigt Hill
#
# Bulk Modulus (GPa) = 56.84100 60.08082 58.46091
# Shear Modulus (GPa) = 25.91751 28.20473 27.06112
#
# Velocity S-wave (km/s) = 3.58085 3.73552 3.65900
# Velocity P-wave (km/s) = 6.72446 6.95198 6.83916
#
# Compressibility (1/GPa) = 0.01759293
#
# Stress axis : x y z
#
# Youngs Moduli (GPa) = 85.77746 71.09283 43.34655
#
# Poissons Ratio (x) = 0.13383 0.29921
# Poissons Ratio (y) = 0.16148 0.29542
# Poissons Ratio (z) = 0.59211 0.48451
#
# Static dielectric constant tensor:
#      x y z
#    x 1.889200 0.000000 0.012720 
#    y 0.000000 1.794570 0.000000 
#    z 0.012720 0.000000 1.714590 
# 
# From -- ./inp_files/363136.got.cif
#   From: 2010.05.17/outbox.cif.g08.bks.cpg/sg12_182_cif.got.tgz:363136.got - 2010.06.03 13:09:07.
