data_PCOD9188098
_publ_section_title
;
Structure prediction by ZEFSAII (Michael W. Deem and Ramdas Pophale) SiO2 
 PCOD9188098
Probable space group: C 2/M
;
_chemical_formula_sum "Si O2"
_cell_formula_units_Z 56
_cell_length_a 7.931975
_cell_length_b 18.039325
_cell_length_c 18.290402
_cell_angle_alpha 90.000000
_cell_angle_beta 68.182901
_cell_angle_gamma 90.000000
_cell_volume 2429.675572
_symmetry_space_group_name_H-M "C 2/M"
_symmetry_group_IT_number 12
_symmetry_cell_setting 'monoclinic'
loop_
_space_group_symop_operation_xyz
x,y,z
-x,y,-z
-x,-y,-z
x,-y,z
1/2+x,1/2+y,z
1/2-x,1/2+y,-z
1/2-x,1/2-y,-z
1/2+x,1/2-y,z
loop_
_atom_site_type_symbol
_atom_site_label
_atom_site_fract_x
_atom_site_fract_y
_atom_site_fract_z
Si Si1 0.745588 0.840014 0.242812
Si Si2 0.775000 0.664358 0.976230
Si Si3 0.707057 0.590238 0.458940
Si Si4 0.322593 0.415889 0.694704
Si Si5 0.015494 0.085961 0.898186
Si Si6 0.259340 0.914281 0.609340
Si Si7 0.420748 0.818829 0.182203
O O1 0.689440 0.857888 0.334766
O O2 0.570214 0.838282 0.219545
O O3 0.886070 0.903795 0.194922
O O4 0.856980 0.765066 0.206712
O O5 0.646929 0.634096 0.930693
O O6 0.978108 0.663226 0.910428
O O7 0.750000 0.750000 0.000000
O O8 0.686665 0.617421 0.056557
O O9 0.500000 0.616563 0.500000
O O10 0.703705 0.500000 0.458574
O O11 0.762577 0.612400 0.368559
O O12 0.803973 0.609565 0.518981
O O13 0.261477 0.500000 0.716206
O O14 0.538683 0.416341 0.648576
O O15 0.254501 0.367283 0.772164
O O16 0.018966 0.000000 0.916852
O O17 0.323835 0.000000 0.610927
#
# Coordination Sequence:
#
# PCOD9188098 Si02
#       7
#     8   8   8   8   8   8   8
#     4  11  22  37  56  82 114 151 195 242 291 353
#     4  10  19  36  56  80 110 150 188 233 292 352
#     4   7  12  27  53  81 109 148 188 226 281 348
#     4   9  18  34  57  86 117 147 188 238 289 346
#     4  10  21  37  60  87 113 147 199 248 287 350
#     4   9  17  33  58  84 114 149 188 234 287 346
#     4  11  23  36  56  81 112 151 191 236 293 355
#
# _framework density 23.048342999999999
#
# number of rings (size 3 to 8) (size 9 to 14) (size 15 to 20)
#    0.000    2.429    1.429    3.857    0.000    3.429 
#    0.000    1.429    0.000    2.571    0.000   12.000 
#    0.000    0.000    0.000    0.000    0.000    0.000 
#
# Total GULP energy -156193.537266 kJ/mol
# GULP energy per Si atom -5578.340617 kJ/mol
# Density = 2.299588 g / cm^3
# Si number density = 23.048343 Si / 1000 Ang^3
#
#
#
# Elastic Constant Matrix: (Units=GPa)
#
#
# Indices 1 2 3 4 5 6 
#
# 1 86.7754 17.9581 13.2522 0.0000 -1.6987 0.0000
# 2 17.9581 94.2260 13.9125 0.0000 -7.2825 0.0000
# 3 13.2522 13.9125 41.7581 0.0000 1.4512 0.0000
# 4 0.0000 0.0000 0.0000 9.8178 0.0000 5.9345
# 5 -1.6987 -7.2825 1.4512 0.0000 24.3262 0.0000
# 6 0.0000 0.0000 0.0000 5.9345 0.0000 17.8250
#
#
#
# Elastic Compliance Matrix: (Units=1/GPa)
#
#
# Indices 1 2 3 4 5 6 
#
# 1 0.012425 -0.001833 -0.003350 0.000000 0.000519 0.000000
# 2 -0.001833 0.011751 -0.003458 0.000000 0.003596 0.000000
# 3 -0.003350 -0.003458 0.026261 0.000000 -0.002836 0.000000
# 4 0.000000 0.000000 0.000000 0.127517 0.000000 -0.042454
# 5 0.000519 0.003596 -0.002836 0.000000 0.042390 0.000000
# 6 0.000000 0.000000 0.000000 -0.042454 0.000000 0.070236
#
#
# Mechanical properties :
#
#
# Convention : Reuss Voigt Hill
#
# Bulk Modulus (GPa) = 30.16259 34.77831 32.47045
# Shear Modulus (GPa) = 15.67816 22.23625 18.95721
#
# Velocity S-wave (km/s) = 2.61095 3.10944 2.87103
# Velocity P-wave (km/s) = 4.71216 5.29278 5.01089
#
# Compressibility (1/GPa) = 0.03315365
#
# Stress axis : x y z
#
# Youngs Moduli (GPa) = 80.48142 85.10128 38.07863
#
# Poissons Ratio (x) = 0.15601 0.12758
# Poissons Ratio (y) = 0.14754 0.13168
# Poissons Ratio (z) = 0.26965 0.29429
#
# Static dielectric constant tensor:
#      x y z
#    x 1.926030 0.000000 0.026430 
#    y 0.000000 1.809610 0.000000 
#    z 0.026430 0.000000 1.923340 
# 
# From -- ./inp_files/300708.got.cif
#   From: 2010.05.17/outbox.cif.g08.bks.cpg/sg12_151_cif.got.tgz:300708.got - 2010.06.03 13:09:07.
