data_PCOD9188999
_publ_section_title
;
Structure prediction by ZEFSAII (Michael W. Deem and Ramdas Pophale) SiO2 
 PCOD9188999
Probable space group: C 2/M
;
_chemical_formula_sum "Si O2"
_cell_formula_units_Z 48
_cell_length_a 12.878846
_cell_length_b 15.427741
_cell_length_c 20.582759
_cell_angle_alpha 90.000000
_cell_angle_beta 34.384442
_cell_angle_gamma 90.000000
_cell_volume 2309.583580
_symmetry_space_group_name_H-M "C 2/M"
_symmetry_group_IT_number 12
_symmetry_cell_setting 'monoclinic'
loop_
_space_group_symop_operation_xyz
x,y,z
-x,y,-z
-x,-y,-z
x,-y,z
1/2+x,1/2+y,z
1/2-x,1/2+y,-z
1/2-x,1/2-y,-z
1/2+x,1/2-y,z
loop_
_atom_site_type_symbol
_atom_site_label
_atom_site_fract_x
_atom_site_fract_y
_atom_site_fract_z
Si Si1 0.297520 0.903316 0.863868
Si Si2 0.651034 0.660403 0.069922
Si Si3 0.005819 0.836452 0.392698
Si Si4 0.298989 0.272608 0.196245
Si Si5 0.737311 0.597957 0.169058
Si Si6 0.226901 0.601901 0.629850
O O1 0.209404 0.832898 0.862204
O O2 0.514697 0.882416 0.755522
O O3 0.277472 0.000000 0.846741
O O4 0.207268 0.900157 0.981077
O O5 0.436672 0.685491 0.176019
O O6 0.707665 0.622457 0.109718
O O7 0.750000 0.750000 0.000000
O O8 0.809155 0.843749 0.527289
O O9 0.094991 0.743463 0.330158
O O10 0.043832 0.890933 0.307789
O O11 0.146873 0.876100 0.373423
O O12 0.353425 0.175222 0.143604
O O13 0.806240 0.500000 0.141720
O O14 0.249051 0.500000 0.603394
#
# Coordination Sequence:
#
# PCOD9188999 Si02
#       6
#     8   8   8   8   8   8
#     4  11  24  40  61  89 123 172 215 250 308 381
#     4  12  22  41  60  87 128 164 202 261 312 375
#     4   9  19  36  63  91 125 157 198 264 319 363
#     4  10  24  39  62  89 124 162 209 261 308 377
#     4  10  22  39  64  94 122 161 206 258 321 370
#     4  10  19  36  64  94 123 158 208 262 311 379
#
# _framework density 20.782966999999999
#
# number of rings (size 3 to 8) (size 9 to 14) (size 15 to 20)
#    1.000    0.667    1.667    4.000    0.000    2.667 
#    0.000    1.667    0.000    0.000    0.000    5.833 
#    0.000    0.000    0.000    0.000    0.000    0.000 
#
# Total GULP energy -133881.253491 kJ/mol
# GULP energy per Si atom -5578.385562 kJ/mol
# Density = 2.073566 g / cm^3
# Si number density = 20.782967 Si / 1000 Ang^3
#
#
#
# Elastic Constant Matrix: (Units=GPa)
#
#
# Indices 1 2 3 4 5 6 
#
# 1 28.1043 6.3472 25.7237 -0.0002 9.8294 0.0001
# 2 6.3472 82.8262 31.3440 -0.0019 -0.8879 0.0005
# 3 25.7237 31.3440 91.5923 -0.0046 17.2050 0.0008
# 4 -0.0002 -0.0019 -0.0046 24.2777 0.0009 8.7776
# 5 9.8294 -0.8879 17.2050 0.0009 33.8790 -0.0001
# 6 0.0001 0.0005 0.0008 8.7776 -0.0001 8.1416
#
#
#
# Elastic Compliance Matrix: (Units=1/GPa)
#
#
# Indices 1 2 3 4 5 6 
#
# 1 0.049902 0.000955 -0.012853 -0.000003 -0.007926 0.000004
# 2 0.000955 0.014182 -0.005681 0.000000 0.002980 0.000000
# 3 -0.012853 -0.005681 0.017465 0.000006 -0.005289 -0.000007
# 4 -0.000003 0.000000 0.000006 0.067502 -0.000004 -0.072776
# 5 -0.007926 0.002980 -0.005289 -0.000004 0.034581 0.000005
# 6 0.000004 0.000000 -0.000007 -0.072776 0.000005 0.201287
#
#
# Mechanical properties :
#
#
# Convention : Reuss Voigt Hill
#
# Bulk Modulus (GPa) = 21.55576 36.59474 29.07525
# Shear Modulus (GPa) = 11.47993 22.53352 17.00673
#
# Velocity S-wave (km/s) = 2.35281 3.29634 2.86370
# Velocity P-wave (km/s) = 4.21608 5.66869 4.99547
#
# Compressibility (1/GPa) = 0.04639130
#
# Stress axis : x y z
#
# Youngs Moduli (GPa) = 20.03913 70.51099 57.25588
#
# Poissons Ratio (x) = -0.06732 0.73591
# Poissons Ratio (y) = -0.01913 0.32528
# Poissons Ratio (z) = 0.25756 0.40059
#
# Static dielectric constant tensor:
#      x y z
#    x 1.720040 0.000000 -0.009090 
#    y 0.000000 1.781360 0.000000 
#    z -0.009090 0.000000 1.820500 
# 
# From -- ./inp_files/340063.got.cif
#   From: 2010.05.17/outbox.cif.g08.bks.cpg/sg12_171_cif.got.tgz:340063.got - 2010.06.03 13:09:07.
