data_PCOD9188460
_publ_section_title
;
Structure prediction by ZEFSAII (Michael W. Deem and Ramdas Pophale) SiO2 
 PCOD9188460
Probable space group: C 2/M
;
_chemical_formula_sum "Si O2"
_cell_formula_units_Z 56
_cell_length_a 15.771166
_cell_length_b 23.823314
_cell_length_c 15.701687
_cell_angle_alpha 90.000000
_cell_angle_beta 152.282240
_cell_angle_gamma 90.000000
_cell_volume 2743.936213
_symmetry_space_group_name_H-M "C 2/M"
_symmetry_group_IT_number 12
_symmetry_cell_setting 'monoclinic'
loop_
_space_group_symop_operation_xyz
x,y,z
-x,y,-z
-x,-y,-z
x,-y,z
1/2+x,1/2+y,z
1/2-x,1/2+y,-z
1/2-x,1/2-y,-z
1/2+x,1/2-y,z
loop_
_atom_site_type_symbol
_atom_site_label
_atom_site_fract_x
_atom_site_fract_y
_atom_site_fract_z
Si Si1 0.906265 0.707147 0.668268
Si Si2 0.295145 0.371430 0.284090
Si Si3 0.387900 0.755019 0.824936
Si Si4 0.614813 0.160551 0.522433
Si Si5 0.154853 0.587288 0.321725
Si Si6 0.133141 0.937769 0.326619
Si Si7 0.260008 0.434416 0.075660
O O1 0.750000 0.750000 0.500000
O O2 0.998795 0.733199 0.835059
O O3 0.992352 0.683059 0.657569
O O4 0.813860 0.652478 0.627300
O O5 0.500000 0.363803 0.500000
O O6 0.188993 0.312853 0.202528
O O7 0.206333 0.417357 0.268850
O O8 0.284047 0.394166 0.178548
O O9 0.224791 0.714474 0.653646
O O10 0.500000 0.727118 0.000000
O O11 0.500000 0.139793 0.500000
O O12 0.752740 0.111423 0.616342
O O13 0.281788 0.557786 0.502573
O O14 0.941925 0.573948 0.141574
O O15 0.921520 0.922776 0.152406
O O16 0.148560 0.000000 0.300650
O O17 0.278615 0.500000 0.117221
#
# Coordination Sequence:
#
# PCOD9188460 Si02
#       7
#     8   8   8   8   8   8   8
#     4   8  17  35  62  85 121 163 202 250 309 373
#     4  11  20  34  59  88 128 169 203 248 316 385
#     4  10  20  38  61  92 129 163 206 258 315 387
#     4  10  21  41  63  88 121 162 213 267 320 379
#     4  10  19  36  59  87 124 162 207 255 313 376
#     4  10  22  41  63  85 119 164 213 267 320 370
#     4  11  23  37  58  91 126 167 214 258 308 381
#
# _framework density 20.408638
#
# number of rings (size 3 to 8) (size 9 to 14) (size 15 to 20)
#    0.000    2.000    1.429    3.000    0.000    2.286 
#    7.714    0.714    0.000    0.429    0.000    0.000 
#    0.000    0.000    0.000    0.000    0.000    0.000 
#
# Total GULP energy -155990.004775 kJ/mol
# GULP energy per Si atom -5571.071599 kJ/mol
# Density = 2.036219 g / cm^3
# Si number density = 20.408638 Si / 1000 Ang^3
#
#
#
# Elastic Constant Matrix: (Units=GPa)
#
#
# Indices 1 2 3 4 5 6 
#
# 1 104.9756 24.9264 15.4371 -0.0001 1.6844 -0.0001
# 2 24.9264 83.6340 -3.5192 -0.0001 1.7783 -0.0001
# 3 15.4371 -3.5192 71.6553 -0.0001 7.7588 -0.0002
# 4 -0.0001 -0.0001 -0.0001 4.1415 0.0000 -0.6048
# 5 1.6844 1.7783 7.7588 0.0000 32.4907 -0.0001
# 6 -0.0001 -0.0001 -0.0002 -0.6048 -0.0001 34.6027
#
#
#
# Elastic Compliance Matrix: (Units=1/GPa)
#
#
# Indices 1 2 3 4 5 6 
#
# 1 0.010669 -0.003289 -0.002484 0.000000 0.000220 0.000000
# 2 -0.003289 0.013017 0.001444 0.000000 -0.000887 0.000000
# 3 -0.002484 0.001444 0.014943 0.000000 -0.003519 0.000000
# 4 0.000000 0.000000 0.000000 0.242077 0.000000 0.004231
# 5 0.000220 -0.000887 -0.003519 0.000000 0.031655 0.000000
# 6 0.000000 0.000000 0.000000 0.004231 0.000000 0.028973
#
#
# Mechanical properties :
#
#
# Convention : Reuss Voigt Hill
#
# Bulk Modulus (GPa) = 33.36624 37.10597 35.23610
# Shear Modulus (GPa) = 13.88960 29.14167 21.51563
#
# Velocity S-wave (km/s) = 2.61161 3.78287 3.25043
# Velocity P-wave (km/s) = 5.04763 6.10746 5.60266
#
# Compressibility (1/GPa) = 0.02997042
#
# Stress axis : x y z
#
# Youngs Moduli (GPa) = 93.73223 76.82438 66.92233
#
# Poissons Ratio (x) = 0.25267 0.16622
# Poissons Ratio (y) = 0.30828 -0.09663
# Poissons Ratio (z) = 0.23281 -0.11092
#
# Static dielectric constant tensor:
#      x y z
#    x 1.780920 0.000000 -0.009650 
#    y 0.000000 1.750980 0.000000 
#    z -0.009650 0.000000 1.746880 
# 
# From -- ./inp_files/219151.got.cif
#   From: 2010.05.17/outbox.cif.g08.bks.cpg/sg12_110_cif.got.tgz:219151.got - 2010.06.03 13:09:07.
