data_PCOD9188500
_publ_section_title
;
Structure prediction by ZEFSAII (Michael W. Deem and Ramdas Pophale) SiO2 
 PCOD9188500
Probable space group: C 2/M
;
_chemical_formula_sum "Si O2"
_cell_formula_units_Z 40
_cell_length_a 22.083868
_cell_length_b 20.161512
_cell_length_c 5.020856
_cell_angle_alpha 90.000000
_cell_angle_beta 109.791185
_cell_angle_gamma 90.000000
_cell_volume 2103.461893
_symmetry_space_group_name_H-M "C 2/M"
_symmetry_group_IT_number 12
_symmetry_cell_setting 'monoclinic'
loop_
_space_group_symop_operation_xyz
x,y,z
-x,y,-z
-x,-y,-z
x,-y,z
1/2+x,1/2+y,z
1/2-x,1/2+y,-z
1/2-x,1/2-y,-z
1/2+x,1/2-y,z
loop_
_atom_site_type_symbol
_atom_site_label
_atom_site_fract_x
_atom_site_fract_y
_atom_site_fract_z
Si Si1 0.332830 0.500000 0.030727
Si Si2 0.424156 0.427889 0.825331
Si Si3 0.572486 0.850999 0.494824
Si Si4 0.378391 0.074897 0.939099
Si Si5 0.242202 0.500000 0.393467
Si Si6 0.453316 0.705973 0.676282
O O1 0.379643 0.438824 0.018420
O O2 0.275127 0.500000 0.727887
O O3 0.297555 0.500000 0.256057
O O4 0.417682 0.500000 0.672470
O O5 0.409902 0.358426 0.666775
O O6 0.500000 0.423418 0.000000
O O7 0.500000 0.856254 0.500000
O O8 0.617061 0.880987 0.791730
O O9 0.583163 0.773652 0.446732
O O10 0.581954 0.892306 0.240039
O O11 0.402541 0.000000 0.037589
O O12 0.305837 0.061746 0.727571
O O13 0.500000 0.689631 0.500000
O O14 0.500000 0.719535 0.000000
#
# Coordination Sequence:
#
# PCOD9188500 Si02
#       6
#     4   8   8   8   4   8
#     4  10  19  36  60  80 109 142 186 222 268 332
#     4   8  18  36  58  93 113 139 171 230 271 326
#     4  11  20  34  55  82 112 145 179 220 285 333
#     4  10  22  36  54  78 106 150 184 239 263 313
#     4  10  22  38  54  78 104 150 190 226 278 300
#     4  10  20  34  53  81 121 148 167 210 280 347
#
# _framework density 19.016271
#
# number of rings (size 3 to 8) (size 9 to 14) (size 15 to 20)
#    1.200    1.000    0.000    4.800    0.000    6.000 
#    0.000    0.000    0.000    7.200    0.000    0.000 
#    0.000    0.000    0.000    0.000    0.000    0.000 
#
# Total GULP energy -111398.434995 kJ/mol
# GULP energy per Si atom -5569.921750 kJ/mol
# Density = 1.897299 g / cm^3
# Si number density = 19.016271 Si / 1000 Ang^3
#
#
#
# Elastic Constant Matrix: (Units=GPa)
#
#
# Indices 1 2 3 4 5 6 
#
# 1 54.6072 34.2898 5.1532 0.0000 -1.5749 0.0000
# 2 34.2898 147.5978 30.5191 0.0000 -12.7724 0.0000
# 3 5.1532 30.5191 85.2327 0.0000 -4.9064 0.0000
# 4 0.0000 0.0000 0.0000 41.8483 0.0000 -6.6977
# 5 -1.5749 -12.7724 -4.9064 0.0000 33.4236 0.0000
# 6 0.0000 0.0000 0.0000 -6.6977 0.0000 -17.1184
#
#
#
# Elastic Compliance Matrix: (Units=1/GPa)
#
#
# Indices 1 2 3 4 5 6 
#
# 1 0.021488 -0.005173 0.000502 0.000000 -0.000891 0.000000
# 2 -0.005173 0.008764 -0.002669 0.000000 0.002713 0.000000
# 3 0.000502 -0.002669 0.012708 0.000000 0.000869 0.000000
# 4 0.000000 0.000000 0.000000 0.022488 0.000000 -0.008798
# 5 -0.000891 0.002713 0.000869 0.000000 0.031041 0.000000
# 6 0.000000 0.000000 0.000000 -0.008798 0.000000 -0.054974
#
#
# Mechanical properties :
#
#
# Convention : Reuss Voigt Hill
#
# Bulk Modulus (GPa) = 35.36164 47.48465 41.42314
# Shear Modulus (GPa) = 76.19544 26.12909 51.16227
#
# Velocity S-wave (km/s) = 6.33684 3.71082 5.19258
# Velocity P-wave (km/s) = 8.49568 6.58673 7.60137
#
# Compressibility (1/GPa) = 0.02827923
#
# Stress axis : x y z
#
# Youngs Moduli (GPa) = 46.53805 114.10839 78.69074
#
# Poissons Ratio (x) = 0.59027 -0.03949
# Poissons Ratio (y) = 0.24073 0.21003
# Poissons Ratio (z) = -0.02335 0.30456
#
# Static dielectric constant tensor:
#      x y z
#    x 1.646300 0.000000 0.019210 
#    y 0.000000 1.691050 0.000000 
#    z 0.019210 0.000000 1.724140 
# 
# From -- ./inp_files/24616.got.cif
#   From: 2010.05.17/outbox.cif.g08.bks.cpg/sg12_13_cif.got.tgz:24616.got - 2010.06.03 13:09:07.
