data_PCOD9188927
_publ_section_title
;
Structure prediction by ZEFSAII (Michael W. Deem and Ramdas Pophale) SiO2 
 PCOD9188927
Probable space group: C 2/M
;
_chemical_formula_sum "Si O2"
_cell_formula_units_Z 40
_cell_length_a 8.595501
_cell_length_b 16.753419
_cell_length_c 18.963523
_cell_angle_alpha 90.000000
_cell_angle_beta 142.989337
_cell_angle_gamma 90.000000
_cell_volume 1643.856600
_symmetry_space_group_name_H-M "C 2/M"
_symmetry_group_IT_number 12
_symmetry_cell_setting 'monoclinic'
loop_
_space_group_symop_operation_xyz
x,y,z
-x,y,-z
-x,-y,-z
x,-y,z
1/2+x,1/2+y,z
1/2-x,1/2+y,-z
1/2-x,1/2-y,-z
1/2+x,1/2-y,z
loop_
_atom_site_type_symbol
_atom_site_label
_atom_site_fract_x
_atom_site_fract_y
_atom_site_fract_z
Si Si1 0.590272 0.350837 0.352166
Si Si2 0.034357 0.404630 0.091650
Si Si3 0.820901 0.500000 0.501851
Si Si4 0.291774 0.000000 0.638569
Si Si5 0.082562 0.352285 0.810132
Si Si6 0.712525 0.792304 0.711864
O O1 0.317678 0.376282 0.218453
O O2 0.658648 0.419064 0.432251
O O3 0.535876 0.264790 0.367253
O O4 0.792526 0.344786 0.360586
O O5 0.030986 0.500000 0.087508
O O6 0.834281 0.379719 0.081361
O O7 0.000000 0.372724 0.000000
O O8 0.955672 0.500000 0.625546
O O9 0.000000 0.500000 0.500000
O O10 0.381308 0.078574 0.712559
O O11 0.000000 0.000000 0.500000
O O12 0.942355 0.268934 0.776907
O O13 0.249296 0.336383 0.800058
#
# Coordination Sequence:
#
# PCOD9188927 Si02
#       6
#     8   8   4   4   8   8
#     4  10  20  41  58  87 119 154 191 243 283 342
#     4  10  19  36  63  90 114 151 191 235 289 342
#     4  12  24  38  60  87 114 153 202 242 286 337
#     4  12  22  36  58  81 106 151 196 236 284 339
#     4  10  20  39  56  84 113 149 189 238 279 342
#     4   9  20  37  61  79 120 155 183 234 300 330
#
# _framework density 24.333022
#
# number of rings (size 3 to 8) (size 9 to 14) (size 15 to 20)
#    0.000    1.800    2.000    3.600    0.000    0.000 
#    0.000   37.000    0.000    2.400    0.000    0.000 
#    0.000    0.000    0.000    0.000    0.000    0.000 
#
# Total GULP energy -111628.945512 kJ/mol
# GULP energy per Si atom -5581.447276 kJ/mol
# Density = 2.427764 g / cm^3
# Si number density = 24.333022 Si / 1000 Ang^3
#
#
#
# Elastic Constant Matrix: (Units=GPa)
#
#
# Indices 1 2 3 4 5 6 
#
# 1 145.7715 34.2974 33.5566 -0.0007 -61.6783 -0.0008
# 2 34.2974 90.2104 31.5475 -0.0002 -22.8777 -0.0001
# 3 33.5566 31.5475 99.4175 -0.0008 -41.7664 0.0001
# 4 -0.0007 -0.0002 -0.0008 13.4721 -0.0005 -10.1672
# 5 -61.6783 -22.8777 -41.7664 -0.0005 50.8578 -0.0004
# 6 -0.0008 -0.0001 0.0001 -10.1672 -0.0004 32.3312
#
#
#
# Elastic Compliance Matrix: (Units=1/GPa)
#
#
# Indices 1 2 3 4 5 6 
#
# 1 0.015334 -0.001961 0.004410 0.000003 0.021336 0.000002
# 2 -0.001961 0.013168 -0.003095 0.000000 0.001003 0.000000
# 3 0.004410 -0.003095 0.017121 0.000003 0.018017 0.000001
# 4 0.000003 0.000000 0.000003 0.097326 0.000007 0.030606
# 5 0.021336 0.001003 0.018017 0.000007 0.060785 0.000003
# 6 0.000002 0.000000 0.000001 0.030606 0.000003 0.040555
#
#
# Mechanical properties :
#
#
# Convention : Reuss Voigt Hill
#
# Bulk Modulus (GPa) = 22.55810 59.35583 40.95696
# Shear Modulus (GPa) = 19.20440 35.06538 27.13489
#
# Velocity S-wave (km/s) = 2.81238 3.80025 3.34300
# Velocity P-wave (km/s) = 4.45383 6.61074 5.63643
#
# Compressibility (1/GPa) = 0.04432998
#
# Stress axis : x y z
#
# Youngs Moduli (GPa) = 65.21567 75.94413 58.40724
#
# Poissons Ratio (x) = 0.14894 -0.25758
# Poissons Ratio (y) = 0.12790 0.18077
# Poissons Ratio (z) = -0.28760 0.23505
#
# Static dielectric constant tensor:
#      x y z
#    x 2.099980 0.000000 0.005210 
#    y 0.000000 1.939030 0.000000 
#    z 0.005210 0.000000 1.959790 
# 
# From -- ./inp_files/256409.got.cif
#   From: 2010.05.17/outbox.cif.g08.bks.cpg/sg12_129_cif.got.tgz:256409.got - 2010.06.03 13:09:07.
