data_PCOD9188697
_publ_section_title
;
Structure prediction by ZEFSAII (Michael W. Deem and Ramdas Pophale) SiO2 
 PCOD9188697
Probable space group: C 2/M
;
_chemical_formula_sum "Si O2"
_cell_formula_units_Z 48
_cell_length_a 23.696091
_cell_length_b 7.734239
_cell_length_c 20.198359
_cell_angle_alpha 90.000000
_cell_angle_beta 34.608841
_cell_angle_gamma 90.000000
_cell_volume 2102.501703
_symmetry_space_group_name_H-M "C 2/M"
_symmetry_group_IT_number 12
_symmetry_cell_setting 'monoclinic'
loop_
_space_group_symop_operation_xyz
x,y,z
-x,y,-z
-x,-y,-z
x,-y,z
1/2+x,1/2+y,z
1/2-x,1/2+y,-z
1/2-x,1/2-y,-z
1/2+x,1/2-y,z
loop_
_atom_site_type_symbol
_atom_site_label
_atom_site_fract_x
_atom_site_fract_y
_atom_site_fract_z
Si Si1 0.152666 0.293787 0.051401
Si Si2 0.953753 0.210850 0.614231
Si Si3 0.139416 0.789707 0.521457
Si Si4 0.229645 0.295950 0.839175
Si Si5 0.933556 0.203666 0.272889
Si Si6 0.171954 0.799296 0.749386
O O1 0.141211 0.500000 0.062480
O O2 0.049204 0.220708 0.177820
O O3 0.250000 0.250000 0.000000
O O4 0.169557 0.226778 0.960037
O O5 0.841956 0.276082 0.730461
O O6 0.000000 0.267154 0.500000
O O7 0.032844 0.258057 0.593404
O O8 0.949530 0.000000 0.616771
O O9 0.134256 0.726075 0.602095
O O10 0.225625 0.720089 0.390959
O O11 0.147423 0.000000 0.512503
O O12 0.239235 0.500000 0.842670
O O13 0.183301 0.277643 0.811266
O O14 0.908087 0.277236 0.225037
O O15 0.910335 0.000000 0.291639
O O16 0.150151 0.000000 0.782054
#
# Coordination Sequence:
#
# PCOD9188697 Si02
#       6
#     8   8   8   8   8   8
#     4  11  24  42  66  91 118 153 196 247 297 353
#     4   9  15  28  55  84 106 139 188 236 282 338
#     4  10  19  36  61  84 115 159 201 246 297 360
#     4  10  21  39  61  86 117 157 202 240 288 361
#     4  10  23  41  60  84 119 163 204 242 296 358
#     4  11  23  37  56  88 124 156 196 252 306 348
#
# _framework density 22.829947000000001
#
# number of rings (size 3 to 8) (size 9 to 14) (size 15 to 20)
#    0.000    1.833    1.667    2.500    0.000    6.667 
#    0.000    5.000    0.000    0.000    0.000    0.000 
#    0.000    0.000    0.000    0.000    0.000    0.000 
#
# Total GULP energy -134098.599292 kJ/mol
# GULP energy per Si atom -5587.441637 kJ/mol
# Density = 2.277798 g / cm^3
# Si number density = 22.829947 Si / 1000 Ang^3
#
#
#
# Elastic Constant Matrix: (Units=GPa)
#
#
# Indices 1 2 3 4 5 6 
#
# 1 105.3347 -13.2878 29.7642 0.0076 4.2489 -0.0031
# 2 -13.2878 33.7027 -14.6318 0.0096 3.5624 -0.0053
# 3 29.7642 -14.6318 86.7422 0.0247 21.4283 -0.0121
# 4 0.0076 0.0096 0.0247 -7.7965 -0.0157 3.5598
# 5 4.2489 3.5624 21.4283 -0.0157 32.3964 0.0064
# 6 -0.0031 -0.0053 -0.0121 3.5598 0.0064 18.5896
#
#
#
# Elastic Compliance Matrix: (Units=1/GPa)
#
#
# Indices 1 2 3 4 5 6 
#
# 1 0.010767 0.002733 -0.003359 0.000002 0.000509 0.000000
# 2 0.002733 0.034784 0.007128 0.000087 -0.008898 0.000001
# 3 -0.003359 0.007128 0.016696 0.000082 -0.011387 0.000001
# 4 0.000002 0.000087 0.000082 -0.117949 -0.000126 0.022587
# 5 0.000509 -0.008898 -0.011387 -0.000126 0.039311 0.000001
# 6 0.000000 0.000001 0.000001 0.022587 0.000001 0.049468
#
#
# Mechanical properties :
#
#
# Convention : Reuss Voigt Hill
#
# Bulk Modulus (GPa) = 13.28918 25.49652 19.39285
# Shear Modulus (GPa) = 110.72269 23.56691 67.14480
#
# Velocity S-wave (km/s) = 6.97167 3.21640 5.42906
# Velocity P-wave (km/s) = 8.40471 4.99859 6.91466
#
# Compressibility (1/GPa) = 0.07524917
#
# Stress axis : x y z
#
# Youngs Moduli (GPa) = 92.87648 28.74915 59.89325
#
# Poissons Ratio (x) = -0.07856 0.20120
# Poissons Ratio (y) = -0.25381 -0.42690
# Poissons Ratio (z) = 0.31201 -0.20492
#
# Static dielectric constant tensor:
#      x y z
#    x 1.878900 0.000000 0.002750 
#    y 0.000000 1.844280 0.000000 
#    z 0.002750 0.000000 1.848430 
# 
# From -- ./inp_files/327158.got.cif
#   From: 2010.05.17/outbox.cif.g08.bks.cpg/sg12_164_cif.got.tgz:327158.got - 2010.06.03 13:09:07.
