data_PCOD9188456
_publ_section_title
;
Structure prediction by ZEFSAII (Michael W. Deem and Ramdas Pophale) SiO2 
 PCOD9188456
Probable space group: C 2/M
;
_chemical_formula_sum "Si O2"
_cell_formula_units_Z 48
_cell_length_a 13.067357
_cell_length_b 21.131686
_cell_length_c 14.662779
_cell_angle_alpha 90.000000
_cell_angle_beta 138.637881
_cell_angle_gamma 90.000000
_cell_volume 2675.584080
_symmetry_space_group_name_H-M "C 2/M"
_symmetry_group_IT_number 12
_symmetry_cell_setting 'monoclinic'
loop_
_space_group_symop_operation_xyz
x,y,z
-x,y,-z
-x,-y,-z
x,-y,z
1/2+x,1/2+y,z
1/2-x,1/2+y,-z
1/2-x,1/2-y,-z
1/2+x,1/2-y,z
loop_
_atom_site_type_symbol
_atom_site_label
_atom_site_fract_x
_atom_site_fract_y
_atom_site_fract_z
Si Si1 0.366573 0.144723 0.341024
Si Si2 0.649549 0.574679 0.334511
Si Si3 0.326695 0.263172 0.907644
Si Si4 0.340977 0.653609 0.098581
Si Si5 0.087793 0.575590 0.347883
Si Si6 0.539064 0.924278 0.923915
O O1 0.500000 0.167573 0.500000
O O2 0.263347 0.094202 0.327605
O O3 0.256161 0.199542 0.229549
O O4 0.456494 0.112015 0.317271
O O5 0.611686 0.500000 0.304472
O O6 0.499686 0.618813 0.229306
O O7 0.749583 0.586794 0.492906
O O8 0.215891 0.207317 0.868807
O O9 0.500000 0.241042 0.000000
O O10 0.348819 0.312223 0.006112
O O11 0.204622 0.602412 0.006360
O O12 0.058709 0.500000 0.335039
O O13 0.078395 0.594751 0.235629
O O14 0.542780 0.000000 0.927954
O O15 0.500000 0.903230 0.000000
#
# Coordination Sequence:
#
# PCOD9188456 Si02
#       6
#     8   8   8   8   8   8
#     4  10  19  36  59  87 119 149 187 231 288 351
#     4  10  20  36  60  91 120 146 183 236 294 344
#     4  11  22  39  56  80 116 154 195 232 283 334
#     4  11  22  37  57  81 114 154 190 241 279 332
#     4   9  18  34  57  85 119 151 182 233 294 346
#     4  10  20  36  57  82 111 150 197 237 282 336
#
# _framework density 17.940007000000001
#
# number of rings (size 3 to 8) (size 9 to 14) (size 15 to 20)
#    0.000    1.833    3.333    1.500    0.000    2.000 
#    0.000    8.333    0.000    4.000    0.000    0.000 
#    0.000    0.000    0.000    0.000    0.000    0.000 
#
# Total GULP energy -133876.507235 kJ/mol
# GULP energy per Si atom -5578.187801 kJ/mol
# Density = 1.789917 g / cm^3
# Si number density = 17.940007 Si / 1000 Ang^3
#
#
#
# Elastic Constant Matrix: (Units=GPa)
#
#
# Indices 1 2 3 4 5 6 
#
# 1 85.5892 40.9047 59.8916 0.0000 -7.3756 0.0000
# 2 40.9047 63.5230 72.1753 0.0000 1.1785 0.0000
# 3 59.8916 72.1753 135.7596 0.0000 -2.4125 0.0000
# 4 0.0000 0.0000 0.0000 2.2179 0.0000 12.4307
# 5 -7.3756 1.1785 -2.4125 0.0000 33.8878 0.0000
# 6 0.0000 0.0000 0.0000 12.4307 0.0000 26.7044
#
#
#
# Elastic Compliance Matrix: (Units=1/GPa)
#
#
# Indices 1 2 3 4 5 6 
#
# 1 0.018396 -0.007015 -0.004316 0.000000 0.003941 0.000000
# 2 -0.007015 0.042719 -0.019695 0.000000 -0.004415 0.000000
# 3 -0.004316 -0.019695 0.019761 0.000000 0.001152 0.000000
# 4 0.000000 0.000000 0.000000 -0.280229 0.000000 0.130444
# 5 0.003941 -0.004415 0.001152 0.000000 0.030602 0.000000
# 6 0.000000 0.000000 0.000000 0.130444 0.000000 -0.023274
#
#
# Mechanical properties :
#
#
# Convention : Reuss Voigt Hill
#
# Bulk Modulus (GPa) = 53.12313 70.09055 61.60684
# Shear Modulus (GPa) = -40.42103 20.02203 -10.19950
#
# Velocity S-wave (km/s) = -4.75186 3.34436 -2.38698
# Velocity P-wave (km/s) = 0.65652 7.35304 5.17862
#
# Compressibility (1/GPa) = 0.01882419
#
# Stress axis : x y z
#
# Youngs Moduli (GPa) = 54.35922 23.40901 50.60467
#
# Poissons Ratio (x) = 0.16421 0.21842
# Poissons Ratio (y) = 0.38133 0.99664
# Poissons Ratio (z) = 0.23462 0.46103
#
# Static dielectric constant tensor:
#      x y z
#    x 1.613200 0.000000 -0.023060 
#    y 0.000000 1.599010 0.000000 
#    z -0.023060 0.000000 1.609220 
# 
# From -- ./inp_files/50614.got.cif
#   From: 2010.05.17/outbox.cif.g08.bks.cpg/sg12_26_cif.got.tgz:50614.got - 2010.06.03 13:09:07.
