data_PCOD9188313
_publ_section_title
;
Structure prediction by ZEFSAII (Michael W. Deem and Ramdas Pophale) SiO2 
 PCOD9188313
Probable space group: C 2/M
;
_chemical_formula_sum "Si O2"
_cell_formula_units_Z 48
_cell_length_a 14.922580
_cell_length_b 19.438670
_cell_length_c 9.023460
_cell_angle_alpha 90.000000
_cell_angle_beta 113.665279
_cell_angle_gamma 90.000000
_cell_volume 2397.366687
_symmetry_space_group_name_H-M "C 2/M"
_symmetry_group_IT_number 12
_symmetry_cell_setting 'monoclinic'
loop_
_space_group_symop_operation_xyz
x,y,z
-x,y,-z
-x,-y,-z
x,-y,z
1/2+x,1/2+y,z
1/2-x,1/2+y,-z
1/2-x,1/2-y,-z
1/2+x,1/2-y,z
loop_
_atom_site_type_symbol
_atom_site_label
_atom_site_fract_x
_atom_site_fract_y
_atom_site_fract_z
Si Si1 0.279459 0.830639 0.707322
Si Si2 0.695275 0.791049 0.831516
Si Si3 0.747748 0.582992 0.970422
Si Si4 0.580593 0.640752 0.423579
Si Si5 0.032969 0.076687 0.870414
Si Si6 0.020572 0.729535 0.192259
O O1 0.235289 0.754596 0.722009
O O2 0.295827 0.880329 0.860438
O O3 0.191077 0.860695 0.551980
O O4 0.387637 0.820406 0.715363
O O5 0.580101 0.786203 0.788872
O O6 0.750000 0.750000 0.000000
O O7 0.722612 0.871618 0.866128
O O8 0.763127 0.500000 0.985876
O O9 0.633698 0.604025 0.872159
O O10 0.500000 0.649143 0.500000
O O11 0.549118 0.575307 0.307399
O O12 0.558341 0.699580 0.288025
O O13 0.063283 0.000000 0.934333
O O14 0.000000 0.111465 0.000000
O O15 0.000000 0.730376 0.000000
#
# Coordination Sequence:
#
# PCOD9188313 Si02
#       6
#     8   8   8   8   8   8
#     4  11  23  38  56  91 119 154 194 245 305 346
#     4  10  19  36  58  85 116 150 197 244 295 348
#     4  10  20  36  59  87 118 152 198 247 291 347
#     4  12  22  36  57  90 123 153 187 244 305 345
#     4  10  22  38  60  88 118 159 199 232 289 365
#     4  12  22  37  61  82 116 154 199 243 288 351
#
# _framework density 20.021968000000001
#
# number of rings (size 3 to 8) (size 9 to 14) (size 15 to 20)
#    0.000    1.167    6.667    2.000    2.333    1.000 
#    0.000    1.667    0.000    0.000    0.000    2.333 
#    0.000    0.000    0.000    0.000    0.000    0.000 
#
# Total GULP energy -133602.177607 kJ/mol
# GULP energy per Si atom -5566.757400 kJ/mol
# Density = 1.997640 g / cm^3
# Si number density = 20.021968 Si / 1000 Ang^3
#
#
#
# Elastic Constant Matrix: (Units=GPa)
#
#
# Indices 1 2 3 4 5 6 
#
# 1 117.4658 16.6565 9.3610 0.0000 21.4411 0.0000
# 2 16.6565 99.6074 -0.5620 0.0000 1.0681 0.0000
# 3 9.3610 -0.5620 33.2856 0.0000 2.3232 0.0000
# 4 0.0000 0.0000 0.0000 7.3183 0.0000 34.3252
# 5 21.4411 1.0681 2.3232 0.0000 21.8882 0.0000
# 6 0.0000 0.0000 0.0000 34.3252 0.0000 -47.4489
#
#
#
# Elastic Compliance Matrix: (Units=1/GPa)
#
#
# Indices 1 2 3 4 5 6 
#
# 1 0.010817 -0.001712 -0.002355 0.000000 -0.010262 0.000000
# 2 -0.001712 0.010317 0.000578 0.000000 0.001112 0.000000
# 3 -0.002355 0.000578 0.030784 0.000000 -0.000989 0.000000
# 4 0.000000 0.000000 0.000000 0.031105 0.000000 0.022501
# 5 -0.010262 0.001112 -0.000989 0.000000 0.055790 0.000000
# 6 0.000000 0.000000 0.000000 0.022501 0.000000 -0.004797
#
#
# Mechanical properties :
#
#
# Convention : Reuss Voigt Hill
#
# Bulk Modulus (GPa) = 22.25164 33.47442 27.86303
# Shear Modulus (GPa) = 32.05695 11.34507 21.70101
#
# Velocity S-wave (km/s) = 4.00570 2.38298 3.29577
# Velocity P-wave (km/s) = 5.70368 4.93220 5.33191
#
# Compressibility (1/GPa) = 0.04494050
#
# Stress axis : x y z
#
# Youngs Moduli (GPa) = 92.44953 96.92705 32.48437
#
# Poissons Ratio (x) = 0.16594 0.07649
# Poissons Ratio (y) = 0.15828 -0.01878
# Poissons Ratio (z) = 0.21769 -0.05603
#
# Static dielectric constant tensor:
#      x y z
#    x 1.808730 0.000000 -0.054130 
#    y 0.000000 1.774240 0.000000 
#    z -0.054130 0.000000 1.755630 
# 
# From -- ./inp_files/63374.got.cif
#   From: 2010.05.17/outbox.cif.g08.bks.cpg/sg12_32_cif.got.tgz:63374.got - 2010.06.03 13:09:07.
