data_PCOD9188610
_publ_section_title
;
Structure prediction by ZEFSAII (Michael W. Deem and Ramdas Pophale) SiO2 
 PCOD9188610
Probable space group: C 2/M
;
_chemical_formula_sum "Si O2"
_cell_formula_units_Z 56
_cell_length_a 9.176400
_cell_length_b 18.782546
_cell_length_c 24.251201
_cell_angle_alpha 90.000000
_cell_angle_beta 135.920524
_cell_angle_gamma 90.000000
_cell_volume 2907.731347
_symmetry_space_group_name_H-M "C 2/M"
_symmetry_group_IT_number 12
_symmetry_cell_setting 'monoclinic'
loop_
_space_group_symop_operation_xyz
x,y,z
-x,y,-z
-x,-y,-z
x,-y,z
1/2+x,1/2+y,z
1/2-x,1/2+y,-z
1/2-x,1/2-y,-z
1/2+x,1/2-y,z
loop_
_atom_site_type_symbol
_atom_site_label
_atom_site_fract_x
_atom_site_fract_y
_atom_site_fract_z
Si Si1 0.323752 0.085366 0.101170
Si Si2 0.503037 0.081036 0.343579
Si Si3 0.922724 0.086496 0.069421
Si Si4 0.240328 0.795218 0.552276
Si Si5 0.927820 0.789385 0.289281
Si Si6 0.283971 0.916503 0.719280
Si Si7 0.589084 0.666335 0.216134
O O1 0.135649 0.101295 0.092493
O O2 0.541836 0.105355 0.187787
O O3 0.325729 0.000000 0.098597
O O4 0.262295 0.108483 0.022979
O O5 0.631317 0.132133 0.418277
O O6 0.606991 0.088376 0.310865
O O7 0.264296 0.106133 0.275108
O O8 0.517303 0.000000 0.364182
O O9 0.941464 0.133952 0.128733
O O10 0.913871 0.000000 0.077422
O O11 0.250000 0.750000 0.500000
O O12 0.365806 0.752550 0.633975
O O13 0.000000 0.809224 0.500000
O O14 0.891890 0.857345 0.319254
O O15 0.731798 0.734896 0.239193
O O16 0.964764 0.815102 0.237422
O O17 0.225423 0.000000 0.711344
#
# Coordination Sequence:
#
# PCOD9188610 Si02
#       7
#     8   8   8   8   8   8   8
#     4   8  15  29  55  86 114 147 189 237 284 329
#     4  10  20  36  62  90 113 144 188 232 281 340
#     4   9  16  30  56  86 112 149 195 236 281 331
#     4  11  22  40  61  82 111 148 185 230 288 345
#     4  11  24  39  58  83 113 150 194 232 287 346
#     4  10  19  36  60  87 117 148 188 239 285 333
#     4  11  21  36  57  81 116 155 192 236 278 337
#
# _framework density 19.259001000000001
#
# number of rings (size 3 to 8) (size 9 to 14) (size 15 to 20)
#    0.000    2.000    1.429    5.571    0.000    1.429 
#    0.000    2.143    0.000    4.286    0.000    0.000 
#    0.000    0.000    0.000    0.000    0.000    0.000 
#
# Total GULP energy -156252.520357 kJ/mol
# GULP energy per Si atom -5580.447156 kJ/mol
# Density = 1.921517 g / cm^3
# Si number density = 19.259001 Si / 1000 Ang^3
#
#
#
# Elastic Constant Matrix: (Units=GPa)
#
#
# Indices 1 2 3 4 5 6 
#
# 1 28.3662 11.5523 -4.1264 0.0000 -12.0465 0.0000
# 2 11.5523 100.6880 35.3063 0.0000 -9.1235 0.0000
# 3 -4.1264 35.3063 46.6725 0.0000 -13.2058 0.0000
# 4 0.0000 0.0000 0.0000 29.4302 0.0000 -7.6913
# 5 -12.0465 -9.1235 -13.2058 0.0000 26.7336 0.0000
# 6 0.0000 0.0000 0.0000 -7.6913 0.0000 25.7674
#
#
#
# Elastic Compliance Matrix: (Units=1/GPa)
#
#
# Indices 1 2 3 4 5 6 
#
# 1 0.057817 -0.011862 0.023611 0.000000 0.033668 0.000000
# 2 -0.011862 0.015957 -0.015218 0.000000 -0.007417 0.000000
# 3 0.023611 -0.015218 0.042508 0.000000 0.026444 0.000000
# 4 0.000000 0.000000 0.000000 0.036853 0.000000 0.011000
# 5 0.033668 -0.007417 0.026444 0.000000 0.063109 0.000000
# 6 0.000000 0.000000 0.000000 0.011000 0.000000 0.042092
#
#
# Mechanical properties :
#
#
# Convention : Reuss Voigt Hill
#
# Bulk Modulus (GPa) = 9.14546 29.02123 19.08335
# Shear Modulus (GPa) = 16.57153 25.25256 20.91204
#
# Velocity S-wave (km/s) = 2.93654 3.62499 3.29877
# Velocity P-wave (km/s) = 4.03195 5.71160 4.94363
#
# Compressibility (1/GPa) = 0.10934384
#
# Stress axis : x y z
#
# Youngs Moduli (GPa) = 17.29587 62.66886 23.52513
#
# Poissons Ratio (x) = 0.74339 -0.55546
# Poissons Ratio (y) = 0.20517 0.35801
# Poissons Ratio (z) = -0.40838 0.95371
#
# Static dielectric constant tensor:
#      x y z
#    x 1.708190 0.000000 0.043810 
#    y 0.000000 1.681950 0.000000 
#    z 0.043810 0.000000 1.740360 
# 
# From -- ./inp_files/333368.got.cif
#   From: 2010.05.17/outbox.cif.g08.bks.cpg/sg12_167_cif.got.tgz:333368.got - 2010.06.03 13:09:07.
