data_PCOD9188076
_publ_section_title
;
Structure prediction by ZEFSAII (Michael W. Deem and Ramdas Pophale) SiO2 
 PCOD9188076
Probable space group: C 2/M
;
_chemical_formula_sum "Si O2"
_cell_formula_units_Z 56
_cell_length_a 15.510785
_cell_length_b 27.349861
_cell_length_c 15.673235
_cell_angle_alpha 90.000000
_cell_angle_beta 151.389051
_cell_angle_gamma 90.000000
_cell_volume 3183.873255
_symmetry_space_group_name_H-M "C 2/M"
_symmetry_group_IT_number 12
_symmetry_cell_setting 'monoclinic'
loop_
_space_group_symop_operation_xyz
x,y,z
-x,y,-z
-x,-y,-z
x,-y,z
1/2+x,1/2+y,z
1/2-x,1/2+y,-z
1/2-x,1/2-y,-z
1/2+x,1/2-y,z
loop_
_atom_site_type_symbol
_atom_site_label
_atom_site_fract_x
_atom_site_fract_y
_atom_site_fract_z
Si Si1 0.295101 0.610215 0.297245
Si Si2 0.572658 0.191670 0.472843
Si Si3 0.083384 0.443292 0.260501
Si Si4 0.767550 0.799180 0.385225
Si Si5 0.780124 0.896499 0.082063
Si Si6 0.173601 0.873169 0.416522
Si Si7 0.374707 0.796382 0.126054
O O1 0.500000 0.596591 0.500000
O O2 0.159514 0.578760 0.237557
O O3 0.268468 0.666741 0.302616
O O4 0.270344 0.603070 0.176100
O O5 0.500000 0.173726 0.500000
O O6 0.643045 0.246922 0.546679
O O7 0.732099 0.157054 0.576540
O O8 0.424934 0.195118 0.268905
O O9 0.128123 0.500000 0.306261
O O10 0.183572 0.410497 0.418298
O O11 0.869709 0.434449 0.079772
O O12 0.863447 0.832563 0.541250
O O13 0.566439 0.791063 0.245282
O O14 0.988400 0.900834 0.236787
O O15 0.717143 0.844255 0.991931
O O16 0.250000 0.750000 0.000000
#
# Coordination Sequence:
#
# PCOD9188076 Si02
#       7
#     8   8   8   8   8   8   8
#     4  11  21  37  58  88 123 166 197 244 289 355
#     4  11  22  38  60  87 122 159 205 254 299 353
#     4  11  24  41  62  90 124 159 205 250 300 362
#     4  10  19  36  55  83 124 161 201 230 291 358
#     4  12  21  39  62  83 123 162 202 243 298 354
#     4  10  21  42  60  84 122 163 192 249 308 356
#     4  11  22  35  56  86 120 162 204 248 297 358
#
# _framework density 17.588639000000001
#
# number of rings (size 3 to 8) (size 9 to 14) (size 15 to 20)
#    0.000    1.143    7.143    4.286    2.000    2.000 
#    0.000    2.143    0.000    0.429    0.000    1.000 
#    0.000    0.000    0.000    0.000    0.000    0.000 
#
# Total GULP energy -156372.447556 kJ/mol
# GULP energy per Si atom -5584.730270 kJ/mol
# Density = 1.754861 g / cm^3
# Si number density = 17.588639 Si / 1000 Ang^3
#
#
#
# Elastic Constant Matrix: (Units=GPa)
#
#
# Indices 1 2 3 4 5 6 
#
# 1 63.5876 22.4295 26.3946 0.0000 6.3444 0.0002
# 2 22.4295 88.6237 12.1799 0.0000 2.1690 0.0003
# 3 26.3946 12.1799 86.2413 0.0000 16.8134 0.0014
# 4 0.0000 0.0000 0.0000 18.3850 0.0000 10.8453
# 5 6.3444 2.1690 16.8134 0.0000 20.0138 0.0002
# 6 0.0002 0.0003 0.0014 10.8453 0.0002 49.5576
#
#
#
# Elastic Compliance Matrix: (Units=1/GPa)
#
#
# Indices 1 2 3 4 5 6 
#
# 1 0.019458 -0.004191 -0.005082 0.000000 -0.001445 0.000000
# 2 -0.004191 0.012410 -0.000558 0.000000 0.000453 0.000000
# 3 -0.005082 -0.000558 0.015431 0.000000 -0.011292 0.000000
# 4 0.000000 0.000000 0.000000 0.062455 0.000000 -0.013668
# 5 -0.001445 0.000453 -0.011292 0.000000 0.059861 0.000000
# 6 0.000000 0.000000 0.000000 -0.013668 0.000000 0.023170
#
#
# Mechanical properties :
#
#
# Convention : Reuss Voigt Hill
#
# Bulk Modulus (GPa) = 36.18275 40.05117 38.11696
# Shear Modulus (GPa) = 22.55726 29.42120 25.98923
#
# Velocity S-wave (km/s) = 3.58507 4.09435 3.84815
# Velocity P-wave (km/s) = 6.14437 6.72102 6.43915
#
# Compressibility (1/GPa) = 0.02763748
#
# Stress axis : x y z
#
# Youngs Moduli (GPa) = 51.39248 80.58044 64.80493
#
# Poissons Ratio (x) = 0.33770 0.32932
# Poissons Ratio (y) = 0.21538 0.03618
# Poissons Ratio (z) = 0.26116 0.04499
#
# Static dielectric constant tensor:
#      x y z
#    x 1.601710 0.000000 0.018680 
#    y 0.000000 1.572490 0.000000 
#    z 0.018680 0.000000 1.634600 
# 
# From -- ./inp_files/219132.got.cif
#   From: 2010.05.17/outbox.cif.g08.bks.cpg/sg12_110_cif.got.tgz:219132.got - 2010.06.03 13:09:07.
