data_PCOD9188259
_publ_section_title
;
Structure prediction by ZEFSAII (Michael W. Deem and Ramdas Pophale) SiO2 
 PCOD9188259
Probable space group: C 2/M
;
_chemical_formula_sum "Si O2"
_cell_formula_units_Z 48
_cell_length_a 16.983157
_cell_length_b 14.069195
_cell_length_c 11.101691
_cell_angle_alpha 90.000000
_cell_angle_beta 92.604417
_cell_angle_gamma 90.000000
_cell_volume 2649.890822
_symmetry_space_group_name_H-M "C 2/M"
_symmetry_group_IT_number 12
_symmetry_cell_setting 'monoclinic'
loop_
_space_group_symop_operation_xyz
x,y,z
-x,y,-z
-x,-y,-z
x,-y,z
1/2+x,1/2+y,z
1/2-x,1/2+y,-z
1/2-x,1/2-y,-z
1/2+x,1/2-y,z
loop_
_atom_site_type_symbol
_atom_site_label
_atom_site_fract_x
_atom_site_fract_y
_atom_site_fract_z
Si Si1 0.776714 0.109579 0.348743
Si Si2 0.487039 0.816792 0.796172
Si Si3 0.875518 0.300206 0.017659
Si Si4 0.893817 0.609444 0.565814
Si Si5 0.561875 0.714941 0.594342
Si Si6 0.286319 0.609268 0.063008
O O1 0.694498 0.139683 0.402197
O O2 0.854433 0.165922 0.389127
O O3 0.768760 0.114359 0.204157
O O4 0.788321 0.000000 0.383371
O O5 0.421194 0.801124 0.893484
O O6 0.447479 0.881601 0.690114
O O7 0.517938 0.728162 0.718393
O O8 0.565147 0.842788 0.877978
O O9 0.794854 0.359725 0.006994
O O10 0.850609 0.190834 0.041081
O O11 0.894751 0.500000 0.526078
O O12 0.920833 0.681930 0.464726
O O13 0.500000 0.666075 0.500000
O O14 0.308173 0.500000 0.035370
#
# Coordination Sequence:
#
# PCOD9188259 Si02
#       6
#     8   8   8   8   8   8
#     4  10  19  36  58  81 108 145 189 226 268 326
#     4  10  20  34  54  83 112 146 178 222 279 321
#     4  10  20  36  58  81 115 143 181 228 270 325
#     4  10  21  37  58  82 111 145 185 225 271 330
#     4  10  21  36  56  80 111 146 183 226 279 318
#     4  10  20  36  58  82 110 149 186 220 270 327
#
# _framework density 18.113954
#
# number of rings (size 3 to 8) (size 9 to 14) (size 15 to 20)
#    0.000    2.000    3.333    0.500    0.000    4.000 
#    0.000    4.167    0.000    1.000    0.000    0.000 
#    0.000    0.000    0.000    0.000    0.000    0.000 
#
# Total GULP energy -133679.280032 kJ/mol
# GULP energy per Si atom -5569.970001 kJ/mol
# Density = 1.807273 g / cm^3
# Si number density = 18.113954 Si / 1000 Ang^3
#
#
#
# Elastic Constant Matrix: (Units=GPa)
#
#
# Indices 1 2 3 4 5 6 
#
# 1 66.4807 3.8312 -2.2810 0.0000 18.6882 0.0000
# 2 3.8312 40.1546 -11.8998 0.0000 8.7574 0.0000
# 3 -2.2810 -11.8998 42.1934 0.0000 8.4601 0.0000
# 4 0.0000 0.0000 0.0000 -2.2350 0.0000 125.5196
# 5 18.6882 8.7574 8.4601 0.0000 34.3726 0.0000
# 6 0.0000 0.0000 0.0000 125.5196 0.0000 -786.3101
#
#
#
# Elastic Compliance Matrix: (Units=1/GPa)
#
#
# Indices 1 2 3 4 5 6 
#
# 1 0.018248 0.001848 0.003778 0.000000 -0.011322 0.000000
# 2 0.001848 0.030492 0.011001 0.000000 -0.011481 0.000000
# 3 0.003778 0.011001 0.029434 0.000000 -0.012101 0.000000
# 4 0.000000 0.000000 0.000000 0.056174 0.000000 0.008967
# 5 -0.011322 -0.011481 -0.012101 0.000000 0.041152 0.000000
# 6 0.000000 0.000000 0.000000 0.008967 0.000000 0.000160
#
#
# Mechanical properties :
#
#
# Convention : Reuss Voigt Hill
#
# Bulk Modulus (GPa) = 8.97454 14.23662 11.60558
# Shear Modulus (GPa) = 27.84778 -140.22263 -56.18743
#
# Velocity S-wave (km/s) = 3.92518 -8.80792 -5.57550
# Velocity P-wave (km/s) = 5.05054 9.77562 5.91839
#
# Compressibility (1/GPa) = 0.11142631
#
# Stress axis : x y z
#
# Youngs Moduli (GPa) = 54.80146 32.79592 33.97469
#
# Poissons Ratio (x) = -0.06060 -0.12834
# Poissons Ratio (y) = -0.10125 -0.37377
# Poissons Ratio (z) = -0.20702 -0.36080
#
# Static dielectric constant tensor:
#      x y z
#    x 1.645360 0.000000 0.017760 
#    y 0.000000 1.618150 0.000000 
#    z 0.017760 0.000000 1.624030 
# 
# From -- ./inp_files/142869.got.cif
#   From: 2010.05.17/outbox.cif.g08.bks.cpg/sg12_72_cif.got.tgz:142869.got - 2010.06.03 13:09:07.
