data_PCOD9188957
_publ_section_title
;
Structure prediction by ZEFSAII (Michael W. Deem and Ramdas Pophale) SiO2 
 PCOD9188957
Probable space group: C 2/M
;
_chemical_formula_sum "Si O2"
_cell_formula_units_Z 64
_cell_length_a 14.962934
_cell_length_b 28.529286
_cell_length_c 9.572140
_cell_angle_alpha 90.000000
_cell_angle_beta 134.439381
_cell_angle_gamma 90.000000
_cell_volume 2917.492948
_symmetry_space_group_name_H-M "C 2/M"
_symmetry_group_IT_number 12
_symmetry_cell_setting 'monoclinic'
loop_
_space_group_symop_operation_xyz
x,y,z
-x,y,-z
-x,-y,-z
x,-y,z
1/2+x,1/2+y,z
1/2-x,1/2+y,-z
1/2-x,1/2-y,-z
1/2+x,1/2-y,z
loop_
_atom_site_type_symbol
_atom_site_label
_atom_site_fract_x
_atom_site_fract_y
_atom_site_fract_z
Si Si1 0.140205 0.648743 0.709977
Si Si2 0.267142 0.125120 0.582227
Si Si3 0.714487 0.053259 0.899581
Si Si4 0.628667 0.388372 0.717477
Si Si5 0.371656 0.218336 0.774766
Si Si6 0.035987 0.553123 0.190897
Si Si7 0.371415 0.677776 0.774865
Si Si8 0.246872 0.799913 0.921674
O O1 0.181991 0.594247 0.755147
O O2 0.251652 0.674261 0.746997
O O3 0.000000 0.655046 0.500000
O O4 0.151780 0.668713 0.881633
O O5 0.228759 0.114667 0.699527
O O6 0.347535 0.172919 0.656915
O O7 0.354173 0.083726 0.625029
O O8 0.146601 0.137227 0.358446
O O9 0.588122 0.051994 0.853667
O O10 0.738917 0.000000 0.877576
O O11 0.824314 0.073740 0.118911
O O12 0.500000 0.399211 0.500000
O O13 0.631010 0.336442 0.791115
O O14 0.370964 0.269887 0.708350
O O15 0.270842 0.213440 0.787920
O O16 0.500000 0.213946 0.000000
O O17 0.080454 0.500000 0.216887
O O18 0.000000 0.573518 0.000000
O O19 0.500000 0.673088 0.000000
O O20 0.250000 0.750000 0.000000
#
# Coordination Sequence:
#
# PCOD9188957 Si02
#       8
#     8   8   8   8   8   8   8   8
#     4  11  24  41  64  92 121 165 212 253 308 366
#     4  11  22  37  62  89 121 159 205 249 304 369
#     4  10  22  41  66  92 121 154 199 260 317 366
#     4  10  23  36  60  91 119 159 202 252 308 363
#     4  10  22  37  60  90 121 161 206 258 308 357
#     4  10  19  36  63  95 121 145 190 258 320 359
#     4  11  25  42  58  86 129 170 203 249 303 370
#     4  10  21  40  58  83 123 162 206 258 301 361
#
# _framework density 21.936641000000002
#
# number of rings (size 3 to 8) (size 9 to 14) (size 15 to 20)
#    0.000    1.625    2.500    1.500    8.750    1.000 
#    0.000    0.625    0.000    0.750    0.000    0.000 
#    0.000    0.000    0.000    0.000    0.000    0.000 
#
# Total GULP energy -178633.933581 kJ/mol
# GULP energy per Si atom -5582.310424 kJ/mol
# Density = 2.188671 g / cm^3
# Si number density = 21.936641 Si / 1000 Ang^3
#
#
#
# Elastic Constant Matrix: (Units=GPa)
#
#
# Indices 1 2 3 4 5 6 
#
# 1 29.7846 3.4106 3.6686 0.0000 1.6101 0.0000
# 2 3.4106 127.2791 45.5493 0.0000 9.9351 0.0000
# 3 3.6686 45.5493 124.6292 0.0000 15.2510 0.0000
# 4 0.0000 0.0000 0.0000 29.1249 0.0000 0.2927
# 5 1.6101 9.9351 15.2510 0.0000 30.1483 0.0000
# 6 0.0000 0.0000 0.0000 0.2927 0.0000 19.0118
#
#
#
# Elastic Compliance Matrix: (Units=1/GPa)
#
#
# Indices 1 2 3 4 5 6 
#
# 1 0.033788 -0.000581 -0.000623 0.000000 -0.001298 0.000000
# 2 -0.000581 0.009104 -0.003141 0.000000 -0.001380 0.000000
# 3 -0.000623 -0.003141 0.009657 0.000000 -0.003817 0.000000
# 4 0.000000 0.000000 0.000000 0.034340 0.000000 -0.000529
# 5 -0.001298 -0.001380 -0.003817 0.000000 0.035624 0.000000
# 6 0.000000 0.000000 0.000000 -0.000529 0.000000 0.052607
#
#
# Mechanical properties :
#
#
# Convention : Reuss Voigt Hill
#
# Bulk Modulus (GPa) = 22.80096 42.99442 32.89769
# Shear Modulus (GPa) = 25.19753 30.92794 28.06274
#
# Velocity S-wave (km/s) = 3.39285 3.75891 3.58056
# Velocity P-wave (km/s) = 5.07594 6.20331 5.66773
#
# Compressibility (1/GPa) = 0.04385781
#
# Stress axis : x y z
#
# Youngs Moduli (GPa) = 29.59640 109.83865 103.54807
#
# Poissons Ratio (x) = 0.06381 0.06456
# Poissons Ratio (y) = 0.01719 0.32529
# Poissons Ratio (z) = 0.01845 0.34505
#
# Static dielectric constant tensor:
#      x y z
#    x -5.763250 0.000000 -0.264540 
#    y 0.000000 1.828770 0.000000 
#    z -0.264540 0.000000 1.825460 
# 
# From -- ./inp_files/161250.got.cif
#   From: 2010.05.17/outbox.cif.g08.bks.cpg/sg12_81_cif.got.tgz:161250.got - 2010.06.03 13:09:07.
