data_PCOD9188419
_publ_section_title
;
Structure prediction by ZEFSAII (Michael W. Deem and Ramdas Pophale) SiO2 
 PCOD9188419
Probable space group: C 2/M
;
_chemical_formula_sum "Si O2"
_cell_formula_units_Z 64
_cell_length_a 14.750985
_cell_length_b 16.018466
_cell_length_c 14.379719
_cell_angle_alpha 90.000000
_cell_angle_beta 121.454714
_cell_angle_gamma 90.000000
_cell_volume 2898.466571
_symmetry_space_group_name_H-M "C 2/M"
_symmetry_group_IT_number 12
_symmetry_cell_setting 'monoclinic'
loop_
_space_group_symop_operation_xyz
x,y,z
-x,y,-z
-x,-y,-z
x,-y,z
1/2+x,1/2+y,z
1/2-x,1/2+y,-z
1/2-x,1/2-y,-z
1/2+x,1/2-y,z
loop_
_atom_site_type_symbol
_atom_site_label
_atom_site_fract_x
_atom_site_fract_y
_atom_site_fract_z
Si Si1 0.642455 0.899930 0.893707
Si Si2 0.271064 0.407724 0.422112
Si Si3 0.612264 0.312839 0.377310
Si Si4 0.945236 0.094284 0.824884
Si Si5 0.267226 0.290436 0.808003
Si Si6 0.157811 0.097999 0.872431
Si Si7 0.093276 0.668222 0.211903
Si Si8 0.102381 0.814163 0.650697
O O1 0.693863 0.833265 0.847960
O O2 0.525180 0.867195 0.858448
O O3 0.637928 0.000000 0.862613
O O4 0.726595 0.896154 0.022389
O O5 0.277290 0.500000 0.463892
O O6 0.283029 0.339786 0.510682
O O7 0.170087 0.399242 0.300805
O O8 0.368335 0.385844 0.405588
O O9 0.579953 0.393706 0.298373
O O10 0.601389 0.241529 0.294156
O O11 0.519854 0.292735 0.402110
O O12 0.851161 0.138660 0.827416
O O13 0.066483 0.126888 0.896888
O O14 0.946438 0.000000 0.855860
O O15 0.349523 0.210216 0.847254
O O16 0.181992 0.264116 0.681833
O O17 0.140437 0.152711 0.772296
O O18 0.137579 0.000000 0.841378
#
# Coordination Sequence:
#
# PCOD9188419 Si02
#       8
#     8   8   8   8   8   8   8   8
#     4  11  22  41  66  89 122 168 213 252 307 373
#     4  11  22  35  59  90 117 154 203 250 303 372
#     4  10  19  36  59  84 115 159 199 247 307 367
#     4   9  18  35  56  83 120 154 197 255 306 353
#     4  10  21  37  57  88 120 159 204 252 306 360
#     4   9  20  37  59  86 120 160 200 253 307 355
#     4  10  22  41  60  88 124 161 201 258 314 362
#     4  10  20  37  56  86 122 156 199 249 306 364
#
# _framework density 22.080642000000001
#
# number of rings (size 3 to 8) (size 9 to 14) (size 15 to 20)
#    0.000    2.000    1.250    2.250    0.000    3.000 
#    2.250    3.750    0.000    6.750    0.000    6.125 
#    0.000    0.000    0.000    0.000    0.000    0.000 
#
# Total GULP energy -178154.717040 kJ/mol
# GULP energy per Si atom -5567.334908 kJ/mol
# Density = 2.203039 g / cm^3
# Si number density = 22.080642 Si / 1000 Ang^3
#
#
#
# Elastic Constant Matrix: (Units=GPa)
#
#
# Indices 1 2 3 4 5 6 
#
# 1 102.2549 26.7995 5.6026 0.0000 23.1010 0.0000
# 2 26.7995 100.0475 25.3292 0.0000 3.4775 0.0000
# 3 5.6026 25.3292 52.4342 0.0000 21.0387 0.0000
# 4 0.0000 0.0000 0.0000 21.9110 0.0000 4.0255
# 5 23.1010 3.4775 21.0387 0.0000 27.1216 0.0000
# 6 0.0000 0.0000 0.0000 4.0255 0.0000 25.7465
#
#
#
# Elastic Compliance Matrix: (Units=1/GPa)
#
#
# Indices 1 2 3 4 5 6 
#
# 1 0.014988 -0.005537 0.008582 0.000000 -0.018713 0.000000
# 2 -0.005537 0.013753 -0.010507 0.000000 0.011103 0.000000
# 3 0.008582 -0.010507 0.037201 0.000000 -0.034820 0.000000
# 4 0.000000 0.000000 0.000000 0.046989 0.000000 -0.007347
# 5 -0.018713 0.011103 -0.034820 0.000000 0.078397 0.000000
# 6 0.000000 0.000000 0.000000 -0.007347 0.000000 0.039989
#
#
# Mechanical properties :
#
#
# Convention : Reuss Voigt Hill
#
# Bulk Modulus (GPa) = 19.60103 41.13323 30.36713
# Shear Modulus (GPa) = 18.99358 28.08948 23.54153
#
# Velocity S-wave (km/s) = 2.93608 3.57056 3.26876
# Velocity P-wave (km/s) = 4.51557 5.97224 5.29425
#
# Compressibility (1/GPa) = 0.05101773
#
# Stress axis : x y z
#
# Youngs Moduli (GPa) = 66.71973 72.71385 26.88086
#
# Poissons Ratio (x) = 0.40262 -0.23069
# Poissons Ratio (y) = 0.36943 0.28243
# Poissons Ratio (z) = -0.57257 0.76399
#
# Static dielectric constant tensor:
#      x y z
#    x 1.887130 0.000000 -0.002390 
#    y 0.000000 1.888780 0.000000 
#    z -0.002390 0.000000 1.863330 
# 
# From -- ./inp_files/216815.got.cif
#   From: 2010.05.17/outbox.cif.g08.bks.cpg/sg12_109_cif.got.tgz:216815.got - 2010.06.03 13:09:07.
