data_PCOD9188117
_publ_section_title
;
Structure prediction by ZEFSAII (Michael W. Deem and Ramdas Pophale) SiO2 
 PCOD9188117
Probable space group: C 2/M
;
_chemical_formula_sum "Si O2"
_cell_formula_units_Z 56
_cell_length_a 23.637157
_cell_length_b 17.971581
_cell_length_c 7.475852
_cell_angle_alpha 90.000000
_cell_angle_beta 42.265769
_cell_angle_gamma 90.000000
_cell_volume 2135.895681
_symmetry_space_group_name_H-M "C 2/M"
_symmetry_group_IT_number 12
_symmetry_cell_setting 'monoclinic'
loop_
_space_group_symop_operation_xyz
x,y,z
-x,y,-z
-x,-y,-z
x,-y,z
1/2+x,1/2+y,z
1/2-x,1/2+y,-z
1/2-x,1/2-y,-z
1/2+x,1/2-y,z
loop_
_atom_site_type_symbol
_atom_site_label
_atom_site_fract_x
_atom_site_fract_y
_atom_site_fract_z
Si Si1 0.012053 0.421115 0.683673
Si Si2 0.332291 0.289871 0.639484
Si Si3 0.373973 0.423023 0.786750
Si Si4 0.987499 0.738672 0.749206
Si Si5 0.698313 0.876093 0.345517
Si Si6 0.249159 0.914449 0.395180
Si Si7 0.929104 0.885865 0.019259
O O1 0.984525 0.500000 0.827230
O O2 0.966496 0.345843 0.848768
O O3 0.111097 0.408069 0.479624
O O4 0.000000 0.424988 0.500000
O O5 0.375236 0.347279 0.677050
O O6 0.424258 0.258918 0.357102
O O7 0.289408 0.208888 0.754183
O O8 0.263297 0.346167 0.714543
O O9 0.382156 0.500000 0.662260
O O10 0.437584 0.421980 0.804599
O O11 0.279712 0.420258 0.088336
O O12 0.000000 0.739284 0.500000
O O13 0.922617 0.799558 0.972208
O O14 0.698006 0.885619 0.559722
O O15 0.271710 0.000000 0.286871
O O16 0.154479 0.915516 0.694549
O O17 0.000000 0.897545 0.000000
#
# Coordination Sequence:
#
# PCOD9188117 Si02
#       7
#     8   8   8   8   8   8   8
#     4   9  18  34  62  88 109 142 186 240 295 342
#     4  11  21  38  58  86 113 157 195 238 285 340
#     4  11  23  38  58  87 120 152 193 241 285 335
#     4  10  19  36  56  84 119 149 195 241 279 341
#     4  10  21  38  62  83 115 151 193 234 287 353
#     4  11  23  38  58  86 119 153 194 237 284 341
#     4  11  21  37  57  82 119 159 196 229 280 338
#
# _framework density 26.218509000000001
#
# number of rings (size 3 to 8) (size 9 to 14) (size 15 to 20)
#    0.000    1.571    2.857    3.857    0.000    1.143 
#    0.000    0.714    0.000    0.429    0.000    0.000 
#    0.000    0.000    0.000    0.000    0.000    0.000 
#
# Total GULP energy -156254.456070 kJ/mol
# GULP energy per Si atom -5580.516288 kJ/mol
# Density = 2.615883 g / cm^3
# Si number density = 26.218509 Si / 1000 Ang^3
#
#
#
# Elastic Constant Matrix: (Units=GPa)
#
#
# Indices 1 2 3 4 5 6 
#
# 1 190.5286 43.2127 8.9367 0.0000 12.7361 0.0000
# 2 43.2127 278.4835 28.6767 0.0000 7.7951 0.0000
# 3 8.9367 28.6767 34.0467 0.0000 -1.7641 0.0000
# 4 0.0000 0.0000 0.0000 18.1241 0.0000 3.5979
# 5 12.7361 7.7951 -1.7641 0.0000 30.4286 0.0000
# 6 0.0000 0.0000 0.0000 3.5979 0.0000 26.9953
#
#
#
# Elastic Compliance Matrix: (Units=1/GPa)
#
#
# Indices 1 2 3 4 5 6 
#
# 1 0.005604 -0.000705 -0.000992 0.000000 -0.002222 0.000000
# 2 -0.000705 0.004065 -0.003287 0.000000 -0.000937 0.000000
# 3 -0.000992 -0.003287 0.032564 0.000000 0.003145 0.000000
# 4 0.000000 0.000000 0.000000 0.056675 0.000000 -0.007554
# 5 -0.002222 -0.000937 0.003145 0.000000 0.034216 0.000000
# 6 0.000000 0.000000 0.000000 -0.007554 0.000000 0.038050
#
#
# Mechanical properties :
#
#
# Convention : Reuss Voigt Hill
#
# Bulk Modulus (GPa) = 30.99513 73.85678 52.42596
# Shear Modulus (GPa) = 26.05566 43.25845 34.65705
#
# Velocity S-wave (km/s) = 3.15586 4.06633 3.63968
# Velocity P-wave (km/s) = 5.01266 7.09067 6.14021
#
# Compressibility (1/GPa) = 0.03226313
#
# Stress axis : x y z
#
# Youngs Moduli (GPa) = 178.45768 246.00068 30.70915
#
# Poissons Ratio (x) = 0.17347 0.03047
# Poissons Ratio (y) = 0.12584 0.10095
# Poissons Ratio (z) = 0.17704 0.80868
#
# Static dielectric constant tensor:
#      x y z
#    x 2.077170 0.000000 0.062120 
#    y 0.000000 2.111470 0.000000 
#    z 0.062120 0.000000 2.102830 
# 
# From -- ./inp_files/87852.got.cif
#   From: 2010.05.17/outbox.cif.g08.bks.cpg/sg12_44_cif.got.tgz:87852.got - 2010.06.03 13:09:07.
