data_PCOD9188561
_publ_section_title
;
Structure prediction by ZEFSAII (Michael W. Deem and Ramdas Pophale) SiO2 
 PCOD9188561
Probable space group: C 2/M
;
_chemical_formula_sum "Si O2"
_cell_formula_units_Z 56
_cell_length_a 20.114036
_cell_length_b 16.913796
_cell_length_c 15.646978
_cell_angle_alpha 90.000000
_cell_angle_beta 34.706087
_cell_angle_gamma 90.000000
_cell_volume 3030.839727
_symmetry_space_group_name_H-M "C 2/M"
_symmetry_group_IT_number 12
_symmetry_cell_setting 'monoclinic'
loop_
_space_group_symop_operation_xyz
x,y,z
-x,y,-z
-x,-y,-z
x,-y,z
1/2+x,1/2+y,z
1/2-x,1/2+y,-z
1/2-x,1/2-y,-z
1/2+x,1/2-y,z
loop_
_atom_site_type_symbol
_atom_site_label
_atom_site_fract_x
_atom_site_fract_y
_atom_site_fract_z
Si Si1 0.354930 0.587781 0.633686
Si Si2 0.051713 0.192442 0.032714
Si Si3 0.949108 0.409533 0.815650
Si Si4 0.891317 0.259818 0.351694
Si Si5 0.531864 0.349959 0.327117
Si Si6 0.206931 0.094474 0.993526
Si Si7 0.886862 0.629253 0.069111
O O1 0.368828 0.500000 0.657120
O O2 0.394990 0.653093 0.661434
O O3 0.429169 0.593143 0.469567
O O4 0.221182 0.603261 0.760806
O O5 0.146710 0.137772 0.977743
O O6 0.949041 0.215090 0.208716
O O7 0.109092 0.276471 0.947675
O O8 0.000000 0.157901 0.000000
O O9 0.980899 0.500000 0.761246
O O10 0.057991 0.349405 0.703824
O O11 0.841663 0.381674 0.868611
O O12 0.889756 0.407494 0.972170
O O13 0.750000 0.250000 0.500000
O O14 0.958685 0.221014 0.361920
O O15 0.623930 0.381110 0.160730
O O16 0.205162 0.000000 0.987053
O O17 0.000000 0.604382 0.000000
#
# Coordination Sequence:
#
# PCOD9188561 Si02
#       7
#     8   8   8   8   8   8   8
#     4  11  21  34  54  86 122 149 186 229 286 354
#     4   9  21  37  59  83 114 148 196 244 283 340
#     4  10  21  37  59  84 114 149 192 237 281 339
#     4  10  23  40  57  84 115 153 197 232 286 349
#     4  10  21  34  55  81 117 153 183 233 282 343
#     4  10  19  36  60  85 113 149 195 244 289 332
#     4  10  21  34  54  83 117 155 191 227 280 342
#
# _framework density 18.476728000000001
#
# number of rings (size 3 to 8) (size 9 to 14) (size 15 to 20)
#    0.000    2.000    1.429    2.143    8.000    3.143 
#    0.000    3.571    0.000    0.000    0.000    4.000 
#    0.000    0.000    0.000    0.000    0.000    0.000 
#
# Total GULP energy -155938.900578 kJ/mol
# GULP energy per Si atom -5569.246449 kJ/mol
# Density = 1.843467 g / cm^3
# Si number density = 18.476728 Si / 1000 Ang^3
#
#
#
# Elastic Constant Matrix: (Units=GPa)
#
#
# Indices 1 2 3 4 5 6 
#
# 1 93.4039 26.2612 25.5925 -0.0002 -15.5631 -0.0007
# 2 26.2612 45.0568 22.9388 -0.0001 -16.3395 -0.0004
# 3 25.5925 22.9388 82.1894 -0.0003 -36.5437 -0.0010
# 4 -0.0002 -0.0001 -0.0003 747.3386 0.0003 2550.7583
# 5 -15.5631 -16.3395 -36.5437 0.0003 38.4873 0.0009
# 6 -0.0007 -0.0004 -0.0010 2550.7583 0.0009 8895.7390
#
#
#
# Elastic Compliance Matrix: (Units=1/GPa)
#
#
# Indices 1 2 3 4 5 6 
#
# 1 0.013172 -0.006402 -0.001999 0.000000 0.000711 0.000000
# 2 -0.006402 0.030168 -0.003258 0.000000 0.007125 0.000000
# 3 -0.001999 -0.003258 0.022021 0.000000 0.018718 0.000000
# 4 0.000000 0.000000 0.000000 0.062752 0.000000 -0.017993
# 5 0.000711 0.007125 0.018718 0.000000 0.047067 0.000000
# 6 0.000000 0.000000 0.000000 -0.017993 0.000000 0.005272
#
#
# Mechanical properties :
#
#
# Convention : Reuss Voigt Hill
#
# Bulk Modulus (GPa) = 23.78508 41.13723 32.46116
# Shear Modulus (GPa) = 22.95837 1946.03682 984.49760
#
# Velocity S-wave (km/s) = 3.52882 32.48882 23.10818
# Velocity P-wave (km/s) = 5.43179 37.81107 27.01094
#
# Compressibility (1/GPa) = 0.04204316
#
# Stress axis : x y z
#
# Youngs Moduli (GPa) = 75.91703 33.14733 45.41086
#
# Poissons Ratio (x) = 0.21221 0.09077
# Poissons Ratio (y) = 0.48603 0.14796
# Poissons Ratio (z) = 0.15175 0.10801
#
# Static dielectric constant tensor:
#      x y z
#    x 1.681490 0.000000 -0.001020 
#    y 0.000000 1.658540 0.000000 
#    z -0.001020 0.000000 1.650790 
# 
# From -- ./inp_files/226522.got.cif
#   From: 2010.05.17/outbox.cif.g08.bks.cpg/sg12_114_cif.got.tgz:226522.got - 2010.06.03 13:09:07.
