data_PCOD9188661
_publ_section_title
;
Structure prediction by ZEFSAII (Michael W. Deem and Ramdas Pophale) SiO2 
 PCOD9188661
Probable space group: C 2/M
;
_chemical_formula_sum "Si O2"
_cell_formula_units_Z 64
_cell_length_a 9.348060
_cell_length_b 17.924299
_cell_length_c 33.855659
_cell_angle_alpha 90.000000
_cell_angle_beta 142.871534
_cell_angle_gamma 90.000000
_cell_volume 3424.105811
_symmetry_space_group_name_H-M "C 2/M"
_symmetry_group_IT_number 12
_symmetry_cell_setting 'monoclinic'
loop_
_space_group_symop_operation_xyz
x,y,z
-x,y,-z
-x,-y,-z
x,-y,z
1/2+x,1/2+y,z
1/2-x,1/2+y,-z
1/2-x,1/2-y,-z
1/2+x,1/2-y,z
loop_
_atom_site_type_symbol
_atom_site_label
_atom_site_fract_x
_atom_site_fract_y
_atom_site_fract_z
Si Si1 0.984406 0.310909 0.644254
Si Si2 0.539232 0.413512 0.962038
Si Si3 0.984499 0.788069 0.570215
Si Si4 0.679310 0.587719 0.319850
Si Si5 0.828059 0.775484 0.237442
Si Si6 0.267315 0.415475 0.574472
Si Si7 0.056175 0.686468 0.966525
Si Si8 0.306468 0.210136 0.149617
O O1 0.062936 0.266957 0.622336
O O2 0.700496 0.304175 0.587914
O O3 0.096991 0.391199 0.658976
O O4 0.094298 0.269638 0.706291
O O5 0.496349 0.500000 0.943462
O O6 0.365238 0.358505 0.899523
O O7 0.500000 0.400714 0.000000
O O8 0.810766 0.389733 0.014089
O O9 0.750000 0.750000 0.500000
O O10 0.916367 0.861491 0.579626
O O11 0.618411 0.500000 0.301919
O O12 0.476381 0.648166 0.265044
O O13 0.729397 0.600212 0.377897
O O14 0.552315 0.796035 0.180845
O O15 0.858185 0.720433 0.207061
O O16 0.350021 0.500000 0.587575
O O17 0.000000 0.409229 0.500000
O O18 0.825809 0.713405 0.892495
O O19 0.250000 0.750000 0.000000
O O20 0.000000 0.688676 0.000000
#
# Coordination Sequence:
#
# PCOD9188661 Si02
#       8
#     8   8   8   8   8   8   8   8
#     4  12  22  40  60  88 125 163 210 259 315 373
#     4  10  21  39  62  93 129 159 197 256 317 368
#     4  12  22  36  64  95 122 157 213 266 317 384
#     4  11  24  43  63  88 127 168 209 266 325 370
#     4  12  22  39  61  88 122 167 215 260 291 373
#     4  10  21  39  62  90 123 159 203 261 327 384
#     4  10  19  36  60  91 119 150 194 247 299 363
#     4  11  21  36  64  89 118 164 213 247 303 369
#
# _framework density 18.691011
#
# number of rings (size 3 to 8) (size 9 to 14) (size 15 to 20)
#    0.000    1.000    3.750    5.625    0.000    1.250 
#    0.000    1.250    0.000    3.750    0.000    0.000 
#    0.000    0.000    0.000    0.000    0.000    0.000 
#
# Total GULP energy -178567.559608 kJ/mol
# GULP energy per Si atom -5580.236238 kJ/mol
# Density = 1.864847 g / cm^3
# Si number density = 18.691011 Si / 1000 Ang^3
#
#
#
# Elastic Constant Matrix: (Units=GPa)
#
#
# Indices 1 2 3 4 5 6 
#
# 1 116.1263 48.8362 26.2878 0.0000 10.7048 0.0000
# 2 48.8362 113.4546 37.2535 0.0000 2.1350 0.0000
# 3 26.2878 37.2535 74.5063 -0.0001 3.4343 0.0000
# 4 0.0000 0.0000 -0.0001 28.9262 0.0000 -1.1572
# 5 10.7048 2.1350 3.4343 0.0000 34.6117 0.0000
# 6 0.0000 0.0000 0.0000 -1.1572 0.0000 31.7039
#
#
#
# Elastic Compliance Matrix: (Units=1/GPa)
#
#
# Indices 1 2 3 4 5 6 
#
# 1 0.011003 -0.004128 -0.001681 0.000000 -0.002982 0.000000
# 2 -0.004128 0.012095 -0.004637 0.000000 0.000991 0.000000
# 3 -0.001681 -0.004637 0.016371 0.000000 -0.000819 0.000000
# 4 0.000000 0.000000 0.000000 0.034621 0.000000 0.001264
# 5 -0.002982 0.000991 -0.000819 0.000000 0.029834 0.000000
# 6 0.000000 0.000000 0.000000 0.001264 0.000000 0.031588
#
#
# Mechanical properties :
#
#
# Convention : Reuss Voigt Hill
#
# Bulk Modulus (GPa) = 53.82819 58.76025 56.29422
# Shear Modulus (GPa) = 30.75129 31.82901 31.29015
#
# Velocity S-wave (km/s) = 4.06056 4.13110 4.09598
# Velocity P-wave (km/s) = 7.13062 7.36618 7.24936
#
# Compressibility (1/GPa) = 0.01857763
#
# Stress axis : x y z
#
# Youngs Moduli (GPa) = 90.88728 82.67970 61.08476
#
# Poissons Ratio (x) = 0.34131 0.10265
# Poissons Ratio (y) = 0.37520 0.28323
# Poissons Ratio (z) = 0.15274 0.38336
#
# Static dielectric constant tensor:
#      x y z
#    x 1.699210 0.000000 0.016460 
#    y 0.000000 1.671580 0.000000 
#    z 0.016460 0.000000 1.680790 
# 
# From -- ./inp_files/373023.got.cif
#   From: 2010.05.17/outbox.cif.g08.bks.cpg/sg12_187_cif.got.tgz:373023.got - 2010.06.03 13:09:07.
