data_PCOD9188497
_publ_section_title
;
Structure prediction by ZEFSAII (Michael W. Deem and Ramdas Pophale) SiO2 
 PCOD9188497
Probable space group: C 2/M
;
_chemical_formula_sum "Si O2"
_cell_formula_units_Z 44
_cell_length_a 11.528113
_cell_length_b 19.213782
_cell_length_c 15.043167
_cell_angle_alpha 90.000000
_cell_angle_beta 40.816489
_cell_angle_gamma 90.000000
_cell_volume 2177.950169
_symmetry_space_group_name_H-M "C 2/M"
_symmetry_group_IT_number 12
_symmetry_cell_setting 'monoclinic'
loop_
_space_group_symop_operation_xyz
x,y,z
-x,y,-z
-x,-y,-z
x,-y,z
1/2+x,1/2+y,z
1/2-x,1/2+y,-z
1/2-x,1/2-y,-z
1/2+x,1/2-y,z
loop_
_atom_site_type_symbol
_atom_site_label
_atom_site_fract_x
_atom_site_fract_y
_atom_site_fract_z
Si Si1 0.099711 0.642709 0.084420
Si Si2 0.174196 0.345578 0.461458
Si Si3 0.718668 0.357931 0.208222
Si Si4 0.361354 0.000000 0.500574
Si Si5 0.520872 0.756905 0.704785
Si Si6 0.139009 0.000000 0.339796
Si Si7 0.021337 0.500000 0.213304
O O1 0.901579 0.646935 0.156870
O O2 0.103843 0.705816 0.151273
O O3 0.117797 0.570171 0.126550
O O4 0.231268 0.642727 0.924972
O O5 0.235424 0.425716 0.435547
O O6 0.330292 0.294011 0.340017
O O7 0.117025 0.316495 0.591416
O O8 0.000000 0.343107 0.500000
O O9 0.591510 0.292329 0.295637
O O10 0.628483 0.429883 0.288956
O O11 0.500000 0.000000 0.500000
O O12 0.471437 0.000000 0.345212
O O13 0.000000 0.000000 0.500000
O O14 0.334432 0.000000 0.269600
#
# Coordination Sequence:
#
# PCOD9188497 Si02
#       7
#     8   8   8   4   8   4   4
#     4  10  20  38  56  80 113 151 190 231 271 337
#     4  10  22  36  54  83 111 144 187 229 281 330
#     4  10  22  36  56  84 113 147 190 229 280 334
#     4  10  20  37  56  78 107 146 186 228 264 337
#     4  11  21  34  58  81 115 146 182 231 285 336
#     4  10  23  35  58  85 116 143 179 244 288 330
#     4  10  19  36  60  79 107 149 192 220 285 332
#
# _framework density 20.202483999999998
#
# number of rings (size 3 to 8) (size 9 to 14) (size 15 to 20)
#    0.000    1.818    1.818    2.182    2.545    4.364 
#    0.000    0.000    0.000    0.000    0.000    2.545 
#    0.000    0.000    0.000    0.000    0.000    0.000 
#
# Total GULP energy -122840.751196 kJ/mol
# GULP energy per Si atom -5583.670509 kJ/mol
# Density = 2.015650 g / cm^3
# Si number density = 20.202484 Si / 1000 Ang^3
#
#
#
# Elastic Constant Matrix: (Units=GPa)
#
#
# Indices 1 2 3 4 5 6 
#
# 1 48.4602 27.3039 2.0428 -0.0003 4.9166 -0.0002
# 2 27.3039 173.6238 43.4762 -0.0006 8.9697 0.0002
# 3 2.0428 43.4762 56.0103 -0.0019 8.3369 0.0008
# 4 -0.0003 -0.0006 -0.0019 4.6329 0.0004 9.7132
# 5 4.9166 8.9697 8.3369 0.0004 27.5076 0.0000
# 6 -0.0002 0.0002 0.0008 9.7132 0.0000 23.7062
#
#
#
# Elastic Compliance Matrix: (Units=1/GPa)
#
#
# Indices 1 2 3 4 5 6 
#
# 1 0.023256 -0.004210 0.002968 0.000017 -0.003683 -0.000007
# 2 -0.004210 0.007924 -0.005995 -0.000013 -0.000014 0.000006
# 3 0.002968 -0.005995 0.023235 0.000078 -0.005618 -0.000032
# 4 0.000017 -0.000013 0.000078 1.531192 -0.000047 -0.627380
# 5 -0.003683 -0.000014 -0.005618 -0.000047 0.038719 0.000020
# 6 -0.000007 0.000006 -0.000032 -0.627380 0.000020 0.299241
#
#
# Mechanical properties :
#
#
# Convention : Reuss Voigt Hill
#
# Bulk Modulus (GPa) = 25.03687 47.08225 36.05956
# Shear Modulus (GPa) = 2.56232 24.85410 13.70821
#
# Velocity S-wave (km/s) = 1.12742 3.51130 2.60771
# Velocity P-wave (km/s) = 3.75695 6.30830 5.19179
#
# Compressibility (1/GPa) = 0.03994109
#
# Stress axis : x y z
#
# Youngs Moduli (GPa) = 42.99924 126.20682 43.03860
#
# Poissons Ratio (x) = 0.53135 -0.12774
# Poissons Ratio (y) = 0.18103 0.25800
# Poissons Ratio (z) = -0.12762 0.75657
#
# Static dielectric constant tensor:
#      x y z
#    x 1.704540 0.000000 0.001790 
#    y 0.000000 1.731310 0.000000 
#    z 0.001790 0.000000 1.683720 
# 
# From -- ./inp_files/61100.got.cif
#   From: 2010.05.17/outbox.cif.g08.bks.cpg/sg12_31_cif.got.tgz:61100.got - 2010.06.03 13:09:07.
