data_PCOD9188141
_publ_section_title
;
Structure prediction by ZEFSAII (Michael W. Deem and Ramdas Pophale) SiO2 
 PCOD9188141
Probable space group: C 2/M
;
_chemical_formula_sum "Si O2"
_cell_formula_units_Z 64
_cell_length_a 29.510074
_cell_length_b 7.992647
_cell_length_c 14.670614
_cell_angle_alpha 90.000000
_cell_angle_beta 72.497646
_cell_angle_gamma 90.000000
_cell_volume 3300.069580
_symmetry_space_group_name_H-M "C 2/M"
_symmetry_group_IT_number 12
_symmetry_cell_setting 'monoclinic'
loop_
_space_group_symop_operation_xyz
x,y,z
-x,y,-z
-x,-y,-z
x,-y,z
1/2+x,1/2+y,z
1/2-x,1/2+y,-z
1/2-x,1/2-y,-z
1/2+x,1/2-y,z
loop_
_atom_site_type_symbol
_atom_site_label
_atom_site_fract_x
_atom_site_fract_y
_atom_site_fract_z
Si Si1 0.554048 0.805374 0.483637
Si Si2 0.426852 0.705146 0.804715
Si Si3 0.470955 0.696687 0.315674
Si Si4 0.861333 0.807015 0.689975
Si Si5 0.682526 0.803442 0.620010
Si Si6 0.403163 0.201157 0.203448
Si Si7 0.786826 0.696632 0.593166
Si Si8 0.448402 0.299099 0.996006
O O1 0.500000 0.745891 0.500000
O O2 0.559441 0.788865 0.589061
O O3 0.593261 0.705971 0.404792
O O4 0.557633 0.000000 0.455301
O O5 0.426547 0.500000 0.803985
O O6 0.474774 0.757085 0.722504
O O7 0.381226 0.760375 0.774227
O O8 0.433054 0.761317 0.905040
O O9 0.470574 0.500000 0.336665
O O10 0.447925 0.727359 0.231830
O O11 0.818690 0.719280 0.662890
O O12 0.847969 0.000000 0.709903
O O13 0.642876 0.735387 0.712880
O O14 0.735372 0.780636 0.627841
O O15 0.685940 0.736090 0.514069
O O16 0.671939 0.000000 0.617916
O O17 0.409567 0.256921 0.095907
O O18 0.404411 0.000000 0.204913
O O19 0.778430 0.500000 0.583202
O O20 0.452653 0.500000 0.986578
O O21 0.500000 0.235125 0.000000
#
# Coordination Sequence:
#
# PCOD9188141 Si02
#       8
#     8   8   8   8   8   8   8   8
#     4  11  22  33  46  72 109 144 178 223 270 311
#     4   9  19  34  52  75 104 142 188 228 263 315
#     4  11  20  34  53  74 104 146 190 222 262 323
#     4  11  21  35  55  77 107 149 189 221 268 333
#     4   9  20  38  57  79 112 145 176 220 274 333
#     4  11  22  35  54  83 114 142 178 229 285 333
#     4  10  20  36  59  85 112 140 179 226 274 328
#     4  10  19  36  57  77 106 146 190 236 276 320
#
# _framework density 19.393532
#
# number of rings (size 3 to 8) (size 9 to 14) (size 15 to 20)
#    0.000    1.750    2.500    2.625    0.000    3.250 
#    0.000    1.250    0.000    0.750    0.000    0.000 
#    0.000    0.000    0.000    0.000    0.000    0.000 
#
# Total GULP energy -178646.426321 kJ/mol
# GULP energy per Si atom -5582.700823 kJ/mol
# Density = 1.934939 g / cm^3
# Si number density = 19.393532 Si / 1000 Ang^3
#
#
#
# Elastic Constant Matrix: (Units=GPa)
#
#
# Indices 1 2 3 4 5 6 
#
# 1 82.3996 -5.9739 36.9733 0.0000 16.2799 0.0000
# 2 -5.9739 15.3469 0.9510 0.0000 5.7426 0.0000
# 3 36.9733 0.9510 93.9330 0.0000 14.0170 0.0000
# 4 0.0000 0.0000 0.0000 19.0555 0.0000 1.9308
# 5 16.2799 5.7426 14.0170 0.0000 28.5955 0.0000
# 6 0.0000 0.0000 0.0000 1.9308 0.0000 22.2946
#
#
#
# Elastic Compliance Matrix: (Units=1/GPa)
#
#
# Indices 1 2 3 4 5 6 
#
# 1 0.017175 0.010463 -0.005496 0.000000 -0.009186 0.000000
# 2 0.010463 0.077027 -0.001835 0.000000 -0.020526 0.000000
# 3 -0.005496 -0.001835 0.013277 0.000000 -0.003011 0.000000
# 4 0.000000 0.000000 0.000000 0.052943 0.000000 -0.004585
# 5 -0.009186 -0.020526 -0.003011 0.000000 0.045798 0.000000
# 6 0.000000 0.000000 0.000000 -0.004585 0.000000 0.045251
#
#
# Mechanical properties :
#
#
# Convention : Reuss Voigt Hill
#
# Bulk Modulus (GPa) = 8.79167 28.39779 18.59473
# Shear Modulus (GPa) = 17.66029 24.63775 21.14902
#
# Velocity S-wave (km/s) = 3.02093 3.56815 3.30588
# Velocity P-wave (km/s) = 4.08793 5.62586 4.91739
#
# Compressibility (1/GPa) = 0.11374399
#
# Stress axis : x y z
#
# Youngs Moduli (GPa) = 58.22311 12.98244 75.31873
#
# Poissons Ratio (x) = -0.13584 0.41393
# Poissons Ratio (y) = -0.60921 0.13824
# Poissons Ratio (z) = 0.31997 0.02383
#
# Static dielectric constant tensor:
#      x y z
#    x 1.690520 0.000000 0.028290 
#    y 0.000000 1.685540 0.000000 
#    z 0.028290 0.000000 1.696670 
# 
# From -- ./inp_files/243780.got.cif
#   From: 2010.05.17/outbox.cif.g08.bks.cpg/sg12_122_cif.got.tgz:243780.got - 2010.06.03 13:09:07.
