data_PCOD9188968
_publ_section_title
;
Structure prediction by ZEFSAII (Michael W. Deem and Ramdas Pophale) SiO2 
 PCOD9188968
Probable space group: C 2/M
;
_chemical_formula_sum "Si O2"
_cell_formula_units_Z 64
_cell_length_a 22.545951
_cell_length_b 14.709705
_cell_length_c 31.352965
_cell_angle_alpha 90.000000
_cell_angle_beta 17.544987
_cell_angle_gamma 90.000000
_cell_volume 3134.533859
_symmetry_space_group_name_H-M "C 2/M"
_symmetry_group_IT_number 12
_symmetry_cell_setting 'monoclinic'
loop_
_space_group_symop_operation_xyz
x,y,z
-x,y,-z
-x,-y,-z
x,-y,z
1/2+x,1/2+y,z
1/2-x,1/2+y,-z
1/2-x,1/2-y,-z
1/2+x,1/2-y,z
loop_
_atom_site_type_symbol
_atom_site_label
_atom_site_fract_x
_atom_site_fract_y
_atom_site_fract_z
Si Si1 0.041196 0.766428 0.766031
Si Si2 0.928043 0.601912 0.791340
Si Si3 0.023383 0.245197 0.571823
Si Si4 0.404900 0.894248 0.412546
Si Si5 0.227937 0.390691 0.932395
Si Si6 0.532144 0.394342 0.313159
Si Si7 0.986393 0.099580 0.059985
Si Si8 0.629749 0.237051 0.801659
O O1 0.259691 0.758683 0.596252
O O2 0.066574 0.774111 0.799029
O O3 0.946149 0.669930 0.817925
O O4 0.896092 0.842679 0.846147
O O5 0.003338 0.500000 0.749085
O O6 0.039500 0.639650 0.672985
O O7 0.705684 0.595563 0.928458
O O8 0.995546 0.336966 0.618857
O O9 0.997672 0.167230 0.625208
O O10 0.863075 0.221184 0.645786
O O11 0.169304 0.887306 0.576069
O O12 0.461754 0.000000 0.375087
O O13 0.229420 0.500000 0.936467
O O14 0.292058 0.369171 0.839470
O O15 0.016807 0.346113 0.087218
O O16 0.553683 0.500000 0.310688
O O17 0.898727 0.185596 0.143424
O O18 0.893326 0.000000 0.132047
O O19 0.000000 0.111627 0.000000
#
# Coordination Sequence:
#
# PCOD9188968 Si02
#       8
#     8   8   8   8   8   8   8   8
#     4  12  24  45  64  94 129 177 228 262 311 390
#     4  10  20  36  66  96 124 164 215 272 321 378
#     4  12  24  40  68  93 134 171 212 274 331 380
#     4  10  19  36  64 100 127 159 215 272 331 388
#     4  11  25  45  68  95 132 175 222 269 321 392
#     4  10  21  39  67  99 124 164 221 273 325 383
#     4  10  22  41  65  97 130 161 207 272 339 389
#     4  12  28  42  63  97 134 176 217 265 327 397
#
# _framework density 20.417708999999999
#
# number of rings (size 3 to 8) (size 9 to 14) (size 15 to 20)
#    0.000    1.125    3.750    2.625    1.750    3.000 
#    0.000    1.250    0.000    4.500    0.000    0.000 
#    0.000    0.000    0.000    0.000    0.000    0.000 
#
# Total GULP energy -178711.344135 kJ/mol
# GULP energy per Si atom -5584.729504 kJ/mol
# Density = 2.037124 g / cm^3
# Si number density = 20.417709 Si / 1000 Ang^3
#
#
#
# Elastic Constant Matrix: (Units=GPa)
#
#
# Indices 1 2 3 4 5 6 
#
# 1 70.5844 38.2078 10.1984 0.0219 -14.7568 0.0159
# 2 38.2078 89.2659 23.9552 -0.0164 -0.4166 0.0057
# 3 10.1984 23.9552 56.3264 0.0338 -14.2818 0.0184
# 4 0.0219 -0.0164 0.0338 13.3077 0.0173 -0.3817
# 5 -14.7568 -0.4166 -14.2818 0.0173 26.8882 0.0233
# 6 0.0159 0.0057 0.0184 -0.3817 0.0233 4.8355
#
#
#
# Elastic Compliance Matrix: (Units=1/GPa)
#
#
# Indices 1 2 3 4 5 6 
#
# 1 0.022265 -0.010553 0.004061 -0.000083 0.014213 -0.000151
# 2 -0.010553 0.017872 -0.008192 0.000076 -0.009866 0.000098
# 3 0.004061 -0.008192 0.024309 -0.000103 0.015014 -0.000176
# 4 -0.000083 0.000076 -0.000103 0.075316 -0.000153 0.005946
# 5 0.014213 -0.009866 0.015014 -0.000153 0.052814 -0.000359
# 6 -0.000151 0.000098 -0.000176 0.005946 -0.000359 0.207277
#
#
# Mechanical properties :
#
#
# Convention : Reuss Voigt Hill
#
# Bulk Modulus (GPa) = 28.50822 40.09994 34.30408
# Shear Modulus (GPa) = 11.34012 18.59396 14.96704
#
# Velocity S-wave (km/s) = 2.35926 3.02102 2.71041
# Velocity P-wave (km/s) = 4.62756 5.64368 5.16069
#
# Compressibility (1/GPa) = 0.03507761
#
# Stress axis : x y z
#
# Youngs Moduli (GPa) = 44.91412 55.95420 41.13669
#
# Poissons Ratio (x) = 0.59050 -0.16705
# Poissons Ratio (y) = 0.47399 0.33698
# Poissons Ratio (z) = -0.18239 0.45836
#
# Static dielectric constant tensor:
#      x y z
#    x 1.704120 0.000010 -0.007790 
#    y 0.000010 1.765420 0.000040 
#    z -0.007790 0.000040 1.813860 
# 
# From -- ./inp_files/381478.got.cif
#   From: 2010.05.17/outbox.cif.g08.bks.cpg/sg12_191_cif.got.tgz:381478.got - 2010.06.03 13:09:07.
