data_PCOD9188127
_publ_section_title
;
Structure prediction by ZEFSAII (Michael W. Deem and Ramdas Pophale) SiO2 
 PCOD9188127
Probable space group: C 2/M
;
_chemical_formula_sum "Si O2"
_cell_formula_units_Z 44
_cell_length_a 15.909444
_cell_length_b 23.951814
_cell_length_c 10.758377
_cell_angle_alpha 90.000000
_cell_angle_beta 34.853661
_cell_angle_gamma 90.000000
_cell_volume 2342.842057
_symmetry_space_group_name_H-M "C 2/M"
_symmetry_group_IT_number 12
_symmetry_cell_setting 'monoclinic'
loop_
_space_group_symop_operation_xyz
x,y,z
-x,y,-z
-x,-y,-z
x,-y,z
1/2+x,1/2+y,z
1/2-x,1/2+y,-z
1/2-x,1/2-y,-z
1/2+x,1/2-y,z
loop_
_atom_site_type_symbol
_atom_site_label
_atom_site_fract_x
_atom_site_fract_y
_atom_site_fract_z
Si Si1 0.598642 0.435150 0.631265
Si Si2 0.763509 0.171757 0.110115
Si Si3 0.243680 0.936529 0.017112
Si Si4 0.669246 0.117702 0.834103
Si Si5 0.651438 0.289358 0.262819
Si Si6 0.000000 0.878138 0.000000
O O1 0.641284 0.500000 0.575337
O O2 0.434722 0.430641 0.770340
O O3 0.719765 0.399813 0.410532
O O4 0.575825 0.414942 0.800406
O O5 0.661610 0.223210 0.270367
O O6 0.698042 0.112244 0.145038
O O7 0.841557 0.195464 0.890782
O O8 0.879022 0.158604 0.076995
O O9 0.299990 0.923317 0.086643
O O10 0.278427 0.000000 0.937844
O O11 0.716708 0.178362 0.828742
O O12 0.500000 0.115828 0.000000
O O13 0.500000 0.311894 0.500000
#
# Coordination Sequence:
#
# PCOD9188127 Si02
#       6
#     8   8   8   8   8   4
#     4  10  20  36  59  85 116 155 191 231 281 343
#     4   9  20  36  58  85 113 145 192 235 287 332
#     4   9  18  36  61  82 112 155 195 232 277 340
#     4  11  22  35  57  90 119 147 190 243 294 332
#     4  10  20  40  61  80 111 153 196 241 278 338
#     4  10  19  36  56  88 112 146 193 240 274 346
#
# _framework density 18.780608000000001
#
# number of rings (size 3 to 8) (size 9 to 14) (size 15 to 20)
#    0.000    2.182    0.000    4.636    1.273    3.636 
#    9.818    1.818    0.000    0.545    0.000    0.000 
#    0.000    0.000    0.000    0.000    0.000    0.000 
#
# Total GULP energy -122684.962654 kJ/mol
# GULP energy per Si atom -5576.589212 kJ/mol
# Density = 1.873786 g / cm^3
# Si number density = 18.780608 Si / 1000 Ang^3
#
#
#
# Elastic Constant Matrix: (Units=GPa)
#
#
# Indices 1 2 3 4 5 6 
#
# 1 135.8855 37.2477 55.7239 -0.0001 7.7097 0.0000
# 2 37.2477 128.1182 22.2223 0.0000 -1.3657 0.0000
# 3 55.7239 22.2223 45.0921 0.0000 1.2163 0.0000
# 4 -0.0001 0.0000 0.0000 18.7344 0.0001 -6.7050
# 5 7.7097 -1.3657 1.2163 0.0001 18.5577 0.0000
# 6 0.0000 0.0000 0.0000 -6.7050 0.0000 6.3522
#
#
#
# Elastic Compliance Matrix: (Units=1/GPa)
#
#
# Indices 1 2 3 4 5 6 
#
# 1 0.015622 -0.001395 -0.018473 0.000000 -0.005382 0.000000
# 2 -0.001395 0.008675 -0.002589 0.000000 0.001388 0.000000
# 3 -0.018473 -0.002589 0.046161 0.000000 0.004458 -0.000001
# 4 0.000000 0.000000 0.000000 0.085785 -0.000001 0.090549
# 5 -0.005382 0.001388 0.004458 -0.000001 0.055932 -0.000001
# 6 0.000000 0.000000 -0.000001 0.090549 -0.000001 0.253003
#
#
# Mechanical properties :
#
#
# Convention : Reuss Voigt Hill
#
# Bulk Modulus (GPa) = 39.14720 59.94260 49.54490
# Shear Modulus (GPa) = 9.64124 21.65566 15.64845
#
# Velocity S-wave (km/s) = 2.26821 3.39940 2.88969
# Velocity P-wave (km/s) = 5.26777 6.88436 6.12959
#
# Compressibility (1/GPa) = 0.02554461
#
# Stress axis : x y z
#
# Youngs Moduli (GPa) = 64.01100 115.27845 21.66338
#
# Poissons Ratio (x) = 0.16082 0.40019
# Poissons Ratio (y) = 0.08930 0.05608
# Poissons Ratio (z) = 1.18248 0.29840
#
# Static dielectric constant tensor:
#      x y z
#    x 1.623530 0.000000 0.013100 
#    y 0.000000 1.697710 0.000000 
#    z 0.013100 0.000000 1.631050 
# 
# From -- ./inp_files/66730.got.cif
#   From: 2010.05.17/outbox.cif.g08.bks.cpg/sg12_34_cif.got.tgz:66730.got - 2010.06.03 13:09:07.
