data_PCOD9188428
_publ_section_title
;
Structure prediction by ZEFSAII (Michael W. Deem and Ramdas Pophale) SiO2 
 PCOD9188428
Probable space group: C 2/M
;
_chemical_formula_sum "Si O2"
_cell_formula_units_Z 58
_cell_length_a 15.080943
_cell_length_b 8.891536
_cell_length_c 23.729358
_cell_angle_alpha 90.000000
_cell_angle_beta 96.657788
_cell_angle_gamma 90.000000
_cell_volume 3160.476913
_symmetry_space_group_name_H-M "C 2/M"
_symmetry_group_IT_number 12
_symmetry_cell_setting 'monoclinic'
loop_
_space_group_symop_operation_xyz
x,y,z
-x,y,-z
-x,-y,-z
x,-y,z
1/2+x,1/2+y,z
1/2-x,1/2+y,-z
1/2-x,1/2-y,-z
1/2+x,1/2-y,z
loop_
_atom_site_type_symbol
_atom_site_label
_atom_site_fract_x
_atom_site_fract_y
_atom_site_fract_z
Si Si1 0.818314 0.166352 0.963401
Si Si2 0.782511 0.320519 0.844860
Si Si3 0.383461 0.180461 0.221249
Si Si4 0.000000 0.000000 0.000000
Si Si5 0.479095 0.181634 0.562662
Si Si6 0.658463 0.680228 0.367649
Si Si7 0.354831 0.817418 0.348295
Si Si8 0.412074 0.819410 0.752472
O O1 0.821555 0.254166 0.904922
O O2 0.779302 0.000000 0.948964
O O3 0.750000 0.250000 0.000000
O O4 0.918569 0.129364 0.992608
O O5 0.782202 0.500000 0.847481
O O6 0.683246 0.260178 0.826197
O O7 0.842169 0.274175 0.795375
O O8 0.360792 0.230155 0.283676
O O9 0.487558 0.213988 0.220239
O O10 0.371157 0.000000 0.217105
O O11 0.500000 0.223338 0.500000
O O12 0.390043 0.251866 0.581794
O O13 0.560518 0.231283 0.609006
O O14 0.472709 0.000000 0.564937
O O15 0.654741 0.500000 0.368860
O O16 0.761389 0.728556 0.368735
O O17 0.609198 0.739626 0.307884
O O18 0.356847 0.000000 0.347760
O O19 0.406450 0.000000 0.743049
#
# Coordination Sequence:
#
# PCOD9188428 Si02
#       8
#     8   8   8   2   8   8   8   8
#     4  10  22  45  71  96 134 176 222 269 325 378
#     4  11  23  38  60  99 134 159 208 263 306 374
#     4  10  19  36  59  84 119 167 201 244 313 371
#     4   8  24  44  74 102 132 176 230 272 320 386
#     4  10  21  39  60  79 105 149 199 244 297 369
#     4  11  21  34  56  81 114 152 189 244 309 360
#     4   9  18  34  56  80 112 150 192 236 299 369
#     4  10  21  37  57  84 124 160 202 245 299 371
#
# _framework density 18.351659999999999
#
# number of rings (size 3 to 8) (size 9 to 14) (size 15 to 20)
#    0.414    1.517    2.759    1.241    0.000    3.034 
#    0.000    4.138    0.000    0.000    0.000    0.000 
#    0.000    0.000    0.000    0.000    0.000    0.000 
#
# Total GULP energy -161502.001834 kJ/mol
# GULP energy per Si atom -5569.034546 kJ/mol
# Density = 1.830989 g / cm^3
# Si number density = 18.351660 Si / 1000 Ang^3
#
#
#
# Elastic Constant Matrix: (Units=GPa)
#
#
# Indices 1 2 3 4 5 6 
#
# 1 72.8317 14.4034 -0.0616 0.0000 6.2225 0.0000
# 2 14.4034 28.4225 12.4966 0.0000 -4.0439 0.0000
# 3 -0.0616 12.4966 45.6205 0.0000 -4.8339 0.0000
# 4 0.0000 0.0000 0.0000 26.1221 0.0000 -4.6743
# 5 6.2225 -4.0439 -4.8339 0.0000 24.6457 0.0000
# 6 0.0000 0.0000 0.0000 -4.6743 0.0000 24.4805
#
#
#
# Elastic Compliance Matrix: (Units=1/GPa)
#
#
# Indices 1 2 3 4 5 6 
#
# 1 0.016137 -0.009881 0.002170 0.000000 -0.005270 0.000000
# 2 -0.009881 0.046548 -0.011939 0.000000 0.007791 0.000000
# 3 0.002170 -0.011939 0.025457 0.000000 0.002486 0.000000
# 4 0.000000 0.000000 0.000000 0.039636 0.000000 0.007568
# 5 -0.005270 0.007791 0.002486 0.000000 0.043672 0.000000
# 6 0.000000 0.000000 0.000000 0.007568 0.000000 0.042294
#
#
# Mechanical properties :
#
#
# Convention : Reuss Voigt Hill
#
# Bulk Modulus (GPa) = 20.47417 22.28351 21.37884
# Shear Modulus (GPa) = 18.56505 23.05209 20.80857
#
# Velocity S-wave (km/s) = 3.18406 3.54804 3.37097
# Velocity P-wave (km/s) = 4.96975 5.38086 5.17939
#
# Compressibility (1/GPa) = 0.04884203
#
# Stress axis : x y z
#
# Youngs Moduli (GPa) = 61.97128 21.48298 39.28252
#
# Poissons Ratio (x) = 0.21228 -0.08525
# Poissons Ratio (y) = 0.61236 0.46898
# Poissons Ratio (z) = -0.13449 0.25648
#
# Static dielectric constant tensor:
#      x y z
#    x 1.634910 0.000000 -0.007090 
#    y 0.000000 1.624010 0.000000 
#    z -0.007090 0.000000 1.618740 
# 
# From -- ./inp_files/338070.got.cif
#   From: 2010.05.17/outbox.cif.g08.bks.cpg/sg12_170_cif.got.tgz:338070.got - 2010.06.03 13:09:07.
