data_PCOD9188340
_publ_section_title
;
Structure prediction by ZEFSAII (Michael W. Deem and Ramdas Pophale) SiO2 
 PCOD9188340
Probable space group: C 2/M
;
_chemical_formula_sum "Si O2"
_cell_formula_units_Z 56
_cell_length_a 21.167507
_cell_length_b 30.336212
_cell_length_c 8.460683
_cell_angle_alpha 90.000000
_cell_angle_beta 148.233309
_cell_angle_gamma 90.000000
_cell_volume 2860.244782
_symmetry_space_group_name_H-M "C 2/M"
_symmetry_group_IT_number 12
_symmetry_cell_setting 'monoclinic'
loop_
_space_group_symop_operation_xyz
x,y,z
-x,y,-z
-x,-y,-z
x,-y,z
1/2+x,1/2+y,z
1/2-x,1/2+y,-z
1/2-x,1/2-y,-z
1/2+x,1/2-y,z
loop_
_atom_site_type_symbol
_atom_site_label
_atom_site_fract_x
_atom_site_fract_y
_atom_site_fract_z
Si Si1 0.255938 0.747112 0.823269
Si Si2 0.552986 0.694166 0.955045
Si Si3 0.311500 0.845893 0.892665
Si Si4 0.058661 0.676155 0.298765
Si Si5 0.587245 0.624479 0.538448
Si Si6 0.247140 0.118773 0.424818
Si Si7 0.550212 0.450077 0.929185
O O1 0.261997 0.796015 0.764738
O O2 0.144067 0.716903 0.529897
O O3 0.250000 0.750000 0.000000
O O4 0.379365 0.725165 0.024154
O O5 0.454366 0.663397 0.665837
O O6 0.500000 0.715617 0.000000
O O7 0.652474 0.658661 0.216928
O O8 0.229740 0.867250 0.857796
O O9 0.289821 0.878623 0.697508
O O10 0.453563 0.836286 0.197746
O O11 0.144090 0.634000 0.453495
O O12 0.000000 0.684221 0.000000
O O13 0.500000 0.630358 0.500000
O O14 0.545296 0.578365 0.373920
O O15 0.175340 0.076513 0.210199
O O16 0.564171 0.500000 0.900890
O O17 0.500000 0.451019 0.000000
#
# Coordination Sequence:
#
# PCOD9188340 Si02
#       7
#     8   8   8   8   8   8   8
#     4  11  25  39  54  83 122 161 210 267 306 353
#     4  10  19  36  59  77 109 158 208 246 298 354
#     4  11  21  36  55  77 118 156 202 244 303 355
#     4   9  22  38  58  85 113 159 210 253 303 365
#     4  11  21  36  57  85 121 155 190 248 311 369
#     4   9  17  36  57  84 110 145 194 246 295 362
#     4  10  19  36  64  90 113 147 196 250 305 372
#
# _framework density 19.578744
#
# number of rings (size 3 to 8) (size 9 to 14) (size 15 to 20)
#    0.000    1.857    2.857    1.714    2.000    7.714 
#    2.571    0.000    0.000    4.714    0.000    1.000 
#    0.000    0.000    0.000    0.000    0.000    0.000 
#
# Total GULP energy -156164.999687 kJ/mol
# GULP energy per Si atom -5577.321417 kJ/mol
# Density = 1.953418 g / cm^3
# Si number density = 19.578744 Si / 1000 Ang^3
#
#
#
# Elastic Constant Matrix: (Units=GPa)
#
#
# Indices 1 2 3 4 5 6 
#
# 1 122.2368 37.8621 31.7832 0.0000 29.1704 0.0000
# 2 37.8621 125.1530 38.5797 0.0000 20.9407 0.0000
# 3 31.7832 38.5797 64.8929 0.0000 25.5423 0.0000
# 4 0.0000 0.0000 0.0000 -11.1902 0.0000 5.7296
# 5 29.1704 20.9407 25.5423 0.0000 36.5543 0.0000
# 6 0.0000 0.0000 0.0000 5.7296 0.0000 13.8294
#
#
#
# Elastic Compliance Matrix: (Units=1/GPa)
#
#
# Indices 1 2 3 4 5 6 
#
# 1 0.010654 -0.001620 -0.001757 0.000000 -0.006346 0.000000
# 2 -0.001620 0.010150 -0.004774 0.000000 -0.001186 0.000000
# 3 -0.001757 -0.004774 0.024112 0.000000 -0.012711 0.000000
# 4 0.000000 0.000000 0.000000 -0.073725 0.000000 0.030545
# 5 -0.006346 -0.001186 -0.012711 0.000000 0.041982 0.000000
# 6 0.000000 0.000000 0.000000 0.030545 0.000000 0.059655
#
#
# Mechanical properties :
#
#
# Convention : Reuss Voigt Hill
#
# Bulk Modulus (GPa) = 34.94785 58.74806 46.84796
# Shear Modulus (GPa) = 50.67413 21.44255 36.05834
#
# Velocity S-wave (km/s) = 5.09298 3.31296 4.29617
# Velocity P-wave (km/s) = 7.24384 6.68622 6.97061
#
# Compressibility (1/GPa) = 0.02861406
#
# Stress axis : x y z
#
# Youngs Moduli (GPa) = 93.86294 98.51812 41.47262
#
# Poissons Ratio (x) = 0.15955 0.07288
# Poissons Ratio (y) = 0.15201 0.19801
# Poissons Ratio (z) = 0.16495 0.47036
#
# Static dielectric constant tensor:
#      x y z
#    x 1.775230 0.000000 0.009910 
#    y 0.000000 1.674800 0.000000 
#    z 0.009910 0.000000 1.792180 
# 
# From -- ./inp_files/91631.got.cif
#   From: 2010.05.17/outbox.cif.g08.bks.cpg/sg12_46_cif.got.tgz:91631.got - 2010.06.03 13:09:07.
