data_PCOD9188053
_publ_section_title
;
Structure prediction by ZEFSAII (Michael W. Deem and Ramdas Pophale) SiO2 
 PCOD9188053
Probable space group: C 2/M
;
_chemical_formula_sum "Si O2"
_cell_formula_units_Z 60
_cell_length_a 14.147858
_cell_length_b 16.640872
_cell_length_c 14.678553
_cell_angle_alpha 90.000000
_cell_angle_beta 66.076960
_cell_angle_gamma 90.000000
_cell_volume 3158.925863
_symmetry_space_group_name_H-M "C 2/M"
_symmetry_group_IT_number 12
_symmetry_cell_setting 'monoclinic'
loop_
_space_group_symop_operation_xyz
x,y,z
-x,y,-z
-x,-y,-z
x,-y,z
1/2+x,1/2+y,z
1/2-x,1/2+y,-z
1/2-x,1/2-y,-z
1/2+x,1/2-y,z
loop_
_atom_site_type_symbol
_atom_site_label
_atom_site_fract_x
_atom_site_fract_y
_atom_site_fract_z
Si Si1 0.715216 0.197166 0.305838
Si Si2 0.223059 0.743088 0.905140
Si Si3 0.105265 0.719671 0.648717
Si Si4 0.500000 0.824546 0.000000
Si Si5 0.223206 0.086231 0.216477
Si Si6 0.043114 0.409750 0.801418
Si Si7 0.120621 0.407561 0.483147
Si Si8 0.045376 0.832700 0.386096
O O1 0.739056 0.195271 0.188287
O O2 0.806133 0.247932 0.319052
O O3 0.691297 0.115497 0.368714
O O4 0.615388 0.252449 0.364661
O O5 0.273542 0.659604 0.853240
O O6 0.100285 0.729720 0.946053
O O7 0.250000 0.750000 0.000000
O O8 0.028686 0.660187 0.733768
O O9 0.141549 0.661253 0.551694
O O10 0.048673 0.799976 0.637341
O O11 0.509713 0.881601 0.084364
O O12 0.332376 0.088593 0.228059
O O13 0.122896 0.101096 0.316917
O O14 0.218722 0.000000 0.172283
O O15 0.012368 0.500000 0.786387
O O16 0.138540 0.500000 0.507261
O O17 0.000000 0.402143 0.500000
O O18 0.000000 0.856868 0.500000
#
# Coordination Sequence:
#
# PCOD9188053 Si02
#       8
#     8   8   8   4   8   8   8   8
#     4  11  21  40  57  86 116 155 196 241 284 346
#     4  10  22  36  62  84 112 151 197 241 292 348
#     4  12  20  36  61  86 117 158 195 232 287 345
#     4  10  19  36  54  86 111 142 188 240 291 342
#     4   9  20  39  56  81 120 146 182 241 290 335
#     4  10  20  34  56  86 116 146 183 238 301 343
#     4  11  23  38  59  89 124 156 191 236 293 351
#     4  11  21  35  57  85 114 155 196 228 273 346
#
# _framework density 18.993798000000002
#
# number of rings (size 3 to 8) (size 9 to 14) (size 15 to 20)
#    0.000    1.467    6.667    1.000    3.733    0.800 
#    0.000    1.333    0.000    0.000    0.000    1.867 
#    0.000    0.000    0.000    0.000    0.000    0.000 
#
# Total GULP energy -167227.600769 kJ/mol
# GULP energy per Si atom -5574.253359 kJ/mol
# Density = 1.895057 g / cm^3
# Si number density = 18.993798 Si / 1000 Ang^3
#
#
#
# Elastic Constant Matrix: (Units=GPa)
#
#
# Indices 1 2 3 4 5 6 
#
# 1 32.3251 -7.1335 15.0664 0.0000 -1.4717 0.0000
# 2 -7.1335 39.6443 12.8114 0.0000 -2.9760 0.0000
# 3 15.0664 12.8114 124.2400 0.0000 -6.9599 0.0000
# 4 0.0000 0.0000 0.0000 -1.6489 0.0000 -5.0215
# 5 -1.4717 -2.9760 -6.9599 0.0000 27.9999 0.0000
# 6 0.0000 0.0000 0.0000 -5.0215 0.0000 4.5258
#
#
#
# Elastic Compliance Matrix: (Units=1/GPa)
#
#
# Indices 1 2 3 4 5 6 
#
# 1 0.035110 0.008045 -0.005006 0.000000 0.001456 0.000000
# 2 0.008045 0.028064 -0.003731 0.000000 0.002478 0.000000
# 3 -0.005006 -0.003731 0.009131 0.000000 0.001610 0.000000
# 4 0.000000 0.000000 0.000000 -0.138495 0.000000 -0.153664
# 5 0.001456 0.002478 0.001610 0.000000 0.036455 0.000000
# 6 0.000000 0.000000 0.000000 -0.153664 0.000000 0.050459
#
#
# Mechanical properties :
#
#
# Convention : Reuss Voigt Hill
#
# Bulk Modulus (GPa) = 14.10010 26.41088 20.25549
# Shear Modulus (GPa) = 109.29508 17.87303 63.58405
#
# Velocity S-wave (km/s) = 7.59391 3.07089 5.79214
# Velocity P-wave (km/s) = 9.18311 5.14869 7.44441
#
# Compressibility (1/GPa) = 0.07092146
#
# Stress axis : x y z
#
# Youngs Moduli (GPa) = 28.48156 35.63346 109.51862
#
# Poissons Ratio (x) = -0.28666 0.54822
# Poissons Ratio (y) = -0.22913 0.40857
# Poissons Ratio (z) = 0.14257 0.13293
#
# Static dielectric constant tensor:
#      x y z
#    x 1.728530 0.000000 0.024720 
#    y 0.000000 1.674440 0.000000 
#    z 0.024720 0.000000 1.708820 
# 
# From -- ./inp_files/206648.got.cif
#   From: 2010.05.17/outbox.cif.g08.bks.cpg/sg12_104_cif.got.tgz:206648.got - 2010.06.03 13:09:07.
