data_PCOD9188669
_publ_section_title
;
Structure prediction by ZEFSAII (Michael W. Deem and Ramdas Pophale) SiO2 
 PCOD9188669
Probable space group: C 2/M
;
_chemical_formula_sum "Si O2"
_cell_formula_units_Z 60
_cell_length_a 27.083851
_cell_length_b 20.418074
_cell_length_c 5.257227
_cell_angle_alpha 90.000000
_cell_angle_beta 75.784416
_cell_angle_gamma 90.000000
_cell_volume 2818.222927
_symmetry_space_group_name_H-M "C 2/M"
_symmetry_group_IT_number 12
_symmetry_cell_setting 'monoclinic'
loop_
_space_group_symop_operation_xyz
x,y,z
-x,y,-z
-x,-y,-z
x,-y,z
1/2+x,1/2+y,z
1/2-x,1/2+y,-z
1/2-x,1/2-y,-z
1/2+x,1/2-y,z
loop_
_atom_site_type_symbol
_atom_site_label
_atom_site_fract_x
_atom_site_fract_y
_atom_site_fract_z
Si Si1 0.170881 0.923786 0.589961
Si Si2 0.372440 0.137817 0.069613
Si Si3 0.767712 0.353039 0.413609
Si Si4 0.500000 0.834768 0.500000
Si Si5 0.703860 0.246286 0.250909
Si Si6 0.054736 0.754641 0.070220
Si Si7 0.583099 0.923683 0.508616
Si Si8 0.868994 0.149664 0.858505
O O1 0.232366 0.916353 0.474872
O O2 0.140756 0.893282 0.383291
O O3 0.157781 0.000000 0.629867
O O4 0.157270 0.886176 0.869557
O O5 0.311320 0.146972 0.145155
O O6 0.382145 0.088512 0.290672
O O7 0.402676 0.205616 0.105220
O O8 0.393726 0.106524 0.781832
O O9 0.722175 0.299933 0.435081
O O10 0.798071 0.323646 0.614745
O O11 0.458730 0.785752 0.661828
O O12 0.530806 0.884561 0.638716
O O13 0.655930 0.279764 0.181650
O O14 0.750000 0.250000 0.000000
O O15 0.076192 0.825975 0.111915
O O16 0.000000 0.757474 0.000000
O O17 0.573621 0.000000 0.481610
#
# Coordination Sequence:
#
# PCOD9188669 Si02
#       8
#     8   8   8   4   8   8   8   8
#     4  11  25  46  67  97 136 184 227 263 326 412
#     4  11  25  39  63  98 132 174 218 280 323 376
#     4  10  23  37  62  95 136 175 214 270 324 391
#     4  10  23  42  62  96 123 166 216 280 330 382
#     4  10  19  36  60  97 128 166 215 266 340 389
#     4  11  24  42  68 101 136 163 221 285 356 400
#     4  11  24  42  61  86 129 180 225 259 316 384
#     4  11  25  40  72 100 133 175 218 284 340 400
#
# _framework density 21.290012000000001
#
# number of rings (size 3 to 8) (size 9 to 14) (size 15 to 20)
#    0.000    1.333    2.667    1.800   11.200    1.067 
#    0.000    2.000    0.000    2.400    0.000    0.000 
#    0.000    0.000    0.000    0.000    0.000    0.000 
#
# Total GULP energy -167138.348481 kJ/mol
# GULP energy per Si atom -5571.278283 kJ/mol
# Density = 2.124156 g / cm^3
# Si number density = 21.290012 Si / 1000 Ang^3
#
#
#
# Elastic Constant Matrix: (Units=GPa)
#
#
# Indices 1 2 3 4 5 6 
#
# 1 69.7066 43.6159 9.0331 0.0000 -2.4768 0.0000
# 2 43.6159 88.3604 29.2639 0.0000 6.1444 0.0000
# 3 9.0331 29.2639 97.7356 0.0000 8.5286 0.0000
# 4 0.0000 0.0000 0.0000 26.5577 0.0000 7.0611
# 5 -2.4768 6.1444 8.5286 0.0000 29.7322 0.0000
# 6 0.0000 0.0000 0.0000 7.0611 0.0000 28.1319
#
#
#
# Elastic Compliance Matrix: (Units=1/GPa)
#
#
# Indices 1 2 3 4 5 6 
#
# 1 0.021305 -0.011120 0.001031 0.000000 0.003777 0.000000
# 2 -0.011120 0.018438 -0.004184 0.000000 -0.003537 0.000000
# 3 0.001031 -0.004184 0.011597 0.000000 -0.002376 0.000000
# 4 0.000000 0.000000 0.000000 0.040346 0.000000 -0.010127
# 5 0.003777 -0.003537 -0.002376 0.000000 0.035361 0.000000
# 6 0.000000 0.000000 0.000000 -0.010127 0.000000 0.038089
#
#
# Mechanical properties :
#
#
# Convention : Reuss Voigt Hill
#
# Bulk Modulus (GPa) = 43.87518 46.62537 45.25028
# Shear Modulus (GPa) = 24.84106 28.47700 26.65903
#
# Velocity S-wave (km/s) = 3.41954 3.66126 3.54246
# Velocity P-wave (km/s) = 6.02031 6.31037 6.16704
#
# Compressibility (1/GPa) = 0.02279193
#
# Stress axis : x y z
#
# Youngs Moduli (GPa) = 46.93843 54.23541 86.23223
#
# Poissons Ratio (x) = 0.60311 -0.08890
# Poissons Ratio (y) = 0.52197 0.36083
# Poissons Ratio (z) = -0.04839 0.22694
#
# Static dielectric constant tensor:
#      x y z
#    x 1.902590 0.000000 0.030260 
#    y 0.000000 1.793680 0.000000 
#    z 0.030260 0.000000 1.856280 
# 
# From -- ./inp_files/29179.got.cif
#   From: 2010.05.17/outbox.cif.g08.bks.cpg/sg12_15_cif.got.tgz:29179.got - 2010.06.03 13:09:07.
