data_PCOD9188709
_publ_section_title
;
Structure prediction by ZEFSAII (Michael W. Deem and Ramdas Pophale) SiO2 
 PCOD9188709
Probable space group: C 2/M
;
_chemical_formula_sum "Si O2"
_cell_formula_units_Z 40
_cell_length_a 14.467665
_cell_length_b 16.257024
_cell_length_c 12.598112
_cell_angle_alpha 90.000000
_cell_angle_beta 143.491564
_cell_angle_gamma 90.000000
_cell_volume 1762.864593
_symmetry_space_group_name_H-M "C 2/M"
_symmetry_group_IT_number 12
_symmetry_cell_setting 'monoclinic'
loop_
_space_group_symop_operation_xyz
x,y,z
-x,y,-z
-x,-y,-z
x,-y,z
1/2+x,1/2+y,z
1/2-x,1/2+y,-z
1/2-x,1/2-y,-z
1/2+x,1/2-y,z
loop_
_atom_site_type_symbol
_atom_site_label
_atom_site_fract_x
_atom_site_fract_y
_atom_site_fract_z
Si Si1 0.253107 0.225302 0.733027
Si Si2 0.721636 0.673567 0.049934
Si Si3 0.945118 0.633184 0.558740
Si Si4 0.582447 0.407173 0.727726
Si Si5 0.288247 0.910737 0.621564
O O1 0.331980 0.290233 0.886208
O O2 0.135479 0.281080 0.553804
O O3 0.165653 0.159947 0.729669
O O4 0.351712 0.167915 0.744824
O O5 0.893755 0.640183 0.230042
O O6 0.750000 0.750000 0.000000
O O7 0.618261 0.613060 0.884146
O O8 0.828934 0.594516 0.535272
O O9 0.000000 0.592109 0.500000
O O10 0.635833 0.500000 0.751896
O O11 0.397915 0.404706 0.540223
O O12 0.341116 0.000000 0.710569
#
# Coordination Sequence:
#
# PCOD9188709 Si02
#       5
#     8   8   8   8   8
#     4  10  19  36  61  86 110 145 193 236 277 330
#     4   9  18  35  57  82 113 148 182 226 281 331
#     4  10  21  38  59  80 110 151 193 233 275 335
#     4  10  20  36  59  87 117 145 182 235 286 332
#     4  11  22  36  58  86 114 148 189 233 282 334
#
# _framework density 22.690342000000001
#
# number of rings (size 3 to 8) (size 9 to 14) (size 15 to 20)
#    0.000    2.000    0.000    6.600    0.000    2.800 
#    0.000   17.000    0.000   15.600    0.000    0.000 
#    0.000    0.000    0.000    0.000    0.000    0.000 
#
# Total GULP energy -111582.853352 kJ/mol
# GULP energy per Si atom -5579.142668 kJ/mol
# Density = 2.263870 g / cm^3
# Si number density = 22.690342 Si / 1000 Ang^3
#
#
#
# Elastic Constant Matrix: (Units=GPa)
#
#
# Indices 1 2 3 4 5 6 
#
# 1 102.9493 24.3860 -2.5024 0.0000 -18.8882 0.0000
# 2 24.3860 107.9479 14.7426 0.0000 -12.7003 0.0000
# 3 -2.5024 14.7426 81.7367 0.0000 -22.7637 0.0000
# 4 0.0000 0.0000 0.0000 13.4561 0.0000 -4.8797
# 5 -18.8882 -12.7003 -22.7637 0.0000 24.7323 0.0000
# 6 0.0000 0.0000 0.0000 -4.8797 0.0000 16.3872
#
#
#
# Elastic Compliance Matrix: (Units=1/GPa)
#
#
# Indices 1 2 3 4 5 6 
#
# 1 0.012565 -0.001946 0.004209 0.000000 0.012470 0.000000
# 2 -0.001946 0.010176 -0.001148 0.000000 0.002683 0.000000
# 3 0.004209 -0.001148 0.017886 0.000000 0.019087 0.000000
# 4 0.000000 0.000000 0.000000 0.083312 0.000000 0.024808
# 5 0.012470 0.002683 0.019087 0.000000 0.068902 0.000000
# 6 0.000000 0.000000 0.000000 0.024808 0.000000 0.068410
#
#
# Mechanical properties :
#
#
# Convention : Reuss Voigt Hill
#
# Bulk Modulus (GPa) = 23.33412 40.65404 31.99408
# Shear Modulus (GPa) = 18.29449 27.98231 23.13840
#
# Velocity S-wave (km/s) = 2.84257 3.51554 3.19681
# Velocity P-wave (km/s) = 4.59125 5.86809 5.26850
#
# Compressibility (1/GPa) = 0.04285571
#
# Stress axis : x y z
#
# Youngs Moduli (GPa) = 79.58830 98.27307 55.90962
#
# Poissons Ratio (x) = 0.19125 -0.23530
# Poissons Ratio (y) = 0.15488 0.06417
# Poissons Ratio (z) = -0.33495 0.11280
#
# Static dielectric constant tensor:
#      x y z
#    x 1.887320 0.000000 -0.011670 
#    y 0.000000 1.916220 0.000000 
#    z -0.011670 0.000000 1.848930 
# 
# From -- ./inp_files/145845.got.cif
#   From: 2010.05.17/outbox.cif.g08.bks.cpg/sg12_73_cif.got.tgz:145845.got - 2010.06.03 13:09:07.
