data_PCOD9188512
_publ_section_title
;
Structure prediction by ZEFSAII (Michael W. Deem and Ramdas Pophale) SiO2 
 PCOD9188512
Probable space group: C 2/M
;
_chemical_formula_sum "Si O2"
_cell_formula_units_Z 56
_cell_length_a 18.823801
_cell_length_b 15.848103
_cell_length_c 16.133408
_cell_angle_alpha 90.000000
_cell_angle_beta 146.268688
_cell_angle_gamma 90.000000
_cell_volume 2672.622502
_symmetry_space_group_name_H-M "C 2/M"
_symmetry_group_IT_number 12
_symmetry_cell_setting 'monoclinic'
loop_
_space_group_symop_operation_xyz
x,y,z
-x,y,-z
-x,-y,-z
x,-y,z
1/2+x,1/2+y,z
1/2-x,1/2+y,-z
1/2-x,1/2-y,-z
1/2+x,1/2-y,z
loop_
_atom_site_type_symbol
_atom_site_label
_atom_site_fract_x
_atom_site_fract_y
_atom_site_fract_z
Si Si1 0.034855 0.806201 0.623318
Si Si2 0.703170 0.595418 0.899990
Si Si3 0.215071 0.770697 0.194767
Si Si4 0.806674 0.097978 0.677918
Si Si5 0.351261 0.092539 0.876625
Si Si6 0.875510 0.297369 0.590917
Si Si7 0.944735 0.798247 0.120835
O O1 0.080797 0.883042 0.723996
O O2 0.151791 0.740020 0.724922
O O3 0.000000 0.838148 0.500000
O O4 0.924808 0.753871 0.559419
O O5 0.706225 0.500000 0.934465
O O6 0.815772 0.604472 0.940287
O O7 0.676386 0.662722 0.946561
O O8 0.213019 0.844271 0.259533
O O9 0.198862 0.676469 0.216733
O O10 0.102713 0.781594 0.018057
O O11 0.684550 0.115088 0.499106
O O12 0.940181 0.133098 0.769494
O O13 0.817871 0.000000 0.708171
O O14 0.296651 0.000000 0.801269
O O15 0.500000 0.089656 0.000000
O O16 0.750000 0.250000 0.500000
O O17 0.989274 0.281390 0.767834
#
# Coordination Sequence:
#
# PCOD9188512 Si02
#       7
#     8   8   8   8   8   8   8
#     4  10  19  36  60  82 117 157 203 248 303 371
#     4   9  19  33  54  84 116 149 193 248 303 355
#     4  11  22  37  62  91 123 163 201 254 311 358
#     4  11  22  38  63  92 125 165 209 249 299 370
#     4   9  18  34  55  81 117 154 192 241 299 362
#     4   9  20  39  59  82 117 161 203 250 298 357
#     4  10  21  37  61  88 122 158 204 257 310 359
#
# _framework density 20.953202999999998
#
# number of rings (size 3 to 8) (size 9 to 14) (size 15 to 20)
#    0.000    2.143    1.429    1.714    0.000    7.143 
#    0.000    2.143    0.000    6.857    0.000    0.000 
#    0.000    0.000    0.000    0.000    0.000    0.000 
#
# Total GULP energy -155982.918392 kJ/mol
# GULP energy per Si atom -5570.818514 kJ/mol
# Density = 2.090551 g / cm^3
# Si number density = 20.953203 Si / 1000 Ang^3
#
#
#
# Elastic Constant Matrix: (Units=GPa)
#
#
# Indices 1 2 3 4 5 6 
#
# 1 82.6131 31.3795 16.7557 0.0000 19.6590 0.0000
# 2 31.3795 137.8050 36.9013 0.0000 2.3916 0.0000
# 3 16.7557 36.9013 70.9181 -0.0001 -9.5666 0.0000
# 4 0.0000 0.0000 -0.0001 20.4689 0.0000 2.1264
# 5 19.6590 2.3916 -9.5666 0.0000 39.4113 0.0000
# 6 0.0000 0.0000 0.0000 2.1264 0.0000 21.3505
#
#
#
# Elastic Compliance Matrix: (Units=1/GPa)
#
#
# Indices 1 2 3 4 5 6 
#
# 1 0.015834 -0.002490 -0.003609 0.000000 -0.008623 0.000000
# 2 -0.002490 0.008925 -0.004096 0.000000 -0.000294 0.000000
# 3 -0.003609 -0.004096 0.017949 0.000000 0.006406 0.000000
# 4 0.000000 0.000000 0.000000 0.049365 0.000000 -0.004916
# 5 -0.008623 -0.000294 0.006406 0.000000 0.031248 0.000000
# 6 0.000000 0.000000 0.000000 -0.004916 0.000000 0.047327
#
#
# Mechanical properties :
#
#
# Convention : Reuss Voigt Hill
#
# Bulk Modulus (GPa) = 44.80304 51.26771 48.03538
# Shear Modulus (GPa) = 25.19191 29.99946 27.59568
#
# Velocity S-wave (km/s) = 3.47117 3.78793 3.63301
# Velocity P-wave (km/s) = 6.12325 6.60697 6.36971
#
# Compressibility (1/GPa) = 0.02231991
#
# Stress axis : x y z
#
# Youngs Moduli (GPa) = 63.15415 112.04047 55.71450
#
# Poissons Ratio (x) = 0.27893 0.20107
# Poissons Ratio (y) = 0.15723 0.22819
# Poissons Ratio (z) = 0.22792 0.45888
#
# Static dielectric constant tensor:
#      x y z
#    x 1.809350 0.000000 0.011550 
#    y 0.000000 1.753020 0.000000 
#    z 0.011550 0.000000 1.799910 
# 
# From -- ./inp_files/284557.got.cif
#   From: 2010.05.17/outbox.cif.g08.bks.cpg/sg12_143_cif.got.tgz:284557.got - 2010.06.03 13:09:07.
