data_PCOD9188960
_publ_section_title
;
Structure prediction by ZEFSAII (Michael W. Deem and Ramdas Pophale) SiO2 
 PCOD9188960
Probable space group: C 2/M
;
_chemical_formula_sum "Si O2"
_cell_formula_units_Z 40
_cell_length_a 24.141687
_cell_length_b 9.897909
_cell_length_c 9.705990
_cell_angle_alpha 90.000000
_cell_angle_beta 125.542723
_cell_angle_gamma 90.000000
_cell_volume 1887.147182
_symmetry_space_group_name_H-M "C 2/M"
_symmetry_group_IT_number 12
_symmetry_cell_setting 'monoclinic'
loop_
_space_group_symop_operation_xyz
x,y,z
-x,y,-z
-x,-y,-z
x,-y,z
1/2+x,1/2+y,z
1/2-x,1/2+y,-z
1/2-x,1/2-y,-z
1/2+x,1/2-y,z
loop_
_atom_site_type_symbol
_atom_site_label
_atom_site_fract_x
_atom_site_fract_y
_atom_site_fract_z
Si Si1 0.581999 0.150410 0.625101
Si Si2 0.215582 0.652219 0.254613
Si Si3 0.363700 0.334602 0.072418
Si Si4 0.853875 0.722263 0.560444
Si Si5 0.994521 0.854979 0.829609
O O1 0.500000 0.185377 0.500000
O O2 0.628000 0.264136 0.767253
O O3 0.615709 0.139140 0.523107
O O4 0.585735 0.000000 0.696019
O O5 0.212557 0.500000 0.193372
O O6 0.171263 0.657505 0.332190
O O7 0.290962 0.690490 0.413873
O O8 0.190433 0.762808 0.106695
O O9 0.355843 0.500000 0.061235
O O10 0.436910 0.284170 0.117876
O O11 0.920120 0.806409 0.693183
O O12 0.000634 0.000000 0.767999
O O13 0.000000 0.865067 0.000000
#
# Coordination Sequence:
#
# PCOD9188960 Si02
#       5
#     8   8   8   8   8
#     4  11  24  43  67  99 136 170 212 271 332 389
#     4  11  25  43  67  98 134 174 219 271 327 387
#     4  11  24  42  67  97 132 174 220 268 324 391
#     4  11  23  42  67  97 132 173 218 267 327 391
#     4  10  19  36  63  95 129 169 217 271 321 379
#
# _framework density 21.196014999999999
#
# number of rings (size 3 to 8) (size 9 to 14) (size 15 to 20)
#    0.000    1.200    4.000    1.800    0.000    6.800 
#    0.000    1.000    0.000    0.000    0.000    0.000 
#    0.000    0.000    0.000    0.000    0.000    0.000 
#
# Total GULP energy -111336.810889 kJ/mol
# GULP energy per Si atom -5566.840544 kJ/mol
# Density = 2.114777 g / cm^3
# Si number density = 21.196015 Si / 1000 Ang^3
#
#
#
# Elastic Constant Matrix: (Units=GPa)
#
#
# Indices 1 2 3 4 5 6 
#
# 1 38.4095 13.0034 12.7919 0.0000 0.1961 0.0000
# 2 13.0034 125.7941 76.3802 0.0000 14.4099 0.0000
# 3 12.7919 76.3802 130.8122 0.0000 17.8488 0.0000
# 4 0.0000 0.0000 0.0000 58.5043 0.0000 16.6044
# 5 0.1961 14.4099 17.8488 0.0000 42.6052 0.0000
# 6 0.0000 0.0000 0.0000 16.6044 0.0000 27.6428
#
#
#
# Elastic Compliance Matrix: (Units=1/GPa)
#
#
# Indices 1 2 3 4 5 6 
#
# 1 0.027249 -0.001918 -0.001714 0.000000 0.001241 0.000000
# 2 -0.001918 0.012511 -0.006938 0.000000 -0.001316 0.000000
# 3 -0.001714 -0.006938 0.012242 0.000000 -0.002774 0.000000
# 4 0.000000 0.000000 0.000000 0.020606 0.000000 -0.012377
# 5 0.001241 -0.001316 -0.002774 0.000000 0.025073 0.000000
# 6 0.000000 0.000000 0.000000 -0.012377 0.000000 0.043611
#
#
# Mechanical properties :
#
#
# Convention : Reuss Voigt Hill
#
# Bulk Modulus (GPa) = 32.40280 55.48521 43.94400
# Shear Modulus (GPa) = 28.94875 38.60647 33.77761
#
# Velocity S-wave (km/s) = 3.69963 4.27242 3.99630
# Velocity P-wave (km/s) = 5.79397 7.11141 6.48622
#
# Compressibility (1/GPa) = 0.03086153
#
# Stress axis : x y z
#
# Youngs Moduli (GPa) = 36.69841 79.92819 81.68781
#
# Poissons Ratio (x) = 0.15332 0.14001
# Poissons Ratio (y) = 0.07040 0.56675
# Poissons Ratio (z) = 0.06290 0.55455
#
# Static dielectric constant tensor:
#      x y z
#    x 1.920460 0.000000 -0.047560 
#    y 0.000000 1.879870 0.000000 
#    z -0.047560 0.000000 1.787780 
# 
# From -- ./inp_files/94650.got.cif
#   From: 2010.05.17/outbox.cif.g08.bks.cpg/sg12_48_cif.got.tgz:94650.got - 2010.06.03 13:09:07.
