data_PCOD9188563
_publ_section_title
;
Structure prediction by ZEFSAII (Michael W. Deem and Ramdas Pophale) SiO2 
 PCOD9188563
Probable space group: C 2/M
;
_chemical_formula_sum "Si O2"
_cell_formula_units_Z 40
_cell_length_a 13.916533
_cell_length_b 31.184453
_cell_length_c 9.945273
_cell_angle_alpha 90.000000
_cell_angle_beta 29.296148
_cell_angle_gamma 90.000000
_cell_volume 2111.943289
_symmetry_space_group_name_H-M "C 2/M"
_symmetry_group_IT_number 12
_symmetry_cell_setting 'monoclinic'
loop_
_space_group_symop_operation_xyz
x,y,z
-x,y,-z
-x,-y,-z
x,-y,z
1/2+x,1/2+y,z
1/2-x,1/2+y,-z
1/2-x,1/2-y,-z
1/2+x,1/2-y,z
loop_
_atom_site_type_symbol
_atom_site_label
_atom_site_fract_x
_atom_site_fract_y
_atom_site_fract_z
Si Si1 0.033763 0.199154 0.299093
Si Si2 0.354716 0.450085 0.304658
Si Si3 0.507443 0.790902 0.328944
Si Si4 0.484807 0.114922 0.355977
Si Si5 0.561253 0.394834 0.270311
O O1 0.938961 0.243775 0.363904
O O2 0.983101 0.151573 0.311153
O O3 0.000000 0.197433 0.500000
O O4 0.265462 0.204434 0.990031
O O5 0.303032 0.500000 0.381991
O O6 0.469630 0.432100 0.293013
O O7 0.165907 0.420640 0.509445
O O8 0.500000 0.445604 0.000000
O O9 0.500000 0.789214 0.500000
O O10 0.415939 0.836614 0.401178
O O11 0.500000 0.113465 0.500000
O O12 0.703053 0.106782 0.032599
O O13 0.500000 0.399089 0.500000
#
# Coordination Sequence:
#
# PCOD9188563 Si02
#       5
#     8   8   8   8   8
#     4   8  14  27  48  77 111 145 177 218 274 329
#     4  11  24  40  60  86 112 146 198 246 286 340
#     4   8  14  25  48  79 108 142 184 221 264 330
#     4  10  19  36  60  85 114 152 191 233 285 337
#     4  10  21  38  60  86 118 150 184 233 290 342
#
# _framework density 18.939903999999999
#
# number of rings (size 3 to 8) (size 9 to 14) (size 15 to 20)
#    0.000    2.600    2.000    0.000    0.000    2.400 
#    0.000    2.000    0.000    0.000    0.000    0.000 
#    0.000    0.000    0.000    0.000    0.000    0.000 
#
# Total GULP energy -111359.318065 kJ/mol
# GULP energy per Si atom -5567.965903 kJ/mol
# Density = 1.889680 g / cm^3
# Si number density = 18.939904 Si / 1000 Ang^3
#
#
#
# Elastic Constant Matrix: (Units=GPa)
#
#
# Indices 1 2 3 4 5 6 
#
# 1 44.7368 50.3109 21.5169 0.0000 -7.8968 0.0000
# 2 50.3109 200.2302 34.8417 0.0000 -15.2474 0.0000
# 3 21.5169 34.8417 123.6730 0.0000 9.5983 0.0000
# 4 0.0000 0.0000 0.0000 27.9240 0.0000 -1.8290
# 5 -7.8968 -15.2474 9.5983 0.0000 18.4944 0.0000
# 6 0.0000 0.0000 0.0000 -1.8290 0.0000 43.5193
#
#
#
# Elastic Compliance Matrix: (Units=1/GPa)
#
#
# Indices 1 2 3 4 5 6 
#
# 1 0.034605 -0.006945 -0.004966 0.000000 0.011627 0.000000
# 2 -0.006945 0.007199 -0.001094 0.000000 0.003538 0.000000
# 3 -0.004966 -0.001094 0.009891 0.000000 -0.008156 0.000000
# 4 0.000000 0.000000 0.000000 0.035910 0.000000 0.001509
# 5 0.011627 0.003538 -0.008156 0.000000 0.066184 0.000000
# 6 0.000000 0.000000 0.000000 0.001509 0.000000 0.023042
#
#
# Mechanical properties :
#
#
# Convention : Reuss Voigt Hill
#
# Bulk Modulus (GPa) = 38.93628 64.66432 51.80030
# Shear Modulus (GPa) = 23.65131 35.45224 29.55177
#
# Velocity S-wave (km/s) = 3.53761 4.33116 3.95434
# Velocity P-wave (km/s) = 6.10644 7.69596 6.94682
#
# Compressibility (1/GPa) = 0.02568299
#
# Stress axis : x y z
#
# Youngs Moduli (GPa) = 28.89781 138.90417 101.10000
#
# Poissons Ratio (x) = 0.96474 0.50209
# Poissons Ratio (y) = 0.20071 0.11064
# Poissons Ratio (z) = 0.14351 0.15201
#
# Static dielectric constant tensor:
#      x y z
#    x 1.630430 0.000000 -0.002830 
#    y 0.000000 1.725550 0.000000 
#    z -0.002830 0.000000 1.626880 
# 
# From -- ./inp_files/68449.got.cif
#   From: 2010.05.17/outbox.cif.g08.bks.cpg/sg12_35_cif.got.tgz:68449.got - 2010.06.03 13:09:07.
