data_PCOD9188015
_publ_section_title
;
Structure prediction by ZEFSAII (Michael W. Deem and Ramdas Pophale) SiO2 
 PCOD9188015
Probable space group: C 2/M
;
_chemical_formula_sum "Si O2"
_cell_formula_units_Z 64
_cell_length_a 19.230463
_cell_length_b 14.153409
_cell_length_c 25.162769
_cell_angle_alpha 90.000000
_cell_angle_beta 147.661418
_cell_angle_gamma 90.000000
_cell_volume 3663.525438
_symmetry_space_group_name_H-M "C 2/M"
_symmetry_group_IT_number 12
_symmetry_cell_setting 'monoclinic'
loop_
_space_group_symop_operation_xyz
x,y,z
-x,y,-z
-x,-y,-z
x,-y,z
1/2+x,1/2+y,z
1/2-x,1/2+y,-z
1/2-x,1/2-y,-z
1/2+x,1/2-y,z
loop_
_atom_site_type_symbol
_atom_site_label
_atom_site_fract_x
_atom_site_fract_y
_atom_site_fract_z
Si Si1 0.899045 0.390856 0.982901
Si Si2 0.150447 0.389263 0.445567
Si Si3 0.013742 0.754795 0.593545
Si Si4 0.054095 0.611098 0.184805
Si Si5 0.045606 0.608212 0.764722
Si Si6 0.371430 0.299682 0.222745
Si Si7 0.786531 0.243229 0.370429
Si Si8 0.123796 0.886236 0.337161
O O1 0.866866 0.500000 0.974453
O O2 0.973972 0.351591 0.082739
O O3 0.767752 0.341580 0.879955
O O4 0.000000 0.388610 0.000000
O O5 0.139891 0.500000 0.449139
O O6 0.295151 0.362874 0.556221
O O7 0.051159 0.334674 0.419295
O O8 0.099577 0.373300 0.353288
O O9 0.080729 0.811784 0.685242
O O10 0.122044 0.727492 0.620071
O O11 0.890314 0.796457 0.481091
O O12 0.084562 0.500000 0.195718
O O13 0.184351 0.667756 0.282190
O O14 0.964170 0.617929 0.178860
O O15 0.080523 0.500000 0.774037
O O16 0.130843 0.688380 0.792788
O O17 0.480522 0.346592 0.255126
O O18 0.703405 0.328496 0.343585
O O19 0.122809 0.000000 0.328095
#
# Coordination Sequence:
#
# PCOD9188015 Si02
#       8
#     8   8   8   8   8   8   8   8
#     4  10  22  39  57  76 103 140 179 214 258 325
#     4   8  16  30  49  75 108 144 180 211 255 315
#     4   9  20  31  53  77 110 147 176 215 265 320
#     4  10  20  35  55  74 100 138 177 216 262 313
#     4   9  18  32  52  80 105 135 174 216 262 313
#     4  11  20  35  57  81 107 139 178 225 266 312
#     4  10  19  36  51  79 112 142 178 219 266 316
#     4  10  20  32  52  82 113 144 177 221 269 314
#
# _framework density 17.469512000000002
#
# number of rings (size 3 to 8) (size 9 to 14) (size 15 to 20)
#    0.000    2.375    1.250    1.125    1.750    2.500 
#    0.000    5.000    0.000    0.375    0.000    0.000 
#    0.000    0.000    0.000    0.000    0.000    0.000 
#
# Total GULP energy -178230.309883 kJ/mol
# GULP energy per Si atom -5569.697184 kJ/mol
# Density = 1.742975 g / cm^3
# Si number density = 17.469512 Si / 1000 Ang^3
#
#
#
# Elastic Constant Matrix: (Units=GPa)
#
#
# Indices 1 2 3 4 5 6 
#
# 1 71.4269 18.9349 49.7081 0.0001 -4.3861 0.0000
# 2 18.9349 55.9951 47.7016 0.0011 2.6246 0.0001
# 3 49.7081 47.7016 132.0705 0.0022 -5.3347 0.0001
# 4 0.0001 0.0011 0.0022 20.2454 0.0000 -1.8440
# 5 -4.3861 2.6246 -5.3347 0.0000 29.5161 0.0000
# 6 0.0000 0.0001 0.0001 -1.8440 0.0000 14.2862
#
#
#
# Elastic Compliance Matrix: (Units=1/GPa)
#
#
# Indices 1 2 3 4 5 6 
#
# 1 0.019056 -0.000676 -0.006861 0.000001 0.001652 0.000000
# 2 -0.000676 0.026299 -0.009411 0.000000 -0.004140 0.000000
# 3 -0.006861 -0.009411 0.013646 -0.000001 0.002284 0.000000
# 4 0.000001 0.000000 -0.000001 0.049982 0.000000 0.006451
# 5 0.001652 -0.004140 0.002284 0.000000 0.034906 0.000000
# 6 0.000000 0.000000 0.000000 0.006451 0.000000 0.070830
#
#
# Mechanical properties :
#
#
# Convention : Reuss Voigt Hill
#
# Bulk Modulus (GPa) = 39.83637 54.68686 47.26162
# Shear Modulus (GPa) = 19.45647 22.35273 20.90460
#
# Velocity S-wave (km/s) = 3.34089 3.58093 3.46299
# Velocity P-wave (km/s) = 6.14288 6.96201 6.56523
#
# Compressibility (1/GPa) = 0.02510269
#
# Stress axis : x y z
#
# Youngs Moduli (GPa) = 52.47702 38.02440 73.28367
#
# Poissons Ratio (x) = 0.02571 0.50282
# Poissons Ratio (y) = 0.03549 0.68970
# Poissons Ratio (z) = 0.36006 0.35786
#
# Static dielectric constant tensor:
#      x y z
#    x 1.594630 0.000000 -0.029040 
#    y 0.000000 1.601870 0.000000 
#    z -0.029040 0.000000 1.617880 
# 
# From -- ./inp_files/344080.got.cif
#   From: 2010.05.17/outbox.cif.g08.bks.cpg/sg12_173_cif.got.tgz:344080.got - 2010.06.03 13:09:07.
