data_PCOD9188687
_publ_section_title
;
Structure prediction by ZEFSAII (Michael W. Deem and Ramdas Pophale) SiO2 
 PCOD9188687
Probable space group: C 2/M
;
_chemical_formula_sum "Si O2"
_cell_formula_units_Z 64
_cell_length_a 31.143159
_cell_length_b 17.994960
_cell_length_c 12.105076
_cell_angle_alpha 90.000000
_cell_angle_beta 28.607583
_cell_angle_gamma 90.000000
_cell_volume 3248.198156
_symmetry_space_group_name_H-M "C 2/M"
_symmetry_group_IT_number 12
_symmetry_cell_setting 'monoclinic'
loop_
_space_group_symop_operation_xyz
x,y,z
-x,y,-z
-x,-y,-z
x,-y,z
1/2+x,1/2+y,z
1/2-x,1/2+y,-z
1/2-x,1/2-y,-z
1/2+x,1/2-y,z
loop_
_atom_site_type_symbol
_atom_site_label
_atom_site_fract_x
_atom_site_fract_y
_atom_site_fract_z
Si Si1 0.171128 0.307146 0.210010
Si Si2 0.454122 0.680871 0.497975
Si Si3 0.257479 0.914874 0.516122
Si Si4 0.145679 0.582638 0.933618
Si Si5 0.100711 0.809179 0.789594
Si Si6 0.719248 0.414037 0.177105
Si Si7 0.599064 0.758850 0.028182
Si Si8 0.800078 0.295779 0.601785
O O1 0.085525 0.259498 0.368484
O O2 0.166354 0.314962 0.352522
O O3 0.250000 0.250000 0.000000
O O4 0.202366 0.381402 0.078931
O O5 0.500000 0.642539 0.500000
O O6 0.371238 0.633730 0.635989
O O7 0.527889 0.702832 0.241411
O O8 0.325406 0.914422 0.259513
O O9 0.168604 0.873391 0.673046
O O10 0.293703 0.866639 0.536056
O O11 0.239796 0.000000 0.586839
O O12 0.108900 0.500000 0.041225
O O13 0.236317 0.590818 0.802038
O O14 0.085545 0.655068 0.090422
O O15 0.098749 0.751948 0.897040
O O16 0.139566 0.765536 0.596343
O O17 0.000000 0.836283 0.000000
O O18 0.700654 0.500000 0.195126
O O19 0.699196 0.736461 0.840138
#
# Coordination Sequence:
#
# PCOD9188687 Si02
#       8
#     8   8   8   8   8   8   8   8
#     4  10  21  37  61  83 116 154 201 246 293 356
#     4  11  22  36  58  91 117 155 199 249 295 355
#     4  10  21  37  59  85 117 158 194 238 298 355
#     4  10  19  36  61  83 112 155 201 243 289 354
#     4  11  22  34  57  88 118 154 196 249 296 349
#     4  10  22  39  60  88 121 160 198 242 305 362
#     4  11  19  35  58  82 117 151 200 243 297 351
#     4  11  20  39  58  85 117 157 204 249 295 353
#
# _framework density 19.703230999999999
#
# number of rings (size 3 to 8) (size 9 to 14) (size 15 to 20)
#    0.000    1.500    2.500    5.250    1.750    1.000 
#    0.000    3.125    0.000    5.250    0.000    0.000 
#    0.000    0.000    0.000    0.000    0.000    0.000 
#
# Total GULP energy -178631.259313 kJ/mol
# GULP energy per Si atom -5582.226854 kJ/mol
# Density = 1.965839 g / cm^3
# Si number density = 19.703231 Si / 1000 Ang^3
#
#
#
# Elastic Constant Matrix: (Units=GPa)
#
#
# Indices 1 2 3 4 5 6 
#
# 1 64.2385 19.4409 -4.6510 0.0000 14.0368 0.0000
# 2 19.4409 114.9679 13.9113 0.0000 14.3649 0.0000
# 3 -4.6510 13.9113 59.3180 0.0000 9.1268 0.0000
# 4 0.0000 0.0000 0.0000 20.9640 0.0000 -1.2809
# 5 14.0368 14.3649 9.1268 0.0000 23.6558 0.0000
# 6 0.0000 0.0000 0.0000 -1.2809 0.0000 16.6409
#
#
#
# Elastic Compliance Matrix: (Units=1/GPa)
#
#
# Indices 1 2 3 4 5 6 
#
# 1 0.019003 -0.002249 0.003766 0.000000 -0.011363 0.000000
# 2 -0.002249 0.009791 -0.001874 0.000000 -0.003888 0.000000
# 3 0.003766 -0.001874 0.018883 0.000000 -0.008382 0.000000
# 4 0.000000 0.000000 0.000000 0.047926 0.000000 0.003689
# 5 -0.011363 -0.003888 -0.008382 0.000000 0.054610 0.000000
# 6 0.000000 0.000000 0.000000 0.003689 0.000000 0.060377
#
#
# Mechanical properties :
#
#
# Convention : Reuss Voigt Hill
#
# Bulk Modulus (GPa) = 21.29401 32.88073 27.08737
# Shear Modulus (GPa) = 22.03031 26.24034 24.13533
#
# Velocity S-wave (km/s) = 3.34744 3.65331 3.50371
# Velocity P-wave (km/s) = 5.07654 5.87536 5.49050
#
# Compressibility (1/GPa) = 0.04696156
#
# Stress axis : x y z
#
# Youngs Moduli (GPa) = 52.62226 102.13466 52.95830
#
# Poissons Ratio (x) = 0.22973 -0.19944
# Poissons Ratio (y) = 0.11836 0.09926
# Poissons Ratio (z) = -0.19817 0.19144
#
# Static dielectric constant tensor:
#      x y z
#    x 1.716880 0.000000 0.005490 
#    y 0.000000 1.700020 0.000000 
#    z 0.005490 0.000000 1.704050 
# 
# From -- ./inp_files/190031.got.cif
#   From: 2010.05.17/outbox.cif.g08.bks.cpg/sg12_96_cif.got.tgz:190031.got - 2010.06.03 13:09:07.
