data_PCOD9188077
_publ_section_title
;
Structure prediction by ZEFSAII (Michael W. Deem and Ramdas Pophale) SiO2 
 PCOD9188077
Probable space group: C 2/M
;
_chemical_formula_sum "Si O2"
_cell_formula_units_Z 58
_cell_length_a 26.754476
_cell_length_b 18.561595
_cell_length_c 11.656025
_cell_angle_alpha 90.000000
_cell_angle_beta 151.361626
_cell_angle_gamma 90.000000
_cell_volume 2774.286581
_symmetry_space_group_name_H-M "C 2/M"
_symmetry_group_IT_number 12
_symmetry_cell_setting 'monoclinic'
loop_
_space_group_symop_operation_xyz
x,y,z
-x,y,-z
-x,-y,-z
x,-y,z
1/2+x,1/2+y,z
1/2-x,1/2+y,-z
1/2-x,1/2-y,-z
1/2+x,1/2-y,z
loop_
_atom_site_type_symbol
_atom_site_label
_atom_site_fract_x
_atom_site_fract_y
_atom_site_fract_z
Si Si1 0.891179 0.682774 0.598358
Si Si2 0.725160 0.916773 0.472206
Si Si3 0.635674 0.652092 0.432437
Si Si4 0.475458 0.135233 0.332256
Si Si5 0.694560 0.318588 0.031453
Si Si6 0.500000 0.000000 0.500000
Si Si7 0.256292 0.153826 0.903523
Si Si8 0.424046 0.582221 0.044084
O O1 0.866910 0.626119 0.649447
O O2 0.887368 0.764033 0.637749
O O3 0.796590 0.673929 0.316589
O O4 0.990953 0.669891 0.719152
O O5 0.766667 0.875587 0.444106
O O6 0.699163 0.000000 0.397447
O O7 0.827186 0.915163 0.760965
O O8 0.669160 0.645816 0.632673
O O9 0.532830 0.604896 0.205954
O O10 0.500000 0.180195 0.500000
O O11 0.540125 0.063724 0.492311
O O12 0.357460 0.105204 0.089378
O O13 0.688964 0.232651 0.001966
O O14 0.712804 0.351299 0.943107
O O15 0.602337 0.358945 0.911441
O O16 0.430816 0.500000 0.100948
#
# Coordination Sequence:
#
# PCOD9188077 Si02
#       8
#     8   8   8   8   8   2   8   8
#     4  10  20  36  64  87 115 148 201 245 282 340
#     4  10  22  40  63  84 115 155 200 249 291 344
#     4  11  22  37  56  90 116 157 191 237 290 354
#     4  10  19  36  55  86 109 149 184 234 283 341
#     4   9  18  36  56  88 112 150 192 236 288 349
#     4   8  20  32  56  76 114 134 198 228 268 352
#     4  10  20  35  57  82 121 149 188 236 292 345
#     4  10  21  39  61  85 116 153 199 246 293 349
#
# _framework density 20.906275999999998
#
# number of rings (size 3 to 8) (size 9 to 14) (size 15 to 20)
#    0.414    1.655    1.379    2.069    0.966    1.655 
#    8.690    2.759    0.000    0.828    0.000    0.000 
#    0.000    0.000    0.000    0.000    0.000    0.000 
#
# Total GULP energy -161440.736994 kJ/mol
# GULP energy per Si atom -5566.921965 kJ/mol
# Density = 2.085869 g / cm^3
# Si number density = 20.906276 Si / 1000 Ang^3
#
#
#
# Elastic Constant Matrix: (Units=GPa)
#
#
# Indices 1 2 3 4 5 6 
#
# 1 88.5308 14.3372 -19.1976 0.0000 3.1743 0.0000
# 2 14.3372 64.0186 -9.4526 0.0000 -10.3392 0.0000
# 3 -19.1976 -9.4526 24.9405 0.0000 7.6342 0.0000
# 4 0.0000 0.0000 0.0000 0.3271 0.0000 9.5064
# 5 3.1743 -10.3392 7.6342 0.0000 18.2901 0.0000
# 6 0.0000 0.0000 0.0000 9.5064 0.0000 23.6228
#
#
#
# Elastic Compliance Matrix: (Units=1/GPa)
#
#
# Indices 1 2 3 4 5 6 
#
# 1 0.015064 -0.002985 0.013507 0.000000 -0.009939 0.000000
# 2 -0.002985 0.018147 0.001470 0.000000 0.010163 0.000000
# 3 0.013507 0.001470 0.059058 0.000000 -0.026164 0.000000
# 4 0.000000 0.000000 0.000000 -0.285837 0.000000 0.115028
# 5 -0.009939 0.010163 -0.026164 0.000000 0.073065 0.000000
# 6 0.000000 0.000000 0.000000 0.115028 0.000000 -0.003958
#
#
# Mechanical properties :
#
#
# Convention : Reuss Voigt Hill
#
# Bulk Modulus (GPa) = 8.60195 16.54041 12.57118
# Shear Modulus (GPa) = -45.58159 21.23486 -12.17336
#
# Velocity S-wave (km/s) = -4.67441 3.19049 -2.41567
# Velocity P-wave (km/s) = 5.00101 4.63693 1.32456
#
# Compressibility (1/GPa) = 0.11625269
#
# Stress axis : x y z
#
# Youngs Moduli (GPa) = 66.38305 55.10486 16.93258
#
# Poissons Ratio (x) = 0.16446 -0.22870
# Poissons Ratio (y) = 0.19812 -0.02489
# Poissons Ratio (z) = -0.89661 -0.08099
#
# Static dielectric constant tensor:
#      x y z
#    x 1.790910 0.000000 0.006850 
#    y 0.000000 1.777390 0.000000 
#    z 0.006850 0.000000 1.838390 
# 
# From -- ./inp_files/184447.got.cif
#   From: 2010.05.17/outbox.cif.g08.bks.cpg/sg12_93_cif.got.tgz:184447.got - 2010.06.03 13:09:07.
