data_PCOD9188784
_publ_section_title
;
Structure prediction by ZEFSAII (Michael W. Deem and Ramdas Pophale) SiO2 
 PCOD9188784
Probable space group: C 2/M
;
_chemical_formula_sum "Si O2"
_cell_formula_units_Z 56
_cell_length_a 27.675131
_cell_length_b 8.388994
_cell_length_c 13.026508
_cell_angle_alpha 90.000000
_cell_angle_beta 67.964372
_cell_angle_gamma 90.000000
_cell_volume 2803.394603
_symmetry_space_group_name_H-M "C 2/M"
_symmetry_group_IT_number 12
_symmetry_cell_setting 'monoclinic'
loop_
_space_group_symop_operation_xyz
x,y,z
-x,y,-z
-x,-y,-z
x,-y,z
1/2+x,1/2+y,z
1/2-x,1/2+y,-z
1/2-x,1/2-y,-z
1/2+x,1/2-y,z
loop_
_atom_site_type_symbol
_atom_site_label
_atom_site_fract_x
_atom_site_fract_y
_atom_site_fract_z
Si Si1 0.998177 0.306868 0.819195
Si Si2 0.385784 0.309611 0.225611
Si Si3 0.845048 0.692953 0.659916
Si Si4 0.197044 0.692415 0.092964
Si Si5 0.890366 0.307681 0.998816
Si Si6 0.308740 0.690523 0.467459
Si Si7 0.537600 0.805807 0.379113
O O1 0.000401 0.500000 0.821145
O O2 0.982638 0.256750 0.716195
O O3 0.054891 0.244040 0.801850
O O4 0.949954 0.255594 0.929687
O O5 0.383842 0.500000 0.227547
O O6 0.370831 0.249789 0.124457
O O7 0.347301 0.249711 0.346239
O O8 0.843837 0.500000 0.655625
O O9 0.809246 0.744712 0.784073
O O10 0.829013 0.757370 0.562625
O O11 0.903577 0.742403 0.643531
O O12 0.196241 0.500000 0.093865
O O13 0.250000 0.750000 0.000000
O O14 0.147818 0.744543 0.062656
O O15 0.890833 0.500000 0.998088
O O16 0.308581 0.500000 0.462443
O O17 0.250000 0.750000 0.500000
O O18 0.500000 0.751478 0.500000
O O19 0.537271 0.000000 0.378446
#
# Coordination Sequence:
#
# PCOD9188784 Si02
#       7
#     8   8   8   8   8   8   8
#     4  10  19  36  61  90 120 155 200 244 290 351
#     4  11  25  41  58  86 123 159 198 248 302 355
#     4  10  20  39  64  91 122 152 192 248 300 350
#     4  10  22  39  61  91 124 156 197 248 298 352
#     4  10  21  39  62  90 122 158 201 245 290 351
#     4  11  26  45  63  86 118 157 203 252 301 356
#     4   9  16  29  56  89 117 149 190 234 284 344
#
# _framework density 19.975781999999999
#
# number of rings (size 3 to 8) (size 9 to 14) (size 15 to 20)
#    0.000    1.857    1.429    2.143    2.000    6.857 
#    0.000    0.714    0.000    2.571    0.000    0.000 
#    0.000    0.000    0.000    0.000    0.000    0.000 
#
# Total GULP energy -156438.978881 kJ/mol
# GULP energy per Si atom -5587.106389 kJ/mol
# Density = 1.993032 g / cm^3
# Si number density = 19.975782 Si / 1000 Ang^3
#
#
#
# Elastic Constant Matrix: (Units=GPa)
#
#
# Indices 1 2 3 4 5 6 
#
# 1 64.7526 12.5074 44.6519 0.0000 -5.6764 0.0000
# 2 12.5074 14.8810 21.7069 0.0000 -1.0679 0.0000
# 3 44.6519 21.7069 182.9915 0.0000 -5.6696 0.0000
# 4 0.0000 0.0000 0.0000 25.8125 0.0000 -3.7779
# 5 -5.6764 -1.0679 -5.6696 0.0000 41.1115 0.0000
# 6 0.0000 0.0000 0.0000 -3.7779 0.0000 9.3236
#
#
#
# Elastic Compliance Matrix: (Units=1/GPa)
#
#
# Indices 1 2 3 4 5 6 
#
# 1 0.020313 -0.011838 -0.003490 0.000000 0.002016 0.000000
# 2 -0.011838 0.088184 -0.007584 0.000000 -0.000390 0.000000
# 3 -0.003490 -0.007584 0.007226 0.000000 0.000318 0.000000
# 4 0.000000 0.000000 0.000000 0.041183 0.000000 0.016688
# 5 0.002016 -0.000390 0.000318 0.000000 0.024636 0.000000
# 6 0.000000 0.000000 0.000000 0.016688 0.000000 0.114016
#
#
# Mechanical properties :
#
#
# Convention : Reuss Voigt Hill
#
# Bulk Modulus (GPa) = 14.30620 46.70636 30.50628
# Shear Modulus (GPa) = 13.71055 27.50011 20.60533
#
# Velocity S-wave (km/s) = 2.62269 3.71438 3.21521
# Velocity P-wave (km/s) = 4.04334 6.46744 5.39335
#
# Compressibility (1/GPa) = 0.06989978
#
# Stress axis : x y z
#
# Youngs Moduli (GPa) = 49.22900 11.33989 138.39259
#
# Poissons Ratio (x) = 0.13424 0.48299
# Poissons Ratio (y) = 0.58275 1.04960
# Poissons Ratio (z) = 0.17181 0.08600
#
# Static dielectric constant tensor:
#      x y z
#    x 1.673140 0.000000 -0.005630 
#    y 0.000000 1.699430 0.000000 
#    z -0.005630 0.000000 1.706530 
# 
# From -- ./inp_files/180823.got.cif
#   From: 2010.05.17/outbox.cif.g08.bks.cpg/sg12_91_cif.got.tgz:180823.got - 2010.06.03 13:09:07.
