data_PCOD9188645
_publ_section_title
;
Structure prediction by ZEFSAII (Michael W. Deem and Ramdas Pophale) SiO2 
 PCOD9188645
Probable space group: C 2/M
;
_chemical_formula_sum "Si O2"
_cell_formula_units_Z 48
_cell_length_a 24.402575
_cell_length_b 8.884062
_cell_length_c 11.613217
_cell_angle_alpha 90.000000
_cell_angle_beta 69.236210
_cell_angle_gamma 90.000000
_cell_volume 2354.152386
_symmetry_space_group_name_H-M "C 2/M"
_symmetry_group_IT_number 12
_symmetry_cell_setting 'monoclinic'
loop_
_space_group_symop_operation_xyz
x,y,z
-x,y,-z
-x,-y,-z
x,-y,z
1/2+x,1/2+y,z
1/2-x,1/2+y,-z
1/2-x,1/2-y,-z
1/2+x,1/2-y,z
loop_
_atom_site_type_symbol
_atom_site_label
_atom_site_fract_x
_atom_site_fract_y
_atom_site_fract_z
Si Si1 0.988677 0.676846 0.199612
Si Si2 0.668763 0.679720 0.299639
Si Si3 0.270807 0.321675 0.364861
Si Si4 0.625661 0.178897 0.845305
Si Si5 0.944056 0.825495 0.457329
Si Si6 0.884387 0.179148 0.907896
O O1 0.003506 0.500000 0.182610
O O2 0.942271 0.711431 0.133608
O O3 0.955006 0.716077 0.342856
O O4 0.047907 0.771835 0.154317
O O5 0.681143 0.500000 0.294472
O O6 0.724008 0.770872 0.303711
O O7 0.614016 0.707336 0.426095
O O8 0.648786 0.718761 0.185476
O O9 0.273203 0.500000 0.374593
O O10 0.250000 0.250000 0.500000
O O11 0.333159 0.258258 0.278270
O O12 0.633785 0.000000 0.832573
O O13 0.639936 0.238938 0.961327
O O14 0.000000 0.815294 0.500000
O O15 0.940666 0.000000 0.419349
O O16 0.880914 0.000000 0.925447
#
# Coordination Sequence:
#
# PCOD9188645 Si02
#       6
#     8   8   8   8   8   8
#     4  11  23  38  60  92 129 167 209 261 314 370
#     4  10  22  41  65  93 128 166 208 260 313 371
#     4  12  26  45  69  95 124 163 209 258 313 372
#     4  11  25  44  64  91 127 168 213 260 311 371
#     4  10  19  36  60  89 123 161 204 253 309 368
#     4  11  23  41  65  94 127 167 211 257 314 375
#
# _framework density 20.389503999999999
#
# number of rings (size 3 to 8) (size 9 to 14) (size 15 to 20)
#    0.000    1.167    1.667    4.500    0.000   10.333 
#    0.000    0.000    0.000    0.000    0.000    0.000 
#    0.000    0.000    0.000    0.000    0.000    0.000 
#
# Total GULP energy -134315.510738 kJ/mol
# GULP energy per Si atom -5596.479614 kJ/mol
# Density = 2.034310 g / cm^3
# Si number density = 20.389504 Si / 1000 Ang^3
#
#
#
# Elastic Constant Matrix: (Units=GPa)
#
#
# Indices 1 2 3 4 5 6 
#
# 1 86.4194 49.6364 19.5277 0.0000 4.8886 0.0000
# 2 49.6364 73.4696 38.3516 0.0000 8.8872 0.0000
# 3 19.5277 38.3516 97.8556 0.0000 10.4916 0.0000
# 4 0.0000 0.0000 0.0000 37.3557 0.0000 0.2076
# 5 4.8886 8.8872 10.4916 0.0000 28.5624 0.0000
# 6 0.0000 0.0000 0.0000 0.2076 0.0000 31.8561
#
#
#
# Elastic Compliance Matrix: (Units=1/GPa)
#
#
# Indices 1 2 3 4 5 6 
#
# 1 0.019104 -0.013761 0.001533 0.000000 0.000449 0.000000
# 2 -0.013761 0.027271 -0.007583 0.000000 -0.003345 0.000000
# 3 0.001533 -0.007583 0.013180 0.000000 -0.002744 0.000000
# 4 0.000000 0.000000 0.000000 0.026771 0.000000 -0.000174
# 5 0.000449 -0.003345 -0.002744 0.000000 0.036983 0.000000
# 6 0.000000 0.000000 0.000000 -0.000174 0.000000 0.031392
#
#
# Mechanical properties :
#
#
# Convention : Reuss Voigt Hill
#
# Bulk Modulus (GPa) = 50.17270 52.53068 51.35169
# Shear Modulus (GPa) = 24.87973 29.57010 27.22492
#
# Velocity S-wave (km/s) = 3.49696 3.81236 3.65806
# Velocity P-wave (km/s) = 6.40043 6.72297 6.56368
#
# Compressibility (1/GPa) = 0.01993116
#
# Stress axis : x y z
#
# Youngs Moduli (GPa) = 52.34639 36.66874 75.87511
#
# Poissons Ratio (x) = 0.50459 -0.11630
# Poissons Ratio (y) = 0.72033 0.57540
# Poissons Ratio (z) = -0.08024 0.27808
#
# Static dielectric constant tensor:
#      x y z
#    x 1.717580 0.000000 0.002180 
#    y 0.000000 1.676910 0.000000 
#    z 0.002180 0.000000 1.720850 
# 
# From -- ./inp_files/172868.got.cif
#   From: 2010.05.17/outbox.cif.g08.bks.cpg/sg12_87_cif.got.tgz:172868.got - 2010.06.03 13:09:07.
