data_PCOD9188221
_publ_section_title
;
Structure prediction by ZEFSAII (Michael W. Deem and Ramdas Pophale) SiO2 
 PCOD9188221
Probable space group: C 2/M
;
_chemical_formula_sum "Si O2"
_cell_formula_units_Z 64
_cell_length_a 31.117039
_cell_length_b 7.463569
_cell_length_c 14.446137
_cell_angle_alpha 90.000000
_cell_angle_beta 52.999645
_cell_angle_gamma 90.000000
_cell_volume 2679.434434
_symmetry_space_group_name_H-M "C 2/M"
_symmetry_group_IT_number 12
_symmetry_cell_setting 'monoclinic'
loop_
_space_group_symop_operation_xyz
x,y,z
-x,y,-z
-x,-y,-z
x,-y,z
1/2+x,1/2+y,z
1/2-x,1/2+y,-z
1/2-x,1/2-y,-z
1/2+x,1/2-y,z
loop_
_atom_site_type_symbol
_atom_site_label
_atom_site_fract_x
_atom_site_fract_y
_atom_site_fract_z
Si Si1 0.641205 0.720230 0.663771
Si Si2 0.178444 0.792917 0.805756
Si Si3 0.733239 0.797565 0.178395
Si Si4 0.653491 0.291902 0.442388
Si Si5 0.022465 0.787892 0.873258
Si Si6 0.939546 0.716408 0.561990
Si Si7 0.143011 0.719141 0.170064
Si Si8 0.910932 0.286308 0.947630
O O1 0.641484 0.500000 0.662859
O O2 0.677349 0.781032 0.703660
O O3 0.659430 0.777554 0.538563
O O4 0.579918 0.780157 0.763850
O O5 0.216003 0.709174 0.836546
O O6 0.195553 0.000000 0.776065
O O7 0.117999 0.787449 0.923400
O O8 0.689120 0.803038 0.318426
O O9 0.700399 0.716592 0.135061
O O10 0.748410 0.000000 0.131847
O O11 0.669438 0.500000 0.419380
O O12 0.591600 0.278430 0.489315
O O13 0.973562 0.761054 0.865224
O O14 0.029782 0.000000 0.876861
O O15 0.000000 0.712539 0.000000
O O16 0.940480 0.500000 0.557790
O O17 0.902016 0.770633 0.696615
O O18 0.000000 0.779544 0.500000
O O19 0.145337 0.500000 0.166132
O O20 0.122623 0.779886 0.097136
O O21 0.906931 0.500000 0.955711
#
# Coordination Sequence:
#
# PCOD9188221 Si02
#       8
#     8   8   8   8   8   8   8   8
#     4   9  19  35  54  79 109 142 176 217 266 314
#     4  10  20  38  60  78 101 142 188 218 256 321
#     4   9  19  38  61  78 101 141 185 221 257 318
#     4  10  20  34  53  79 112 140 169 221 276 314
#     4  10  19  36  58  74 103 147 184 215 255 317
#     4   9  18  34  55  75 102 143 184 217 256 316
#     4   8  17  34  51  75 109 140 170 215 269 310
#     4  11  22  34  52  81 114 139 171 223 274 313
#
# _framework density 23.885638
#
# number of rings (size 3 to 8) (size 9 to 14) (size 15 to 20)
#    0.000    2.500    1.250    1.500    1.750    2.000 
#    0.000    6.875    0.000    0.000    0.000    0.000 
#    0.000    0.000    0.000    0.000    0.000    0.000 
#
# Total GULP energy -178762.325811 kJ/mol
# GULP energy per Si atom -5586.322682 kJ/mol
# Density = 2.383127 g / cm^3
# Si number density = 23.885638 Si / 1000 Ang^3
#
#
#
# Elastic Constant Matrix: (Units=GPa)
#
#
# Indices 1 2 3 4 5 6 
#
# 1 112.2585 -9.6972 10.2605 0.0000 5.9187 0.0000
# 2 -9.6972 78.6170 0.0002 -0.0001 0.3980 0.0000
# 3 10.2605 0.0002 50.7170 0.0000 12.1820 0.0000
# 4 0.0000 -0.0001 0.0000 11.6818 0.0000 3.7894
# 5 5.9187 0.3980 12.1820 0.0000 42.4159 0.0000
# 6 0.0000 0.0000 0.0000 3.7894 0.0000 13.1118
#
#
#
# Elastic Compliance Matrix: (Units=1/GPa)
#
#
# Indices 1 2 3 4 5 6 
#
# 1 0.009202 0.001139 -0.001666 0.000000 -0.000816 0.000000
# 2 0.001139 0.012862 -0.000175 0.000000 -0.000229 0.000000
# 3 -0.001666 -0.000175 0.021480 0.000000 -0.005935 0.000000
# 4 0.000000 0.000000 0.000000 0.094459 0.000000 -0.027299
# 5 -0.000816 -0.000229 -0.005935 0.000000 0.025397 0.000000
# 6 0.000000 0.000000 0.000000 -0.027299 0.000000 0.084157
#
#
# Mechanical properties :
#
#
# Convention : Reuss Voigt Hill
#
# Bulk Modulus (GPa) = 23.73075 26.96883 25.34979
# Shear Modulus (GPa) = 19.01101 29.51050 24.26075
#
# Velocity S-wave (km/s) = 2.82426 3.51877 3.19047
# Velocity P-wave (km/s) = 4.53784 5.27487 4.92018
#
# Compressibility (1/GPa) = 0.04213941
#
# Stress axis : x y z
#
# Youngs Moduli (GPa) = 108.67578 77.75103 46.55541
#
# Poissons Ratio (x) = -0.08857 0.07754
# Poissons Ratio (y) = -0.12380 0.00817
# Poissons Ratio (z) = 0.18100 0.01364
#
# Static dielectric constant tensor:
#      x y z
#    x 1.954060 0.000000 0.008360 
#    y 0.000000 1.894630 0.000000 
#    z 0.008360 0.000000 1.873170 
# 
# From -- ./inp_files/249076.got.cif
#   From: 2010.05.17/outbox.cif.g08.bks.cpg/sg12_125_cif.got.tgz:249076.got - 2010.06.03 13:09:07.
