data_PCOD9188569
_publ_section_title
;
Structure prediction by ZEFSAII (Michael W. Deem and Ramdas Pophale) SiO2 
 PCOD9188569
Probable space group: C 2/M
;
_chemical_formula_sum "Si O2"
_cell_formula_units_Z 64
_cell_length_a 18.486423
_cell_length_b 13.948467
_cell_length_c 14.701320
_cell_angle_alpha 90.000000
_cell_angle_beta 58.067683
_cell_angle_gamma 90.000000
_cell_volume 3217.187217
_symmetry_space_group_name_H-M "C 2/M"
_symmetry_group_IT_number 12
_symmetry_cell_setting 'monoclinic'
loop_
_space_group_symop_operation_xyz
x,y,z
-x,y,-z
-x,-y,-z
x,-y,z
1/2+x,1/2+y,z
1/2-x,1/2+y,-z
1/2-x,1/2-y,-z
1/2+x,1/2-y,z
loop_
_atom_site_type_symbol
_atom_site_label
_atom_site_fract_x
_atom_site_fract_y
_atom_site_fract_z
Si Si1 0.548284 0.313554 0.202370
Si Si2 0.185192 0.385861 0.795734
Si Si3 0.123136 0.397025 0.167946
Si Si4 0.263737 0.649684 0.939199
Si Si5 0.253264 0.889211 0.740871
Si Si6 0.214869 0.225255 0.424060
Si Si7 0.954094 0.107359 0.434607
Si Si8 0.926473 0.792856 0.122001
O O1 0.569333 0.199661 0.191226
O O2 0.635510 0.367742 0.115415
O O3 0.520269 0.352742 0.317676
O O4 0.468990 0.324848 0.187877
O O5 0.171626 0.500000 0.805790
O O6 0.242519 0.356983 0.846122
O O7 0.231180 0.350636 0.672662
O O8 0.101648 0.318829 0.858836
O O9 0.076625 0.500000 0.205877
O O10 0.180125 0.383397 0.220561
O O11 0.189949 0.405770 0.040699
O O12 0.250000 0.750000 0.000000
O O13 0.282975 0.820380 0.639730
O O14 0.161005 0.850608 0.835046
O O15 0.246233 0.000000 0.717995
O O16 0.250000 0.250000 0.500000
O O17 0.123398 0.179546 0.501843
O O18 0.000000 0.100820 0.500000
O O19 0.925220 0.000000 0.426877
O O20 0.000000 0.808425 0.000000
#
# Coordination Sequence:
#
# PCOD9188569 Si02
#       8
#     8   8   8   8   8   8   8   8
#     4  11  22  36  57  86 118 148 187 240 291 344
#     4  11  23  39  61  88 119 158 203 245 290 354
#     4  10  20  37  61  85 114 154 193 229 277 346
#     4  10  19  36  60  85 118 156 194 234 281 348
#     4  10  22  41  62  84 113 154 202 241 282 349
#     4  11  23  41  61  82 114 156 200 247 297 350
#     4  11  23  39  61  87 115 146 186 245 307 353
#     4  11  22  37  57  86 124 157 185 232 293 346
#
# _framework density 19.893155
#
# number of rings (size 3 to 8) (size 9 to 14) (size 15 to 20)
#    0.000    1.375    0.000    9.000    0.000    5.500 
#    0.000    0.625    0.000    2.250    0.000    0.000 
#    0.000    0.000    0.000    0.000    0.000    0.000 
#
# Total GULP energy -178593.393156 kJ/mol
# GULP energy per Si atom -5581.043536 kJ/mol
# Density = 1.984788 g / cm^3
# Si number density = 19.893155 Si / 1000 Ang^3
#
#
#
# Elastic Constant Matrix: (Units=GPa)
#
#
# Indices 1 2 3 4 5 6 
#
# 1 37.2717 -6.1072 -8.9133 0.0000 5.0294 0.0000
# 2 -6.1072 96.1206 31.2054 0.0000 -5.9410 0.0000
# 3 -8.9133 31.2054 75.4905 0.0000 0.3640 0.0000
# 4 0.0000 0.0000 0.0000 22.8558 0.0000 17.1152
# 5 5.0294 -5.9410 0.3640 0.0000 36.8727 0.0000
# 6 0.0000 0.0000 0.0000 17.1152 0.0000 46.0805
#
#
#
# Elastic Compliance Matrix: (Units=1/GPa)
#
#
# Indices 1 2 3 4 5 6 
#
# 1 0.028176 0.000543 0.003121 0.000000 -0.003786 0.000000
# 2 0.000543 0.012174 -0.004977 0.000000 0.001936 0.000000
# 3 0.003121 -0.004977 0.015679 0.000000 -0.001382 0.000000
# 4 0.000000 0.000000 0.000000 0.060610 0.000000 -0.022512
# 5 -0.003786 0.001936 -0.001382 0.000000 0.027962 0.000000
# 6 0.000000 0.000000 0.000000 -0.022512 0.000000 0.030063
#
#
# Mechanical properties :
#
#
# Convention : Reuss Voigt Hill
#
# Bulk Modulus (GPa) = 18.72600 26.80586 22.76593
# Shear Modulus (GPa) = 25.62886 34.00831 29.81858
#
# Velocity S-wave (km/s) = 3.59322 4.13915 3.87581
# Velocity P-wave (km/s) = 5.16224 6.02890 5.61232
#
# Compressibility (1/GPa) = 0.05340169
#
# Stress axis : x y z
#
# Youngs Moduli (GPa) = 35.49093 82.14426 63.77825
#
# Poissons Ratio (x) = -0.04461 -0.19902
# Poissons Ratio (y) = -0.01928 0.31745
# Poissons Ratio (z) = -0.11075 0.40887
#
# Static dielectric constant tensor:
#      x y z
#    x 2.484510 0.000000 1.240540 
#    y 0.000000 1.775400 0.000000 
#    z 1.240540 0.000000 3.602340 
# 
# From -- ./inp_files/225269.got.cif
#   From: 2010.05.17/outbox.cif.g08.bks.cpg/sg12_113_cif.got.tgz:225269.got - 2010.06.03 13:09:07.
