data_PCOD9188496
_publ_section_title
;
Structure prediction by ZEFSAII (Michael W. Deem and Ramdas Pophale) SiO2 
 PCOD9188496
Probable space group: C 2/M
;
_chemical_formula_sum "Si O2"
_cell_formula_units_Z 56
_cell_length_a 19.889462
_cell_length_b 9.150955
_cell_length_c 21.157180
_cell_angle_alpha 90.000000
_cell_angle_beta 55.797130
_cell_angle_gamma 90.000000
_cell_volume 3184.786122
_symmetry_space_group_name_H-M "C 2/M"
_symmetry_group_IT_number 12
_symmetry_cell_setting 'monoclinic'
loop_
_space_group_symop_operation_xyz
x,y,z
-x,y,-z
-x,-y,-z
x,-y,z
1/2+x,1/2+y,z
1/2-x,1/2+y,-z
1/2-x,1/2-y,-z
1/2+x,1/2-y,z
loop_
_atom_site_type_symbol
_atom_site_label
_atom_site_fract_x
_atom_site_fract_y
_atom_site_fract_z
Si Si1 0.756863 0.675732 0.859303
Si Si2 0.093456 0.669618 0.446525
Si Si3 0.640697 0.674380 0.300927
Si Si4 0.423181 0.324274 0.997921
Si Si5 0.596332 0.826582 0.125968
Si Si6 0.334012 0.832102 0.451703
Si Si7 0.004933 0.324357 0.696775
O O1 0.764939 0.500000 0.845921
O O2 0.789417 0.758195 0.780407
O O3 0.663918 0.710844 0.924408
O O4 0.818450 0.714624 0.884477
O O5 0.093842 0.500000 0.424343
O O6 0.143029 0.766393 0.370966
O O7 0.127535 0.673639 0.498903
O O8 0.000000 0.718796 0.500000
O O9 0.641076 0.500000 0.298101
O O10 0.557395 0.740259 0.315674
O O11 0.427533 0.500000 0.990036
O O12 0.500000 0.276401 0.000000
O O13 0.421483 0.256331 0.929077
O O14 0.527078 0.800135 0.215460
O O15 0.599807 0.000000 0.111734
O O16 0.250000 0.750000 0.500000
O O17 0.403444 0.777250 0.366955
O O18 0.317938 0.000000 0.443362
O O19 0.998981 0.500000 0.687232
#
# Coordination Sequence:
#
# PCOD9188496 Si02
#       7
#     8   8   8   8   8   8   8
#     4   9  19  37  58  78 108 146 181 216 264 333
#     4  10  19  36  60  79 105 150 190 217 267 335
#     4  11  21  32  54  88 114 135 177 241 280 303
#     4  10  21  37  56  80 111 143 175 218 269 321
#     4   9  18  33  58  83 103 138 181 222 266 317
#     4  10  21  37  57  79 109 149 186 226 269 322
#     4   9  18  37  58  78 109 149 185 217 270 336
#
# _framework density 17.583599
#
# number of rings (size 3 to 8) (size 9 to 14) (size 15 to 20)
#    0.000    2.286    1.429    2.571    0.000    4.571 
#    2.571    0.000    0.000    0.000    0.000    0.000 
#    0.000    0.000    0.000    0.000    0.000    0.000 
#
# Total GULP energy -156193.080826 kJ/mol
# GULP energy per Si atom -5578.324315 kJ/mol
# Density = 1.754358 g / cm^3
# Si number density = 17.583599 Si / 1000 Ang^3
#
#
#
# Elastic Constant Matrix: (Units=GPa)
#
#
# Indices 1 2 3 4 5 6 
#
# 1 82.0506 26.8331 65.4572 0.0000 -21.4744 0.0002
# 2 26.8331 39.6623 50.4008 0.0000 -6.6520 0.0004
# 3 65.4572 50.4008 128.8570 0.0000 -19.0718 0.0000
# 4 0.0000 0.0000 0.0000 25.6243 0.0000 4.0379
# 5 -21.4744 -6.6520 -19.0718 0.0000 27.6885 0.0000
# 6 0.0002 0.0004 0.0000 4.0379 0.0000 19.9371
#
#
#
# Elastic Compliance Matrix: (Units=1/GPa)
#
#
# Indices 1 2 3 4 5 6 
#
# 1 0.023211 -0.001879 -0.009418 0.000000 0.011063 0.000000
# 2 -0.001879 0.050347 -0.019112 0.000000 -0.002526 -0.000001
# 3 -0.009418 -0.019112 0.020332 0.000000 0.002109 0.000000
# 4 0.000000 0.000000 0.000000 0.040312 0.000000 -0.008164
# 5 0.011063 -0.002526 0.002109 0.000000 0.045542 0.000000
# 6 0.000000 -0.000001 0.000000 -0.008164 0.000000 0.051811
#
#
# Mechanical properties :
#
#
# Convention : Reuss Voigt Hill
#
# Bulk Modulus (GPa) = 30.23759 59.55024 44.89391
# Shear Modulus (GPa) = 16.47994 21.84190 19.16092
#
# Velocity S-wave (km/s) = 3.06475 3.52827 3.30465
# Velocity P-wave (km/s) = 5.45503 7.10906 6.33625
#
# Compressibility (1/GPa) = 0.03307142
#
# Stress axis : x y z
#
# Youngs Moduli (GPa) = 43.08221 19.86220 49.18260
#
# Poissons Ratio (x) = 0.03733 0.46323
# Poissons Ratio (y) = 0.08097 0.93996
# Poissons Ratio (z) = 0.40577 0.37960
#
# Static dielectric constant tensor:
#      x y z
#    x 1.591450 0.000000 -0.011910 
#    y 0.000000 1.592520 0.000000 
#    z -0.011910 0.000000 1.604410 
# 
# From -- ./inp_files/319643.got.cif
#   From: 2010.05.17/outbox.cif.g08.bks.cpg/sg12_160_cif.got.tgz:319643.got - 2010.06.03 13:09:07.
