data_PCOD9188923
_publ_section_title
;
Structure prediction by ZEFSAII (Michael W. Deem and Ramdas Pophale) SiO2 
 PCOD9188923
Probable space group: C 2/M
;
_chemical_formula_sum "Si O2"
_cell_formula_units_Z 48
_cell_length_a 15.587614
_cell_length_b 17.671430
_cell_length_c 15.352325
_cell_angle_alpha 90.000000
_cell_angle_beta 143.716768
_cell_angle_gamma 90.000000
_cell_volume 2502.555916
_symmetry_space_group_name_H-M "C 2/M"
_symmetry_group_IT_number 12
_symmetry_cell_setting 'monoclinic'
loop_
_space_group_symop_operation_xyz
x,y,z
-x,y,-z
-x,-y,-z
x,-y,z
1/2+x,1/2+y,z
1/2-x,1/2+y,-z
1/2-x,1/2-y,-z
1/2+x,1/2-y,z
loop_
_atom_site_type_symbol
_atom_site_label
_atom_site_fract_x
_atom_site_fract_y
_atom_site_fract_z
Si Si1 0.140782 0.849384 0.354058
Si Si2 0.858325 0.257110 0.324897
Si Si3 0.947178 0.589612 0.055821
Si Si4 0.202748 0.677223 0.346117
Si Si5 0.824091 0.416526 0.349716
Si Si6 0.170519 0.814948 0.878722
O O1 0.166968 0.761278 0.351197
O O2 0.190501 0.859222 0.495030
O O3 0.245040 0.898429 0.376909
O O4 0.969139 0.858157 0.197074
O O5 0.767710 0.195164 0.304188
O O6 0.788586 0.341021 0.265002
O O7 0.891071 0.228334 0.256383
O O8 0.000000 0.265069 0.500000
O O9 0.942129 0.500000 0.063653
O O10 0.061588 0.627220 0.215565
O O11 0.793101 0.627367 0.948072
O O12 0.000000 0.604656 0.000000
O O13 0.778269 0.500000 0.280846
O O14 0.000000 0.419333 0.500000
O O15 0.250000 0.750000 0.000000
#
# Coordination Sequence:
#
# PCOD9188923 Si02
#       6
#     8   8   8   8   8   8
#     4  10  21  35  64  95 120 156 213 260 303 366
#     4  10  19  36  63  89 119 162 211 255 306 377
#     4  11  24  40  58  85 124 167 206 253 320 382
#     4  10  19  37  60  89 119 159 209 255 303 371
#     4   9  20  37  59  90 126 158 194 253 321 376
#     4  12  23  38  63  94 125 163 210 265 312 364
#
# _framework density 19.180391
#
# number of rings (size 3 to 8) (size 9 to 14) (size 15 to 20)
#    0.000    1.667    5.000    0.000    2.333    1.333 
#    0.000    2.500    0.000    4.000    0.000    0.000 
#    0.000    0.000    0.000    0.000    0.000    0.000 
#
# Total GULP energy -133737.647368 kJ/mol
# GULP energy per Si atom -5572.401974 kJ/mol
# Density = 1.913674 g / cm^3
# Si number density = 19.180391 Si / 1000 Ang^3
#
#
#
# Elastic Constant Matrix: (Units=GPa)
#
#
# Indices 1 2 3 4 5 6 
#
# 1 88.5961 21.5508 23.4490 0.0001 21.4655 0.0000
# 2 21.5508 62.4920 20.5385 0.0003 10.8755 0.0001
# 3 23.4490 20.5385 83.2733 0.0004 10.6861 0.0001
# 4 0.0001 0.0003 0.0004 0.9909 0.0003 5.3776
# 5 21.4655 10.8755 10.6861 0.0003 32.2763 0.0001
# 6 0.0000 0.0001 0.0001 5.3776 0.0001 14.1572
#
#
#
# Elastic Compliance Matrix: (Units=1/GPa)
#
#
# Indices 1 2 3 4 5 6 
#
# 1 0.014526 -0.002853 -0.002371 -0.000002 -0.007914 0.000001
# 2 -0.002853 0.018667 -0.003381 0.000002 -0.003273 -0.000001
# 3 -0.002371 -0.003381 0.013746 0.000003 -0.001835 -0.000001
# 4 -0.000002 0.000002 0.000003 -0.950805 0.000007 0.361160
# 5 -0.007914 -0.003273 -0.001835 0.000007 0.037956 -0.000003
# 6 0.000001 -0.000001 -0.000001 0.361160 -0.000003 -0.066550
#
#
# Mechanical properties :
#
#
# Convention : Reuss Voigt Hill
#
# Bulk Modulus (GPa) = 33.63689 40.60420 37.12055
# Shear Modulus (GPa) = -5.52278 20.73975 7.60849
#
# Velocity S-wave (km/s) = -1.69872 3.29188 1.99384
# Velocity P-wave (km/s) = 3.70509 5.97195 4.96950
#
# Compressibility (1/GPa) = 0.02972926
#
# Stress axis : x y z
#
# Youngs Moduli (GPa) = 68.84088 53.57181 72.75060
#
# Poissons Ratio (x) = 0.15283 0.17251
# Poissons Ratio (y) = 0.19639 0.24594
# Poissons Ratio (z) = 0.16324 0.18110
#
# Static dielectric constant tensor:
#      x y z
#    x 1.735820 0.000000 0.064140 
#    y 0.000000 1.658220 0.000000 
#    z 0.064140 0.000000 1.772740 
# 
# From -- ./inp_files/216520.got.cif
#   From: 2010.05.17/outbox.cif.g08.bks.cpg/sg12_109_cif.got.tgz:216520.got - 2010.06.03 13:09:07.
