data_PCOD9188366
_publ_section_title
;
Structure prediction by ZEFSAII (Michael W. Deem and Ramdas Pophale) SiO2 
 PCOD9188366
Probable space group: C 2/M
;
_chemical_formula_sum "Si O2"
_cell_formula_units_Z 56
_cell_length_a 22.314968
_cell_length_b 16.200486
_cell_length_c 19.891192
_cell_angle_alpha 90.000000
_cell_angle_beta 24.688896
_cell_angle_gamma 90.000000
_cell_volume 3003.587127
_symmetry_space_group_name_H-M "C 2/M"
_symmetry_group_IT_number 12
_symmetry_cell_setting 'monoclinic'
loop_
_space_group_symop_operation_xyz
x,y,z
-x,y,-z
-x,-y,-z
x,-y,z
1/2+x,1/2+y,z
1/2-x,1/2+y,-z
1/2-x,1/2-y,-z
1/2+x,1/2-y,z
loop_
_atom_site_type_symbol
_atom_site_label
_atom_site_fract_x
_atom_site_fract_y
_atom_site_fract_z
Si Si1 0.498682 0.855685 0.076323
Si Si2 0.573117 0.091016 0.705453
Si Si3 0.997453 0.093491 0.107074
Si Si4 0.246115 0.225079 0.833228
Si Si5 0.498171 0.766649 0.323318
Si Si6 0.257581 0.287403 0.311652
Si Si7 0.417687 0.592518 0.345456
O O1 0.470602 0.906847 0.171860
O O2 0.370653 0.787676 0.204890
O O3 0.500000 0.894273 0.000000
O O4 0.647298 0.806710 0.935320
O O5 0.505024 0.167630 0.734478
O O6 0.745371 0.100585 0.525798
O O7 0.536461 0.000000 0.714372
O O8 0.858498 0.132458 0.213184
O O9 0.962459 0.095790 0.222056
O O10 0.022571 0.000000 0.060895
O O11 0.133975 0.150467 0.955094
O O12 0.362631 0.223387 0.772503
O O13 0.310281 0.219694 0.692876
O O14 0.358991 0.785256 0.511137
O O15 0.485557 0.672108 0.311652
O O16 0.455494 0.500000 0.332903
#
# Coordination Sequence:
#
# PCOD9188366 Si02
#       7
#     8   8   8   8   8   8   8
#     4   9  19  38  59  82 109 146 191 234 282 346
#     4  11  22  36  59  88 114 149 197 239 282 344
#     4  10  20  37  58  83 115 152 199 244 281 339
#     4  10  23  35  54  87 118 150 193 234 293 345
#     4  12  21  37  61  86 119 155 187 244 294 336
#     4  10  19  36  59  81 110 156 200 232 277 344
#     4  10  21  37  62  88 108 147 200 242 289 348
#
# _framework density 18.644373000000002
#
# number of rings (size 3 to 8) (size 9 to 14) (size 15 to 20)
#    0.000    1.714    2.857    3.857    0.000    4.286 
#    0.000    2.143    0.000    5.143    0.000    0.000 
#    0.000    0.000    0.000    0.000    0.000    0.000 
#
# Total GULP energy -156275.898489 kJ/mol
# GULP energy per Si atom -5581.282089 kJ/mol
# Density = 1.860194 g / cm^3
# Si number density = 18.644373 Si / 1000 Ang^3
#
#
#
# Elastic Constant Matrix: (Units=GPa)
#
#
# Indices 1 2 3 4 5 6 
#
# 1 104.1015 51.2272 37.0579 -0.0021 11.3118 -0.0008
# 2 51.2272 115.7543 15.3424 -0.0059 4.7988 -0.0006
# 3 37.0579 15.3424 51.4925 -0.0068 8.9093 0.0008
# 4 -0.0021 -0.0059 -0.0068 4.1033 0.0025 -1.7007
# 5 11.3118 4.7988 8.9093 0.0025 25.0843 0.0004
# 6 -0.0008 -0.0006 0.0008 -1.7007 0.0004 3.7619
#
#
#
# Elastic Compliance Matrix: (Units=1/GPa)
#
#
# Indices 1 2 3 4 5 6 
#
# 1 0.016082 -0.005758 -0.009369 -0.000014 -0.002823 -0.000002
# 2 -0.005758 0.011072 0.000812 0.000017 0.000190 0.000008
# 3 -0.009369 0.000812 0.026868 0.000051 -0.005473 0.000016
# 4 -0.000014 0.000017 0.000051 0.299907 -0.000047 0.135586
# 5 -0.002823 0.000190 -0.005473 -0.000047 0.043046 -0.000026
# 6 -0.000002 0.000008 0.000016 0.135586 -0.000026 0.327121
#
#
# Mechanical properties :
#
#
# Convention : Reuss Voigt Hill
#
# Bulk Modulus (GPa) = 39.38431 53.17814 46.28123
# Shear Modulus (GPa) = 6.56867 17.77127 12.16997
#
# Velocity S-wave (km/s) = 1.87904 3.09070 2.55765
# Velocity P-wave (km/s) = 5.08700 6.42813 5.79648
#
# Compressibility (1/GPa) = 0.02539082
#
# Stress axis : x y z
#
# Youngs Moduli (GPa) = 62.18325 90.32049 37.21865
#
# Poissons Ratio (x) = 0.52007 0.34872
# Poissons Ratio (y) = 0.35805 -0.03023
# Poissons Ratio (z) = 0.58262 -0.07336
#
# Static dielectric constant tensor:
#      x y z
#    x 1.629770 0.000000 0.033010 
#    y 0.000000 1.656470 0.000000 
#    z 0.033010 0.000000 1.634620 
# 
# From -- ./inp_files/75896.got.cif
#   From: 2010.05.17/outbox.cif.g08.bks.cpg/sg12_38_cif.got.tgz:75896.got - 2010.06.03 13:09:07.
