data_PCOD9188653
_publ_section_title
;
Structure prediction by ZEFSAII (Michael W. Deem and Ramdas Pophale) SiO2 
 PCOD9188653
Probable space group: C 2/M
;
_chemical_formula_sum "Si O2"
_cell_formula_units_Z 48
_cell_length_a 23.994438
_cell_length_b 9.079336
_cell_length_c 11.573134
_cell_angle_alpha 90.000000
_cell_angle_beta 110.782829
_cell_angle_gamma 90.000000
_cell_volume 2357.196043
_symmetry_space_group_name_H-M "C 2/M"
_symmetry_group_IT_number 12
_symmetry_cell_setting 'monoclinic'
loop_
_space_group_symop_operation_xyz
x,y,z
-x,y,-z
-x,-y,-z
x,-y,z
1/2+x,1/2+y,z
1/2-x,1/2+y,-z
1/2-x,1/2-y,-z
1/2+x,1/2-y,z
loop_
_atom_site_type_symbol
_atom_site_label
_atom_site_fract_x
_atom_site_fract_y
_atom_site_fract_z
Si Si1 0.725062 0.673256 0.866706
Si Si2 0.936768 0.170859 0.016528
Si Si3 0.660026 0.171144 0.205945
Si Si4 0.875948 0.325225 0.351363
Si Si5 0.021378 0.828124 0.692336
Si Si6 0.120414 0.825469 0.407764
O O1 0.713273 0.500000 0.879312
O O2 0.775605 0.685788 0.805330
O O3 0.666872 0.753794 0.776063
O O4 0.750000 0.750000 0.000000
O O5 0.948893 0.193333 0.160291
O O6 0.918864 0.000000 0.984777
O O7 0.887790 0.274121 0.923751
O O8 0.000000 0.192185 0.000000
O O9 0.650779 0.265794 0.314307
O O10 0.649535 0.000000 0.225730
O O11 0.871546 0.500000 0.347362
O O12 0.942717 0.271883 0.370094
O O13 0.858658 0.258979 0.462771
O O14 0.951096 0.800161 0.653480
O O15 0.028860 0.000000 0.664119
O O16 0.130043 0.000000 0.427208
#
# Coordination Sequence:
#
# PCOD9188653 Si02
#       6
#     8   8   8   8   8   8
#     4  11  25  46  69  94 125 165 210 258 312 372
#     4  10  19  36  60  90 124 163 207 247 301 371
#     4  11  24  40  62  95 129 162 206 262 317 366
#     4  12  26  42  63  93 127 166 211 260 315 371
#     4  10  21  39  64  92 126 168 213 258 308 373
#     4  11  23  42  66  92 125 168 212 255 312 378
#
# _framework density 20.363175999999999
#
# number of rings (size 3 to 8) (size 9 to 14) (size 15 to 20)
#    0.000    1.167    1.667    4.500    0.000   10.333 
#    0.000    0.000    0.000    0.000    0.000    0.000 
#    0.000    0.000    0.000    0.000    0.000    0.000 
#
# Total GULP energy -134327.000758 kJ/mol
# GULP energy per Si atom -5596.958365 kJ/mol
# Density = 2.031683 g / cm^3
# Si number density = 20.363176 Si / 1000 Ang^3
#
#
#
# Elastic Constant Matrix: (Units=GPa)
#
#
# Indices 1 2 3 4 5 6 
#
# 1 57.8970 54.7145 29.0617 0.0000 -5.9591 0.0000
# 2 54.7145 127.0191 60.6828 0.0000 -6.4942 0.0000
# 3 29.0617 60.6828 98.5363 0.0000 -1.2512 0.0000
# 4 0.0000 0.0000 0.0000 33.9178 0.0000 -4.4499
# 5 -5.9591 -6.4942 -1.2512 0.0000 23.5631 0.0000
# 6 0.0000 0.0000 0.0000 -4.4499 0.0000 28.8947
#
#
#
# Elastic Compliance Matrix: (Units=1/GPa)
#
#
# Indices 1 2 3 4 5 6 
#
# 1 0.029627 -0.011903 -0.001355 0.000000 0.004140 0.000000
# 2 -0.011903 0.016113 -0.006398 0.000000 0.001091 0.000000
# 3 -0.001355 -0.006398 0.014472 0.000000 -0.001338 0.000000
# 4 0.000000 0.000000 0.000000 0.030091 0.000000 0.004634
# 5 0.004140 0.001091 -0.001338 0.000000 0.043716 0.000000
# 6 0.000000 0.000000 0.000000 0.004634 0.000000 0.035322
#
#
# Mechanical properties :
#
#
# Convention : Reuss Voigt Hill
#
# Bulk Modulus (GPa) = 47.85062 63.59673 55.72367
# Shear Modulus (GPa) = 23.18894 26.54134 24.86514
#
# Velocity S-wave (km/s) = 3.37823 3.61418 3.49819
# Velocity P-wave (km/s) = 6.22625 6.97964 6.61368
#
# Compressibility (1/GPa) = 0.02089837
#
# Stress axis : x y z
#
# Youngs Moduli (GPa) = 33.75279 62.06246 69.10060
#
# Poissons Ratio (x) = 0.73874 0.09364
# Poissons Ratio (y) = 0.40176 0.44214
# Poissons Ratio (z) = 0.04574 0.39710
#
# Static dielectric constant tensor:
#      x y z
#    x 1.725820 0.000000 -0.000200 
#    y 0.000000 1.680420 0.000000 
#    z -0.000200 0.000000 1.718510 
# 
# From -- ./inp_files/173085.got.cif
#   From: 2010.05.17/outbox.cif.g08.bks.cpg/sg12_87_cif.got.tgz:173085.got - 2010.06.03 13:09:07.
