data_PCOD9188945
_publ_section_title
;
Structure prediction by ZEFSAII (Michael W. Deem and Ramdas Pophale) SiO2 
 PCOD9188945
Probable space group: C 2/M
;
_chemical_formula_sum "Si O2"
_cell_formula_units_Z 40
_cell_length_a 13.999490
_cell_length_b 18.124441
_cell_length_c 11.369005
_cell_angle_alpha 90.000000
_cell_angle_beta 137.252606
_cell_angle_gamma 90.000000
_cell_volume 1958.034023
_symmetry_space_group_name_H-M "C 2/M"
_symmetry_group_IT_number 12
_symmetry_cell_setting 'monoclinic'
loop_
_space_group_symop_operation_xyz
x,y,z
-x,y,-z
-x,-y,-z
x,-y,z
1/2+x,1/2+y,z
1/2-x,1/2+y,-z
1/2-x,1/2-y,-z
1/2+x,1/2-y,z
loop_
_atom_site_type_symbol
_atom_site_label
_atom_site_fract_x
_atom_site_fract_y
_atom_site_fract_z
Si Si1 0.799600 0.752748 0.391795
Si Si2 0.218582 0.915765 0.960898
Si Si3 0.330366 0.415925 0.357773
Si Si4 0.493686 0.681652 0.854127
Si Si5 0.402313 0.209085 0.233568
O O1 0.788348 0.842203 0.391572
O O2 0.664302 0.708371 0.313236
O O3 0.816916 0.740420 0.267296
O O4 0.938135 0.716435 0.574088
O O5 0.228061 0.908333 0.828193
O O6 0.061167 0.891228 0.858464
O O7 0.239600 0.000000 0.010442
O O8 0.333802 0.867344 0.133145
O O9 0.500000 0.412136 0.500000
O O10 0.295337 0.500000 0.368110
O O11 0.592245 0.741726 0.878889
O O12 0.500000 0.678279 0.000000
#
# Coordination Sequence:
#
# PCOD9188945 Si02
#       5
#     8   8   8   8   8
#     4  11  21  39  64  92 123 163 211 256 299 365
#     4  11  23  41  62  90 128 164 205 257 308 368
#     4  10  19  36  63  92 123 157 198 259 316 358
#     4  12  22  36  64  93 121 161 209 258 301 371
#     4  11  22  41  61  91 124 164 212 247 308 367
#
# _framework density 20.428654000000002
#
# number of rings (size 3 to 8) (size 9 to 14) (size 15 to 20)
#    0.000    1.000    6.000    2.400    0.000    0.400 
#    0.000    4.000    0.000    3.600    0.000    0.000 
#    0.000    0.000    0.000    0.000    0.000    0.000 
#
# Total GULP energy -111547.909311 kJ/mol
# GULP energy per Si atom -5577.395466 kJ/mol
# Density = 2.038216 g / cm^3
# Si number density = 20.428654 Si / 1000 Ang^3
#
#
#
# Elastic Constant Matrix: (Units=GPa)
#
#
# Indices 1 2 3 4 5 6 
#
# 1 77.5938 21.8752 14.3416 0.0000 -2.7932 0.0000
# 2 21.8752 169.4493 61.3153 0.0000 4.6090 0.0000
# 3 14.3416 61.3153 94.9525 0.0000 4.5571 0.0000
# 4 0.0000 0.0000 0.0000 26.5093 0.0000 -2.2769
# 5 -2.7932 4.6090 4.5571 0.0000 26.1853 0.0000
# 6 0.0000 0.0000 0.0000 -2.2769 0.0000 28.3731
#
#
#
# Elastic Compliance Matrix: (Units=1/GPa)
#
#
# Indices 1 2 3 4 5 6 
#
# 1 0.013570 -0.001343 -0.001274 0.000000 0.001906 0.000000
# 2 -0.001343 0.007840 -0.004827 0.000000 -0.000683 0.000000
# 3 -0.001274 -0.004827 0.013923 0.000000 -0.001709 0.000000
# 4 0.000000 0.000000 0.000000 0.037984 0.000000 0.003048
# 5 0.001906 -0.000683 -0.001709 0.000000 0.038810 0.000000
# 6 0.000000 0.000000 0.000000 0.003048 0.000000 0.035489
#
#
# Mechanical properties :
#
#
# Convention : Reuss Voigt Hill
#
# Bulk Modulus (GPa) = 48.90996 59.67330 54.29163
# Shear Modulus (GPa) = 29.52979 32.51111 31.02045
#
# Velocity S-wave (km/s) = 3.80611 3.99362 3.90099
# Velocity P-wave (km/s) = 6.58097 7.10910 6.85013
#
# Compressibility (1/GPa) = 0.02044573
#
# Stress axis : x y z
#
# Youngs Moduli (GPa) = 73.69072 127.54970 71.82274
#
# Poissons Ratio (x) = 0.17126 0.09151
# Poissons Ratio (y) = 0.09894 0.34670
# Poissons Ratio (z) = 0.09389 0.61570
#
# Static dielectric constant tensor:
#      x y z
#    x 1.746680 0.000000 -0.003800 
#    y 0.000000 1.737050 0.000000 
#    z -0.003800 0.000000 1.801320 
# 
# From -- ./inp_files/145842.got.cif
#   From: 2010.05.17/outbox.cif.g08.bks.cpg/sg12_73_cif.got.tgz:145842.got - 2010.06.03 13:09:07.
