data_PCOD9188323
_publ_section_title
;
Structure prediction by ZEFSAII (Michael W. Deem and Ramdas Pophale) SiO2 
 PCOD9188323
Probable space group: C 2/M
;
_chemical_formula_sum "Si O2"
_cell_formula_units_Z 48
_cell_length_a 8.101725
_cell_length_b 28.238828
_cell_length_c 14.506530
_cell_angle_alpha 90.000000
_cell_angle_beta 141.378259
_cell_angle_gamma 90.000000
_cell_volume 2071.547245
_symmetry_space_group_name_H-M "C 2/M"
_symmetry_group_IT_number 12
_symmetry_cell_setting 'monoclinic'
loop_
_space_group_symop_operation_xyz
x,y,z
-x,y,-z
-x,-y,-z
x,-y,z
1/2+x,1/2+y,z
1/2-x,1/2+y,-z
1/2-x,1/2-y,-z
1/2+x,1/2-y,z
loop_
_atom_site_type_symbol
_atom_site_label
_atom_site_fract_x
_atom_site_fract_y
_atom_site_fract_z
Si Si1 0.554830 0.264102 0.621354
Si Si2 0.050060 0.000000 0.129961
Si Si3 0.077474 0.900416 0.427222
Si Si4 0.930641 0.659988 0.332608
Si Si5 0.131258 0.500000 0.458975
Si Si6 0.084661 0.654286 0.181234
Si Si7 0.065970 0.102631 0.917809
O O1 0.500000 0.289316 0.500000
O O2 0.667610 0.210874 0.673885
O O3 0.745930 0.297754 0.763342
O O4 0.250000 0.250000 0.500000
O O5 0.919866 0.048414 0.109147
O O6 0.370451 0.000000 0.280423
O O7 0.000000 0.000000 0.000000
O O8 0.306794 0.861905 0.506906
O O9 0.195131 0.952719 0.470856
O O10 0.000000 0.895743 0.500000
O O11 0.801785 0.886796 0.260135
O O12 0.692823 0.623861 0.241722
O O13 0.992911 0.661495 0.249089
O O14 0.000000 0.500000 0.500000
O O15 0.817724 0.636812 0.015820
O O16 0.000000 0.101367 0.000000
#
# Coordination Sequence:
#
# PCOD9188323 Si02
#       7
#     8   4   8   8   4   8   8
#     4  12  21  36  59  87 121 160 202 254 318 374
#     4  10  20  38  64  91 121 166 218 251 319 380
#     4  10  20  37  62  90 121 158 216 258 305 373
#     4  10  19  36  58  88 118 156 204 259 305 367
#     4  12  25  40  62 101 134 162 209 273 327 374
#     4  10  20  36  59  90 118 158 209 260 303 368
#     4   9  19  35  60  87 121 155 206 262 308 367
#
# _framework density 23.171087
#
# number of rings (size 3 to 8) (size 9 to 14) (size 15 to 20)
#    0.000    1.667    5.000    0.750    2.333    2.000 
#    0.000    0.000    0.000    4.000    0.000    0.000 
#    0.000    0.000    0.000    0.000    0.000    0.000 
#
# Total GULP energy -133795.082994 kJ/mol
# GULP energy per Si atom -5574.795125 kJ/mol
# Density = 2.311835 g / cm^3
# Si number density = 23.171087 Si / 1000 Ang^3
#
#
#
# Elastic Constant Matrix: (Units=GPa)
#
#
# Indices 1 2 3 4 5 6 
#
# 1 50.3217 25.6484 29.6039 0.0000 12.8730 0.0000
# 2 25.6484 191.3946 44.8901 0.0000 20.8041 0.0000
# 3 29.6039 44.8901 112.5412 0.0000 26.1643 0.0000
# 4 0.0000 0.0000 0.0000 38.5019 0.0000 11.6647
# 5 12.8730 20.8041 26.1643 0.0000 31.5812 0.0000
# 6 0.0000 0.0000 0.0000 11.6647 0.0000 22.0397
#
#
#
# Elastic Compliance Matrix: (Units=1/GPa)
#
#
# Indices 1 2 3 4 5 6 
#
# 1 0.024778 -0.001669 -0.004656 0.000000 -0.005142 0.000000
# 2 -0.001669 0.006020 -0.001484 0.000000 -0.002056 0.000000
# 3 -0.004656 -0.001484 0.012428 0.000000 -0.007420 0.000000
# 4 0.000000 0.000000 0.000000 0.030933 0.000000 -0.016371
# 5 -0.005142 -0.002056 -0.007420 0.000000 0.041262 0.000000
# 6 0.000000 0.000000 0.000000 -0.016371 0.000000 0.054037
#
#
# Mechanical properties :
#
#
# Convention : Reuss Voigt Hill
#
# Bulk Modulus (GPa) = 36.22453 61.61581 48.92017
# Shear Modulus (GPa) = 25.73611 35.36557 30.55084
#
# Velocity S-wave (km/s) = 3.33633 3.91100 3.63504
# Velocity P-wave (km/s) = 5.52349 6.85886 6.22707
#
# Compressibility (1/GPa) = 0.02760560
#
# Stress axis : x y z
#
# Youngs Moduli (GPa) = 40.35870 166.11102 80.46581
#
# Poissons Ratio (x) = 0.27729 0.37468
# Poissons Ratio (y) = 0.06737 0.11943
# Poissons Ratio (z) = 0.18793 0.24655
#
# Static dielectric constant tensor:
#      x y z
#    x 1.949530 0.000000 -0.027400 
#    y 0.000000 1.768080 0.000000 
#    z -0.027400 0.000000 1.867400 
# 
# From -- ./inp_files/80657.got.cif
#   From: 2010.05.17/outbox.cif.g08.bks.cpg/sg12_41_cif.got.tgz:80657.got - 2010.06.03 13:09:07.
