data_PCOD9188018
_publ_section_title
;
Structure prediction by ZEFSAII (Michael W. Deem and Ramdas Pophale) SiO2 
 PCOD9188018
Probable space group: C 2/M
;
_chemical_formula_sum "Si O2"
_cell_formula_units_Z 52
_cell_length_a 9.208065
_cell_length_b 22.517039
_cell_length_c 18.688226
_cell_angle_alpha 90.000000
_cell_angle_beta 130.680511
_cell_angle_gamma 90.000000
_cell_volume 2938.467687
_symmetry_space_group_name_H-M "C 2/M"
_symmetry_group_IT_number 12
_symmetry_cell_setting 'monoclinic'
loop_
_space_group_symop_operation_xyz
x,y,z
-x,y,-z
-x,-y,-z
x,-y,z
1/2+x,1/2+y,z
1/2-x,1/2+y,-z
1/2-x,1/2-y,-z
1/2+x,1/2-y,z
loop_
_atom_site_type_symbol
_atom_site_label
_atom_site_fract_x
_atom_site_fract_y
_atom_site_fract_z
Si Si1 0.392457 0.433425 0.611679
Si Si2 0.122726 0.684076 0.111000
Si Si3 0.406112 0.854507 0.672638
Si Si4 0.365188 0.164026 0.393769
Si Si5 0.841995 0.568005 0.786141
Si Si6 0.527246 0.259236 0.218233
Si Si7 0.000000 0.876318 0.500000
O O1 0.319090 0.500000 0.596127
O O2 0.259085 0.386900 0.608419
O O3 0.610289 0.430785 0.710496
O O4 0.414420 0.416160 0.535727
O O5 0.097541 0.619041 0.138712
O O6 0.345111 0.697804 0.165577
O O7 0.058928 0.732807 0.149400
O O8 0.000000 0.689079 0.000000
O O9 0.505056 0.862351 0.628166
O O10 0.409419 0.909393 0.729156
O O11 0.503089 0.798604 0.742098
O O12 0.180211 0.840716 0.588697
O O13 0.500000 0.190180 0.500000
O O14 0.215633 0.208938 0.309709
O O15 0.902613 0.500000 0.819567
#
# Coordination Sequence:
#
# PCOD9188018 Si02
#       7
#     8   8   8   8   8   8   4
#     4  10  20  35  54  77 113 152 193 241 281 329
#     4  11  22  40  66  89 113 150 191 241 297 348
#     4  10  22  36  56  81 116 156 192 237 289 331
#     4  12  23  36  55  86 118 157 198 234 283 337
#     4   9  20  39  60  83 114 152 191 238 293 343
#     4  11  23  40  57  88 121 147 189 242 290 349
#     4  10  19  36  52  80 108 152 201 234 278 338
#
# _framework density 17.696297000000001
#
# number of rings (size 3 to 8) (size 9 to 14) (size 15 to 20)
#    0.000    1.538    4.615    0.692    1.077    2.462 
#    0.000    0.000    0.000    0.000    0.000    1.077 
#    0.000    0.000    0.000    0.000    0.000    0.000 
#
# Total GULP energy -145042.849932 kJ/mol
# GULP energy per Si atom -5578.571151 kJ/mol
# Density = 1.765602 g / cm^3
# Si number density = 17.696297 Si / 1000 Ang^3
#
#
#
# Elastic Constant Matrix: (Units=GPa)
#
#
# Indices 1 2 3 4 5 6 
#
# 1 101.2082 47.3642 41.5453 0.0000 -22.6096 0.0000
# 2 47.3642 105.3242 47.7510 0.0000 -13.4587 0.0000
# 3 41.5453 47.7510 109.6178 0.0000 -22.9447 0.0000
# 4 0.0000 0.0000 0.0000 15.0029 0.0000 0.9342
# 5 -22.6096 -13.4587 -22.9447 0.0000 24.9197 0.0000
# 6 0.0000 0.0000 0.0000 0.9342 0.0000 10.5097
#
#
#
# Elastic Compliance Matrix: (Units=1/GPa)
#
#
# Indices 1 2 3 4 5 6 
#
# 1 0.014873 -0.004762 -0.001581 0.000000 0.009467 0.000000
# 2 -0.004762 0.013440 -0.004255 0.000000 -0.000979 0.000000
# 3 -0.001581 -0.004255 0.013371 0.000000 0.008579 0.000000
# 4 0.000000 0.000000 0.000000 0.067025 0.000000 -0.005958
# 5 0.009467 -0.000979 0.008579 0.000000 0.056088 0.000000
# 6 0.000000 0.000000 0.000000 -0.005958 0.000000 0.095680
#
#
# Mechanical properties :
#
#
# Convention : Reuss Voigt Hill
#
# Bulk Modulus (GPa) = 48.80845 65.49681 57.15263
# Shear Modulus (GPa) = 17.33097 22.05244 19.69170
#
# Velocity S-wave (km/s) = 3.13286 3.53393 3.33942
# Velocity P-wave (km/s) = 6.38181 7.33100 6.87281
#
# Compressibility (1/GPa) = 0.02048826
#
# Stress axis : x y z
#
# Youngs Moduli (GPa) = 67.23625 74.40615 74.78907
#
# Poissons Ratio (x) = 0.35431 0.11824
# Poissons Ratio (y) = 0.32017 0.31821
# Poissons Ratio (z) = 0.10630 0.31658
#
# Static dielectric constant tensor:
#      x y z
#    x 1.596040 0.000000 0.001040 
#    y 0.000000 1.597190 0.000000 
#    z 0.001040 0.000000 1.603220 
# 
# From -- ./inp_files/197097.got.cif
#   From: 2010.05.17/outbox.cif.g08.bks.cpg/sg12_99_cif.got.tgz:197097.got - 2010.06.03 13:09:07.
