data_PCOD9188394
_publ_section_title
;
Structure prediction by ZEFSAII (Michael W. Deem and Ramdas Pophale) SiO2 
 PCOD9188394
Probable space group: C 2/M
;
_chemical_formula_sum "Si O2"
_cell_formula_units_Z 42
_cell_length_a 19.459066
_cell_length_b 15.025734
_cell_length_c 9.084322
_cell_angle_alpha 90.000000
_cell_angle_beta 135.970306
_cell_angle_gamma 90.000000
_cell_volume 1846.096645
_symmetry_space_group_name_H-M "C 2/M"
_symmetry_group_IT_number 12
_symmetry_cell_setting 'monoclinic'
loop_
_space_group_symop_operation_xyz
x,y,z
-x,y,-z
-x,-y,-z
x,-y,z
1/2+x,1/2+y,z
1/2-x,1/2+y,-z
1/2-x,1/2-y,-z
1/2+x,1/2-y,z
loop_
_atom_site_type_symbol
_atom_site_label
_atom_site_fract_x
_atom_site_fract_y
_atom_site_fract_z
Si Si1 0.427959 0.736620 0.017335
Si Si2 0.891046 0.403400 0.137137
Si Si3 0.500000 0.500000 0.500000
Si Si4 0.401501 0.339482 0.513588
Si Si5 0.881020 0.360486 0.437072
Si Si6 0.206762 0.103272 0.372213
O O1 0.371129 0.817032 0.008591
O O2 0.499452 0.683557 0.239068
O O3 0.500000 0.774050 0.000000
O O4 0.357977 0.665146 0.833882
O O5 0.872425 0.500000 0.039729
O O6 0.842876 0.400868 0.225248
O O7 0.008251 0.392277 0.355261
O O8 0.425079 0.421314 0.446089
O O9 0.380042 0.245161 0.406731
O O10 0.316752 0.363543 0.500528
O O11 0.816212 0.383955 0.478759
O O12 0.177850 0.000000 0.316887
#
# Coordination Sequence:
#
# PCOD9188394 Si02
#       6
#     8   8   2   8   8   8
#     4   9  21  36  55  83 115 154 194 242 291 351
#     4  10  19  36  59  83 108 153 200 239 294 347
#     4  12  20  36  62  84 114 150 202 244 278 352
#     4  10  21  36  58  85 116 151 199 240 290 347
#     4  10  20  37  58  85 114 149 193 251 293 341
#     4  11  21  36  58  87 118 156 193 239 295 348
#
# _framework density 22.750705
#
# number of rings (size 3 to 8) (size 9 to 14) (size 15 to 20)
#    0.000    1.905    0.952    5.143    1.333    2.286 
#    0.000    0.000    2.095    0.000    0.000    0.000 
#    0.000    0.000    0.000    0.000    0.000    0.000 
#
# Total GULP energy -117151.621801 kJ/mol
# GULP energy per Si atom -5578.648657 kJ/mol
# Density = 2.269892 g / cm^3
# Si number density = 22.750705 Si / 1000 Ang^3
#
#
#
# Elastic Constant Matrix: (Units=GPa)
#
#
# Indices 1 2 3 4 5 6 
#
# 1 99.6781 18.4093 -3.7566 0.0000 -8.9859 0.0000
# 2 18.4093 180.8367 12.6857 0.0000 -15.7271 0.0000
# 3 -3.7566 12.6857 30.3153 0.0000 1.2852 0.0000
# 4 0.0000 0.0000 0.0000 3.6672 0.0000 -12.0094
# 5 -8.9859 -15.7271 1.2852 0.0000 13.2379 0.0000
# 6 0.0000 0.0000 0.0000 -12.0094 0.0000 50.1712
#
#
#
# Elastic Compliance Matrix: (Units=1/GPa)
#
#
# Indices 1 2 3 4 5 6 
#
# 1 0.010779 -0.000630 0.001327 0.000000 0.006439 0.000000
# 2 -0.000630 0.006469 -0.003106 0.000000 0.007559 0.000000
# 3 0.001327 -0.003106 0.034712 0.000000 -0.006159 0.000000
# 4 0.000000 0.000000 0.000000 1.261845 0.000000 0.302046
# 5 0.006439 0.007559 -0.006159 0.000000 0.089490 0.000000
# 6 0.000000 0.000000 0.000000 0.302046 0.000000 0.092232
#
#
# Mechanical properties :
#
#
# Convention : Reuss Voigt Hill
#
# Bulk Modulus (GPa) = 21.21286 40.61185 30.91236
# Shear Modulus (GPa) = 3.29802 32.31471 17.80636
#
# Velocity S-wave (km/s) = 1.20531 3.77289 2.80066
# Velocity P-wave (km/s) = 3.35877 6.07199 4.90665
#
# Compressibility (1/GPa) = 0.04714121
#
# Stress axis : x y z
#
# Youngs Moduli (GPa) = 92.77127 154.57580 28.80869
#
# Poissons Ratio (x) = 0.09744 -0.03822
# Poissons Ratio (y) = 0.05848 0.08947
# Poissons Ratio (z) = -0.12307 0.48007
#
# Static dielectric constant tensor:
#      x y z
#    x 1.888900 0.000000 0.000330 
#    y 0.000000 1.801510 0.000000 
#    z 0.000330 0.000000 1.854130 
# 
# From -- ./inp_files/73255.got.cif
#   From: 2010.05.17/outbox.cif.g08.bks.cpg/sg12_37_cif.got.tgz:73255.got - 2010.06.03 13:09:07.
