data_PCOD9188123
_publ_section_title
;
Structure prediction by ZEFSAII (Michael W. Deem and Ramdas Pophale) SiO2 
 PCOD9188123
Probable space group: C 2/M
;
_chemical_formula_sum "Si O2"
_cell_formula_units_Z 48
_cell_length_a 14.258798
_cell_length_b 30.526380
_cell_length_c 5.425899
_cell_angle_alpha 90.000000
_cell_angle_beta 119.465510
_cell_angle_gamma 90.000000
_cell_volume 2056.243346
_symmetry_space_group_name_H-M "C 2/M"
_symmetry_group_IT_number 12
_symmetry_cell_setting 'monoclinic'
loop_
_space_group_symop_operation_xyz
x,y,z
-x,y,-z
-x,-y,-z
x,-y,z
1/2+x,1/2+y,z
1/2-x,1/2+y,-z
1/2-x,1/2-y,-z
1/2+x,1/2-y,z
loop_
_atom_site_type_symbol
_atom_site_label
_atom_site_fract_x
_atom_site_fract_y
_atom_site_fract_z
Si Si1 0.919520 0.407767 0.700919
Si Si2 0.746347 0.500000 0.940927
Si Si3 0.298361 0.405105 0.278273
Si Si4 0.308756 0.842947 0.250548
Si Si5 0.678432 0.250486 0.657461
Si Si6 0.386940 0.000000 0.620629
Si Si7 0.902888 0.164814 0.681804
O O1 0.800227 0.413363 0.662332
O O2 0.892303 0.380069 0.430329
O O3 0.957554 0.456461 0.697154
O O4 0.000000 0.386332 0.000000
O O5 0.686309 0.452157 0.836969
O O6 0.825632 0.500000 0.805464
O O7 0.805696 0.500000 0.282240
O O8 0.399952 0.382428 0.542772
O O9 0.250345 0.363928 0.060340
O O10 0.371922 0.797294 0.364473
O O11 0.208346 0.836723 0.306904
O O12 0.750000 0.250000 0.500000
O O13 0.607044 0.293620 0.516533
O O14 0.750000 0.250000 0.000000
O O15 0.000000 0.170003 0.000000
#
# Coordination Sequence:
#
# PCOD9188123 Si02
#       7
#     8   4   8   8   8   4   8
#     4  10  21  35  55  85 121 158 202 248 301 364
#     4  10  20  36  62  85 118 162 206 245 312 362
#     4  10  20  38  59  85 119 161 200 254 303 363
#     4  10  20  37  61  83 121 159 195 246 304 357
#     4  10  20  38  62  86 117 153 193 245 303 357
#     4  10  19  36  56  86 117 161 203 251 302 368
#     4  10  22  39  63  90 119 158 207 251 301 359
#
# _framework density 23.343539
#
# number of rings (size 3 to 8) (size 9 to 14) (size 15 to 20)
#    0.000    2.000    3.333    0.250    0.000    2.000 
#    0.000    2.083    7.333    1.000    0.000    0.000 
#    0.000    0.000    0.000    0.000    0.000    0.000 
#
# Total GULP energy -133646.825850 kJ/mol
# GULP energy per Si atom -5568.617744 kJ/mol
# Density = 2.329041 g / cm^3
# Si number density = 23.343539 Si / 1000 Ang^3
#
#
#
# Elastic Constant Matrix: (Units=GPa)
#
#
# Indices 1 2 3 4 5 6 
#
# 1 72.5311 4.6356 8.7916 0.0000 -5.1718 0.0000
# 2 4.6356 161.4930 64.6827 0.0000 14.2648 0.0000
# 3 8.7916 64.6827 167.2811 0.0000 5.2364 0.0000
# 4 0.0000 0.0000 0.0000 35.1704 0.0000 -4.9648
# 5 -5.1718 14.2648 5.2364 0.0000 35.1442 0.0000
# 6 0.0000 0.0000 0.0000 -4.9648 0.0000 -2.4054
#
#
#
# Elastic Compliance Matrix: (Units=1/GPa)
#
#
# Indices 1 2 3 4 5 6 
#
# 1 0.014056 -0.000334 -0.000682 0.000000 0.002306 0.000000
# 2 -0.000334 0.007572 -0.002826 0.000000 -0.002702 0.000000
# 3 -0.000682 -0.002826 0.007107 0.000000 -0.000012 0.000000
# 4 0.000000 0.000000 0.000000 0.022018 0.000000 -0.045446
# 5 0.002306 -0.002702 -0.000012 0.000000 0.029892 0.000000
# 6 0.000000 0.000000 0.000000 -0.045446 0.000000 -0.321935
#
#
# Mechanical properties :
#
#
# Convention : Reuss Voigt Hill
#
# Bulk Modulus (GPa) = 47.50268 61.94722 54.72495
# Shear Modulus (GPa) = -22.06629 35.12820 6.53095
#
# Velocity S-wave (km/s) = -3.07788 3.88343 1.67446
# Velocity P-wave (km/s) = 2.78611 6.83395 5.21849
#
# Compressibility (1/GPa) = 0.02105145
#
# Stress axis : x y z
#
# Youngs Moduli (GPa) = 71.14622 132.06052 140.70939
#
# Poissons Ratio (x) = 0.04412 0.09592
# Poissons Ratio (y) = 0.02377 0.39762
# Poissons Ratio (z) = 0.04850 0.37318
#
# Static dielectric constant tensor:
#      x y z
#    x 1.920850 0.000000 -0.027360 
#    y 0.000000 2.169650 0.000000 
#    z -0.027360 0.000000 1.933460 
# 
# From -- ./inp_files/22842.got.cif
#   From: 2010.05.17/outbox.cif.g08.bks.cpg/sg12_12_cif.got.tgz:22842.got - 2010.06.03 13:09:07.
