data_PCOD9188354
_publ_section_title
;
Structure prediction by ZEFSAII (Michael W. Deem and Ramdas Pophale) SiO2 
 PCOD9188354
Probable space group: C 2/M
;
_chemical_formula_sum "Si O2"
_cell_formula_units_Z 56
_cell_length_a 14.667906
_cell_length_b 8.658942
_cell_length_c 25.068455
_cell_angle_alpha 90.000000
_cell_angle_beta 105.254625
_cell_angle_gamma 90.000000
_cell_volume 3071.726518
_symmetry_space_group_name_H-M "C 2/M"
_symmetry_group_IT_number 12
_symmetry_cell_setting 'monoclinic'
loop_
_space_group_symop_operation_xyz
x,y,z
-x,y,-z
-x,-y,-z
x,-y,z
1/2+x,1/2+y,z
1/2-x,1/2+y,-z
1/2-x,1/2-y,-z
1/2+x,1/2-y,z
loop_
_atom_site_type_symbol
_atom_site_label
_atom_site_fract_x
_atom_site_fract_y
_atom_site_fract_z
Si Si1 0.179523 0.185948 0.150221
Si Si2 0.348158 0.814793 0.452583
Si Si3 0.358118 0.314906 0.236215
Si Si4 0.054938 0.315971 0.643152
Si Si5 0.030447 0.812748 0.851663
Si Si6 0.127070 0.817016 0.429385
Si Si7 0.220182 0.185666 0.938403
O O1 0.257659 0.242500 0.204574
O O2 0.212814 0.251632 0.098363
O O3 0.074272 0.240189 0.149525
O O4 0.180413 0.000000 0.148252
O O5 0.396596 0.766661 0.405124
O O6 0.236230 0.781067 0.433221
O O7 0.388017 0.736130 0.511857
O O8 0.359978 0.000000 0.460546
O O9 0.349855 0.500000 0.233012
O O10 0.395677 0.261469 0.298886
O O11 0.431958 0.266384 0.201003
O O12 0.064030 0.500000 0.649016
O O13 0.946025 0.268185 0.620122
O O14 0.113206 0.767045 0.905548
O O15 0.027541 0.000000 0.851417
O O16 0.113458 0.000000 0.422837
O O17 0.224032 0.000000 0.939108
O O18 0.250000 0.250000 0.000000
#
# Coordination Sequence:
#
# PCOD9188354 Si02
#       7
#     8   8   8   8   8   8   8
#     4  10  19  36  59  80 103 140 181 217 261 314
#     4   9  20  37  54  74 105 140 171 209 264 325
#     4  10  21  38  55  77 107 138 175 221 264 309
#     4  11  22  36  54  77 105 139 175 213 262 318
#     4   8  18  36  57  76 104 144 178 210 262 320
#     4  10  20  35  55  78 103 134 173 217 263 314
#     4  10  20  36  55  82 115 146 179 219 261 306
#
# _framework density 18.230789000000001
#
# number of rings (size 3 to 8) (size 9 to 14) (size 15 to 20)
#    0.000    2.286    0.000    3.429    0.000    5.143 
#    0.000   17.143    0.000    0.000    0.000    0.000 
#    0.000    0.000    0.000    0.000    0.000    0.000 
#
# Total GULP energy -156310.234555 kJ/mol
# GULP energy per Si atom -5582.508377 kJ/mol
# Density = 1.818930 g / cm^3
# Si number density = 18.230789 Si / 1000 Ang^3
#
#
#
# Elastic Constant Matrix: (Units=GPa)
#
#
# Indices 1 2 3 4 5 6 
#
# 1 125.7639 30.0963 51.8840 0.0000 12.8069 0.0000
# 2 30.0963 46.9816 30.5733 0.0000 4.8362 0.0000
# 3 51.8840 30.5733 109.0855 0.0000 13.8663 0.0000
# 4 0.0000 0.0000 0.0000 36.6181 0.0000 2.0941
# 5 12.8069 4.8362 13.8663 0.0000 10.4967 0.0000
# 6 0.0000 0.0000 0.0000 2.0941 0.0000 26.7308
#
#
#
# Elastic Compliance Matrix: (Units=1/GPa)
#
#
# Indices 1 2 3 4 5 6 
#
# 1 0.011002 -0.004273 -0.003100 0.000000 -0.007360 0.000000
# 2 -0.004273 0.027763 -0.005751 0.000000 0.000020 0.000000
# 3 -0.003100 -0.005751 0.013744 0.000000 -0.011724 0.000000
# 4 0.000000 0.000000 0.000000 0.027432 0.000000 -0.002149
# 5 -0.007360 0.000020 -0.011724 0.000000 0.119726 0.000000
# 6 0.000000 0.000000 0.000000 -0.002149 0.000000 0.037578
#
#
# Mechanical properties :
#
#
# Convention : Reuss Voigt Hill
#
# Bulk Modulus (GPa) = 38.08001 56.32647 47.20324
# Shear Modulus (GPa) = 18.36573 26.05430 22.21002
#
# Velocity S-wave (km/s) = 3.17740 3.78449 3.49416
# Velocity P-wave (km/s) = 5.86466 7.07531 6.49824
#
# Compressibility (1/GPa) = 0.02626050
#
# Stress axis : x y z
#
# Youngs Moduli (GPa) = 90.88966 36.01936 72.76143
#
# Poissons Ratio (x) = 0.15392 0.22554
# Poissons Ratio (y) = 0.38839 0.41846
# Poissons Ratio (z) = 0.28174 0.20715
#
# Static dielectric constant tensor:
#      x y z
#    x 1.633660 0.000000 0.000810 
#    y 0.000000 1.617420 0.000000 
#    z 0.000810 0.000000 1.591440 
# 
# From -- ./inp_files/338147.got.cif
#   From: 2010.05.17/outbox.cif.g08.bks.cpg/sg12_170_cif.got.tgz:338147.got - 2010.06.03 13:09:07.
