data_PCOD9188033
_publ_section_title
;
Structure prediction by ZEFSAII (Michael W. Deem and Ramdas Pophale) SiO2 
 PCOD9188033
Probable space group: C 2/M
;
_chemical_formula_sum "Si O2"
_cell_formula_units_Z 56
_cell_length_a 10.008168
_cell_length_b 27.578686
_cell_length_c 19.767355
_cell_angle_alpha 90.000000
_cell_angle_beta 35.336784
_cell_angle_gamma 90.000000
_cell_volume 3155.666413
_symmetry_space_group_name_H-M "C 2/M"
_symmetry_group_IT_number 12
_symmetry_cell_setting 'monoclinic'
loop_
_space_group_symop_operation_xyz
x,y,z
-x,y,-z
-x,-y,-z
x,-y,z
1/2+x,1/2+y,z
1/2-x,1/2+y,-z
1/2-x,1/2-y,-z
1/2+x,1/2-y,z
loop_
_atom_site_type_symbol
_atom_site_label
_atom_site_fract_x
_atom_site_fract_y
_atom_site_fract_z
Si Si1 0.404171 0.557897 0.373465
Si Si2 0.476969 0.906488 0.367137
Si Si3 0.454528 0.443809 0.200177
Si Si4 0.952959 0.201633 0.599464
Si Si5 0.216290 0.941730 0.961651
Si Si6 0.523997 0.189914 0.569033
Si Si7 0.182547 0.604869 0.716368
O O1 0.376974 0.500000 0.382005
O O2 0.182700 0.578547 0.504029
O O3 0.436506 0.577093 0.283416
O O4 0.624507 0.572569 0.326779
O O5 0.700451 0.940118 0.272218
O O6 0.567437 0.852576 0.345812
O O7 0.332734 0.905529 0.357687
O O8 0.515645 0.500000 0.184086
O O9 0.634013 0.425291 0.070364
O O10 0.765415 0.160519 0.693428
O O11 0.000000 0.198189 0.500000
O O12 0.200609 0.191966 0.531308
O O13 0.906222 0.258259 0.632822
O O14 0.434864 0.910871 0.847423
O O15 0.269982 0.000000 0.940339
O O16 0.000000 0.935744 0.000000
O O17 0.500000 0.179175 0.500000
#
# Coordination Sequence:
#
# PCOD9188033 Si02
#       7
#     8   8   8   8   8   8   8
#     4  11  23  35  53  86 121 150 182 237 300 341
#     4  12  21  35  57  86 117 151 185 232 295 351
#     4  10  22  39  57  80 114 155 200 235 268 339
#     4  10  19  36  53  84 118 147 184 234 288 346
#     4  10  21  39  60  82 109 156 208 238 272 330
#     4  10  20  33  57  81 116 153 185 225 286 352
#     4  12  22  36  57  84 118 149 190 244 285 341
#
# _framework density 17.745857000000001
#
# number of rings (size 3 to 8) (size 9 to 14) (size 15 to 20)
#    0.000    1.286    4.286    2.571    0.000    4.000 
#    0.000    2.143    0.000    0.857    0.000    0.000 
#    0.000    0.000    0.000    0.000    0.000    0.000 
#
# Total GULP energy -156198.969132 kJ/mol
# GULP energy per Si atom -5578.534612 kJ/mol
# Density = 1.770547 g / cm^3
# Si number density = 17.745857 Si / 1000 Ang^3
#
#
#
# Elastic Constant Matrix: (Units=GPa)
#
#
# Indices 1 2 3 4 5 6 
#
# 1 97.8029 19.1065 20.3529 -0.0001 13.7907 -0.0001
# 2 19.1065 71.0614 49.7364 0.0001 1.2780 0.0001
# 3 20.3529 49.7364 104.5139 -0.0016 7.0405 -0.0010
# 4 -0.0001 0.0001 -0.0016 20.9235 0.0004 -6.6224
# 5 13.7907 1.2780 7.0405 0.0004 27.3416 0.0003
# 6 -0.0001 0.0001 -0.0010 -6.6224 0.0003 27.2997
#
#
#
# Elastic Compliance Matrix: (Units=1/GPa)
#
#
# Indices 1 2 3 4 5 6 
#
# 1 0.011653 -0.002561 -0.000675 0.000000 -0.005584 0.000000
# 2 -0.002561 0.021734 -0.010037 -0.000001 0.002860 -0.000001
# 3 -0.000675 -0.010037 0.014676 0.000002 -0.002970 0.000001
# 4 0.000000 -0.000001 0.000002 0.051768 -0.000001 0.012558
# 5 -0.005584 0.002860 -0.002970 -0.000001 0.040022 -0.000001
# 6 0.000000 -0.000001 0.000001 0.012558 -0.000001 0.039677
#
#
# Mechanical properties :
#
#
# Convention : Reuss Voigt Hill
#
# Bulk Modulus (GPa) = 46.47119 50.19665 48.33392
# Shear Modulus (GPa) = 23.44708 27.39181 25.41944
#
# Velocity S-wave (km/s) = 3.63887 3.93308 3.78883
# Velocity P-wave (km/s) = 6.62564 6.99809 6.81441
#
# Compressibility (1/GPa) = 0.02151871
#
# Stress axis : x y z
#
# Youngs Moduli (GPa) = 85.81775 46.01005 68.13846
#
# Poissons Ratio (x) = 0.11781 0.04596
# Poissons Ratio (y) = 0.21974 0.68391
# Poissons Ratio (z) = 0.05789 0.46181
#
# Static dielectric constant tensor:
#      x y z
#    x 1.634130 0.000000 0.022500 
#    y 0.000000 1.654670 0.000000 
#    z 0.022500 0.000000 1.595270 
# 
# From -- ./inp_files/124346.got.cif
#   From: 2010.05.17/outbox.cif.g08.bks.cpg/sg12_63_cif.got.tgz:124346.got - 2010.06.03 13:09:07.
