data_PCOD9188401
_publ_section_title
;
Structure prediction by ZEFSAII (Michael W. Deem and Ramdas Pophale) SiO2 
 PCOD9188401
Probable space group: C 2/M
;
_chemical_formula_sum "Si O2"
_cell_formula_units_Z 64
_cell_length_a 20.520203
_cell_length_b 8.714224
_cell_length_c 22.173022
_cell_angle_alpha 90.000000
_cell_angle_beta 61.799817
_cell_angle_gamma 90.000000
_cell_volume 3494.298385
_symmetry_space_group_name_H-M "C 2/M"
_symmetry_group_IT_number 12
_symmetry_cell_setting 'monoclinic'
loop_
_space_group_symop_operation_xyz
x,y,z
-x,y,-z
-x,-y,-z
x,-y,z
1/2+x,1/2+y,z
1/2-x,1/2+y,-z
1/2-x,1/2-y,-z
1/2+x,1/2-y,z
loop_
_atom_site_type_symbol
_atom_site_label
_atom_site_fract_x
_atom_site_fract_y
_atom_site_fract_z
Si Si1 0.101919 0.316704 0.201092
Si Si2 0.434957 0.183333 0.424385
Si Si3 0.328870 0.682826 0.946915
Si Si4 0.095790 0.181202 0.333607
Si Si5 0.170505 0.684316 0.643957
Si Si6 0.975088 0.686143 0.943926
Si Si7 0.945642 0.685430 0.210532
Si Si8 0.830505 0.683024 0.582028
O O1 0.109203 0.500000 0.192384
O O2 0.152261 0.236126 0.129208
O O3 0.116655 0.263241 0.262062
O O4 0.017176 0.276478 0.220101
O O5 0.511888 0.270680 0.385946
O O6 0.384225 0.212051 0.388156
O O7 0.388389 0.224700 0.504058
O O8 0.450771 0.000000 0.419125
O O9 0.328205 0.500000 0.951186
O O10 0.395708 0.748570 0.958752
O O11 0.250000 0.750000 0.000000
O O12 0.146369 0.236789 0.366264
O O13 0.101151 0.000000 0.323503
O O14 0.182196 0.500000 0.642358
O O15 0.127896 0.738432 0.723203
O O16 0.248248 0.765729 0.600846
O O17 0.970442 0.500000 0.944089
O O18 0.033606 0.735049 0.866269
O O19 0.000000 0.731579 0.000000
O O20 0.941107 0.500000 0.211375
O O21 0.833643 0.500000 0.587817
#
# Coordination Sequence:
#
# PCOD9188401 Si02
#       8
#     8   8   8   8   8   8   8   8
#     4  10  19  38  64  87 115 152 194 238 289 345
#     4  10  21  39  62  83 109 151 195 240 294 352
#     4  11  22  38  60  89 122 157 199 241 287 340
#     4  12  24  38  59  87 116 150 194 240 289 347
#     4  10  19  36  59  83 113 148 190 238 294 350
#     4   9  18  35  59  87 118 155 195 238 291 345
#     4   8  15  31  58  84 109 147 187 229 284 343
#     4  11  24  39  55  81 117 154 193 240 296 348
#
# _framework density 18.315550000000002
#
# number of rings (size 3 to 8) (size 9 to 14) (size 15 to 20)
#    0.000    1.875    1.250    4.500    0.000    3.250 
#    2.250    0.625    0.000    0.000    0.000    0.000 
#    0.000    0.000    0.000    0.000    0.000    0.000 
#
# Total GULP energy -178713.689963 kJ/mol
# GULP energy per Si atom -5584.802811 kJ/mol
# Density = 1.827386 g / cm^3
# Si number density = 18.315550 Si / 1000 Ang^3
#
#
#
# Elastic Constant Matrix: (Units=GPa)
#
#
# Indices 1 2 3 4 5 6 
#
# 1 14.3710 7.5036 1.3993 0.0000 2.2360 -0.0002
# 2 7.5036 42.0184 14.2562 0.0001 1.1888 -0.0007
# 3 1.3993 14.2562 80.3874 0.0000 8.8987 0.0000
# 4 0.0000 0.0001 0.0000 22.3697 0.0000 -3.1645
# 5 2.2360 1.1888 8.8987 0.0000 32.0280 0.0000
# 6 -0.0002 -0.0007 0.0000 -3.1645 0.0000 26.6680
#
#
#
# Elastic Compliance Matrix: (Units=1/GPa)
#
#
# Indices 1 2 3 4 5 6 
#
# 1 0.077734 -0.014335 0.001786 0.000000 -0.005391 0.000000
# 2 -0.014335 0.027969 -0.004856 0.000000 0.001312 0.000001
# 3 0.001786 -0.004856 0.013685 0.000000 -0.003747 0.000000
# 4 0.000000 0.000000 0.000000 0.045466 0.000000 0.005395
# 5 -0.005391 0.001312 -0.003747 0.000000 0.032591 0.000000
# 6 0.000000 0.000001 0.000000 0.005395 0.000000 0.038138
#
#
# Mechanical properties :
#
#
# Convention : Reuss Voigt Hill
#
# Bulk Modulus (GPa) = 11.82337 20.34387 16.08362
# Shear Modulus (GPa) = 16.74553 23.78767 20.26660
#
# Velocity S-wave (km/s) = 3.02699 3.60775 3.33005
# Velocity P-wave (km/s) = 4.32276 5.33723 4.85656
#
# Compressibility (1/GPa) = 0.08457826
#
# Stress axis : x y z
#
# Youngs Moduli (GPa) = 12.86434 35.75336 73.07499
#
# Poissons Ratio (x) = 0.51253 -0.13050
# Poissons Ratio (y) = 0.18441 0.35484
# Poissons Ratio (z) = -0.02297 0.17361
#
# Static dielectric constant tensor:
#      x y z
#    x 1.597050 0.000000 0.003200 
#    y 0.000000 1.614710 0.000000 
#    z 0.003200 0.000000 1.636830 
# 
# From -- ./inp_files/319769.got.cif
#   From: 2010.05.17/outbox.cif.g08.bks.cpg/sg12_160_cif.got.tgz:319769.got - 2010.06.03 13:09:07.
