data_PCOD9188149
_publ_section_title
;
Structure prediction by ZEFSAII (Michael W. Deem and Ramdas Pophale) SiO2 
 PCOD9188149
Probable space group: C 2/M
;
_chemical_formula_sum "Si O2"
_cell_formula_units_Z 36
_cell_length_a 10.424741
_cell_length_b 16.546896
_cell_length_c 11.610360
_cell_angle_alpha 90.000000
_cell_angle_beta 121.184764
_cell_angle_gamma 90.000000
_cell_volume 1713.359582
_symmetry_space_group_name_H-M "C 2/M"
_symmetry_group_IT_number 12
_symmetry_cell_setting 'monoclinic'
loop_
_space_group_symop_operation_xyz
x,y,z
-x,y,-z
-x,-y,-z
x,-y,z
1/2+x,1/2+y,z
1/2-x,1/2+y,-z
1/2-x,1/2-y,-z
1/2+x,1/2-y,z
loop_
_atom_site_type_symbol
_atom_site_label
_atom_site_fract_x
_atom_site_fract_y
_atom_site_fract_z
Si Si1 0.904614 0.587856 0.192063
Si Si2 0.948682 0.173899 0.600830
Si Si3 0.725419 0.255952 0.851758
Si Si4 0.375162 0.136136 0.532325
Si Si5 0.500000 0.149945 0.000000
O O1 0.841943 0.500000 0.190167
O O2 0.814043 0.664314 0.201142
O O3 0.070488 0.596579 0.323471
O O4 0.918971 0.599338 0.061299
O O5 0.800723 0.127207 0.574453
O O6 0.900673 0.267305 0.555272
O O7 0.000000 0.141487 0.500000
O O8 0.090100 0.185602 0.750987
O O9 0.750000 0.250000 0.000000
O O10 0.880571 0.292535 0.879381
O O11 0.500000 0.105911 0.500000
#
# Coordination Sequence:
#
# PCOD9188149 Si02
#       5
#     8   8   8   8   4
#     4  10  20  34  54  81 111 144 185 238 294 340
#     4   9  16  30  52  79 105 139 189 238 275 321
#     4   9  19  32  53  80 107 142 189 234 276 333
#     4   9  18  30  50  77 108 143 181 224 282 344
#     4  10  19  36  57  78 106 148 200 238 273 338
#
# _framework density 21.011351000000001
#
# number of rings (size 3 to 8) (size 9 to 14) (size 15 to 20)
#    0.000    2.667    0.000    1.667    0.000   11.111 
#    0.000    0.556    0.000   11.333    0.000    0.000 
#    0.000    0.000    0.000    0.000    0.000    0.000 
#
# Total GULP energy -100255.355234 kJ/mol
# GULP energy per Si atom -5569.741957 kJ/mol
# Density = 2.096353 g / cm^3
# Si number density = 21.011351 Si / 1000 Ang^3
#
#
#
# Elastic Constant Matrix: (Units=GPa)
#
#
# Indices 1 2 3 4 5 6 
#
# 1 82.5923 23.1009 49.7899 0.0000 19.1569 0.0000
# 2 23.1009 73.7458 12.1594 0.0000 15.1831 0.0000
# 3 49.7899 12.1594 114.1039 0.0000 21.5655 0.0000
# 4 0.0000 0.0000 0.0000 6.4902 0.0000 -4.1196
# 5 19.1569 15.1831 21.5655 0.0000 42.7485 0.0000
# 6 0.0000 0.0000 0.0000 -4.1196 0.0000 9.7325
#
#
#
# Elastic Compliance Matrix: (Units=1/GPa)
#
#
# Indices 1 2 3 4 5 6 
#
# 1 0.018082 -0.003859 -0.006860 0.000000 -0.003271 0.000000
# 2 -0.003859 0.015496 0.000825 0.000000 -0.004190 0.000000
# 3 -0.006860 0.000825 0.012318 0.000000 -0.003433 0.000000
# 4 0.000000 0.000000 0.000000 0.210682 0.000000 0.089178
# 5 -0.003271 -0.004190 -0.003433 0.000000 0.028079 0.000000
# 6 0.000000 0.000000 0.000000 0.089178 0.000000 0.140495
#
#
# Mechanical properties :
#
#
# Convention : Reuss Voigt Hill
#
# Bulk Modulus (GPa) = 38.30603 48.94917 43.62760
# Shear Modulus (GPa) = 11.02186 24.15371 17.58779
#
# Velocity S-wave (km/s) = 2.29283 3.39419 2.89634
# Velocity P-wave (km/s) = 5.02793 6.22156 5.65632
#
# Compressibility (1/GPa) = 0.02610555
#
# Stress axis : x y z
#
# Youngs Moduli (GPa) = 55.30470 64.53369 81.17884
#
# Poissons Ratio (x) = 0.24906 0.55693
# Poissons Ratio (y) = 0.21344 -0.06695
# Poissons Ratio (z) = 0.37942 -0.05322
#
# Static dielectric constant tensor:
#      x y z
#    x 1.832230 0.000000 -0.015040 
#    y 0.000000 1.779210 0.000000 
#    z -0.015040 0.000000 1.825390 
# 
# From -- ./inp_files/131439.got.cif
#   From: 2010.05.17/outbox.cif.g08.bks.cpg/sg12_66_cif.got.tgz:131439.got - 2010.06.03 13:09:07.
