data_PCOD9188574
_publ_section_title
;
Structure prediction by ZEFSAII (Michael W. Deem and Ramdas Pophale) SiO2 
 PCOD9188574
Probable space group: C 2/M
;
_chemical_formula_sum "Si O2"
_cell_formula_units_Z 56
_cell_length_a 16.406693
_cell_length_b 15.791169
_cell_length_c 12.763500
_cell_angle_alpha 90.000000
_cell_angle_beta 117.857448
_cell_angle_gamma 90.000000
_cell_volume 2923.565617
_symmetry_space_group_name_H-M "C 2/M"
_symmetry_group_IT_number 12
_symmetry_cell_setting 'monoclinic'
loop_
_space_group_symop_operation_xyz
x,y,z
-x,y,-z
-x,-y,-z
x,-y,z
1/2+x,1/2+y,z
1/2-x,1/2+y,-z
1/2-x,1/2-y,-z
1/2+x,1/2-y,z
loop_
_atom_site_type_symbol
_atom_site_label
_atom_site_fract_x
_atom_site_fract_y
_atom_site_fract_z
Si Si1 0.448892 0.368723 0.357202
Si Si2 0.486253 0.500000 0.191501
Si Si3 0.626135 0.902806 0.961460
Si Si4 0.931772 0.599073 0.766324
Si Si5 0.733212 0.154641 0.221987
Si Si6 0.864485 0.000000 0.907261
Si Si7 0.037349 0.332673 0.635409
Si Si8 0.730025 0.842419 0.830204
O O1 0.500000 0.389906 0.500000
O O2 0.478804 0.422181 0.271498
O O3 0.337405 0.377151 0.302453
O O4 0.465479 0.268834 0.346113
O O5 0.572220 0.500000 0.160688
O O6 0.408253 0.500000 0.052350
O O7 0.518387 0.878070 0.894585
O O8 0.684097 0.844629 0.917598
O O9 0.629301 0.000000 0.923828
O O10 0.677652 0.898637 0.101949
O O11 0.912763 0.500000 0.767435
O O12 0.836770 0.648807 0.723534
O O13 0.976344 0.619074 0.682219
O O14 0.736272 0.250066 0.181105
O O15 0.805389 0.914600 0.867772
O O16 0.142434 0.362134 0.705400
O O17 0.000000 0.348365 0.500000
#
# Coordination Sequence:
#
# PCOD9188574 Si02
#       8
#     8   4   8   8   8   4   8   8
#     4  10  23  44  64  87 121 167 214 249 300 358
#     4  11  25  42  64  85 128 170 202 257 302 348
#     4  10  19  36  60  85 123 156 192 251 312 362
#     4  10  22  37  58  93 124 150 198 252 309 370
#     4  11  22  36  62  89 119 161 202 247 306 365
#     4  11  24  42  61  93 121 159 215 252 304 363
#     4   9  21  43  64  87 121 159 198 252 308 359
#     4  10  21  39  59  87 118 156 205 250 297 365
#
# _framework density 19.154693000000002
#
# number of rings (size 3 to 8) (size 9 to 14) (size 15 to 20)
#    0.000    1.857    0.714    2.357    5.000    3.714 
#    5.143    2.143    0.000    0.000    0.000    0.000 
#    0.000    0.000    0.000    0.000    0.000    0.000 
#
# Total GULP energy -156047.118353 kJ/mol
# GULP energy per Si atom -5573.111370 kJ/mol
# Density = 1.911110 g / cm^3
# Si number density = 19.154693 Si / 1000 Ang^3
#
#
#
# Elastic Constant Matrix: (Units=GPa)
#
#
# Indices 1 2 3 4 5 6 
#
# 1 115.5959 45.7247 50.0694 0.0000 1.1023 0.0000
# 2 45.7247 50.4789 33.3888 0.0000 -4.5034 0.0000
# 3 50.0694 33.3888 132.8688 0.0000 -2.0849 0.0000
# 4 0.0000 0.0000 0.0000 25.4431 0.0000 5.3514
# 5 1.1023 -4.5034 -2.0849 0.0000 16.3367 0.0000
# 6 0.0000 0.0000 0.0000 5.3514 0.0000 16.8326
#
#
#
# Elastic Compliance Matrix: (Units=1/GPa)
#
#
# Indices 1 2 3 4 5 6 
#
# 1 0.014483 -0.011836 -0.002555 0.000000 -0.004566 0.000000
# 2 -0.011836 0.033994 -0.003930 0.000000 0.009668 0.000000
# 3 -0.002555 -0.003930 0.009481 0.000000 0.000299 0.000000
# 4 0.000000 0.000000 0.000000 0.042120 0.000000 -0.013391
# 5 -0.004566 0.009668 0.000299 0.000000 0.064223 0.000000
# 6 0.000000 0.000000 0.000000 -0.013391 0.000000 0.063666
#
#
# Mechanical properties :
#
#
# Convention : Reuss Voigt Hill
#
# Bulk Modulus (GPa) = 46.91522 61.92328 54.41925
# Shear Modulus (GPa) = 18.40159 23.03985 20.72072
#
# Velocity S-wave (km/s) = 3.10285 3.47195 3.29258
# Velocity P-wave (km/s) = 6.11416 6.96209 6.55186
#
# Compressibility (1/GPa) = 0.02131505
#
# Stress axis : x y z
#
# Youngs Moduli (GPa) = 69.04664 29.41687 105.46999
#
# Poissons Ratio (x) = 0.34819 0.26947
# Poissons Ratio (y) = 0.81726 0.41454
# Poissons Ratio (z) = 0.17641 0.11562
#
# Static dielectric constant tensor:
#      x y z
#    x 1.573860 0.000000 0.080270 
#    y 0.000000 1.668880 0.000000 
#    z 0.080270 0.000000 1.632600 
# 
# From -- ./inp_files/146273.got.cif
#   From: 2010.05.17/outbox.cif.g08.bks.cpg/sg12_74_cif.got.tgz:146273.got - 2010.06.03 13:09:07.
