data_PCOD9188356
_publ_section_title
;
Structure prediction by ZEFSAII (Michael W. Deem and Ramdas Pophale) SiO2 
 PCOD9188356
Probable space group: C 2/M
;
_chemical_formula_sum "Si O2"
_cell_formula_units_Z 64
_cell_length_a 25.085615
_cell_length_b 9.018961
_cell_length_c 16.559274
_cell_angle_alpha 90.000000
_cell_angle_beta 91.580222
_cell_angle_gamma 90.000000
_cell_volume 3745.047735
_symmetry_space_group_name_H-M "C 2/M"
_symmetry_group_IT_number 12
_symmetry_cell_setting 'monoclinic'
loop_
_space_group_symop_operation_xyz
x,y,z
-x,y,-z
-x,-y,-z
x,-y,z
1/2+x,1/2+y,z
1/2-x,1/2+y,-z
1/2-x,1/2-y,-z
1/2+x,1/2-y,z
loop_
_atom_site_type_symbol
_atom_site_label
_atom_site_fract_x
_atom_site_fract_y
_atom_site_fract_z
Si Si1 0.805356 0.677296 0.474067
Si Si2 0.425242 0.677683 0.211441
Si Si3 0.939479 0.822117 0.023577
Si Si4 0.133645 0.824670 0.383496
Si Si5 0.793146 0.177081 0.770698
Si Si6 0.617375 0.176664 0.124753
Si Si7 0.676829 0.178557 0.711069
Si Si8 0.456462 0.321882 0.742246
O O1 0.799818 0.500000 0.476187
O O2 0.750000 0.750000 0.500000
O O3 0.850186 0.731618 0.538295
O O4 0.818277 0.721760 0.382791
O O5 0.419543 0.500000 0.217038
O O6 0.374872 0.753695 0.249872
O O7 0.481563 0.717963 0.255361
O O8 0.430527 0.714916 0.116808
O O9 0.898895 0.740112 0.962718
O O10 0.933828 0.000000 0.013440
O O11 0.000000 0.784100 0.000000
O O12 0.176637 0.797513 0.313578
O O13 0.076685 0.790450 0.340381
O O14 0.135809 0.000000 0.402573
O O15 0.826412 0.262058 0.839925
O O16 0.731877 0.222062 0.757738
O O17 0.796257 0.000000 0.785714
O O18 0.573717 0.240591 0.186092
O O19 0.616759 0.000000 0.125286
O O20 0.674021 0.000000 0.713751
O O21 0.452110 0.500000 0.756832
#
# Coordination Sequence:
#
# PCOD9188356 Si02
#       8
#     8   8   8   8   8   8   8   8
#     4  11  21  35  55  81 111 143 183 226 273 324
#     4  10  21  37  59  83 106 144 189 225 266 327
#     4  10  19  36  59  80 108 145 185 224 271 328
#     4   9  17  32  56  82 107 138 181 230 271 315
#     4   9  18  36  56  75 108 150 184 215 273 335
#     4  11  21  31  52  87 115 136 178 233 276 313
#     4  10  22  39  56  78 112 150 180 222 281 329
#     4   9  18  36  56  77 111 149 182 218 272 331
#
# _framework density 17.089234999999999
#
# number of rings (size 3 to 8) (size 9 to 14) (size 15 to 20)
#    0.000    2.125    2.500    2.250    0.000    4.750 
#    0.000    1.250    0.000    3.750    0.000    0.000 
#    0.000    0.000    0.000    0.000    0.000    0.000 
#
# Total GULP energy -178586.625693 kJ/mol
# GULP energy per Si atom -5580.832053 kJ/mol
# Density = 1.705034 g / cm^3
# Si number density = 17.089235 Si / 1000 Ang^3
#
#
#
# Elastic Constant Matrix: (Units=GPa)
#
#
# Indices 1 2 3 4 5 6 
#
# 1 166.8025 54.0507 89.4513 0.0000 14.2036 0.0000
# 2 54.0507 41.6309 51.0504 0.0000 9.0943 0.0000
# 3 89.4513 51.0504 110.1062 0.0000 11.9427 0.0000
# 4 0.0000 0.0000 0.0000 28.1832 0.0000 0.1584
# 5 14.2036 9.0943 11.9427 0.0000 29.5815 0.0000
# 6 0.0000 0.0000 0.0000 0.1584 0.0000 29.1896
#
#
#
# Elastic Compliance Matrix: (Units=1/GPa)
#
#
# Indices 1 2 3 4 5 6 
#
# 1 0.011740 -0.008051 -0.005712 0.000000 -0.000856 0.000000
# 2 -0.008051 0.062618 -0.021777 0.000000 -0.006593 0.000000
# 3 -0.005712 -0.021777 0.023840 0.000000 -0.000187 0.000000
# 4 0.000000 0.000000 0.000000 0.035483 0.000000 -0.000193
# 5 -0.000856 -0.006593 -0.000187 0.000000 0.036318 0.000000
# 6 0.000000 0.000000 0.000000 -0.000193 0.000000 0.034260
#
#
# Mechanical properties :
#
#
# Convention : Reuss Voigt Hill
#
# Bulk Modulus (GPa) = 36.87597 78.62714 57.75155
# Shear Modulus (GPa) = 17.58227 25.65667 21.61947
#
# Velocity S-wave (km/s) = 3.21105 3.87891 3.56067
# Velocity P-wave (km/s) = 5.94753 8.13455 7.12545
#
# Compressibility (1/GPa) = 0.02711793
#
# Stress axis : x y z
#
# Youngs Moduli (GPa) = 85.17834 15.96993 41.94702
#
# Poissons Ratio (x) = 0.12858 0.23960
# Poissons Ratio (y) = 0.68578 0.91346
# Poissons Ratio (z) = 0.48654 0.34777
#
# Static dielectric constant tensor:
#      x y z
#    x 1.575140 0.000000 0.022360 
#    y 0.000000 1.568990 0.000000 
#    z 0.022360 0.000000 1.564140 
# 
# From -- ./inp_files/238568.got.cif
#   From: 2010.05.17/outbox.cif.g08.bks.cpg/sg12_120_cif.got.tgz:238568.got - 2010.06.03 13:09:07.
