data_PCOD9188823
_publ_section_title
;
Structure prediction by ZEFSAII (Michael W. Deem and Ramdas Pophale) SiO2 
 PCOD9188823
Probable space group: C 2/M
;
_chemical_formula_sum "Si O2"
_cell_formula_units_Z 64
_cell_length_a 20.063687
_cell_length_b 7.675283
_cell_length_c 24.852955
_cell_angle_alpha 90.000000
_cell_angle_beta 128.265608
_cell_angle_gamma 90.000000
_cell_volume 3004.933354
_symmetry_space_group_name_H-M "C 2/M"
_symmetry_group_IT_number 12
_symmetry_cell_setting 'monoclinic'
loop_
_space_group_symop_operation_xyz
x,y,z
-x,y,-z
-x,-y,-z
x,-y,z
1/2+x,1/2+y,z
1/2-x,1/2+y,-z
1/2-x,1/2-y,-z
1/2+x,1/2-y,z
loop_
_atom_site_type_symbol
_atom_site_label
_atom_site_fract_x
_atom_site_fract_y
_atom_site_fract_z
Si Si1 0.876477 0.301804 0.303947
Si Si2 0.809455 0.705665 0.788083
Si Si3 0.595135 0.289454 0.058139
Si Si4 0.747424 0.209216 0.935517
Si Si5 0.421549 0.214166 0.211676
Si Si6 0.405357 0.789875 0.438110
Si Si7 0.752443 0.294745 0.564046
Si Si8 0.610354 0.213103 0.283950
O O1 0.909272 0.500000 0.324389
O O2 0.777019 0.302077 0.240867
O O3 0.918478 0.223078 0.272040
O O4 0.884919 0.223343 0.367649
O O5 0.790518 0.500000 0.775408
O O6 0.876650 0.737445 0.868222
O O7 0.842897 0.766213 0.747221
O O8 0.594025 0.500000 0.054198
O O9 0.668265 0.226627 0.053479
O O10 0.500000 0.225883 0.000000
O O11 0.660840 0.272393 0.863183
O O12 0.746963 0.000000 0.930085
O O13 0.750000 0.250000 0.000000
O O14 0.512549 0.267677 0.234354
O O15 0.418659 0.000000 0.211164
O O16 0.500000 0.729950 0.500000
O O17 0.333273 0.746312 0.445608
O O18 0.406161 0.000000 0.436653
O O19 0.762034 0.500000 0.571040
O O20 0.750000 0.250000 0.500000
O O21 0.833533 0.222764 0.637621
O O22 0.609404 0.000000 0.284206
#
# Coordination Sequence:
#
# PCOD9188823 Si02
#       8
#     8   8   8   8   8   8   8   8
#     4  10  19  36  62  84 111 149 191 236 285 340
#     4  11  21  36  59  86 115 146 189 239 288 340
#     4  10  22  40  59  82 114 153 192 234 286 342
#     4  10  21  37  57  80 110 145 184 226 278 335
#     4   9  18  35  58  81 107 146 190 229 276 337
#     4  10  22  38  61  91 117 152 201 244 289 353
#     4  11  23  40  60  84 121 159 195 242 297 355
#     4   9  20  36  57  84 114 148 186 236 290 338
#
# _framework density 21.298309
#
# number of rings (size 3 to 8) (size 9 to 14) (size 15 to 20)
#    0.000    2.000    2.500    0.750    3.500    1.000 
#    0.000    0.000    0.000    3.000    0.000    0.000 
#    0.000    0.000    0.000    0.000    0.000    0.000 
#
# Total GULP energy -178676.838926 kJ/mol
# GULP energy per Si atom -5583.651216 kJ/mol
# Density = 2.124983 g / cm^3
# Si number density = 21.298309 Si / 1000 Ang^3
#
#
#
# Elastic Constant Matrix: (Units=GPa)
#
#
# Indices 1 2 3 4 5 6 
#
# 1 81.9563 2.1136 21.5413 0.0000 0.3188 0.0000
# 2 2.1136 38.7425 0.2902 0.0000 2.7278 0.0001
# 3 21.5413 0.2902 118.7321 0.0000 -3.9933 0.0000
# 4 0.0000 0.0000 0.0000 17.4761 0.0000 -7.0349
# 5 0.3188 2.7278 -3.9933 0.0000 41.0568 0.0000
# 6 0.0000 0.0001 0.0000 -7.0349 0.0000 7.4620
#
#
#
# Elastic Compliance Matrix: (Units=1/GPa)
#
#
# Indices 1 2 3 4 5 6 
#
# 1 0.012834 -0.000663 -0.002336 0.000000 -0.000283 0.000000
# 2 -0.000663 0.025969 -0.000001 0.000000 -0.001720 0.000000
# 3 -0.002336 -0.000001 0.008876 0.000000 0.000882 0.000000
# 4 0.000000 0.000000 0.000000 0.092217 0.000000 0.086938
# 5 -0.000283 -0.001720 0.000882 0.000000 0.024559 0.000000
# 6 0.000000 0.000000 0.000000 0.086938 0.000000 0.215974
#
#
# Mechanical properties :
#
#
# Convention : Reuss Voigt Hill
#
# Bulk Modulus (GPa) = 23.99339 31.92458 27.95899
# Shear Modulus (GPa) = 12.48996 27.56469 20.02733
#
# Velocity S-wave (km/s) = 2.42426 3.60143 3.06980
# Velocity P-wave (km/s) = 4.37332 5.68467 5.07156
#
# Compressibility (1/GPa) = 0.04167814
#
# Stress axis : x y z
#
# Youngs Moduli (GPa) = 77.91864 38.50788 112.66528
#
# Poissons Ratio (x) = 0.02552 0.26322
# Poissons Ratio (y) = 0.05164 0.00012
# Poissons Ratio (z) = 0.18204 0.00004
#
# Static dielectric constant tensor:
#      x y z
#    x 1.560060 0.000000 0.124670 
#    y 0.000000 1.810360 0.000000 
#    z 0.124670 0.000000 1.679100 
# 
# From -- ./inp_files/346251.got.cif
#   From: 2010.05.17/outbox.cif.g08.bks.cpg/sg12_174_cif.got.tgz:346251.got - 2010.06.03 13:09:07.
