data_PCOD9188307
_publ_section_title
;
Structure prediction by ZEFSAII (Michael W. Deem and Ramdas Pophale) SiO2 
 PCOD9188307
Probable space group: C 2/M
;
_chemical_formula_sum "Si O2"
_cell_formula_units_Z 56
_cell_length_a 11.946072
_cell_length_b 24.310266
_cell_length_c 11.992417
_cell_angle_alpha 90.000000
_cell_angle_beta 47.402533
_cell_angle_gamma 90.000000
_cell_volume 2563.741973
_symmetry_space_group_name_H-M "C 2/M"
_symmetry_group_IT_number 12
_symmetry_cell_setting 'monoclinic'
loop_
_space_group_symop_operation_xyz
x,y,z
-x,y,-z
-x,-y,-z
x,-y,z
1/2+x,1/2+y,z
1/2-x,1/2+y,-z
1/2-x,1/2-y,-z
1/2+x,1/2-y,z
loop_
_atom_site_type_symbol
_atom_site_label
_atom_site_fract_x
_atom_site_fract_y
_atom_site_fract_z
Si Si1 0.173609 0.908291 0.391838
Si Si2 0.179956 0.140790 0.635550
Si Si3 0.888087 0.592427 0.667521
Si Si4 0.981287 0.558891 0.848750
Si Si5 0.071517 0.683503 0.063933
Si Si6 0.618336 0.316095 0.240866
Si Si7 0.454082 0.792668 0.379774
O O1 0.193876 0.888848 0.506029
O O2 0.333975 0.939333 0.266698
O O3 0.168044 0.858355 0.305105
O O4 0.000000 0.932527 0.500000
O O5 0.233933 0.103555 0.702557
O O6 0.289730 0.194066 0.542737
O O7 0.006224 0.156940 0.755803
O O8 0.000000 0.567021 0.500000
O O9 0.914936 0.562963 0.766705
O O10 0.948028 0.654370 0.649951
O O11 0.928172 0.500000 0.930754
O O12 0.927996 0.616621 0.935936
O O13 0.970085 0.702928 0.235293
O O14 0.245202 0.700055 0.931885
O O15 0.000000 0.705221 0.000000
O O16 0.535378 0.264101 0.352775
#
# Coordination Sequence:
#
# PCOD9188307 Si02
#       7
#     8   8   8   8   8   8   8
#     4  10  20  37  58  88 124 149 188 257 299 346
#     4  10  19  36  58  84 124 152 191 240 292 353
#     4   9  18  36  57  85 121 146 194 252 285 354
#     4  11  22  40  64  84 111 160 206 254 307 355
#     4  11  21  40  57  83 122 153 202 256 286 355
#     4  11  22  34  57  87 120 163 191 233 301 349
#     4  10  20  35  56  87 118 159 199 232 287 356
#
# _framework density 21.843071999999999
#
# number of rings (size 3 to 8) (size 9 to 14) (size 15 to 20)
#    0.000    1.714    5.714    0.857    0.000    8.286 
#    0.000    2.857    0.000    1.714    0.000    0.000 
#    0.000    0.000    0.000    0.000    0.000    0.000 
#
# Total GULP energy -156015.153816 kJ/mol
# GULP energy per Si atom -5571.969779 kJ/mol
# Density = 2.179336 g / cm^3
# Si number density = 21.843072 Si / 1000 Ang^3
#
#
#
# Elastic Constant Matrix: (Units=GPa)
#
#
# Indices 1 2 3 4 5 6 
#
# 1 138.2456 26.8683 43.5303 0.0000 5.2128 0.0000
# 2 26.8683 69.7566 -6.5672 0.0000 4.2529 0.0000
# 3 43.5303 -6.5672 64.1309 0.0000 7.9802 0.0000
# 4 0.0000 0.0000 0.0000 6.5504 0.0000 -3.1198
# 5 5.2128 4.2529 7.9802 0.0000 42.9029 0.0000
# 6 0.0000 0.0000 0.0000 -3.1198 0.0000 -10.5458
#
#
#
# Elastic Compliance Matrix: (Units=1/GPa)
#
#
# Indices 1 2 3 4 5 6 
#
# 1 0.010600 -0.004853 -0.007771 0.000000 0.000639 0.000000
# 2 -0.004853 0.016827 0.005274 0.000000 -0.002059 0.000000
# 3 -0.007771 0.005274 0.021862 0.000000 -0.003645 0.000000
# 4 0.000000 0.000000 0.000000 0.133809 0.000000 -0.039586
# 5 0.000639 -0.002059 -0.003645 0.000000 0.024113 0.000000
# 6 0.000000 0.000000 0.000000 -0.039586 0.000000 -0.083114
#
#
# Mechanical properties :
#
#
# Convention : Reuss Voigt Hill
#
# Bulk Modulus (GPa) = 28.91301 44.42177 36.66739
# Shear Modulus (GPa) = 33.26086 21.66828 27.46457
#
# Velocity S-wave (km/s) = 3.90644 3.15302 3.54977
# Velocity P-wave (km/s) = 5.79762 5.79968 5.79865
#
# Compressibility (1/GPa) = 0.03458650
#
# Stress axis : x y z
#
# Youngs Moduli (GPa) = 94.34295 59.42858 45.74233
#
# Poissons Ratio (x) = 0.28842 0.35547
# Poissons Ratio (y) = 0.45787 -0.24123
# Poissons Ratio (z) = 0.73316 -0.31340
#
# Static dielectric constant tensor:
#      x y z
#    x 1.871220 0.000000 -0.008500 
#    y 0.000000 1.843460 0.000000 
#    z -0.008500 0.000000 1.811970 
# 
# From -- ./inp_files/136915.got.cif
#   From: 2010.05.17/outbox.cif.g08.bks.cpg/sg12_69_cif.got.tgz:136915.got - 2010.06.03 13:09:07.
