data_PCOD9188049
_publ_section_title
;
Structure prediction by ZEFSAII (Michael W. Deem and Ramdas Pophale) SiO2 
 PCOD9188049
Probable space group: C 2/M
;
_chemical_formula_sum "Si O2"
_cell_formula_units_Z 46
_cell_length_a 27.016948
_cell_length_b 11.552732
_cell_length_c 18.208278
_cell_angle_alpha 90.000000
_cell_angle_beta 156.289676
_cell_angle_gamma 90.000000
_cell_volume 2285.271045
_symmetry_space_group_name_H-M "C 2/M"
_symmetry_group_IT_number 12
_symmetry_cell_setting 'monoclinic'
loop_
_space_group_symop_operation_xyz
x,y,z
-x,y,-z
-x,-y,-z
x,-y,z
1/2+x,1/2+y,z
1/2-x,1/2+y,-z
1/2-x,1/2-y,-z
1/2+x,1/2-y,z
loop_
_atom_site_type_symbol
_atom_site_label
_atom_site_fract_x
_atom_site_fract_y
_atom_site_fract_z
Si Si1 0.000000 0.000000 0.500000
Si Si2 0.359066 0.371171 0.948425
Si Si3 0.412549 0.864846 0.217431
Si Si4 0.338810 0.869640 0.685354
Si Si5 0.000000 0.802152 0.000000
Si Si6 0.698589 0.700099 0.811470
Si Si7 0.581676 0.730363 0.345152
O O1 0.896261 0.101871 0.340668
O O2 0.311765 0.500000 0.900673
O O3 0.261394 0.269136 0.829339
O O4 0.418090 0.369213 0.947771
O O5 0.470368 0.338770 0.155311
O O6 0.364448 0.798260 0.223532
O O7 0.529151 0.794274 0.344697
O O8 0.437162 0.000000 0.263108
O O9 0.307353 0.852290 0.011007
O O10 0.410993 0.779870 0.833010
O O11 0.367636 0.828765 0.641660
O O12 0.195518 0.855297 0.509240
O O13 0.380619 0.000000 0.753359
#
# Coordination Sequence:
#
# PCOD9188049 Si02
#       7
#     2   8   8   8   4   8   8
#     4  12  24  48  58  94 128 174 192 274 308 394
#     4  10  20  40  61  87 118 163 204 256 300 374
#     4  10  19  40  64  94 116 160 206 266 298 384
#     4  10  19  36  54  83 120 160 199 255 295 373
#     4  10  22  36  56  88 122 163 205 236 320 362
#     4  10  23  39  65  89 124 161 208 247 330 361
#     4   9  20  34  59  89 116 152 209 248 317 346
#
# _framework density 20.128903999999999
#
# number of rings (size 3 to 8) (size 9 to 14) (size 15 to 20)
#    0.000    2.087    0.870    2.087    0.000    1.391 
#    9.391    6.087    0.000    0.000    0.000    0.000 
#    0.000    0.000    0.000    0.000    0.000    0.000 
#
# Total GULP energy -128143.384043 kJ/mol
# GULP energy per Si atom -5571.451480 kJ/mol
# Density = 2.008309 g / cm^3
# Si number density = 20.128904 Si / 1000 Ang^3
#
#
#
# Elastic Constant Matrix: (Units=GPa)
#
#
# Indices 1 2 3 4 5 6 
#
# 1 81.0720 29.0460 7.6019 0.0000 14.6000 0.0000
# 2 29.0460 130.2212 12.4823 0.0000 1.7549 0.0000
# 3 7.6019 12.4823 51.2299 0.0000 9.4974 0.0000
# 4 0.0000 0.0000 0.0000-1675.6532 0.0000 257.5542
# 5 14.6000 1.7549 9.4974 0.0000 12.1097 0.0000
# 6 0.0000 0.0000 0.0000 257.5542 0.0000 -29.8718
#
#
#
# Elastic Compliance Matrix: (Units=1/GPa)
#
#
# Indices 1 2 3 4 5 6 
#
# 1 0.017542 -0.003850 0.002519 0.000000 -0.022567 0.000000
# 2 -0.003850 0.008710 -0.002548 0.000000 0.005378 0.000000
# 3 0.002519 -0.002548 0.023709 0.000000 -0.021262 0.000000
# 4 0.000000 0.000000 0.000000 0.001835 0.000000 0.015821
# 5 -0.022567 0.005378 -0.021262 0.000000 0.125682 0.000000
# 6 0.000000 0.000000 0.000000 0.015821 0.000000 0.102931
#
#
# Mechanical properties :
#
#
# Convention : Reuss Voigt Hill
#
# Bulk Modulus (GPa) = 23.69570 40.08707 31.89138
# Shear Modulus (GPa) = 16.54350 -324.45687 -153.95669
#
# Velocity S-wave (km/s) = 2.86995 -12.70982 -8.75508
# Velocity P-wave (km/s) = 4.77281 13.97954 9.29107
#
# Compressibility (1/GPa) = 0.04220175
#
# Stress axis : x y z
#
# Youngs Moduli (GPa) = 57.00645 114.81387 42.17881
#
# Poissons Ratio (x) = 0.44204 -0.10623
# Poissons Ratio (y) = 0.21948 0.10746
# Poissons Ratio (z) = -0.14358 0.29253
#
# Static dielectric constant tensor:
#      x y z
#    x 1.739490 0.000000 0.000850 
#    y 0.000000 1.656480 0.000000 
#    z 0.000850 0.000000 1.730760 
# 
# From -- ./inp_files/330095.got.cif
#   From: 2010.05.17/outbox.cif.g08.bks.cpg/sg12_166_cif.got.tgz:330095.got - 2010.06.03 13:09:07.
