data_PCOD9188160
_publ_section_title
;
Structure prediction by ZEFSAII (Michael W. Deem and Ramdas Pophale) SiO2 
 PCOD9188160
Probable space group: C 2/M
;
_chemical_formula_sum "Si O2"
_cell_formula_units_Z 48
_cell_length_a 21.475946
_cell_length_b 17.384169
_cell_length_c 21.635681
_cell_angle_alpha 90.000000
_cell_angle_beta 19.818424
_cell_angle_gamma 90.000000
_cell_volume 2738.598250
_symmetry_space_group_name_H-M "C 2/M"
_symmetry_group_IT_number 12
_symmetry_cell_setting 'monoclinic'
loop_
_space_group_symop_operation_xyz
x,y,z
-x,y,-z
-x,-y,-z
x,-y,z
1/2+x,1/2+y,z
1/2-x,1/2+y,-z
1/2-x,1/2-y,-z
1/2+x,1/2-y,z
loop_
_atom_site_type_symbol
_atom_site_label
_atom_site_fract_x
_atom_site_fract_y
_atom_site_fract_z
Si Si1 0.040794 0.785925 0.622519
Si Si2 0.088876 0.131336 0.068292
Si Si3 0.252397 0.586761 0.296788
Si Si4 0.110587 0.649839 0.309972
Si Si5 0.970877 0.292912 0.231831
Si Si6 0.289981 0.587955 0.912169
O O1 0.021485 0.734766 0.703657
O O2 0.257208 0.803532 0.414676
O O3 0.965923 0.733422 0.636995
O O4 0.918157 0.861258 0.747634
O O5 0.109744 0.091194 0.114716
O O6 0.919977 0.102432 0.185457
O O7 0.054360 0.221375 0.115480
O O8 0.270339 0.120774 0.858372
O O9 0.263858 0.500000 0.261493
O O10 0.235640 0.644360 0.254502
O O11 0.065608 0.598251 0.509776
O O12 0.099282 0.366071 0.100180
O O13 0.265043 0.500000 0.916322
#
# Coordination Sequence:
#
# PCOD9188160 Si02
#       6
#     8   8   8   8   8   8
#     4  10  19  36  58  77 106 150 190 224 272 338
#     4  11  20  37  58  80 111 154 185 219 270 332
#     4  11  25  37  51  85 120 147 188 226 262 321
#     4  11  20  37  56  75 112 155 187 219 263 321
#     4  10  19  36  57  79 107 144 191 229 271 336
#     4  11  22  34  55  87 114 140 185 238 283 323
#
# _framework density 17.527215000000002
#
# number of rings (size 3 to 8) (size 9 to 14) (size 15 to 20)
#    0.000    1.333    5.000    3.000    0.000    4.000 
#    0.000    0.000    0.000    0.000    0.000    4.667 
#    0.000    0.000    0.000    0.000    0.000    0.000 
#
# Total GULP energy -133992.332291 kJ/mol
# GULP energy per Si atom -5583.013845 kJ/mol
# Density = 1.748732 g / cm^3
# Si number density = 17.527215 Si / 1000 Ang^3
#
#
#
# Elastic Constant Matrix: (Units=GPa)
#
#
# Indices 1 2 3 4 5 6 
#
# 1 74.8337 39.7637 19.9415 0.0004 -9.1801 0.0018
# 2 39.7637 121.1382 28.9598 -0.0138 -11.1074 -0.0004
# 3 19.9415 28.9598 52.8343 -0.0122 -9.0346 -0.0007
# 4 0.0004 -0.0138 -0.0122 20.1676 -0.0036 -2.8930
# 5 -9.1801 -11.1074 -9.0346 -0.0036 23.6834 0.0021
# 6 0.0018 -0.0004 -0.0007 -2.8930 0.0021 12.8947
#
#
#
# Elastic Compliance Matrix: (Units=1/GPa)
#
#
# Indices 1 2 3 4 5 6 
#
# 1 0.017052 -0.004484 -0.003432 -0.000006 0.003198 -0.000004
# 2 -0.004484 0.010836 -0.003932 0.000006 0.001844 0.000002
# 3 -0.003432 -0.003932 0.023358 0.000013 0.005736 0.000004
# 4 -0.000006 0.000006 0.000013 0.051233 0.000012 0.011494
# 5 0.003198 0.001844 0.005736 0.000012 0.046516 -0.000005
# 6 -0.000004 0.000002 0.000004 0.011494 -0.000005 0.080130
#
#
# Mechanical properties :
#
#
# Convention : Reuss Voigt Hill
#
# Bulk Modulus (GPa) = 36.29487 47.34849 41.82168
# Shear Modulus (GPa) = 19.08366 22.02523 20.55444
#
# Velocity S-wave (km/s) = 3.30328 3.54874 3.42821
# Velocity P-wave (km/s) = 5.94151 6.62302 6.29150
#
# Compressibility (1/GPa) = 0.02755210
#
# Stress axis : x y z
#
# Youngs Moduli (GPa) = 58.64338 92.28603 42.81132
#
# Poissons Ratio (x) = 0.41379 0.14691
# Poissons Ratio (y) = 0.26295 0.16832
# Poissons Ratio (z) = 0.20124 0.36284
#
# Static dielectric constant tensor:
#      x y z
#    x 1.599380 0.000000 -0.006600 
#    y 0.000000 1.589860 0.000000 
#    z -0.006600 0.000000 1.617490 
# 
# From -- ./inp_files/322524.got.cif
#   From: 2010.05.17/outbox.cif.g08.bks.cpg/sg12_162_cif.got.tgz:322524.got - 2010.06.03 13:09:07.
