data_PCOD9188417
_publ_section_title
;
Structure prediction by ZEFSAII (Michael W. Deem and Ramdas Pophale) SiO2 
 PCOD9188417
Probable space group: C 2/M
;
_chemical_formula_sum "Si O2"
_cell_formula_units_Z 56
_cell_length_a 20.951947
_cell_length_b 8.763233
_cell_length_c 18.183989
_cell_angle_alpha 90.000000
_cell_angle_beta 108.735215
_cell_angle_gamma 90.000000
_cell_volume 3161.796155
_symmetry_space_group_name_H-M "C 2/M"
_symmetry_group_IT_number 12
_symmetry_cell_setting 'monoclinic'
loop_
_space_group_symop_operation_xyz
x,y,z
-x,y,-z
-x,-y,-z
x,-y,z
1/2+x,1/2+y,z
1/2-x,1/2+y,-z
1/2-x,1/2-y,-z
1/2+x,1/2-y,z
loop_
_atom_site_type_symbol
_atom_site_label
_atom_site_fract_x
_atom_site_fract_y
_atom_site_fract_z
Si Si1 0.432633 0.183193 0.759024
Si Si2 0.656329 0.183369 0.410599
Si Si3 0.418758 0.684146 0.173231
Si Si4 0.185297 0.815615 0.737220
Si Si5 0.170670 0.183113 0.161571
Si Si6 0.677562 0.316097 0.995292
Si Si7 0.190640 0.183277 0.573426
O O1 0.398998 0.232906 0.669074
O O2 0.508101 0.242935 0.794765
O O3 0.385474 0.246626 0.806315
O O4 0.431261 0.000000 0.760721
O O5 0.730786 0.229049 0.408697
O O6 0.650018 0.248339 0.490144
O O7 0.655509 0.000000 0.413960
O O8 0.425434 0.500000 0.174671
O O9 0.372283 0.725580 0.225886
O O10 0.378230 0.731204 0.084882
O O11 0.256038 0.742454 0.786741
O O12 0.168896 0.771139 0.647222
O O13 0.193474 0.000000 0.741995
O O14 0.160397 0.227510 0.072474
O O15 0.168671 0.000000 0.166017
O O16 0.682198 0.500000 0.994073
O O17 0.750000 0.250000 0.000000
O O18 0.187681 0.000000 0.567576
#
# Coordination Sequence:
#
# PCOD9188417 Si02
#       7
#     8   8   8   8   8   8   8
#     4  11  23  40  58  80 115 154 190 231 283 339
#     4   9  18  33  53  79 110 144 183 230 280 329
#     4  10  22  39  59  82 114 152 187 231 283 334
#     4  10  19  36  59  84 114 150 187 229 281 334
#     4  11  22  35  58  88 114 145 190 235 278 332
#     4  10  21  37  59  86 115 147 186 234 280 330
#     4   9  17  31  54  83 110 140 184 230 275 332
#
# _framework density 17.711451
#
# number of rings (size 3 to 8) (size 9 to 14) (size 15 to 20)
#    0.000    2.000    2.857    0.857    0.000    4.000 
#    0.000    3.571    0.000    4.286    0.000    0.000 
#    0.000    0.000    0.000    0.000    0.000    0.000 
#
# Total GULP energy -156295.576884 kJ/mol
# GULP energy per Si atom -5581.984889 kJ/mol
# Density = 1.767114 g / cm^3
# Si number density = 17.711451 Si / 1000 Ang^3
#
#
#
# Elastic Constant Matrix: (Units=GPa)
#
#
# Indices 1 2 3 4 5 6 
#
# 1 145.1908 42.4985 106.3333 0.0000 1.0511 0.0000
# 2 42.4985 20.0556 45.7230 0.0000 -1.9824 0.0000
# 3 106.3333 45.7230 212.8049 0.0000 -7.0497 0.0000
# 4 0.0000 0.0000 0.0000 28.0068 0.0000 4.2197
# 5 1.0511 -1.9824 -7.0497 0.0000 29.9531 0.0000
# 6 0.0000 0.0000 0.0000 4.2197 0.0000 29.3321
#
#
#
# Elastic Compliance Matrix: (Units=1/GPa)
#
#
# Indices 1 2 3 4 5 6 
#
# 1 0.018760 -0.036190 -0.001713 0.000000 -0.003457 0.000000
# 2 -0.036190 0.167623 -0.017660 0.000000 0.008208 0.000000
# 3 -0.001713 -0.017660 0.009386 0.000000 0.001100 0.000000
# 4 0.000000 0.000000 0.000000 0.036497 0.000000 -0.005250
# 5 -0.003457 0.008208 0.001100 0.000000 0.034309 0.000000
# 6 0.000000 0.000000 0.000000 -0.005250 0.000000 0.034848
#
#
# Mechanical properties :
#
#
# Convention : Reuss Voigt Hill
#
# Bulk Modulus (GPa) = 11.81434 85.24009 48.52722
# Shear Modulus (GPa) = 11.34399 29.69151 20.51775
#
# Velocity S-wave (km/s) = 2.53353 4.09883 3.40729
# Velocity P-wave (km/s) = 3.90427 8.40429 6.55269
#
# Compressibility (1/GPa) = 0.08464287
#
# Stress axis : x y z
#
# Youngs Moduli (GPa) = 53.30505 5.96577 106.54497
#
# Poissons Ratio (x) = 0.21590 0.18247
# Poissons Ratio (y) = 1.92913 1.88158
# Poissons Ratio (z) = 0.09129 0.10536
#
# Static dielectric constant tensor:
#      x y z
#    x 1.564090 0.000000 -0.013090 
#    y 0.000000 1.599410 0.000000 
#    z -0.013090 0.000000 1.613430 
# 
# From -- ./inp_files/275046.got.cif
#   From: 2010.05.17/outbox.cif.g08.bks.cpg/sg12_138_cif.got.tgz:275046.got - 2010.06.03 13:09:07.
