data_PCOD9188941
_publ_section_title
;
Structure prediction by ZEFSAII (Michael W. Deem and Ramdas Pophale) SiO2 
 PCOD9188941
Probable space group: C 2/M
;
_chemical_formula_sum "Si O2"
_cell_formula_units_Z 48
_cell_length_a 14.530799
_cell_length_b 20.531204
_cell_length_c 12.671282
_cell_angle_alpha 90.000000
_cell_angle_beta 141.563178
_cell_angle_gamma 90.000000
_cell_volume 2350.018705
_symmetry_space_group_name_H-M "C 2/M"
_symmetry_group_IT_number 12
_symmetry_cell_setting 'monoclinic'
loop_
_space_group_symop_operation_xyz
x,y,z
-x,y,-z
-x,-y,-z
x,-y,z
1/2+x,1/2+y,z
1/2-x,1/2+y,-z
1/2-x,1/2-y,-z
1/2+x,1/2-y,z
loop_
_atom_site_type_symbol
_atom_site_label
_atom_site_fract_x
_atom_site_fract_y
_atom_site_fract_z
Si Si1 0.487167 0.927765 0.682892
Si Si2 0.734287 0.640215 0.149890
Si Si3 0.751772 0.786979 0.199949
Si Si4 0.827915 0.926011 0.697473
Si Si5 0.451120 0.199267 0.790426
Si Si6 0.524775 0.665698 0.759407
O O1 0.638829 0.911657 0.759980
O O2 0.347098 0.927133 0.479995
O O3 0.463360 0.868255 0.740864
O O4 0.494175 0.000000 0.737981
O O5 0.798615 0.711488 0.233754
O O6 0.648400 0.616099 0.176116
O O7 0.638411 0.650273 0.958089
O O8 0.692221 0.800698 0.263109
O O9 0.880593 0.829356 0.262471
O O10 0.602693 0.794129 0.994951
O O11 0.903758 0.890111 0.666614
O O12 0.882243 0.000000 0.758089
O O13 0.453488 0.263595 0.719667
#
# Coordination Sequence:
#
# PCOD9188941 Si02
#       6
#     8   8   8   8   8   8
#     4  11  23  40  58  83 124 163 193 236 291 350
#     4  11  19  38  63  88 115 151 196 240 298 348
#     4  10  19  36  63  92 114 144 195 253 289 335
#     4  11  25  39  55  88 127 156 190 240 298 353
#     4  10  19  38  63  86 118 153 196 241 289 349
#     4  11  20  38  63  89 117 151 193 248 295 337
#
# _framework density 20.425369
#
# number of rings (size 3 to 8) (size 9 to 14) (size 15 to 20)
#    0.000    1.333    5.000    2.500    0.000    4.000 
#    0.000    3.333    0.000    2.000    0.000    0.000 
#    0.000    0.000    0.000    0.000    0.000    0.000 
#
# Total GULP energy -134059.497120 kJ/mol
# GULP energy per Si atom -5585.812380 kJ/mol
# Density = 2.037888 g / cm^3
# Si number density = 20.425369 Si / 1000 Ang^3
#
#
#
# Elastic Constant Matrix: (Units=GPa)
#
#
# Indices 1 2 3 4 5 6 
#
# 1 117.3470 28.7112 14.8209 0.0000 3.1346 0.0000
# 2 28.7112 117.5697 19.5243 0.0000 -2.1091 0.0000
# 3 14.8209 19.5243 20.8358 0.0000 8.3001 0.0000
# 4 0.0000 0.0000 0.0000 11.2502 0.0000 11.0938
# 5 3.1346 -2.1091 8.3001 0.0000 18.8712 0.0000
# 6 0.0000 0.0000 0.0000 11.0938 0.0000 22.4250
#
#
#
# Elastic Compliance Matrix: (Units=1/GPa)
#
#
# Indices 1 2 3 4 5 6 
#
# 1 0.009572 -0.001345 -0.005887 0.000000 0.000849 0.000000
# 2 -0.001345 0.010942 -0.011971 0.000000 0.006711 0.000000
# 3 -0.005887 -0.011971 0.077041 0.000000 -0.034245 0.000000
# 4 0.000000 0.000000 0.000000 0.173549 0.000000 -0.085856
# 5 0.000849 0.006711 -0.034245 0.000000 0.068662 0.000000
# 6 0.000000 0.000000 0.000000 -0.085856 0.000000 0.087066
#
#
# Mechanical properties :
#
#
# Convention : Reuss Voigt Hill
#
# Bulk Modulus (GPa) = 16.90599 42.42950 29.66775
# Shear Modulus (GPa) = 10.31029 23.35567 16.83298
#
# Velocity S-wave (km/s) = 2.24917 3.38518 2.87387
# Velocity P-wave (km/s) = 3.87813 6.00810 5.05654
#
# Compressibility (1/GPa) = 0.05915061
#
# Stress axis : x y z
#
# Youngs Moduli (GPa) = 104.47658 91.38873 12.98018
#
# Poissons Ratio (x) = 0.12288 0.07641
# Poissons Ratio (y) = 0.14048 0.15538
# Poissons Ratio (z) = 0.61501 1.09398
#
# Static dielectric constant tensor:
#      x y z
#    x 1.734560 0.000000 0.020560 
#    y 0.000000 1.692440 0.000000 
#    z 0.020560 0.000000 1.763540 
# 
# From -- ./inp_files/63616.got.cif
#   From: 2010.05.17/outbox.cif.g08.bks.cpg/sg12_32_cif.got.tgz:63616.got - 2010.06.03 13:09:07.
