data_PCOD9188074
_publ_section_title
;
Structure prediction by ZEFSAII (Michael W. Deem and Ramdas Pophale) SiO2 
 PCOD9188074
Probable space group: C 2/M
;
_chemical_formula_sum "Si O2"
_cell_formula_units_Z 54
_cell_length_a 14.210826
_cell_length_b 19.429097
_cell_length_c 14.775890
_cell_angle_alpha 90.000000
_cell_angle_beta 151.287077
_cell_angle_gamma 90.000000
_cell_volume 1959.962960
_symmetry_space_group_name_H-M "C 2/M"
_symmetry_group_IT_number 12
_symmetry_cell_setting 'monoclinic'
loop_
_space_group_symop_operation_xyz
x,y,z
-x,y,-z
-x,-y,-z
x,-y,z
1/2+x,1/2+y,z
1/2-x,1/2+y,-z
1/2-x,1/2-y,-z
1/2+x,1/2-y,z
loop_
_atom_site_type_symbol
_atom_site_label
_atom_site_fract_x
_atom_site_fract_y
_atom_site_fract_z
Si Si1 0.270673 0.768642 0.281739
Si Si2 0.500000 0.000000 0.500000
Si Si3 0.295197 0.106059 0.779534
Si Si4 0.521318 0.500000 0.173308
Si Si5 0.737264 0.094867 0.815885
Si Si6 0.416133 0.596813 0.230328
Si Si7 0.516150 0.893651 0.796824
Si Si8 0.943453 0.764118 0.720213
O O1 0.500000 0.771996 0.500000
O O2 0.219906 0.688961 0.224431
O O3 0.237363 0.824326 0.176005
O O4 0.134464 0.790460 0.250030
O O5 0.668702 0.058262 0.665721
O O6 0.118080 0.080351 0.692940
O O7 0.329423 0.090375 0.702143
O O8 0.500000 0.085627 0.000000
O O9 0.415942 0.559328 0.017967
O O10 0.565976 0.558668 0.291376
O O11 0.546878 0.081816 0.720510
O O12 0.443356 0.678013 0.238979
O O13 0.207188 0.577807 0.008633
O O14 0.537112 0.810712 0.812586
O O15 0.750000 0.750000 0.500000
#
# Coordination Sequence:
#
# PCOD9188074 Si02
#       8
#     8   2   8   4   8   8   8   8
#     4  11  21  35  57  88 117 150 190 249 310 358
#     4  10  20  32  56  76 112 164 202 232 292 342
#     4   9  19  34  58  90 117 149 190 246 312 355
#     4   9  22  37  58  82 114 169 205 237 288 351
#     4  10  19  36  55  82 117 155 202 246 282 353
#     4  10  19  39  58  81 120 157 197 245 288 359
#     4   9  19  35  58  88 118 147 193 250 304 347
#     4  11  22  34  59  92 116 151 193 247 312 360
#
# _framework density 27.551539999999999
#
# number of rings (size 3 to 8) (size 9 to 14) (size 15 to 20)
#    0.000    2.074    0.741    3.111    0.000    5.926 
#    0.000   12.222    0.000    0.000    0.000    4.667 
#    0.000    0.000    0.000    0.000    0.000    0.000 
#
# Total GULP energy -150365.778670 kJ/mol
# GULP energy per Si atom -5569.102914 kJ/mol
# Density = 2.748883 g / cm^3
# Si number density = 27.551540 Si / 1000 Ang^3
#
#
#
# Elastic Constant Matrix: (Units=GPa)
#
#
# Indices 1 2 3 4 5 6 
#
# 1 149.6576 3.5522 11.6215 0.0000 -11.4446 0.0000
# 2 3.5522 132.9330 9.6829 0.0000 1.4986 0.0000
# 3 11.6215 9.6829 99.6698 0.0000 17.2636 0.0000
# 4 0.0000 0.0000 0.0000 -3.4639 0.0000 -33.2279
# 5 -11.4446 1.4986 17.2636 0.0000 38.6309 0.0000
# 6 0.0000 0.0000 0.0000 -33.2279 0.0000 80.1458
#
#
#
# Elastic Compliance Matrix: (Units=1/GPa)
#
#
# Indices 1 2 3 4 5 6 
#
# 1 0.006984 -0.000125 -0.001259 0.000000 0.002637 0.000000
# 2 -0.000125 0.007578 -0.000720 0.000000 -0.000009 0.000000
# 3 -0.001259 -0.000720 0.011175 0.000000 -0.005339 0.000000
# 4 0.000000 0.000000 0.000000 -0.058005 0.000000 -0.024048
# 5 0.002637 -0.000009 -0.005339 0.000000 0.029053 0.000000
# 6 0.000000 0.000000 0.000000 -0.024048 0.000000 0.002507
#
#
# Mechanical properties :
#
#
# Convention : Reuss Voigt Hill
#
# Bulk Modulus (GPa) = 46.44701 47.99705 47.22203
# Shear Modulus (GPa) = 468.29249 46.88947 257.59098
#
# Velocity S-wave (km/s) = 13.05138 4.12986 9.67973
# Velocity P-wave (km/s) = 15.62091 6.34032 11.92084
#
# Compressibility (1/GPa) = 0.02152991
#
# Stress axis : x y z
#
# Youngs Moduli (GPa) = 143.17901 131.95263 89.48860
#
# Poissons Ratio (x) = 0.01645 0.11266
# Poissons Ratio (y) = 0.01785 0.06444
# Poissons Ratio (z) = 0.18025 0.09502
#
# Static dielectric constant tensor:
#      x y z
#    x 2.372380 0.000000 0.110530 
#    y 0.000000 2.110610 0.000000 
#    z 0.110530 0.000000 2.066230 
# 
# From -- ./inp_files/217764.got.cif
#   From: 2010.05.17/outbox.cif.g08.bks.cpg/sg12_109_cif.got.tgz:217764.got - 2010.06.03 13:09:07.
