data_PCOD9188538
_publ_section_title
;
Structure prediction by ZEFSAII (Michael W. Deem and Ramdas Pophale) SiO2 
 PCOD9188538
Probable space group: C 2/M
;
_chemical_formula_sum "Si O2"
_cell_formula_units_Z 64
_cell_length_a 20.242262
_cell_length_b 7.659579
_cell_length_c 32.141339
_cell_angle_alpha 90.000000
_cell_angle_beta 35.066919
_cell_angle_gamma 90.000000
_cell_volume 2863.140886
_symmetry_space_group_name_H-M "C 2/M"
_symmetry_group_IT_number 12
_symmetry_cell_setting 'monoclinic'
loop_
_space_group_symop_operation_xyz
x,y,z
-x,y,-z
-x,-y,-z
x,-y,z
1/2+x,1/2+y,z
1/2-x,1/2+y,-z
1/2-x,1/2-y,-z
1/2+x,1/2-y,z
loop_
_atom_site_type_symbol
_atom_site_label
_atom_site_fract_x
_atom_site_fract_y
_atom_site_fract_z
Si Si1 0.750866 0.288171 0.866496
Si Si2 0.391353 0.711278 0.526774
Si Si3 0.309699 0.709616 0.012747
Si Si4 0.266212 0.200729 0.255564
Si Si5 0.938298 0.799264 0.096538
Si Si6 0.160770 0.798662 0.691981
Si Si7 0.996213 0.794106 0.707407
Si Si8 0.502507 0.713702 0.384788
O O1 0.751029 0.500000 0.864818
O O2 0.633162 0.224694 0.905498
O O3 0.860698 0.227119 0.784046
O O4 0.757086 0.231715 0.911273
O O5 0.500000 0.753613 0.500000
O O6 0.378907 0.500000 0.533793
O O7 0.276976 0.789568 0.605087
O O8 0.422118 0.768803 0.464211
O O9 0.313725 0.500000 0.012125
O O10 0.440473 0.777239 0.951008
O O11 0.250000 0.750000 0.000000
O O12 0.349027 0.296084 0.180757
O O13 0.316582 0.208173 0.275919
O O14 0.135033 0.267460 0.324321
O O15 0.261456 0.000000 0.243904
O O16 0.963091 0.000000 0.072200
O O17 0.062619 0.719913 0.712948
O O18 0.132973 0.000000 0.716250
O O19 0.030616 0.725344 0.644283
O O20 0.023698 0.000000 0.692804
O O21 0.502203 0.500000 0.385420
#
# Coordination Sequence:
#
# PCOD9188538 Si02
#       8
#     8   8   8   8   8   8   8   8
#     4  10  21  39  63  88 115 154 199 240 285 345
#     4  10  19  36  60  84 111 151 198 242 292 349
#     4  10  23  41  60  87 123 158 193 237 291 345
#     4  11  21  37  62  87 114 152 199 244 287 346
#     4  10  21  39  62  88 119 154 193 242 296 341
#     4  11  24  38  55  85 122 155 191 242 300 348
#     4  10  22  40  59  83 119 158 192 237 296 346
#     4   9  18  36  60  83 111 149 194 240 286 342
#
# _framework density 22.353075
#
# number of rings (size 3 to 8) (size 9 to 14) (size 15 to 20)
#    0.000    1.875    2.500    1.125    1.750    4.250 
#    0.000    0.625    0.000    2.250    0.000    0.000 
#    0.000    0.000    0.000    0.000    0.000    0.000 
#
# Total GULP energy -178802.782820 kJ/mol
# GULP energy per Si atom -5587.586963 kJ/mol
# Density = 2.230220 g / cm^3
# Si number density = 22.353075 Si / 1000 Ang^3
#
#
#
# Elastic Constant Matrix: (Units=GPa)
#
#
# Indices 1 2 3 4 5 6 
#
# 1 133.9625 -0.8782 13.5770 0.0193 19.4111 0.0287
# 2 -0.8782 43.9639 -8.5713 0.0055 1.4826 -0.0815
# 3 13.5770 -8.5713 52.5108 0.0210 21.4545 0.0059
# 4 0.0193 0.0055 0.0210 11.3755 -0.0038 -0.9476
# 5 19.4111 1.4826 21.4545 -0.0038 41.8296 0.0054
# 6 0.0287 -0.0815 0.0059 -0.9476 0.0054 5.6135
#
#
#
# Elastic Compliance Matrix: (Units=1/GPa)
#
#
# Indices 1 2 3 4 5 6 
#
# 1 0.008024 0.000144 -0.000668 -0.000017 -0.003386 -0.000038
# 2 0.000144 0.023919 0.005365 0.000006 -0.003666 0.000346
# 3 -0.000668 0.005365 0.025357 -0.000048 -0.012886 0.000059
# 4 -0.000017 0.000006 -0.000048 0.089162 0.000038 0.015051
# 5 -0.003386 -0.003666 -0.012886 0.000038 0.032217 -0.000047
# 6 -0.000038 0.000346 0.000059 0.015051 -0.000047 0.180689
#
#
# Mechanical properties :
#
#
# Convention : Reuss Voigt Hill
#
# Bulk Modulus (GPa) = 14.92910 26.52137 20.72523
# Shear Modulus (GPa) = 13.44042 26.85103 20.14572
#
# Velocity S-wave (km/s) = 2.45476 3.46963 3.00534
# Velocity P-wave (km/s) = 3.83767 5.28598 4.61894
#
# Compressibility (1/GPa) = 0.06698328
#
# Stress axis : x y z
#
# Youngs Moduli (GPa) = 124.62522 41.80762 39.43700
#
# Poissons Ratio (x) = -0.00603 0.02633
# Poissons Ratio (y) = -0.01798 -0.21158
# Poissons Ratio (z) = 0.08320 -0.22430
#
# Static dielectric constant tensor:
#      x y z
#    x 1.837980 -0.000010 -0.001020 
#    y -0.000010 1.848320 0.000000 
#    z -0.001020 0.000000 1.784350 
# 
# From -- ./inp_files/378209.got.cif
#   From: 2010.05.17/outbox.cif.g08.bks.cpg/sg12_190_cif.got.tgz:378209.got - 2010.06.03 13:09:07.
