data_PCOD9188992
_publ_section_title
;
Structure prediction by ZEFSAII (Michael W. Deem and Ramdas Pophale) SiO2 
 PCOD9188992
Probable space group: C 2/M
;
_chemical_formula_sum "Si O2"
_cell_formula_units_Z 64
_cell_length_a 11.125729
_cell_length_b 14.703016
_cell_length_c 27.040357
_cell_angle_alpha 90.000000
_cell_angle_beta 134.021837
_cell_angle_gamma 90.000000
_cell_volume 3180.691255
_symmetry_space_group_name_H-M "C 2/M"
_symmetry_group_IT_number 12
_symmetry_cell_setting 'monoclinic'
loop_
_space_group_symop_operation_xyz
x,y,z
-x,y,-z
-x,-y,-z
x,-y,z
1/2+x,1/2+y,z
1/2-x,1/2+y,-z
1/2-x,1/2-y,-z
1/2+x,1/2-y,z
loop_
_atom_site_type_symbol
_atom_site_label
_atom_site_fract_x
_atom_site_fract_y
_atom_site_fract_z
Si Si1 0.988419 0.783746 0.346964
Si Si2 0.864961 0.240033 0.767688
Si Si3 0.089002 0.397305 0.421327
Si Si4 0.726139 0.394374 0.347801
Si Si5 0.381870 0.103165 0.162982
Si Si6 0.344358 0.316830 0.988773
Si Si7 0.052142 0.098521 0.131241
Si Si8 0.967635 0.105677 0.548469
O O1 0.816874 0.776168 0.267598
O O2 0.065665 0.683626 0.375661
O O3 0.120951 0.851828 0.361656
O O4 0.947108 0.825304 0.389352
O O5 0.822080 0.167556 0.712846
O O6 0.964002 0.183258 0.837138
O O7 0.974737 0.325422 0.783232
O O8 0.086113 0.500000 0.398892
O O9 0.267375 0.386082 0.497862
O O10 0.927146 0.390043 0.410156
O O11 0.683485 0.500000 0.328102
O O12 0.241208 0.101670 0.165131
O O13 0.443158 0.000000 0.173545
O O14 0.285825 0.137879 0.086262
O O15 0.434369 0.389542 0.050135
O O16 0.500000 0.277212 0.000000
O O17 0.250000 0.250000 0.000000
O O18 0.022579 0.000000 0.146437
O O19 0.000000 0.125669 0.500000
O O20 0.015648 0.000000 0.570954
#
# Coordination Sequence:
#
# PCOD9188992 Si02
#       8
#     8   8   8   8   8   8   8   8
#     4  11  23  38  63  86 120 155 197 241 305 356
#     4  11  22  38  58  85 122 162 196 243 302 356
#     4   9  21  40  61  86 113 147 189 241 295 352
#     4  10  22  40  60  86 118 154 200 245 293 357
#     4  10  21  37  59  90 122 159 208 252 294 358
#     4  10  19  36  64  92 124 160 205 260 309 357
#     4  10  20  37  62  88 117 161 208 248 296 350
#     4  10  22  40  62  89 118 148 193 249 306 360
#
# _framework density 20.121411999999999
#
# number of rings (size 3 to 8) (size 9 to 14) (size 15 to 20)
#    0.000    1.875    1.250    2.250    3.500    3.500 
#    0.000    2.500    0.000    3.000    0.000    0.000 
#    0.000    0.000    0.000    0.000    0.000    0.000 
#
# Total GULP energy -178574.717190 kJ/mol
# GULP energy per Si atom -5580.459912 kJ/mol
# Density = 2.007561 g / cm^3
# Si number density = 20.121412 Si / 1000 Ang^3
#
#
#
# Elastic Constant Matrix: (Units=GPa)
#
#
# Indices 1 2 3 4 5 6 
#
# 1 62.4637 40.1956 7.3428 0.0000 3.7900 0.0000
# 2 40.1956 123.4690 19.3425 0.0000 14.0182 0.0000
# 3 7.3428 19.3425 42.0570 0.0000 9.0045 0.0000
# 4 0.0000 0.0000 0.0000 15.9459 0.0000 -0.4749
# 5 3.7900 14.0182 9.0045 0.0000 24.3345 0.0000
# 6 0.0000 0.0000 0.0000 -0.4749 0.0000 31.0245
#
#
#
# Elastic Compliance Matrix: (Units=1/GPa)
#
#
# Indices 1 2 3 4 5 6 
#
# 1 0.020281 -0.006595 -0.000700 0.000000 0.000900 0.000000
# 2 -0.006595 0.011217 -0.003089 0.000000 -0.004292 0.000000
# 3 -0.000700 -0.003089 0.027060 0.000000 -0.008125 0.000000
# 4 0.000000 0.000000 0.000000 0.062741 0.000000 0.000960
# 5 0.000900 -0.004292 -0.008125 0.000000 0.046432 0.000000
# 6 0.000000 0.000000 0.000000 0.000960 0.000000 0.032247
#
#
# Mechanical properties :
#
#
# Convention : Reuss Voigt Hill
#
# Bulk Modulus (GPa) = 26.46215 40.19461 33.32838
# Shear Modulus (GPa) = 21.42772 25.00157 23.21464
#
# Velocity S-wave (km/s) = 3.26685 3.52879 3.40034
# Velocity P-wave (km/s) = 5.23541 6.05165 5.65827
#
# Compressibility (1/GPa) = 0.03778983
#
# Stress axis : x y z
#
# Youngs Moduli (GPa) = 49.30753 89.14781 36.95554
#
# Poissons Ratio (x) = 0.58792 0.02588
# Poissons Ratio (y) = 0.32518 0.11414
# Poissons Ratio (z) = 0.03453 0.27535
#
# Static dielectric constant tensor:
#      x y z
#    x 1.740510 0.000000 -0.003070 
#    y 0.000000 1.706680 0.000000 
#    z -0.003070 0.000000 1.708640 
# 
# From -- ./inp_files/358478.got.cif
#   From: 2010.05.17/outbox.cif.g08.bks.cpg/sg12_180_cif.got.tgz:358478.got - 2010.06.03 13:09:07.
