data_PCOD9188300
_publ_section_title
;
Structure prediction by ZEFSAII (Michael W. Deem and Ramdas Pophale) SiO2 
 PCOD9188300
Probable space group: C 2/M
;
_chemical_formula_sum "Si O2"
_cell_formula_units_Z 48
_cell_length_a 27.121989
_cell_length_b 13.661772
_cell_length_c 14.771857
_cell_angle_alpha 90.000000
_cell_angle_beta 152.008560
_cell_angle_gamma 90.000000
_cell_volume 2568.921917
_symmetry_space_group_name_H-M "C 2/M"
_symmetry_group_IT_number 12
_symmetry_cell_setting 'monoclinic'
loop_
_space_group_symop_operation_xyz
x,y,z
-x,y,-z
-x,-y,-z
x,-y,z
1/2+x,1/2+y,z
1/2-x,1/2+y,-z
1/2-x,1/2-y,-z
1/2+x,1/2-y,z
loop_
_atom_site_type_symbol
_atom_site_label
_atom_site_fract_x
_atom_site_fract_y
_atom_site_fract_z
Si Si1 0.124700 0.893194 0.717797
Si Si2 0.375809 0.222225 0.142468
Si Si3 0.622460 0.000000 0.583773
Si Si4 0.508319 0.114145 0.910779
Si Si5 0.892514 0.307322 0.551376
Si Si6 0.630540 0.000000 0.803050
Si Si7 0.268023 0.176867 0.796271
O O1 0.148303 0.799025 0.818044
O O2 0.184369 0.884609 0.719009
O O3 0.000000 0.891354 0.500000
O O4 0.151106 0.000000 0.801864
O O5 0.501338 0.225520 0.329182
O O6 0.347551 0.107693 0.118115
O O7 0.317568 0.247635 0.954271
O O8 0.645771 0.095390 0.562630
O O9 0.666032 0.000000 0.756159
O O10 0.496668 0.000000 0.395396
O O11 0.433703 0.168721 0.718356
O O12 0.478553 0.000000 0.860553
O O13 0.500000 0.150565 0.000000
O O14 0.629208 0.122823 0.074125
O O15 0.799113 0.230555 0.388985
#
# Coordination Sequence:
#
# PCOD9188300 Si02
#       7
#     8   8   4   8   8   4   8
#     4  11  22  36  52  77 123 167 197 232 282 356
#     4  10  21  36  53  83 117 160 204 244 287 343
#     4   9  16  28  51  80 108 152 186 238 294 325
#     4  10  22  41  64  89 113 143 194 257 315 362
#     4  10  19  36  58  84 117 146 195 251 293 357
#     4   9  18  28  54  78 114 153 199 251 282 324
#     4  11  22  36  59  85 115 155 196 244 294 352
#
# _framework density 18.684881000000001
#
# number of rings (size 3 to 8) (size 9 to 14) (size 15 to 20)
#    0.000    1.833    2.500    2.000    7.000    0.667 
#    1.500    0.000    0.000    0.000    0.000    0.583 
#    0.000    0.000    0.000    0.000    0.000    0.000 
#
# Total GULP energy -133841.776481 kJ/mol
# GULP energy per Si atom -5576.740687 kJ/mol
# Density = 1.864235 g / cm^3
# Si number density = 18.684881 Si / 1000 Ang^3
#
#
#
# Elastic Constant Matrix: (Units=GPa)
#
#
# Indices 1 2 3 4 5 6 
#
# 1 80.9985 16.8154 21.3821 0.0000 -21.7946 0.0000
# 2 16.8154 76.9565 40.0690 0.0000 -18.6014 0.0000
# 3 21.3821 40.0690 96.9212 0.0000 -15.9728 0.0000
# 4 0.0000 0.0000 0.0000 30.0549 0.0000 -1.7183
# 5 -21.7946 -18.6014 -15.9728 0.0000 28.7852 0.0000
# 6 0.0000 0.0000 0.0000 -1.7183 0.0000 19.3398
#
#
#
# Elastic Compliance Matrix: (Units=1/GPa)
#
#
# Indices 1 2 3 4 5 6 
#
# 1 0.015745 0.000117 -0.001700 0.000000 0.011053 0.000000
# 2 0.000117 0.018220 -0.006167 0.000000 0.008440 0.000000
# 3 -0.001700 -0.006167 0.013619 0.000000 0.002284 0.000000
# 4 0.000000 0.000000 0.000000 0.033442 0.000000 0.002971
# 5 0.011053 0.008440 0.002284 0.000000 0.049831 0.000000
# 6 0.000000 0.000000 0.000000 0.002971 0.000000 0.051971
#
#
# Mechanical properties :
#
#
# Convention : Reuss Voigt Hill
#
# Bulk Modulus (GPa) = 31.17026 45.71214 38.44120
# Shear Modulus (GPa) = 23.92082 27.40995 25.66538
#
# Velocity S-wave (km/s) = 3.58190 3.83424 3.71022
# Velocity P-wave (km/s) = 5.81593 6.64227 6.24279
#
# Compressibility (1/GPa) = 0.03208186
#
# Stress axis : x y z
#
# Youngs Moduli (GPa) = 63.51403 54.88447 73.42749
#
# Poissons Ratio (x) = -0.00640 0.12483
# Poissons Ratio (y) = -0.00740 0.45285
# Poissons Ratio (z) = 0.10798 0.33849
#
# Static dielectric constant tensor:
#      x y z
#    x 1.639820 0.000000 0.011520 
#    y 0.000000 1.668410 0.000000 
#    z 0.011520 0.000000 1.710530 
# 
# From -- ./inp_files/246030.got.cif
#   From: 2010.05.17/outbox.cif.g08.bks.cpg/sg12_124_cif.got.tgz:246030.got - 2010.06.03 13:09:07.
