data_PCOD9188420
_publ_section_title
;
Structure prediction by ZEFSAII (Michael W. Deem and Ramdas Pophale) SiO2 
 PCOD9188420
Probable space group: C 2/M
;
_chemical_formula_sum "Si O2"
_cell_formula_units_Z 56
_cell_length_a 19.736236
_cell_length_b 8.591363
_cell_length_c 19.250322
_cell_angle_alpha 90.000000
_cell_angle_beta 113.542510
_cell_angle_gamma 90.000000
_cell_volume 2992.415777
_symmetry_space_group_name_H-M "C 2/M"
_symmetry_group_IT_number 12
_symmetry_cell_setting 'monoclinic'
loop_
_space_group_symop_operation_xyz
x,y,z
-x,y,-z
-x,-y,-z
x,-y,z
1/2+x,1/2+y,z
1/2-x,1/2+y,-z
1/2-x,1/2-y,-z
1/2+x,1/2-y,z
loop_
_atom_site_type_symbol
_atom_site_label
_atom_site_fract_x
_atom_site_fract_y
_atom_site_fract_z
Si Si1 0.923680 0.188836 0.005961
Si Si2 0.114502 0.687237 0.859070
Si Si3 0.287714 0.681338 0.447395
Si Si4 0.725807 0.688454 0.130257
Si Si5 0.291988 0.186071 0.302261
Si Si6 0.557138 0.821305 0.459623
Si Si7 0.444971 0.314864 0.307931
O O1 0.851032 0.242842 0.933671
O O2 0.922790 0.000000 0.008231
O O3 0.915497 0.252783 0.080248
O O4 0.000000 0.235804 0.000000
O O5 0.112269 0.500000 0.855163
O O6 0.200428 0.736765 0.881695
O O7 0.068736 0.755287 0.775695
O O8 0.272220 0.500000 0.434782
O O9 0.250000 0.750000 0.500000
O O10 0.264536 0.764952 0.366508
O O11 0.374483 0.713268 0.493645
O O12 0.724350 0.500000 0.127448
O O13 0.739607 0.731678 0.216280
O O14 0.370944 0.265146 0.319274
O O15 0.302903 0.000000 0.304337
O O16 0.500000 0.816443 0.500000
O O17 0.513805 0.765677 0.373828
O O18 0.582960 0.000000 0.462777
O O19 0.453045 0.500000 0.312802
#
# Coordination Sequence:
#
# PCOD9188420 Si02
#       7
#     8   8   8   8   8   8   8
#     4  10  20  36  57  83 116 149 185 232 288 350
#     4  10  20  36  58  82 113 149 191 238 284 340
#     4  12  25  41  60  85 119 159 203 246 294 350
#     4   8  17  34  58  84 109 146 188 233 287 341
#     4  10  19  36  59  84 116 152 194 244 296 348
#     4  11  22  38  63  89 119 155 194 242 297 349
#     4  11  21  35  59  90 118 148 193 243 292 346
#
# _framework density 18.713977
#
# number of rings (size 3 to 8) (size 9 to 14) (size 15 to 20)
#    0.000    1.714    1.429    5.143    0.000    0.857 
#    2.571    3.571    0.000    0.000    0.000    0.000 
#    0.000    0.000    0.000    0.000    0.000    0.000 
#
# Total GULP energy -156396.723611 kJ/mol
# GULP energy per Si atom -5585.597272 kJ/mol
# Density = 1.867138 g / cm^3
# Si number density = 18.713977 Si / 1000 Ang^3
#
#
#
# Elastic Constant Matrix: (Units=GPa)
#
#
# Indices 1 2 3 4 5 6 
#
# 1 67.8812 12.6289 58.7952 0.0000 -18.3972 0.0000
# 2 12.6289 46.0238 14.5572 0.0000 -5.0632 0.0000
# 3 58.7952 14.5572 138.3119 0.0000 -17.8095 0.0000
# 4 0.0000 0.0000 0.0000 20.7170 0.0000 -12.5782
# 5 -18.3972 -5.0632 -17.8095 0.0000 29.9019 0.0000
# 6 0.0000 0.0000 0.0000 -12.5782 0.0000 18.8762
#
#
#
# Elastic Compliance Matrix: (Units=1/GPa)
#
#
# Indices 1 2 3 4 5 6 
#
# 1 0.026294 -0.003093 -0.009570 0.000000 0.009954 0.000000
# 2 -0.003093 0.023028 -0.000923 0.000000 0.001447 0.000000
# 3 -0.009570 -0.000923 0.011499 0.000000 0.000804 0.000000
# 4 0.000000 0.000000 0.000000 0.081067 0.000000 0.054019
# 5 0.009954 0.001447 0.000804 0.000000 0.040291 0.000000
# 6 0.000000 0.000000 0.000000 0.054019 0.000000 0.088972
#
#
# Mechanical properties :
#
#
# Convention : Reuss Voigt Hill
#
# Bulk Modulus (GPa) = 29.71849 47.13104 38.42476
# Shear Modulus (GPa) = 16.15308 24.98138 20.56723
#
# Velocity S-wave (km/s) = 2.94114 3.65760 3.31876
# Velocity P-wave (km/s) = 5.23914 6.56331 5.93825
#
# Compressibility (1/GPa) = 0.03364909
#
# Stress axis : x y z
#
# Youngs Moduli (GPa) = 38.03173 43.42618 86.96502
#
# Poissons Ratio (x) = 0.13432 0.83226
# Poissons Ratio (y) = 0.11763 0.08023
# Poissons Ratio (z) = 0.36397 0.04006
#
# Static dielectric constant tensor:
#      x y z
#    x 1.690730 0.000000 0.008760 
#    y 0.000000 1.629570 0.000000 
#    z 0.008760 0.000000 1.645040 
# 
# From -- ./inp_files/275692.got.cif
#   From: 2010.05.17/outbox.cif.g08.bks.cpg/sg12_138_cif.got.tgz:275692.got - 2010.06.03 13:09:07.
