data_PCOD9188584
_publ_section_title
;
Structure prediction by ZEFSAII (Michael W. Deem and Ramdas Pophale) SiO2 
 PCOD9188584
Probable space group: C 2/M
;
_chemical_formula_sum "Si O2"
_cell_formula_units_Z 56
_cell_length_a 15.646776
_cell_length_b 8.448527
_cell_length_c 25.250251
_cell_angle_alpha 90.000000
_cell_angle_beta 59.900970
_cell_angle_gamma 90.000000
_cell_volume 2887.805561
_symmetry_space_group_name_H-M "C 2/M"
_symmetry_group_IT_number 12
_symmetry_cell_setting 'monoclinic'
loop_
_space_group_symop_operation_xyz
x,y,z
-x,y,-z
-x,-y,-z
x,-y,z
1/2+x,1/2+y,z
1/2-x,1/2+y,-z
1/2-x,1/2-y,-z
1/2+x,1/2-y,z
loop_
_atom_site_type_symbol
_atom_site_label
_atom_site_fract_x
_atom_site_fract_y
_atom_site_fract_z
Si Si1 0.808454 0.808190 0.617306
Si Si2 0.000074 0.306557 0.153850
Si Si3 0.585527 0.809862 0.708072
Si Si4 0.585685 0.191343 0.932080
Si Si5 0.354631 0.811831 0.489334
Si Si6 0.477459 0.688056 0.640994
Si Si7 0.274920 0.810375 0.933487
O O1 0.695153 0.754365 0.657726
O O2 0.857765 0.735805 0.549776
O O3 0.872207 0.765184 0.649014
O O4 0.810197 0.000000 0.611322
O O5 0.999170 0.500000 0.154232
O O6 0.948096 0.252072 0.223853
O O7 0.944815 0.256545 0.117330
O O8 0.114595 0.257078 0.115970
O O9 0.508583 0.764590 0.686495
O O10 0.591062 0.000000 0.708813
O O11 0.690565 0.252013 0.919894
O O12 0.587954 0.000000 0.932009
O O13 0.500000 0.241140 0.000000
O O14 0.250000 0.750000 0.500000
O O15 0.440823 0.734811 0.427987
O O16 0.359688 0.000000 0.481619
O O17 0.478229 0.500000 0.647506
O O18 0.274744 0.000000 0.934525
O O19 0.250000 0.750000 0.000000
#
# Coordination Sequence:
#
# PCOD9188584 Si02
#       7
#     8   8   8   8   8   8   8
#     4  10  22  39  60  86 118 154 196 242 292 345
#     4   9  20  38  59  83 117 156 196 238 292 354
#     4  10  21  40  62  82 112 161 203 237 288 352
#     4  10  19  36  60  86 116 152 191 236 293 352
#     4  12  23  37  61  90 119 153 195 244 298 349
#     4  11  23  39  60  89 122 154 194 246 293 341
#     4  11  21  36  58  87 118 151 192 240 293 347
#
# _framework density 19.391888000000002
#
# number of rings (size 3 to 8) (size 9 to 14) (size 15 to 20)
#    0.000    1.571    2.857    2.571    0.000    4.286 
#    0.000    3.571    0.000    0.000    0.000    0.000 
#    0.000    0.000    0.000    0.000    0.000    0.000 
#
# Total GULP energy -156469.132029 kJ/mol
# GULP energy per Si atom -5588.183287 kJ/mol
# Density = 1.934775 g / cm^3
# Si number density = 19.391888 Si / 1000 Ang^3
#
#
#
# Elastic Constant Matrix: (Units=GPa)
#
#
# Indices 1 2 3 4 5 6 
#
# 1 121.6011 5.6127 28.3699 0.0000 26.3828 0.0000
# 2 5.6127 4.5743 0.9047 0.0000 0.7460 0.0000
# 3 28.3699 0.9047 103.2908 0.0000 28.5821 0.0000
# 4 0.0000 0.0000 0.0000 18.3540 0.0000 5.0498
# 5 26.3828 0.7460 28.5821 0.0000 26.4454 0.0000
# 6 0.0000 0.0000 0.0000 5.0498 0.0000 32.9988
#
#
#
# Elastic Compliance Matrix: (Units=1/GPa)
#
#
# Indices 1 2 3 4 5 6 
#
# 1 0.011102 -0.011871 0.000038 0.000000 -0.010782 0.000000
# 2 -0.011871 0.232321 -0.000340 0.000000 0.005657 0.000000
# 3 0.000038 -0.000340 0.013813 0.000000 -0.014957 0.000000
# 4 0.000000 0.000000 0.000000 0.056879 0.000000 -0.008704
# 5 -0.010782 0.005657 -0.014957 0.000000 0.064577 0.000000
# 6 0.000000 0.000000 0.000000 -0.008704 0.000000 0.031636
#
#
# Mechanical properties :
#
#
# Convention : Reuss Voigt Hill
#
# Bulk Modulus (GPa) = 4.29386 33.24900 18.77143
# Shear Modulus (GPa) = 9.75985 28.53157 19.14571
#
# Velocity S-wave (km/s) = 2.24586 3.83993 3.14555
# Velocity P-wave (km/s) = 2.99069 6.06986 4.78474
#
# Compressibility (1/GPa) = 0.23289081
#
# Stress axis : x y z
#
# Youngs Moduli (GPa) = 90.07445 4.30439 72.39661
#
# Poissons Ratio (x) = 0.05110 -0.00277
# Poissons Ratio (y) = 1.06929 0.02459
# Poissons Ratio (z) = -0.00345 0.00146
#
# Static dielectric constant tensor:
#      x y z
#    x 1.668650 0.000000 -0.002430 
#    y 0.000000 1.672860 0.000000 
#    z -0.002430 0.000000 1.652360 
# 
# From -- ./inp_files/338440.got.cif
#   From: 2010.05.17/outbox.cif.g08.bks.cpg/sg12_170_cif.got.tgz:338440.got - 2010.06.03 13:09:07.
