data_PCOD9188063
_publ_section_title
;
Structure prediction by ZEFSAII (Michael W. Deem and Ramdas Pophale) SiO2 
 PCOD9188063
Probable space group: C 2/M
;
_chemical_formula_sum "Si O2"
_cell_formula_units_Z 52
_cell_length_a 23.536682
_cell_length_b 13.719756
_cell_length_c 8.699084
_cell_angle_alpha 90.000000
_cell_angle_beta 97.937173
_cell_angle_gamma 90.000000
_cell_volume 2782.175933
_symmetry_space_group_name_H-M "C 2/M"
_symmetry_group_IT_number 12
_symmetry_cell_setting 'monoclinic'
loop_
_space_group_symop_operation_xyz
x,y,z
-x,y,-z
-x,-y,-z
x,-y,z
1/2+x,1/2+y,z
1/2-x,1/2+y,-z
1/2-x,1/2-y,-z
1/2+x,1/2-y,z
loop_
_atom_site_type_symbol
_atom_site_label
_atom_site_fract_x
_atom_site_fract_y
_atom_site_fract_z
Si Si1 0.935026 0.248098 0.486246
Si Si2 0.000000 0.749061 0.000000
Si Si3 0.892442 0.294167 0.146004
Si Si4 0.423305 0.613822 0.750603
Si Si5 0.157542 0.614826 0.394273
Si Si6 0.709037 0.891589 0.743909
Si Si7 0.818618 0.224315 0.841288
O O1 0.909693 0.236965 0.306734
O O2 0.933459 0.148286 0.580473
O O3 0.898921 0.328018 0.568190
O O4 0.000000 0.282647 0.500000
O O5 0.048607 0.688570 0.926082
O O6 0.965326 0.819071 0.869960
O O7 0.852868 0.380405 0.197590
O O8 0.850476 0.238277 0.014404
O O9 0.432653 0.500000 0.779286
O O10 0.358475 0.646130 0.767012
O O11 0.148418 0.500000 0.361320
O O12 0.199702 0.623266 0.557515
O O13 0.178685 0.675048 0.254540
O O14 0.754502 0.814880 0.823746
O O15 0.731005 0.000000 0.778644
#
# Coordination Sequence:
#
# PCOD9188063 Si02
#       7
#     8   4   8   8   8   8   8
#     4  10  19  36  56  79 115 152 188 230 276 332
#     4  10  19  36  55  78 112 148 187 234 281 326
#     4  10  21  36  57  81 112 152 188 230 282 331
#     4  10  20  34  55  83 112 148 187 228 277 332
#     4   9  20  36  58  84 110 147 189 230 281 334
#     4  10  20  37  59  83 113 150 189 228 280 339
#     4  10  20  36  59  83 116 149 182 235 281 332
#
# _framework density 18.690407
#
# number of rings (size 3 to 8) (size 9 to 14) (size 15 to 20)
#    0.000    2.154    1.538    1.615    0.000    1.231 
#    0.000    1.923    0.000    1.846    0.000    0.000 
#    0.000    0.000    0.000    0.000    0.000    0.000 
#
# Total GULP energy -144901.775071 kJ/mol
# GULP energy per Si atom -5573.145195 kJ/mol
# Density = 1.864787 g / cm^3
# Si number density = 18.690407 Si / 1000 Ang^3
#
#
#
# Elastic Constant Matrix: (Units=GPa)
#
#
# Indices 1 2 3 4 5 6 
#
# 1 92.4044 30.8409 30.7919 0.0000 -6.1213 0.0000
# 2 30.8409 69.9586 34.5325 0.0000 3.1541 0.0000
# 3 30.7919 34.5325 105.9953 0.0000 3.6750 0.0000
# 4 0.0000 0.0000 0.0000 6.5225 0.0000 3.8810
# 5 -6.1213 3.1541 3.6750 0.0000 20.3872 0.0000
# 6 0.0000 0.0000 0.0000 3.8810 0.0000 12.8928
#
#
#
# Elastic Compliance Matrix: (Units=1/GPa)
#
#
# Indices 1 2 3 4 5 6 
#
# 1 0.013697 -0.005033 -0.002525 0.000000 0.005346 0.000000
# 2 -0.005033 0.018938 -0.004582 0.000000 -0.003615 0.000000
# 3 -0.002525 -0.004582 0.011736 0.000000 -0.002165 0.000000
# 4 0.000000 0.000000 0.000000 0.186768 0.000000 -0.056220
# 5 0.005346 -0.003615 -0.002165 0.000000 0.051605 0.000000
# 6 0.000000 0.000000 0.000000 -0.056220 0.000000 0.094486
#
#
# Mechanical properties :
#
#
# Convention : Reuss Voigt Hill
#
# Bulk Modulus (GPa) = 49.77471 51.18764 50.48117
# Shear Modulus (GPa) = 12.24869 19.44005 15.84437
#
# Velocity S-wave (km/s) = 2.56275 3.22857 2.91473
# Velocity P-wave (km/s) = 5.95364 6.42999 6.19640
#
# Compressibility (1/GPa) = 0.02009052
#
# Stress axis : x y z
#
# Youngs Moduli (GPa) = 73.00676 52.80413 85.20978
#
# Poissons Ratio (x) = 0.26578 0.21513
# Poissons Ratio (y) = 0.36746 0.39046
# Poissons Ratio (z) = 0.18432 0.24197
#
# Static dielectric constant tensor:
#      x y z
#    x 1.671210 0.000000 -0.020700 
#    y 0.000000 1.604540 0.000000 
#    z -0.020700 0.000000 1.671480 
# 
# From -- ./inp_files/95789.got.cif
#   From: 2010.05.17/outbox.cif.g08.bks.cpg/sg12_48_cif.got.tgz:95789.got - 2010.06.03 13:09:07.
