data_PCOD9188685
_publ_section_title
;
Structure prediction by ZEFSAII (Michael W. Deem and Ramdas Pophale) SiO2 
 PCOD9188685
Probable space group: C 2/M
;
_chemical_formula_sum "Si O2"
_cell_formula_units_Z 64
_cell_length_a 27.952499
_cell_length_b 7.606480
_cell_length_c 15.618184
_cell_angle_alpha 90.000000
_cell_angle_beta 127.827482
_cell_angle_gamma 90.000000
_cell_volume 2622.922997
_symmetry_space_group_name_H-M "C 2/M"
_symmetry_group_IT_number 12
_symmetry_cell_setting 'monoclinic'
loop_
_space_group_symop_operation_xyz
x,y,z
-x,y,-z
-x,-y,-z
x,-y,z
1/2+x,1/2+y,z
1/2-x,1/2+y,-z
1/2-x,1/2-y,-z
1/2+x,1/2-y,z
loop_
_atom_site_type_symbol
_atom_site_label
_atom_site_fract_x
_atom_site_fract_y
_atom_site_fract_z
Si Si1 0.830124 0.715328 0.198392
Si Si2 0.901116 0.292896 0.770398
Si Si3 0.913796 0.293553 0.148552
Si Si4 0.279245 0.715862 0.810940
Si Si5 0.039861 0.791511 0.343905
Si Si6 0.235225 0.807894 0.388127
Si Si7 0.920239 0.298791 0.971961
Si Si8 0.932502 0.291676 0.442768
O O1 0.830450 0.500000 0.197176
O O2 0.855585 0.777623 0.134822
O O3 0.764213 0.767524 0.159040
O O4 0.879177 0.774624 0.323482
O O5 0.888262 0.500000 0.769876
O O6 0.934397 0.275026 0.717524
O O7 0.837743 0.193543 0.694633
O O8 0.935769 0.229503 0.894084
O O9 0.902694 0.500000 0.120641
O O10 0.971305 0.278676 0.274100
O O11 0.933158 0.213783 0.078361
O O12 0.283872 0.500000 0.813441
O O13 0.250384 0.777385 0.688163
O O14 0.346543 0.791347 0.891253
O O15 0.078216 0.734760 0.468086
O O16 0.038009 0.000000 0.339594
O O17 0.250000 0.750000 0.500000
O O18 0.263007 0.000000 0.412465
O O19 0.943225 0.500000 0.000280
O O20 0.935494 0.500000 0.429867
O O21 0.000000 0.216548 0.500000
#
# Coordination Sequence:
#
# PCOD9188685 Si02
#       8
#     8   8   8   8   8   8   8   8
#     4   9  18  34  58  86 112 148 193 226 268 338
#     4  10  21  39  59  80 110 150 192 237 288 344
#     4  10  20  39  62  83 110 149 195 236 278 339
#     4   9  19  35  55  81 115 150 185 227 280 341
#     4  12  25  38  55  86 119 148 187 237 292 343
#     4  10  20  34  53  81 114 150 191 236 283 337
#     4   9  20  38  61  85 110 144 191 243 285 328
#     4  10  19  36  61  83 110 155 196 229 275 335
#
# _framework density 24.400259999999999
#
# number of rings (size 3 to 8) (size 9 to 14) (size 15 to 20)
#    0.000    2.125    1.250    1.875    1.750    2.750 
#    0.000    3.750    0.000    0.000    0.000    0.000 
#    0.000    0.000    0.000    0.000    0.000    0.000 
#
# Total GULP energy -178671.532119 kJ/mol
# GULP energy per Si atom -5583.485379 kJ/mol
# Density = 2.434472 g / cm^3
# Si number density = 24.400260 Si / 1000 Ang^3
#
#
#
# Elastic Constant Matrix: (Units=GPa)
#
#
# Indices 1 2 3 4 5 6 
#
# 1 83.1917 -7.6592 -13.3117 0.0000 -18.7490 0.0000
# 2 -7.6592 65.6083 -8.1807 0.0000 2.9669 0.0000
# 3 -13.3117 -8.1807 89.1654 0.0000 -9.3554 0.0000
# 4 0.0000 0.0000 0.0000 -1.3591 0.0000 2.8478
# 5 -18.7490 2.9669 -9.3554 0.0000 26.4186 0.0000
# 6 0.0000 0.0000 0.0000 2.8478 0.0000 13.1758
#
#
#
# Elastic Compliance Matrix: (Units=1/GPa)
#
#
# Indices 1 2 3 4 5 6 
#
# 1 0.015517 0.001730 0.003750 0.000000 0.012146 0.000000
# 2 0.001730 0.015653 0.001702 0.000000 0.000072 0.000000
# 3 0.003750 0.001702 0.012661 0.000000 0.006953 0.000000
# 4 0.000000 0.000000 0.000000 -0.506439 0.000000 0.109461
# 5 0.012146 0.000072 0.006953 0.000000 0.048926 0.000000
# 6 0.000000 0.000000 0.000000 0.109461 0.000000 0.052238
#
#
# Mechanical properties :
#
#
# Convention : Reuss Voigt Hill
#
# Bulk Modulus (GPa) = 17.18416 19.96247 18.57331
# Shear Modulus (GPa) = -14.02883 25.45486 5.71302
#
# Velocity S-wave (km/s) = -2.40040 3.23340 1.53182
# Velocity P-wave (km/s) = 0.79037 4.70519 3.27980
#
# Compressibility (1/GPa) = 0.05819311
#
# Stress axis : x y z
#
# Youngs Moduli (GPa) = 64.44552 63.88610 78.98523
#
# Poissons Ratio (x) = -0.11051 -0.29616
# Poissons Ratio (y) = -0.11148 -0.13443
# Poissons Ratio (z) = -0.24165 -0.10873
#
# Static dielectric constant tensor:
#      x y z
#    x 1.961200 0.000000 -0.051390 
#    y 0.000000 1.924120 0.000000 
#    z -0.051390 0.000000 1.978940 
# 
# From -- ./inp_files/249258.got.cif
#   From: 2010.05.17/outbox.cif.g08.bks.cpg/sg12_125_cif.got.tgz:249258.got - 2010.06.03 13:09:07.
