data_PCOD9188359
_publ_section_title
;
Structure prediction by ZEFSAII (Michael W. Deem and Ramdas Pophale) SiO2 
 PCOD9188359
Probable space group: C 2/M
;
_chemical_formula_sum "Si O2"
_cell_formula_units_Z 52
_cell_length_a 5.127875
_cell_length_b 28.370477
_cell_length_c 21.856304
_cell_angle_alpha 90.000000
_cell_angle_beta 120.880166
_cell_angle_gamma 90.000000
_cell_volume 2728.920421
_symmetry_space_group_name_H-M "C 2/M"
_symmetry_group_IT_number 12
_symmetry_cell_setting 'monoclinic'
loop_
_space_group_symop_operation_xyz
x,y,z
-x,y,-z
-x,-y,-z
x,-y,z
1/2+x,1/2+y,z
1/2-x,1/2+y,-z
1/2-x,1/2-y,-z
1/2+x,1/2-y,z
loop_
_atom_site_type_symbol
_atom_site_label
_atom_site_fract_x
_atom_site_fract_y
_atom_site_fract_z
Si Si1 0.192051 0.278090 0.583880
Si Si2 0.766347 0.423417 0.664236
Si Si3 0.362728 0.500000 0.550537
Si Si4 0.313064 0.219565 0.914023
Si Si5 0.214406 0.866322 0.323674
Si Si6 0.395099 0.381567 0.158859
Si Si7 0.908510 0.445488 0.171248
O O1 0.521616 0.265063 0.597145
O O2 0.181571 0.319016 0.632042
O O3 0.000000 0.290499 0.500000
O O4 0.512018 0.456122 0.603819
O O5 0.577552 0.381833 0.672700
O O6 0.014125 0.404601 0.646004
O O7 0.945672 0.446758 0.742669
O O8 0.500000 0.500000 0.500000
O O9 0.000000 0.500000 0.500000
O O10 0.519613 0.247983 0.890897
O O11 0.236629 0.166042 0.886291
O O12 0.500000 0.217648 0.000000
O O13 0.105277 0.863773 0.240496
O O14 0.605645 0.413898 0.140869
O O15 0.141535 0.416456 0.156759
O O16 0.862054 0.500000 0.146596
#
# Coordination Sequence:
#
# PCOD9188359 Si02
#       7
#     8   8   4   8   8   8   8
#     4  10  21  36  52  71  97 134 174 215 271 333
#     4  10  21  37  52  76 105 138 176 223 276 335
#     4  12  24  36  52  76 106 140 179 224 275 332
#     4  10  21  38  60  86 122 162 189 227 289 344
#     4  10  21  35  56  78 104 136 178 229 280 319
#     4  10  21  34  57  90 110 143 200 235 274 343
#     4  10  19  36  59  80 113 151 186 237 288 334
#
# _framework density 19.055154000000002
#
# number of rings (size 3 to 8) (size 9 to 14) (size 15 to 20)
#    0.000    1.846    0.769    3.231    0.000    3.077 
#    0.000    0.000    0.000    2.769    0.000    0.000 
#    0.000    0.000    0.000    0.000    0.000    0.000 
#
# Total GULP energy -144999.668313 kJ/mol
# GULP energy per Si atom -5576.910320 kJ/mol
# Density = 1.901178 g / cm^3
# Si number density = 19.055154 Si / 1000 Ang^3
#
#
#
# Elastic Constant Matrix: (Units=GPa)
#
#
# Indices 1 2 3 4 5 6 
#
# 1 133.5787 46.9048 19.5720 0.0000 6.8004 0.0000
# 2 46.9048 128.5265 32.1382 0.0000 10.7106 0.0000
# 3 19.5720 32.1382 22.5647 0.0000 3.9004 0.0000
# 4 0.0000 0.0000 0.0000 22.3867 0.0000 7.2625
# 5 6.8004 10.7106 3.9004 0.0000 10.8320 0.0000
# 6 0.0000 0.0000 0.0000 7.2625 0.0000 18.8703
#
#
#
# Elastic Compliance Matrix: (Units=1/GPa)
#
#
# Indices 1 2 3 4 5 6 
#
# 1 0.008951 -0.001932 -0.004661 0.000000 -0.002031 0.000000
# 2 -0.001932 0.012896 -0.015672 0.000000 -0.005895 0.000000
# 3 -0.004661 -0.015672 0.071977 0.000000 -0.007495 0.000000
# 4 0.000000 0.000000 0.000000 0.051042 0.000000 -0.019644
# 5 -0.002031 -0.005895 -0.007495 0.000000 0.102121 0.000000
# 6 0.000000 0.000000 0.000000 -0.019644 0.000000 0.060554
#
#
# Mechanical properties :
#
#
# Convention : Reuss Voigt Hill
#
# Bulk Modulus (GPa) = 20.28693 53.54444 36.91569
# Shear Modulus (GPa) = 13.56843 22.82146 18.19494
#
# Velocity S-wave (km/s) = 2.67134 3.46447 3.09343
# Velocity P-wave (km/s) = 4.49269 6.64561 5.67223
#
# Compressibility (1/GPa) = 0.04929281
#
# Stress axis : x y z
#
# Youngs Moduli (GPa) = 111.72041 77.54596 13.89330
#
# Poissons Ratio (x) = 0.14980 0.06476
# Poissons Ratio (y) = 0.21582 0.21774
# Poissons Ratio (z) = 0.52077 1.21532
#
# Static dielectric constant tensor:
#      x y z
#    x 1.665510 0.000000 0.009800 
#    y 0.000000 1.707000 0.000000 
#    z 0.009800 0.000000 1.636050 
# 
# From -- ./inp_files/298122.got.cif
#   From: 2010.05.17/outbox.cif.g08.bks.cpg/sg12_150_cif.got.tgz:298122.got - 2010.06.03 13:09:07.
