data_PCOD9188432
_publ_section_title
;
Structure prediction by ZEFSAII (Michael W. Deem and Ramdas Pophale) SiO2 
 PCOD9188432
Probable space group: C 2/M
;
_chemical_formula_sum "Si O2"
_cell_formula_units_Z 52
_cell_length_a 21.602207
_cell_length_b 19.676239
_cell_length_c 8.661216
_cell_angle_alpha 90.000000
_cell_angle_beta 126.486367
_cell_angle_gamma 90.000000
_cell_volume 2959.880997
_symmetry_space_group_name_H-M "C 2/M"
_symmetry_group_IT_number 12
_symmetry_cell_setting 'monoclinic'
loop_
_space_group_symop_operation_xyz
x,y,z
-x,y,-z
-x,-y,-z
x,-y,z
1/2+x,1/2+y,z
1/2-x,1/2+y,-z
1/2-x,1/2-y,-z
1/2+x,1/2-y,z
loop_
_atom_site_type_symbol
_atom_site_label
_atom_site_fract_x
_atom_site_fract_y
_atom_site_fract_z
Si Si1 0.584838 0.818154 0.189679
Si Si2 0.227193 0.688096 0.177502
Si Si3 0.500000 0.719806 0.500000
Si Si4 0.688851 0.420052 0.493829
Si Si5 0.043786 0.174101 0.233517
Si Si6 0.831233 0.421072 0.479939
Si Si7 0.840107 0.697314 0.262334
O O1 0.649863 0.803316 0.160531
O O2 0.580334 0.749651 0.282779
O O3 0.610398 0.885389 0.315474
O O4 0.500000 0.828057 0.000000
O O5 0.271493 0.622099 0.308100
O O6 0.284639 0.751796 0.275475
O O7 0.199625 0.685968 0.961304
O O8 0.502094 0.676593 0.341161
O O9 0.576516 0.766810 0.626596
O O10 0.680379 0.500000 0.515632
O O11 0.608721 0.383461 0.337219
O O12 0.747374 0.413652 0.435614
O O13 0.000000 0.168112 0.000000
O O14 0.846228 0.500000 0.477762
O O15 0.840785 0.375225 0.344524
#
# Coordination Sequence:
#
# PCOD9188432 Si02
#       7
#     8   8   4   8   8   8   8
#     4  10  19  36  59  85 114 152 197 245 298 351
#     4  10  21  36  62  87 112 158 200 246 303 355
#     4  12  22  38  62  94 124 156 200 262 294 362
#     4  10  21  41  61  84 120 158 200 246 300 366
#     4  11  22  38  64  90 122 156 201 252 307 354
#     4  10  21  36  57  82 115 156 195 241 296 357
#     4  11  21  36  59  87 121 149 202 250 298 354
#
# _framework density 17.568273999999999
#
# number of rings (size 3 to 8) (size 9 to 14) (size 15 to 20)
#    0.000    1.538    3.077    2.769    0.000    4.923 
#    0.000    0.769    0.000    0.000    0.000    0.000 
#    0.000    0.000    0.000    0.000    0.000    0.000 
#
# Total GULP energy -144907.773777 kJ/mol
# GULP energy per Si atom -5573.375915 kJ/mol
# Density = 1.752829 g / cm^3
# Si number density = 17.568274 Si / 1000 Ang^3
#
#
#
# Elastic Constant Matrix: (Units=GPa)
#
#
# Indices 1 2 3 4 5 6 
#
# 1 75.9302 41.5486 57.8996 0.0000 12.8166 0.0000
# 2 41.5486 71.9175 25.7273 0.0000 19.3460 0.0000
# 3 57.8996 25.7273 103.7272 0.0000 5.1037 0.0000
# 4 0.0000 0.0000 0.0000 5.7884 0.0000 -2.4389
# 5 12.8166 19.3460 5.1037 0.0000 26.0578 0.0000
# 6 0.0000 0.0000 0.0000 -2.4389 0.0000 30.2904
#
#
#
# Elastic Compliance Matrix: (Units=1/GPa)
#
#
# Indices 1 2 3 4 5 6 
#
# 1 0.031211 -0.011928 -0.014281 0.000000 -0.003699 0.000000
# 2 -0.011928 0.023473 0.001418 0.000000 -0.011838 0.000000
# 3 -0.014281 0.001418 0.017132 0.000000 0.002616 0.000000
# 4 0.000000 0.000000 0.000000 0.178828 0.000000 0.014399
# 5 -0.003699 -0.011838 0.002616 0.000000 0.048472 0.000000
# 6 0.000000 0.000000 0.000000 0.014399 0.000000 0.034173
#
#
# Mechanical properties :
#
#
# Convention : Reuss Voigt Hill
#
# Bulk Modulus (GPa) = 44.97486 55.76955 50.37221
# Shear Modulus (GPa) = 12.81128 20.85393 16.83261
#
# Velocity S-wave (km/s) = 2.70335 3.44906 3.09872
# Velocity P-wave (km/s) = 5.94977 6.90469 6.44494
#
# Compressibility (1/GPa) = 0.02223464
#
# Stress axis : x y z
#
# Youngs Moduli (GPa) = 32.03990 42.60271 58.37066
#
# Poissons Ratio (x) = 0.50815 0.83361
# Poissons Ratio (y) = 0.38216 -0.08279
# Poissons Ratio (z) = 0.45757 -0.06043
#
# Static dielectric constant tensor:
#      x y z
#    x 1.625800 0.000000 -0.027000 
#    y 0.000000 1.557700 0.000000 
#    z -0.027000 0.000000 1.630090 
# 
# From -- ./inp_files/75379.got.cif
#   From: 2010.05.17/outbox.cif.g08.bks.cpg/sg12_38_cif.got.tgz:75379.got - 2010.06.03 13:09:07.
