data_PCOD9188989
_publ_section_title
;
Structure prediction by ZEFSAII (Michael W. Deem and Ramdas Pophale) SiO2 
 PCOD9188989
Probable space group: C 2/M
;
_chemical_formula_sum "Si O2"
_cell_formula_units_Z 58
_cell_length_a 10.046919
_cell_length_b 16.877758
_cell_length_c 16.875357
_cell_angle_alpha 90.000000
_cell_angle_beta 83.480198
_cell_angle_gamma 90.000000
_cell_volume 2843.038749
_symmetry_space_group_name_H-M "C 2/M"
_symmetry_group_IT_number 12
_symmetry_cell_setting 'monoclinic'
loop_
_space_group_symop_operation_xyz
x,y,z
-x,y,-z
-x,-y,-z
x,-y,z
1/2+x,1/2+y,z
1/2-x,1/2+y,-z
1/2-x,1/2-y,-z
1/2+x,1/2-y,z
loop_
_atom_site_type_symbol
_atom_site_label
_atom_site_fract_x
_atom_site_fract_y
_atom_site_fract_z
Si Si1 0.101840 0.591334 0.235597
Si Si2 0.825038 0.667828 0.223526
Si Si3 0.630258 0.410309 0.869212
Si Si4 0.500000 0.000000 0.500000
Si Si5 0.617044 0.272603 0.624670
Si Si6 0.960301 0.908875 0.718262
Si Si7 0.627753 0.750994 0.947738
Si Si8 0.891924 0.343223 0.592783
O O1 0.114084 0.500000 0.257482
O O2 0.214075 0.605627 0.162278
O O3 0.129816 0.642319 0.311458
O O4 0.952614 0.609946 0.217965
O O5 0.849489 0.729571 0.293666
O O6 0.686542 0.623422 0.250115
O O7 0.828668 0.708085 0.137361
O O8 0.616378 0.500000 0.901843
O O9 0.549750 0.407184 0.791908
O O10 0.586537 0.338116 0.925995
O O11 0.582858 0.071539 0.447841
O O12 0.528410 0.349737 0.651243
O O13 0.755880 0.300042 0.576410
O O14 0.525643 0.210862 0.582324
O O15 0.953864 0.000000 0.691191
O O16 0.500000 0.789366 0.000000
O O17 0.750000 0.750000 0.000000
#
# Coordination Sequence:
#
# PCOD9188989 Si02
#       8
#     8   8   8   2   8   8   8   8
#     4  10  19  36  64  92 118 157 213 270 315 363
#     4  11  22  38  60  92 126 157 219 282 317 375
#     4  10  21  37  59  85 118 160 216 268 317 378
#     4  12  28  44  72  98 146 176 216 238 312 420
#     4  11  22  40  70  96 128 164 223 271 317 359
#     4  11  21  36  63  98 124 159 203 287 327 358
#     4  12  24  37  56  81 120 171 213 258 334 401
#     4  11  23  42  66 100 132 175 205 259 315 382
#
# _framework density 20.400706
#
# number of rings (size 3 to 8) (size 9 to 14) (size 15 to 20)
#    0.000    1.103    4.828    2.069    2.897    0.828 
#    0.000    1.379    0.000    4.552    0.000    0.000 
#    0.000    0.000    0.000    0.000    0.000    0.000 
#
# Total GULP energy -161793.525102 kJ/mol
# GULP energy per Si atom -5579.087072 kJ/mol
# Density = 2.035427 g / cm^3
# Si number density = 20.400706 Si / 1000 Ang^3
#
#
#
# Elastic Constant Matrix: (Units=GPa)
#
#
# Indices 1 2 3 4 5 6 
#
# 1 146.0066 47.3481 24.1513 0.0000 -13.1897 0.0000
# 2 47.3481 120.1900 30.6002 0.0000 -7.2654 0.0000
# 3 24.1513 30.6002 60.5649 0.0000 -0.8330 0.0000
# 4 0.0000 0.0000 0.0000 12.9139 0.0000 -3.1252
# 5 -13.1897 -7.2654 -0.8330 0.0000 18.2353 0.0000
# 6 0.0000 0.0000 0.0000 -3.1252 0.0000 25.1656
#
#
#
# Elastic Compliance Matrix: (Units=1/GPa)
#
#
# Indices 1 2 3 4 5 6 
#
# 1 0.008453 -0.002508 -0.002034 0.000000 0.005021 0.000000
# 2 -0.002508 0.010533 -0.004291 0.000000 0.002186 0.000000
# 3 -0.002034 -0.004291 0.019459 0.000000 -0.002292 0.000000
# 4 0.000000 0.000000 0.000000 0.079835 0.000000 0.009914
# 5 0.005021 0.002186 -0.002292 0.000000 0.059237 0.000000
# 6 0.000000 0.000000 0.000000 0.009914 0.000000 0.040968
#
#
# Mechanical properties :
#
#
# Convention : Reuss Voigt Hill
#
# Bulk Modulus (GPa) = 48.13094 58.99564 53.56329
# Shear Modulus (GPa) = 20.56949 26.24041 23.40495
#
# Velocity S-wave (km/s) = 3.17878 3.59032 3.39080
# Velocity P-wave (km/s) = 6.09236 6.79474 6.45311
#
# Compressibility (1/GPa) = 0.02077666
#
# Stress axis : x y z
#
# Youngs Moduli (GPa) = 118.30757 94.93894 51.38982
#
# Poissons Ratio (x) = 0.23814 0.10454
# Poissons Ratio (y) = 0.29676 0.22054
# Poissons Ratio (z) = 0.24066 0.40743
#
# Static dielectric constant tensor:
#      x y z
#    x 1.721510 0.000000 -0.018240 
#    y 0.000000 1.725420 0.000000 
#    z -0.018240 0.000000 1.722730 
# 
# From -- ./inp_files/257097.got.cif
#   From: 2010.05.17/outbox.cif.g08.bks.cpg/sg12_129_cif.got.tgz:257097.got - 2010.06.03 13:09:07.
