data_PCOD9188676
_publ_section_title
;
Structure prediction by ZEFSAII (Michael W. Deem and Ramdas Pophale) SiO2 
 PCOD9188676
Probable space group: C 2/M
;
_chemical_formula_sum "Si O2"
_cell_formula_units_Z 56
_cell_length_a 16.456087
_cell_length_b 14.695295
_cell_length_c 11.760540
_cell_angle_alpha 90.000000
_cell_angle_beta 84.324712
_cell_angle_gamma 90.000000
_cell_volume 2830.076255
_symmetry_space_group_name_H-M "C 2/M"
_symmetry_group_IT_number 12
_symmetry_cell_setting 'monoclinic'
loop_
_space_group_symop_operation_xyz
x,y,z
-x,y,-z
-x,-y,-z
x,-y,z
1/2+x,1/2+y,z
1/2-x,1/2+y,-z
1/2-x,1/2-y,-z
1/2+x,1/2-y,z
loop_
_atom_site_type_symbol
_atom_site_label
_atom_site_fract_x
_atom_site_fract_y
_atom_site_fract_z
Si Si1 0.121855 0.102403 0.384710
Si Si2 0.866222 0.646595 0.196895
Si Si3 0.304043 0.401513 0.879442
Si Si4 0.800004 0.607202 0.454359
Si Si5 0.551603 0.896856 0.164822
Si Si6 0.408331 0.733259 0.008922
Si Si7 0.426494 0.195873 0.592593
O O1 0.153761 0.103314 0.250182
O O2 0.202567 0.113216 0.452290
O O3 0.070195 0.194328 0.402574
O O4 0.087805 0.000000 0.409847
O O5 0.791370 0.607336 0.134943
O O6 0.839621 0.641648 0.330859
O O7 0.953244 0.599309 0.169674
O O8 0.881144 0.745603 0.140891
O O9 0.320853 0.500000 0.928144
O O10 0.342200 0.325885 0.953568
O O11 0.820189 0.500000 0.463933
O O12 0.841387 0.664026 0.548436
O O13 0.582676 0.827875 0.063415
O O14 0.567709 0.849561 0.284443
O O15 0.583866 0.000000 0.153056
O O16 0.500000 0.693185 0.000000
O O17 0.500000 0.163767 0.500000
#
# Coordination Sequence:
#
# PCOD9188676 Si02
#       7
#     8   8   8   8   8   8   8
#     4   9  20  38  58  79 107 145 188 222 265 324
#     4  10  20  35  57  82 110 144 184 218 263 326
#     4  10  19  36  61  82 107 144 185 226 263 321
#     4  10  20  35  57  83 110 145 182 220 266 326
#     4  11  22  36  53  81 115 144 176 222 278 327
#     4  10  22  37  56  82 114 142 178 226 275 322
#     4  12  22  34  57  82 113 142 178 231 273 317
#
# _framework density 19.787451999999998
#
# number of rings (size 3 to 8) (size 9 to 14) (size 15 to 20)
#    0.000    1.714    2.857    3.429    0.000    4.857 
#    0.000    0.000    0.000    0.857    0.000    0.000 
#    0.000    0.000    0.000    0.000    0.000    0.000 
#
# Total GULP energy -156228.123162 kJ/mol
# GULP energy per Si atom -5579.575827 kJ/mol
# Density = 1.974242 g / cm^3
# Si number density = 19.787452 Si / 1000 Ang^3
#
#
#
# Elastic Constant Matrix: (Units=GPa)
#
#
# Indices 1 2 3 4 5 6 
#
# 1 29.8969 39.4046 9.8333 0.0000 6.6988 0.0000
# 2 39.4046 99.3028 31.1689 0.0000 22.5532 0.0000
# 3 9.8333 31.1689 46.2252 0.0000 11.6115 0.0000
# 4 0.0000 0.0000 0.0000 65.0767 0.0000 37.4994
# 5 6.6988 22.5532 11.6115 0.0000 28.1164 0.0000
# 6 0.0000 0.0000 0.0000 37.4994 0.0000 25.3943
#
#
#
# Elastic Compliance Matrix: (Units=1/GPa)
#
#
# Indices 1 2 3 4 5 6 
#
# 1 0.071853 -0.031247 0.004227 0.000000 0.006200 0.000000
# 2 -0.031247 0.027939 -0.009408 0.000000 -0.011081 0.000000
# 3 0.004227 -0.009408 0.028379 0.000000 -0.005180 0.000000
# 4 0.000000 0.000000 0.000000 0.103075 0.000000 -0.152209
# 5 0.006200 -0.011081 -0.005180 0.000000 0.045117 0.000000
# 6 0.000000 0.000000 0.000000 -0.152209 0.000000 0.264144
#
#
# Mechanical properties :
#
#
# Convention : Reuss Voigt Hill
#
# Bulk Modulus (GPa) = 18.07845 37.35985 27.71915
# Shear Modulus (GPa) = 7.91387 30.05201 18.98294
#
# Velocity S-wave (km/s) = 2.00203 3.90133 3.10069
# Velocity P-wave (km/s) = 3.80793 6.26222 5.18246
#
# Compressibility (1/GPa) = 0.05531447
#
# Stress axis : x y z
#
# Youngs Moduli (GPa) = 13.91736 35.79210 35.23705
#
# Poissons Ratio (x) = 1.11839 -0.14895
# Poissons Ratio (y) = 0.43487 0.33152
# Poissons Ratio (z) = -0.05883 0.33675
#
# Static dielectric constant tensor:
#      x y z
#    x 1.707740 0.000000 -0.012020 
#    y 0.000000 1.722760 0.000000 
#    z -0.012020 0.000000 1.677710 
# 
# From -- ./inp_files/143727.got.cif
#   From: 2010.05.17/outbox.cif.g08.bks.cpg/sg12_72_cif.got.tgz:143727.got - 2010.06.03 13:09:07.
