data_PCOD9188680
_publ_section_title
;
Structure prediction by ZEFSAII (Michael W. Deem and Ramdas Pophale) SiO2 
 PCOD9188680
Probable space group: C 2/M
;
_chemical_formula_sum "Si O2"
_cell_formula_units_Z 44
_cell_length_a 9.533350
_cell_length_b 26.424978
_cell_length_c 10.655213
_cell_angle_alpha 90.000000
_cell_angle_beta 43.789700
_cell_angle_gamma 90.000000
_cell_volume 1857.534206
_symmetry_space_group_name_H-M "C 2/M"
_symmetry_group_IT_number 12
_symmetry_cell_setting 'monoclinic'
loop_
_space_group_symop_operation_xyz
x,y,z
-x,y,-z
-x,-y,-z
x,-y,z
1/2+x,1/2+y,z
1/2-x,1/2+y,-z
1/2-x,1/2-y,-z
1/2+x,1/2-y,z
loop_
_atom_site_type_symbol
_atom_site_label
_atom_site_fract_x
_atom_site_fract_y
_atom_site_fract_z
Si Si1 0.854424 0.618011 0.713030
Si Si2 0.733991 0.168898 0.800077
Si Si3 0.756896 0.000000 0.839890
Si Si4 0.002569 0.911391 0.231783
Si Si5 0.690273 0.920933 0.654059
Si Si6 0.766829 0.774434 0.125951
O O1 0.643436 0.599238 0.790671
O O2 0.841873 0.672649 0.786113
O O3 0.000000 0.624696 0.500000
O O4 0.974919 0.580171 0.725348
O O5 0.739582 0.135268 0.672012
O O6 0.793301 0.227339 0.746380
O O7 0.883335 0.139870 0.799858
O O8 0.500000 0.167405 0.000000
O O9 0.695765 0.956702 0.771385
O O10 0.834121 0.955230 0.884268
O O11 0.861963 0.932199 0.439118
O O12 0.750000 0.750000 0.000000
O O13 0.000000 0.785770 0.000000
#
# Coordination Sequence:
#
# PCOD9188680 Si02
#       6
#     8   8   4   8   8   8
#     4  10  22  36  55  86 120 148 187 241 289 330
#     4  10  20  35  56  81 109 148 192 232 274 335
#     4  10  19  36  61  82 109 150 193 232 284 346
#     4  10  20  36  57  83 113 147 187 237 286 333
#     4  10  20  36  56  82 112 147 188 233 285 340
#     4  11  22  38  58  82 114 156 194 228 279 344
#
# _framework density 23.687315000000002
#
# number of rings (size 3 to 8) (size 9 to 14) (size 15 to 20)
#    0.000    1.818    0.000    6.545    0.000    2.182 
#    0.000   14.545    0.000    0.000    0.000   16.545 
#    0.000    0.000    0.000    0.000    0.000    0.000 
#
# Total GULP energy -122586.613296 kJ/mol
# GULP energy per Si atom -5572.118786 kJ/mol
# Density = 2.363340 g / cm^3
# Si number density = 23.687315 Si / 1000 Ang^3
#
#
#
# Elastic Constant Matrix: (Units=GPa)
#
#
# Indices 1 2 3 4 5 6 
#
# 1 170.8088 25.2678 29.8584 0.0000 -22.4192 0.0000
# 2 25.2678 88.9341 15.7939 0.0000 -9.4300 0.0000
# 3 29.8584 15.7939 82.1503 0.0000 3.0498 0.0000
# 4 0.0000 0.0000 0.0000 500.9930 0.0000 -436.3879
# 5 -22.4192 -9.4300 3.0498 0.0000 28.0557 0.0000
# 6 0.0000 0.0000 0.0000 -436.3879 0.0000 416.6201
#
#
#
# Elastic Compliance Matrix: (Units=1/GPa)
#
#
# Indices 1 2 3 4 5 6 
#
# 1 0.007212 -0.000972 -0.002647 0.000000 0.005724 0.000000
# 2 -0.000972 0.012281 -0.002141 0.000000 0.003584 0.000000
# 3 -0.002647 -0.002141 0.013707 0.000000 -0.004325 0.000000
# 4 0.000000 0.000000 0.000000 0.022779 0.000000 0.023860
# 5 0.005724 0.003584 -0.004325 0.000000 0.041892 0.000000
# 6 0.000000 0.000000 0.000000 0.023860 0.000000 0.027393
#
#
# Mechanical properties :
#
#
# Convention : Reuss Voigt Hill
#
# Bulk Modulus (GPa) = 46.12489 53.74815 49.93652
# Shear Modulus (GPa) = 34.71960 207.19861 120.95910
#
# Velocity S-wave (km/s) = 3.83266 9.36281 7.15373
# Velocity P-wave (km/s) = 6.25303 11.81622 9.45313
#
# Compressibility (1/GPa) = 0.02168027
#
# Stress axis : x y z
#
# Youngs Moduli (GPa) = 138.65087 81.42898 72.95523
#
# Poissons Ratio (x) = 0.07916 0.19311
# Poissons Ratio (y) = 0.13478 0.15618
# Poissons Ratio (z) = 0.36701 0.17432
#
# Static dielectric constant tensor:
#      x y z
#    x 1.922290 0.000000 -0.025460 
#    y 0.000000 1.658730 0.000000 
#    z -0.025460 0.000000 1.996710 
# 
# From -- ./inp_files/124088.got.cif
#   From: 2010.05.17/outbox.cif.g08.bks.cpg/sg12_63_cif.got.tgz:124088.got - 2010.06.03 13:09:07.
