data_PCOD9188499
_publ_section_title
;
Structure prediction by ZEFSAII (Michael W. Deem and Ramdas Pophale) SiO2 
 PCOD9188499
Probable space group: C 2/M
;
_chemical_formula_sum "Si O2"
_cell_formula_units_Z 48
_cell_length_a 29.287306
_cell_length_b 7.564623
_cell_length_c 17.860993
_cell_angle_alpha 90.000000
_cell_angle_beta 35.609136
_cell_angle_gamma 90.000000
_cell_volume 2304.006825
_symmetry_space_group_name_H-M "C 2/M"
_symmetry_group_IT_number 12
_symmetry_cell_setting 'monoclinic'
loop_
_space_group_symop_operation_xyz
x,y,z
-x,y,-z
-x,-y,-z
x,-y,z
1/2+x,1/2+y,z
1/2-x,1/2+y,-z
1/2-x,1/2-y,-z
1/2+x,1/2-y,z
loop_
_atom_site_type_symbol
_atom_site_label
_atom_site_fract_x
_atom_site_fract_y
_atom_site_fract_z
Si Si1 0.975687 0.794326 0.296838
Si Si2 0.158805 0.212444 0.633307
Si Si3 0.909517 0.213848 0.118513
Si Si4 0.279782 0.288553 0.877390
Si Si5 0.127830 0.293970 0.998905
Si Si6 0.458256 0.283155 0.632811
O O1 0.901140 0.718850 0.350722
O O2 0.999826 0.721328 0.346219
O O3 0.957172 0.000000 0.335019
O O4 0.051849 0.786987 0.141032
O O5 0.250000 0.250000 0.500000
O O6 0.132418 0.277225 0.750352
O O7 0.148800 0.000000 0.647552
O O8 0.875691 0.276699 0.085228
O O9 0.906990 0.000000 0.120927
O O10 0.000000 0.268248 0.000000
O O11 0.284449 0.500000 0.859640
O O12 0.210546 0.218914 0.916945
O O13 0.368070 0.221737 0.751197
O O14 0.250000 0.250000 0.000000
O O15 0.124511 0.500000 0.024366
O O16 0.500000 0.231970 0.500000
O O17 0.457792 0.500000 0.636250
#
# Coordination Sequence:
#
# PCOD9188499 Si02
#       6
#     8   8   8   8   8   8
#     4  10  19  36  60  80 107 154 194 227 279 342
#     4  10  22  38  58  84 112 149 190 232 281 336
#     4  10  20  38  60  81 109 148 196 232 269 337
#     4  10  20  34  55  83 112 144 184 231 278 330
#     4  11  22  33  54  89 119 144 184 241 293 329
#     4   9  18  33  56  83 109 144 190 231 269 327
#
# _framework density 20.833272000000001
#
# number of rings (size 3 to 8) (size 9 to 14) (size 15 to 20)
#    0.000    2.000    3.333    0.500    0.000    3.667 
#    0.000    3.333    0.000    2.000    0.000    0.000 
#    0.000    0.000    0.000    0.000    0.000    0.000 
#
# Total GULP energy -133996.079162 kJ/mol
# GULP energy per Si atom -5583.169965 kJ/mol
# Density = 2.078586 g / cm^3
# Si number density = 20.833272 Si / 1000 Ang^3
#
#
#
# Elastic Constant Matrix: (Units=GPa)
#
#
# Indices 1 2 3 4 5 6 
#
# 1 231.5824 -4.3535 107.4261 0.0017 -10.3887 -0.0054
# 2 -4.3535 43.6354 -9.5080 0.0035 -2.6239 -0.0069
# 3 107.4261 -9.5080 177.5282 0.0151 -4.9230 -0.0082
# 4 0.0017 0.0035 0.0151 11.1908 -0.0004 -7.5864
# 5 -10.3887 -2.6239 -4.9230 -0.0004 33.9896 -0.0003
# 6 -0.0054 -0.0069 -0.0082 -7.5864 -0.0003 1.2862
#
#
#
# Elastic Compliance Matrix: (Units=1/GPa)
#
#
# Indices 1 2 3 4 5 6 
#
# 1 0.006063 -0.000109 -0.003638 -0.000002 0.001318 -0.000009
# 2 -0.000109 0.023323 0.001369 -0.000027 0.001966 -0.000027
# 3 -0.003638 0.001369 0.007912 -0.000006 0.000140 0.000006
# 4 -0.000002 -0.000027 -0.000006 -0.029800 -0.000005 -0.175773
# 5 0.001318 0.001966 0.000140 -0.000005 0.029995 -0.000008
# 6 -0.000009 -0.000027 0.000006 -0.175773 -0.000008 -0.259286
#
#
# Mechanical properties :
#
#
# Convention : Reuss Voigt Hill
#
# Bulk Modulus (GPa) = 30.72881 71.09727 50.91304
# Shear Modulus (GPa) = -24.24938 33.23874 4.49468
#
# Velocity S-wave (km/s) = -3.41541 3.99866 1.47042
# Velocity P-wave (km/s) = 0.87832 7.45117 5.23204
#
# Compressibility (1/GPa) = 0.03254275
#
# Stress axis : x y z
#
# Youngs Moduli (GPa) = 164.94101 42.87629 126.39756
#
# Poissons Ratio (x) = 0.00466 0.45983
# Poissons Ratio (y) = 0.01791 -0.17308
# Poissons Ratio (z) = 0.60005 -0.05871
#
# Static dielectric constant tensor:
#      x y z
#    x 1.675350 0.000010 -0.021760 
#    y 0.000010 1.810500 0.000010 
#    z -0.021760 0.000010 1.688400 
# 
# From -- ./inp_files/222583.got.cif
#   From: 2010.05.17/outbox.cif.g08.bks.cpg/sg12_112_cif.got.tgz:222583.got - 2010.06.03 13:09:07.
