data_PCOD9188749
_publ_section_title
;
Structure prediction by ZEFSAII (Michael W. Deem and Ramdas Pophale) SiO2 
 PCOD9188749
Probable space group: C 2/M
;
_chemical_formula_sum "Si O2"
_cell_formula_units_Z 48
_cell_length_a 12.429711
_cell_length_b 15.393524
_cell_length_c 14.479689
_cell_angle_alpha 90.000000
_cell_angle_beta 45.562430
_cell_angle_gamma 90.000000
_cell_volume 1978.175820
_symmetry_space_group_name_H-M "C 2/M"
_symmetry_group_IT_number 12
_symmetry_cell_setting 'monoclinic'
loop_
_space_group_symop_operation_xyz
x,y,z
-x,y,-z
-x,-y,-z
x,-y,z
1/2+x,1/2+y,z
1/2-x,1/2+y,-z
1/2-x,1/2-y,-z
1/2+x,1/2-y,z
loop_
_atom_site_type_symbol
_atom_site_label
_atom_site_fract_x
_atom_site_fract_y
_atom_site_fract_z
Si Si1 0.271083 0.645637 0.976629
Si Si2 0.580881 0.099743 0.350213
Si Si3 0.953132 0.629340 0.128167
Si Si4 0.922169 0.765455 0.376169
Si Si5 0.584196 0.668933 0.828432
Si Si6 0.863324 0.904160 0.710525
O O1 0.421189 0.624114 0.945216
O O2 0.306276 0.617848 0.849689
O O3 0.250000 0.750000 0.000000
O O4 0.103256 0.611475 0.097041
O O5 0.500000 0.109578 0.500000
O O6 0.505734 0.173902 0.333290
O O7 0.759963 0.120866 0.245981
O O8 0.557812 0.000000 0.336045
O O9 0.921062 0.732459 0.131704
O O10 0.789934 0.597089 0.256804
O O11 0.000000 0.593941 0.000000
O O12 0.750000 0.750000 0.500000
O O13 0.922045 0.811017 0.277019
O O14 0.015805 0.830893 0.384401
O O15 0.930372 0.000000 0.668879
#
# Coordination Sequence:
#
# PCOD9188749 Si02
#       6
#     8   8   8   8   8   8
#     4   8  17  31  52  84 115 151 195 242 294 350
#     4  11  23  40  64  92 121 162 213 259 309 378
#     4   9  17  33  57  87 116 157 200 244 300 365
#     4  11  22  38  61  88 124 160 206 259 319 366
#     4  10  19  36  61  87 119 161 202 249 309 367
#     4  10  20  33  57  89 117 153 202 249 299 370
#
# _framework density 24.264779000000001
#
# number of rings (size 3 to 8) (size 9 to 14) (size 15 to 20)
#    0.000    2.167    3.333    0.000    0.000    6.333 
#    0.000    0.833    0.000   10.000    0.000    0.000 
#    0.000    0.000    0.000    0.000    0.000    0.000 
#
# Total GULP energy -133942.038792 kJ/mol
# GULP energy per Si atom -5580.918283 kJ/mol
# Density = 2.420955 g / cm^3
# Si number density = 24.264779 Si / 1000 Ang^3
#
#
#
# Elastic Constant Matrix: (Units=GPa)
#
#
# Indices 1 2 3 4 5 6 
#
# 1 86.9611 38.8041 64.3063 0.0000 -55.7248 0.0000
# 2 38.8041 118.4323 44.5201 0.0000 -39.8912 0.0000
# 3 64.3063 44.5201 120.5428 -0.0001 -45.1987 0.0000
# 4 0.0000 0.0000 -0.0001 -9.1315 0.0001 7.5025
# 5 -55.7248 -39.8912 -45.1987 0.0001 63.1520 0.0000
# 6 0.0000 0.0000 0.0000 7.5025 0.0000 1.3105
#
#
#
# Elastic Compliance Matrix: (Units=1/GPa)
#
#
# Indices 1 2 3 4 5 6 
#
# 1 0.032238 0.000292 -0.008981 0.000000 0.022204 0.000000
# 2 0.000292 0.011072 -0.002086 0.000000 0.005758 0.000000
# 3 -0.008981 -0.002086 0.014203 0.000000 0.000924 0.000000
# 4 0.000000 0.000000 0.000000 -0.019200 0.000000 0.109920
# 5 0.022204 0.005758 0.000924 0.000000 0.039726 0.000000
# 6 0.000000 0.000000 0.000000 0.109920 0.000000 0.133787
#
#
# Mechanical properties :
#
#
# Convention : Reuss Voigt Hill
#
# Bulk Modulus (GPa) = 27.80505 69.02191 48.41348
# Shear Modulus (GPa) = 20.37805 22.95324 21.66565
#
# Velocity S-wave (km/s) = 2.90111 3.07896 2.99136
# Velocity P-wave (km/s) = 4.76506 6.41460 5.65035
#
# Compressibility (1/GPa) = 0.03596469
#
# Stress axis : x y z
#
# Youngs Moduli (GPa) = 31.01907 90.32095 70.40606
#
# Poissons Ratio (x) = -0.02636 0.63228
# Poissons Ratio (y) = -0.00905 0.14684
# Poissons Ratio (z) = 0.27857 0.18837
#
# Static dielectric constant tensor:
#      x y z
#    x 1.992630 0.000000 -0.072390 
#    y 0.000000 1.937070 0.000000 
#    z -0.072390 0.000000 1.846970 
# 
# From -- ./inp_files/310528.got.cif
#   From: 2010.05.17/outbox.cif.g08.bks.cpg/sg12_156_cif.got.tgz:310528.got - 2010.06.03 13:09:07.
