data_PCOD9188933
_publ_section_title
;
Structure prediction by ZEFSAII (Michael W. Deem and Ramdas Pophale) SiO2 
 PCOD9188933
Probable space group: C 2/M
;
_chemical_formula_sum "Si O2"
_cell_formula_units_Z 50
_cell_length_a 28.773142
_cell_length_b 9.128299
_cell_length_c 11.567364
_cell_angle_alpha 90.000000
_cell_angle_beta 125.137851
_cell_angle_gamma 90.000000
_cell_volume 2484.520307
_symmetry_space_group_name_H-M "C 2/M"
_symmetry_group_IT_number 12
_symmetry_cell_setting 'monoclinic'
loop_
_space_group_symop_operation_xyz
x,y,z
-x,y,-z
-x,-y,-z
x,-y,z
1/2+x,1/2+y,z
1/2-x,1/2+y,-z
1/2-x,1/2-y,-z
1/2+x,1/2-y,z
loop_
_atom_site_type_symbol
_atom_site_label
_atom_site_fract_x
_atom_site_fract_y
_atom_site_fract_z
Si Si1 0.000000 0.500000 0.000000
Si Si2 0.511082 0.826191 0.653521
Si Si3 0.913262 0.332779 0.880689
Si Si4 0.297150 0.169814 0.856860
Si Si5 0.910076 0.827894 0.644598
Si Si6 0.640135 0.822186 0.829361
Si Si7 0.315748 0.824683 0.361916
O O1 0.968855 0.363515 0.035447
O O2 0.500000 0.810602 0.500000
O O3 0.463627 0.736245 0.652756
O O4 0.576057 0.775906 0.766052
O O5 0.505445 0.000000 0.669861
O O6 0.924077 0.500000 0.836626
O O7 0.855257 0.330697 0.866023
O O8 0.914266 0.212195 0.785677
O O9 0.248267 0.265302 0.729723
O O10 0.278143 0.000000 0.837894
O O11 0.315306 0.226636 0.009404
O O12 0.854374 0.747090 0.515036
O O13 0.905321 0.000000 0.620458
O O14 0.658399 0.781615 0.726386
O O15 0.639897 0.000000 0.833824
O O16 0.317354 0.000000 0.374359
#
# Coordination Sequence:
#
# PCOD9188933 Si02
#       7
#     2   8   8   8   8   8   8
#     4   8  20  40  70  92 114 156 214 246 286 378
#     4  10  19  36  63  90 119 158 206 249 298 369
#     4   9  21  39  66  91 116 160 204 245 299 362
#     4  10  21  38  61  91 120 155 201 257 310 360
#     4  12  25  39  59  91 128 161 202 258 313 362
#     4   9  19  35  62  91 119 157 204 250 303 370
#     4  11  22  40  61  87 121 165 208 249 303 373
#
# _framework density 20.124609
#
# number of rings (size 3 to 8) (size 9 to 14) (size 15 to 20)
#    0.480    1.440    1.600    2.400    2.240    1.600 
#    0.000    2.000    0.000    0.000    0.000    0.000 
#    0.000    0.000    0.000    0.000    0.000    0.000 
#
# Total GULP energy -139288.212173 kJ/mol
# GULP energy per Si atom -5571.528487 kJ/mol
# Density = 2.007880 g / cm^3
# Si number density = 20.124609 Si / 1000 Ang^3
#
#
#
# Elastic Constant Matrix: (Units=GPa)
#
#
# Indices 1 2 3 4 5 6 
#
# 1 70.7586 21.2124 22.5972 0.0000 18.2103 0.0000
# 2 21.2124 78.5717 32.5415 0.0000 5.1244 0.0000
# 3 22.5972 32.5415 81.0812 0.0000 15.1784 0.0000
# 4 0.0000 0.0000 0.0000 25.4313 0.0000 9.1210
# 5 18.2103 5.1244 15.1784 0.0000 34.1895 0.0000
# 6 0.0000 0.0000 0.0000 9.1210 0.0000 24.5368
#
#
#
# Elastic Compliance Matrix: (Units=1/GPa)
#
#
# Indices 1 2 3 4 5 6 
#
# 1 0.017918 -0.003441 -0.002097 0.000000 -0.008097 0.000000
# 2 -0.003441 0.015932 -0.005815 0.000000 0.002026 0.000000
# 3 -0.002097 -0.005815 0.016228 0.000000 -0.005216 0.000000
# 4 0.000000 0.000000 0.000000 0.045370 0.000000 -0.016865
# 5 -0.008097 0.002026 -0.005216 0.000000 0.035573 0.000000
# 6 0.000000 0.000000 0.000000 -0.016865 0.000000 0.047024
#
#
# Mechanical properties :
#
#
# Convention : Reuss Voigt Hill
#
# Bulk Modulus (GPa) = 36.53258 42.56819 39.55038
# Shear Modulus (GPa) = 23.82374 27.10221 25.46297
#
# Velocity S-wave (km/s) = 3.44439 3.67375 3.56092
# Velocity P-wave (km/s) = 5.83190 6.26047 6.04998
#
# Compressibility (1/GPa) = 0.02737283
#
# Stress axis : x y z
#
# Youngs Moduli (GPa) = 55.81135 62.76587 61.62250
#
# Poissons Ratio (x) = 0.21596 0.12922
# Poissons Ratio (y) = 0.19203 0.35831
# Poissons Ratio (z) = 0.11703 0.36496
#
# Static dielectric constant tensor:
#      x y z
#    x 1.764670 0.000000 0.006910 
#    y 0.000000 1.688560 0.000000 
#    z 0.006910 0.000000 1.749310 
# 
# From -- ./inp_files/181248.got.cif
#   From: 2010.05.17/outbox.cif.g08.bks.cpg/sg12_91_cif.got.tgz:181248.got - 2010.06.03 13:09:07.
