data_PCOD9188952
_publ_section_title
;
Structure prediction by ZEFSAII (Michael W. Deem and Ramdas Pophale) SiO2 
 PCOD9188952
Probable space group: C 2/M
;
_chemical_formula_sum "Si O2"
_cell_formula_units_Z 40
_cell_length_a 11.096498
_cell_length_b 15.505792
_cell_length_c 9.839101
_cell_angle_alpha 90.000000
_cell_angle_beta 94.334645
_cell_angle_gamma 90.000000
_cell_volume 1688.073227
_symmetry_space_group_name_H-M "C 2/M"
_symmetry_group_IT_number 12
_symmetry_cell_setting 'monoclinic'
loop_
_space_group_symop_operation_xyz
x,y,z
-x,y,-z
-x,-y,-z
x,-y,z
1/2+x,1/2+y,z
1/2-x,1/2+y,-z
1/2-x,1/2-y,-z
1/2+x,1/2-y,z
loop_
_atom_site_type_symbol
_atom_site_label
_atom_site_fract_x
_atom_site_fract_y
_atom_site_fract_z
Si Si1 0.366886 0.104926 0.932532
Si Si2 0.226432 0.097969 0.176563
Si Si3 0.868148 0.652618 0.421697
Si Si4 0.771509 0.840760 0.327339
Si Si5 0.518410 0.599385 0.348939
O O1 0.334898 0.151850 0.790025
O O2 0.358864 0.000000 0.915214
O O3 0.500000 0.123829 0.000000
O O4 0.270737 0.135320 0.038613
O O5 0.342661 0.096490 0.286673
O O6 0.117678 0.138506 0.256365
O O7 0.188368 0.000000 0.143214
O O8 0.824020 0.746466 0.365862
O O9 0.778061 0.623513 0.534230
O O10 0.000000 0.653138 0.500000
O O11 0.884453 0.893620 0.278265
O O12 0.500000 0.636417 0.500000
O O13 0.554143 0.500000 0.371507
#
# Coordination Sequence:
#
# PCOD9188952 Si02
#       5
#     8   8   8   8   8
#     4  10  22  42  65  93 130 167 209 259 314 378
#     4  10  22  40  64  95 127 164 213 263 311 373
#     4  11  24  39  62  92 125 164 212 261 307 376
#     4  11  23  38  62  89 125 169 210 250 320 369
#     4  10  19  36  63  93 125 160 210 264 312 368
#
# _framework density 23.695654000000001
#
# number of rings (size 3 to 8) (size 9 to 14) (size 15 to 20)
#    0.000    1.600    2.000    2.400    2.800    2.800 
#    0.000    3.000    0.000    0.000    0.000    0.000 
#    0.000    0.000    0.000    0.000    0.000    0.000 
#
# Total GULP energy -111685.307076 kJ/mol
# GULP energy per Si atom -5584.265354 kJ/mol
# Density = 2.364172 g / cm^3
# Si number density = 23.695654 Si / 1000 Ang^3
#
#
#
# Elastic Constant Matrix: (Units=GPa)
#
#
# Indices 1 2 3 4 5 6 
#
# 1 99.0793 14.3618 14.9569 0.0000 1.2958 0.0000
# 2 14.3618 44.0576 5.7746 0.0000 -1.1270 0.0000
# 3 14.9569 5.7746 106.6326 0.0000 -7.4998 0.0000
# 4 0.0000 0.0000 0.0000 21.8303 0.0000 10.7350
# 5 1.2958 -1.1270 -7.4998 0.0000 48.5542 0.0000
# 6 0.0000 0.0000 0.0000 10.7350 0.0000 19.4128
#
#
#
# Elastic Compliance Matrix: (Units=1/GPa)
#
#
# Indices 1 2 3 4 5 6 
#
# 1 0.010794 -0.003353 -0.001373 0.000000 -0.000578 0.000000
# 2 -0.003353 0.023907 -0.000788 0.000000 0.000523 0.000000
# 3 -0.001373 -0.000788 0.009720 0.000000 0.001520 0.000000
# 4 0.000000 0.000000 0.000000 0.062917 0.000000 -0.034792
# 5 -0.000578 0.000523 0.001520 0.000000 0.020858 0.000000
# 6 0.000000 0.000000 0.000000 -0.034792 0.000000 0.070752
#
#
# Mechanical properties :
#
#
# Convention : Reuss Voigt Hill
#
# Bulk Modulus (GPa) = 29.94612 35.55066 32.74839
# Shear Modulus (GPa) = 22.61347 32.27121 27.44234
#
# Velocity S-wave (km/s) = 3.09257 3.69440 3.40680
# Velocity P-wave (km/s) = 5.04155 5.76487 5.41530
#
# Compressibility (1/GPa) = 0.03339330
#
# Stress axis : x y z
#
# Youngs Moduli (GPa) = 92.64548 41.82828 102.87935
#
# Poissons Ratio (x) = 0.14027 0.14126
# Poissons Ratio (y) = 0.31067 0.08102
# Poissons Ratio (z) = 0.12721 0.03294
#
# Static dielectric constant tensor:
#      x y z
#    x 1.970690 0.000000 0.019400 
#    y 0.000000 1.909520 0.000000 
#    z 0.019400 0.000000 1.882550 
# 
# From -- ./inp_files/46965.got.cif
#   From: 2010.05.17/outbox.cif.g08.bks.cpg/sg12_24_cif.got.tgz:46965.got - 2010.06.03 13:09:07.
