data_PCOD9188406
_publ_section_title
;
Structure prediction by ZEFSAII (Michael W. Deem and Ramdas Pophale) SiO2 
 PCOD9188406
Probable space group: C 2/M
;
_chemical_formula_sum "Si O2"
_cell_formula_units_Z 60
_cell_length_a 11.006984
_cell_length_b 31.170438
_cell_length_c 11.666042
_cell_angle_alpha 90.000000
_cell_angle_beta 126.014389
_cell_angle_gamma 90.000000
_cell_volume 3237.525202
_symmetry_space_group_name_H-M "C 2/M"
_symmetry_group_IT_number 12
_symmetry_cell_setting 'monoclinic'
loop_
_space_group_symop_operation_xyz
x,y,z
-x,y,-z
-x,-y,-z
x,-y,z
1/2+x,1/2+y,z
1/2-x,1/2+y,-z
1/2-x,1/2-y,-z
1/2+x,1/2-y,z
loop_
_atom_site_type_symbol
_atom_site_label
_atom_site_fract_x
_atom_site_fract_y
_atom_site_fract_z
Si Si1 0.601615 0.148862 0.316681
Si Si2 0.500000 0.823141 0.500000
Si Si3 0.642224 0.218280 0.153181
Si Si4 0.764358 0.624501 0.080393
Si Si5 0.857830 0.091891 0.353258
Si Si6 0.079628 0.831231 0.776492
Si Si7 0.804167 0.811687 0.760464
Si Si8 0.832297 0.449380 0.952579
O O1 0.577231 0.151184 0.439216
O O2 0.640633 0.194063 0.275639
O O3 0.438019 0.138359 0.174451
O O4 0.723018 0.112522 0.353279
O O5 0.636101 0.798478 0.632967
O O6 0.802399 0.205533 0.189116
O O7 0.631679 0.269362 0.145571
O O8 0.500000 0.201524 0.000000
O O9 0.707455 0.644585 0.170398
O O10 0.655826 0.647584 0.930245
O O11 0.778067 0.576293 0.036417
O O12 0.921584 0.133347 0.322300
O O13 0.781051 0.062214 0.214191
O O14 0.000000 0.072736 0.500000
O O15 0.912105 0.818334 0.713026
O O16 0.835837 0.500000 0.975930
O O17 0.000000 0.436246 0.000000
#
# Coordination Sequence:
#
# PCOD9188406 Si02
#       8
#     8   4   8   8   8   8   8   8
#     4  10  20  37  57  79 116 160 203 245 290 356
#     4  10  24  40  50  74 115 166 208 236 307 356
#     4  11  22  35  58  83 114 150 206 265 305 334
#     4  10  19  36  59  83 115 150 190 242 300 356
#     4  10  20  35  59  86 119 158 193 242 299 358
#     4  10  21  35  56  83 114 148 203 249 293 353
#     4  11  24  37  54  81 114 160 202 251 299 359
#     4  10  20  36  63  96 121 146 195 252 304 363
#
# _framework density 18.532675000000001
#
# number of rings (size 3 to 8) (size 9 to 14) (size 15 to 20)
#    0.000    1.733    2.667    2.000    3.733    1.867 
#    4.800    0.000    0.000    6.400    0.000   13.533 
#    0.000    0.000    0.000    0.000    0.000    0.000 
#
# Total GULP energy -167003.904410 kJ/mol
# GULP energy per Si atom -5566.796814 kJ/mol
# Density = 1.849049 g / cm^3
# Si number density = 18.532675 Si / 1000 Ang^3
#
#
#
# Elastic Constant Matrix: (Units=GPa)
#
#
# Indices 1 2 3 4 5 6 
#
# 1 100.5427 19.4363 11.2969 0.0000 -6.0323 0.0000
# 2 19.4363 55.5791 0.4364 0.0000 -13.1761 0.0000
# 3 11.2969 0.4364 73.6411 0.0000 7.0400 0.0000
# 4 0.0000 0.0000 0.0000 5.4950 0.0000 10.2168
# 5 -6.0323 -13.1761 7.0400 0.0000 26.8299 0.0000
# 6 0.0000 0.0000 0.0000 10.2168 0.0000 8.5977
#
#
#
# Elastic Compliance Matrix: (Units=1/GPa)
#
#
# Indices 1 2 3 4 5 6 
#
# 1 0.010895 -0.003515 -0.001764 0.000000 0.001186 0.000000
# 2 -0.003515 0.021585 -0.000540 0.000000 0.009952 0.000000
# 3 -0.001764 -0.000540 0.014274 0.000000 -0.004407 0.000000
# 4 0.000000 0.000000 0.000000 -0.150471 0.000000 0.178807
# 5 0.001186 0.009952 -0.004407 0.000000 0.043582 0.000000
# 6 0.000000 0.000000 0.000000 0.178807 0.000000 -0.096170
#
#
# Mechanical properties :
#
#
# Convention : Reuss Voigt Hill
#
# Bulk Modulus (GPa) = 28.47654 32.45579 30.46616
# Shear Modulus (GPa) = -37.60531 21.42407 -8.09062
#
# Velocity S-wave (km/s) = -4.50948 3.40371 -2.09167
# Velocity P-wave (km/s) = 3.42271 5.74437 3.26212
#
# Compressibility (1/GPa) = 0.03511662
#
# Stress axis : x y z
#
# Youngs Moduli (GPa) = 91.78641 46.32825 70.05500
#
# Poissons Ratio (x) = 0.16284 0.12357
# Poissons Ratio (y) = 0.32262 0.03784
# Poissons Ratio (z) = 0.16190 0.02502
#
# Static dielectric constant tensor:
#      x y z
#    x 1.670960 0.000000 -0.016710 
#    y 0.000000 1.620980 0.000000 
#    z -0.016710 0.000000 1.684170 
# 
# From -- ./inp_files/137622.got.cif
#   From: 2010.05.17/outbox.cif.g08.bks.cpg/sg12_69_cif.got.tgz:137622.got - 2010.06.03 13:09:07.
