data_PCOD9188573
_publ_section_title
;
Structure prediction by ZEFSAII (Michael W. Deem and Ramdas Pophale) SiO2 
 PCOD9188573
Probable space group: C 2/M
;
_chemical_formula_sum "Si O2"
_cell_formula_units_Z 64
_cell_length_a 15.804782
_cell_length_b 22.807663
_cell_length_c 8.325390
_cell_angle_alpha 90.000000
_cell_angle_beta 95.199553
_cell_angle_gamma 90.000000
_cell_volume 2988.705490
_symmetry_space_group_name_H-M "C 2/M"
_symmetry_group_IT_number 12
_symmetry_cell_setting 'monoclinic'
loop_
_space_group_symop_operation_xyz
x,y,z
-x,y,-z
-x,-y,-z
x,-y,z
1/2+x,1/2+y,z
1/2-x,1/2+y,-z
1/2-x,1/2-y,-z
1/2+x,1/2-y,z
loop_
_atom_site_type_symbol
_atom_site_label
_atom_site_fract_x
_atom_site_fract_y
_atom_site_fract_z
Si Si1 0.446867 0.745049 0.239746
Si Si2 0.282781 0.899794 0.512207
Si Si3 0.257182 0.933722 0.861918
Si Si4 0.302020 0.670057 0.740994
Si Si5 0.631027 0.149822 0.914273
Si Si6 0.626992 0.224920 0.426049
Si Si7 0.439664 0.934294 0.346735
Si Si8 0.912991 0.127875 0.045692
O O1 0.412840 0.786960 0.090126
O O2 0.393196 0.754980 0.394925
O O3 0.539703 0.766634 0.311457
O O4 0.436710 0.678535 0.178302
O O5 0.260509 0.931693 0.671032
O O6 0.201147 0.879314 0.397361
O O7 0.334540 0.839885 0.561831
O O8 0.346151 0.935286 0.408600
O O9 0.164375 0.912067 0.904410
O O10 0.274295 0.000000 0.923896
O O11 0.329045 0.887765 0.935249
O O12 0.214058 0.662271 0.819751
O O13 0.309503 0.731675 0.654281
O O14 0.374477 0.660083 0.882772
O O15 0.566543 0.108483 0.804394
O O16 0.500000 0.911992 0.500000
O O17 0.467611 0.000000 0.308752
O O18 0.000000 0.098067 0.000000
#
# Coordination Sequence:
#
# PCOD9188573 Si02
#       8
#     8   8   8   8   8   8   8   8
#     4  11  22  37  62  95 132 167 200 248 311 380
#     4  11  22  38  61  90 124 161 211 261 307 365
#     4  11  26  44  65  89 121 166 215 268 313 361
#     4  10  21  37  60  91 124 162 200 250 315 374
#     4  10  22  37  60  89 125 162 209 255 313 367
#     4  11  21  36  59  94 132 166 198 246 310 375
#     4  10  19  36  60  85 121 168 217 255 301 364
#     4  11  24  43  65  94 126 164 205 258 319 380
#
# _framework density 21.413952999999999
#
# number of rings (size 3 to 8) (size 9 to 14) (size 15 to 20)
#    0.000    1.375    3.750    2.625    3.500    1.250 
#    0.000    2.500    0.000    5.250    0.000    0.000 
#    0.000    0.000    0.000    0.000    0.000    0.000 
#
# Total GULP energy -178730.280430 kJ/mol
# GULP energy per Si atom -5585.321263 kJ/mol
# Density = 2.136521 g / cm^3
# Si number density = 21.413953 Si / 1000 Ang^3
#
#
#
# Elastic Constant Matrix: (Units=GPa)
#
#
# Indices 1 2 3 4 5 6 
#
# 1 47.0814 0.7584 10.8221 0.0000 12.3213 0.0000
# 2 0.7584 61.5170 13.8353 0.0000 -4.6200 0.0000
# 3 10.8221 13.8353 67.5485 0.0000 6.4374 0.0000
# 4 0.0000 0.0000 0.0000 19.2715 0.0000 1.3315
# 5 12.3213 -4.6200 6.4374 0.0000 28.0391 0.0000
# 6 0.0000 0.0000 0.0000 1.3315 0.0000 16.3725
#
#
#
# Elastic Compliance Matrix: (Units=1/GPa)
#
#
# Indices 1 2 3 4 5 6 
#
# 1 0.024580 -0.000422 -0.002879 0.000000 -0.010210 0.000000
# 2 -0.000422 0.017430 -0.003879 0.000000 0.003948 0.000000
# 3 -0.002879 -0.003879 0.016358 0.000000 -0.003130 0.000000
# 4 0.000000 0.000000 0.000000 0.052183 0.000000 -0.004244
# 5 -0.010210 0.003948 -0.003130 0.000000 0.041520 0.000000
# 6 0.000000 0.000000 0.000000 -0.004244 0.000000 0.061423
#
#
# Mechanical properties :
#
#
# Convention : Reuss Voigt Hill
#
# Bulk Modulus (GPa) = 22.72261 25.21985 23.97123
# Shear Modulus (GPa) = 20.61658 22.78535 21.70097
#
# Velocity S-wave (km/s) = 3.10621 3.26550 3.18685
# Velocity P-wave (km/s) = 4.84756 5.10107 4.97593
#
# Compressibility (1/GPa) = 0.04400902
#
# Stress axis : x y z
#
# Youngs Moduli (GPa) = 40.68304 57.37345 61.13213
#
# Poissons Ratio (x) = 0.02424 0.17597
# Poissons Ratio (y) = 0.01719 0.23710
# Poissons Ratio (z) = 0.11711 0.22252
#
# Static dielectric constant tensor:
#      x y z
#    x 1.810500 0.000000 0.017480 
#    y 0.000000 1.790750 0.000000 
#    z 0.017480 0.000000 1.797650 
# 
# From -- ./inp_files/78818.got.cif
#   From: 2010.05.17/outbox.cif.g08.bks.cpg/sg12_40_cif.got.tgz:78818.got - 2010.06.03 13:09:07.
