data_PCOD9188611
_publ_section_title
;
Structure prediction by ZEFSAII (Michael W. Deem and Ramdas Pophale) SiO2 
 PCOD9188611
Probable space group: C 2/M
;
_chemical_formula_sum "Si O2"
_cell_formula_units_Z 40
_cell_length_a 14.764323
_cell_length_b 27.659404
_cell_length_c 9.621478
_cell_angle_alpha 90.000000
_cell_angle_beta 27.953939
_cell_angle_gamma 90.000000
_cell_volume 1841.832662
_symmetry_space_group_name_H-M "C 2/M"
_symmetry_group_IT_number 12
_symmetry_cell_setting 'monoclinic'
loop_
_space_group_symop_operation_xyz
x,y,z
-x,y,-z
-x,-y,-z
x,-y,z
1/2+x,1/2+y,z
1/2-x,1/2+y,-z
1/2-x,1/2-y,-z
1/2+x,1/2-y,z
loop_
_atom_site_type_symbol
_atom_site_label
_atom_site_fract_x
_atom_site_fract_y
_atom_site_fract_z
Si Si1 0.719797 0.855436 0.242448
Si Si2 0.210602 0.611107 0.703880
Si Si3 0.194781 0.825758 0.173605
Si Si4 0.360724 0.202693 0.396132
Si Si5 0.712090 0.447371 0.658760
O O1 0.500000 0.848358 0.500000
O O2 0.752632 0.815157 0.313559
O O3 0.715121 0.906166 0.332980
O O4 0.835225 0.844605 0.943952
O O5 0.281163 0.627306 0.758958
O O6 0.176845 0.661223 0.666909
O O7 0.315556 0.575531 0.456663
O O8 0.000000 0.587725 0.000000
O O9 0.000000 0.800688 0.500000
O O10 0.402740 0.797320 0.901960
O O11 0.250000 0.250000 0.500000
O O12 0.813265 0.500000 0.520756
O O13 0.500000 0.454503 0.000000
#
# Coordination Sequence:
#
# PCOD9188611 Si02
#       5
#     8   8   8   8   8
#     4   9  19  37  61  85 116 155 196 246 299 353
#     4   9  19  37  58  81 115 155 194 241 295 355
#     4  10  19  36  60  87 117 151 196 253 307 346
#     4   9  19  39  61  81 112 159 204 238 293 369
#     4  10  20  35  57  86 118 156 199 238 290 363
#
# _framework density 21.717499
#
# number of rings (size 3 to 8) (size 9 to 14) (size 15 to 20)
#    0.000    2.600    0.000    2.400    0.000    0.800 
#    0.000   25.000    0.000    3.600    0.000    0.000 
#    0.000    0.000    0.000    0.000    0.000    0.000 
#
# Total GULP energy -111365.628300 kJ/mol
# GULP energy per Si atom -5568.281415 kJ/mol
# Density = 2.166807 g / cm^3
# Si number density = 21.717499 Si / 1000 Ang^3
#
#
#
# Elastic Constant Matrix: (Units=GPa)
#
#
# Indices 1 2 3 4 5 6 
#
# 1 104.2751 49.0323 45.0264 0.0000 34.0514 0.0000
# 2 49.0323 122.8007 41.2330 0.0000 15.1251 0.0000
# 3 45.0264 41.2330 124.6230 0.0000 26.7925 0.0001
# 4 0.0000 0.0000 0.0000 17.3500 0.0000 -7.7738
# 5 34.0514 15.1251 26.7925 0.0000 45.5380 0.0000
# 6 0.0000 0.0000 0.0001 -7.7738 0.0000 3.5953
#
#
#
# Elastic Compliance Matrix: (Units=1/GPa)
#
#
# Indices 1 2 3 4 5 6 
#
# 1 0.015483 -0.004337 -0.002266 0.000001 -0.008803 0.000002
# 2 -0.004337 0.010459 -0.002111 0.000002 0.001011 0.000004
# 3 -0.002266 -0.002111 0.010334 -0.000006 -0.003684 -0.000013
# 4 0.000001 0.000002 -0.000006 1.847018 0.000004 3.993650
# 5 -0.008803 0.001011 -0.003684 0.000004 0.030374 0.000009
# 6 0.000002 0.000004 -0.000013 3.993650 0.000009 8.913274
#
#
# Mechanical properties :
#
#
# Convention : Reuss Voigt Hill
#
# Bulk Modulus (GPa) = 53.05857 69.14246 61.10051
# Shear Modulus (GPa) = 0.46080 27.72378 14.09229
#
# Velocity S-wave (km/s) = 0.46113 3.57678 2.55010
# Velocity P-wave (km/s) = 4.97673 6.99744 6.07174
#
# Compressibility (1/GPa) = 0.01884710
#
# Stress axis : x y z
#
# Youngs Moduli (GPa) = 64.58842 95.61013 96.77254
#
# Poissons Ratio (x) = 0.41463 0.21933
# Poissons Ratio (y) = 0.28010 0.20429
# Poissons Ratio (z) = 0.14639 0.20183
#
# Static dielectric constant tensor:
#      x y z
#    x 1.695340 0.000000 -0.189690 
#    y 0.000000 1.972800 0.000000 
#    z -0.189690 0.000000 1.661480 
# 
# From -- ./inp_files/68458.got.cif
#   From: 2010.05.17/outbox.cif.g08.bks.cpg/sg12_35_cif.got.tgz:68458.got - 2010.06.03 13:09:07.
