data_PCOD9188192
_publ_section_title
;
Structure prediction by ZEFSAII (Michael W. Deem and Ramdas Pophale) SiO2 
 PCOD9188192
Probable space group: C 2/M
;
_chemical_formula_sum "Si O2"
_cell_formula_units_Z 24
_cell_length_a 20.727303
_cell_length_b 8.025702
_cell_length_c 9.148623
_cell_angle_alpha 90.000000
_cell_angle_beta 108.281312
_cell_angle_gamma 90.000000
_cell_volume 1445.071250
_symmetry_space_group_name_H-M "C 2/M"
_symmetry_group_IT_number 12
_symmetry_cell_setting 'monoclinic'
loop_
_space_group_symop_operation_xyz
x,y,z
-x,y,-z
-x,-y,-z
x,-y,z
1/2+x,1/2+y,z
1/2-x,1/2+y,-z
1/2-x,1/2-y,-z
1/2+x,1/2-y,z
loop_
_atom_site_type_symbol
_atom_site_label
_atom_site_fract_x
_atom_site_fract_y
_atom_site_fract_z
Si Si1 0.562861 0.000000 0.838599
Si Si2 0.071440 0.188006 0.634926
Si Si3 0.903620 0.500000 0.806180
Si Si4 0.674713 0.187902 0.477156
O O1 0.579172 0.165915 0.758353
O O2 0.481773 0.000000 0.811281
O O3 0.598637 0.000000 0.021615
O O4 0.131024 0.204090 0.557504
O O5 0.000000 0.216166 0.500000
O O6 0.070546 0.000000 0.695223
O O7 0.866275 0.657072 0.703242
O O8 0.750000 0.250000 0.500000
O O9 0.678098 0.000000 0.543033
#
# Coordination Sequence:
#
# PCOD9188192 Si02
#       4
#     4   8   4   8
#     4  11  18  41  58  85 122 138 188 240 289 334
#     4  11  20  34  60  87 109 150 195 231 280 335
#     4   9  21  34  63  82 114 156 176 239 296 323
#     4  10  19  36  57  83 111 148 194 232 276 334
#
# _framework density 16.608177000000001
#
# number of rings (size 3 to 8) (size 9 to 14) (size 15 to 20)
#    1.000    0.667    5.000    1.500    0.000    0.000 
#    0.000    8.333    0.000    0.000    0.000    0.000 
#    0.000    0.000    0.000    0.000    0.000    0.000 
#
# Total GULP energy -66825.482769 kJ/mol
# GULP energy per Si atom -5568.790231 kJ/mol
# Density = 1.657038 g / cm^3
# Si number density = 16.608177 Si / 1000 Ang^3
#
#
#
# Elastic Constant Matrix: (Units=GPa)
#
#
# Indices 1 2 3 4 5 6 
#
# 1 101.6074 13.1539 44.5973 0.0000 -9.0757 0.0000
# 2 13.1539 104.5763 62.1254 0.0000 -8.0925 0.0000
# 3 44.5973 62.1254 126.4378 0.0000 -5.0889 0.0000
# 4 0.0000 0.0000 0.0000 3.0459 0.0000 -4.4483
# 5 -9.0757 -8.0925 -5.0889 0.0000 19.3109 0.0000
# 6 0.0000 0.0000 0.0000 -4.4483 0.0000 32.6163
#
#
#
# Elastic Compliance Matrix: (Units=1/GPa)
#
#
# Indices 1 2 3 4 5 6 
#
# 1 0.012275 0.001846 -0.005027 0.000000 0.005218 0.000000
# 2 0.001846 0.014087 -0.007379 0.000000 0.004827 0.000000
# 3 -0.005027 -0.007379 0.013228 0.000000 -0.001969 0.000000
# 4 0.000000 0.000000 0.000000 0.409960 0.000000 0.055911
# 5 0.005218 0.004827 -0.001969 0.000000 0.055741 0.000000
# 6 0.000000 0.000000 0.000000 0.055911 0.000000 0.038285
#
#
# Mechanical properties :
#
#
# Convention : Reuss Voigt Hill
#
# Bulk Modulus (GPa) = 54.13607 63.59722 58.86665
# Shear Modulus (GPa) = 8.75884 25.17761 16.96822
#
# Velocity S-wave (km/s) = 2.29897 3.89778 3.19984
# Velocity P-wave (km/s) = 6.30189 7.65720 7.01237
#
# Compressibility (1/GPa) = 0.01847197
#
# Stress axis : x y z
#
# Youngs Moduli (GPa) = 81.46481 70.98709 75.59537
#
# Poissons Ratio (x) = -0.13104 0.38000
# Poissons Ratio (y) = -0.15039 0.55779
# Poissons Ratio (z) = 0.40950 0.52378
#
# Static dielectric constant tensor:
#      x y z
#    x 1.549390 0.000000 0.000640 
#    y 0.000000 1.577980 0.000000 
#    z 0.000640 0.000000 1.541940 
# 
# From -- ./inp_files/69349.got.cif
#   From: 2010.05.17/outbox.cif.g08.bks.cpg/sg12_35_cif.got.tgz:69349.got - 2010.06.03 13:09:07.
