data_PCOD9188655
_publ_section_title
;
Structure prediction by ZEFSAII (Michael W. Deem and Ramdas Pophale) SiO2 
 PCOD9188655
Probable space group: C 2/M
;
_chemical_formula_sum "Si O2"
_cell_formula_units_Z 56
_cell_length_a 17.868228
_cell_length_b 28.636448
_cell_length_c 9.627105
_cell_angle_alpha 90.000000
_cell_angle_beta 140.452617
_cell_angle_gamma 90.000000
_cell_volume 3136.477618
_symmetry_space_group_name_H-M "C 2/M"
_symmetry_group_IT_number 12
_symmetry_cell_setting 'monoclinic'
loop_
_space_group_symop_operation_xyz
x,y,z
-x,y,-z
-x,-y,-z
x,-y,z
1/2+x,1/2+y,z
1/2-x,1/2+y,-z
1/2-x,1/2-y,-z
1/2+x,1/2-y,z
loop_
_atom_site_type_symbol
_atom_site_label
_atom_site_fract_x
_atom_site_fract_y
_atom_site_fract_z
Si Si1 0.480765 0.948240 0.308565
Si Si2 0.903038 0.648564 0.138278
Si Si3 0.872179 0.553200 0.741091
Si Si4 0.263841 0.848370 0.663601
Si Si5 0.524745 0.699931 0.372525
Si Si6 0.267292 0.294984 0.924030
Si Si7 0.862843 0.294866 0.543297
O O1 0.500000 0.942417 0.500000
O O2 0.399926 0.906968 0.139927
O O3 0.597004 0.944889 0.379227
O O4 0.432100 0.000000 0.214546
O O5 0.825205 0.668432 0.149298
O O6 0.035322 0.667151 0.343294
O O7 0.847105 0.664262 0.912936
O O8 0.830904 0.500000 0.713680
O O9 0.792740 0.597676 0.666400
O O10 0.000000 0.558675 0.000000
O O11 0.129220 0.837565 0.511076
O O12 0.300008 0.814388 0.589466
O O13 0.500000 0.711490 0.500000
O O14 0.567726 0.746067 0.352832
O O15 0.399174 0.686862 0.129822
O O16 0.230044 0.286698 0.713010
O O17 0.250000 0.250000 0.000000
#
# Coordination Sequence:
#
# PCOD9188655 Si02
#       7
#     8   8   8   8   8   8   8
#     4  10  20  34  57  92 127 157 194 247 311 370
#     4  12  21  37  63  87 124 158 197 249 307 363
#     4  10  19  36  60  90 126 157 195 253 314 358
#     4  12  24  39  60  92 124 158 202 254 305 365
#     4  12  24  42  59  82 121 168 207 243 303 369
#     4  12  23  40  61  82 117 166 203 247 299 366
#     4  12  23  39  61  89 116 154 205 254 305 353
#
# _framework density 17.854424000000002
#
# number of rings (size 3 to 8) (size 9 to 14) (size 15 to 20)
#    0.000    0.571    7.143    2.143    0.000    0.571 
#    2.571    0.000    0.000    1.286    0.000    1.000 
#    0.000    0.000    0.000    0.000    0.000    0.000 
#
# Total GULP energy -156307.114307 kJ/mol
# GULP energy per Si atom -5582.396940 kJ/mol
# Density = 1.781379 g / cm^3
# Si number density = 17.854424 Si / 1000 Ang^3
#
#
#
# Elastic Constant Matrix: (Units=GPa)
#
#
# Indices 1 2 3 4 5 6 
#
# 1 76.1940 32.7172 26.7073 0.0000 1.8896 0.0000
# 2 32.7172 77.6911 -2.0399 0.0000 4.0145 0.0000
# 3 26.7073 -2.0399 84.9533 0.0000 -2.5396 0.0000
# 4 0.0000 0.0000 0.0000 14.6464 0.0000 -7.5329
# 5 1.8896 4.0145 -2.5396 0.0000 31.4201 0.0000
# 6 0.0000 0.0000 0.0000 -7.5329 0.0000 23.7319
#
#
#
# Elastic Compliance Matrix: (Units=1/GPa)
#
#
# Indices 1 2 3 4 5 6 
#
# 1 0.018715 -0.008010 -0.006094 0.000000 -0.000595 0.000000
# 2 -0.008010 0.016391 0.002871 0.000000 -0.001381 0.000000
# 3 -0.006094 0.002871 0.013789 0.000000 0.001114 0.000000
# 4 0.000000 0.000000 0.000000 0.081597 0.000000 0.025901
# 5 -0.000595 -0.001381 0.001114 0.000000 0.032129 0.000000
# 6 0.000000 0.000000 0.000000 0.025901 0.000000 0.050359
#
#
# Mechanical properties :
#
#
# Convention : Reuss Voigt Hill
#
# Bulk Modulus (GPa) = 37.83787 39.28976 38.56381
# Shear Modulus (GPa) = 20.47028 26.05659 23.26343
#
# Velocity S-wave (km/s) = 3.38969 3.82434 3.61356
# Velocity P-wave (km/s) = 6.04636 6.44625 6.24950
#
# Compressibility (1/GPa) = 0.02642855
#
# Stress axis : x y z
#
# Youngs Moduli (GPa) = 53.43417 61.00724 72.52119
#
# Poissons Ratio (x) = 0.48869 0.44191
# Poissons Ratio (y) = 0.42803 -0.20818
# Poissons Ratio (z) = 0.32560 -0.17513
#
# Static dielectric constant tensor:
#      x y z
#    x 1.631680 0.000000 -0.033520 
#    y 0.000000 1.642840 0.000000 
#    z -0.033520 0.000000 1.621430 
# 
# From -- ./inp_files/53179.got.cif
#   From: 2010.05.17/outbox.cif.g08.bks.cpg/sg12_27_cif.got.tgz:53179.got - 2010.06.03 13:09:07.
