data_PCOD9188104
_publ_section_title
;
Structure prediction by ZEFSAII (Michael W. Deem and Ramdas Pophale) SiO2 
 PCOD9188104
Probable space group: C 2/M
;
_chemical_formula_sum "Si O2"
_cell_formula_units_Z 52
_cell_length_a 8.236503
_cell_length_b 20.667936
_cell_length_c 16.900345
_cell_angle_alpha 90.000000
_cell_angle_beta 111.737132
_cell_angle_gamma 90.000000
_cell_volume 2672.397850
_symmetry_space_group_name_H-M "C 2/M"
_symmetry_group_IT_number 12
_symmetry_cell_setting 'monoclinic'
loop_
_space_group_symop_operation_xyz
x,y,z
-x,y,-z
-x,-y,-z
x,-y,z
1/2+x,1/2+y,z
1/2-x,1/2+y,-z
1/2-x,1/2-y,-z
1/2+x,1/2-y,z
loop_
_atom_site_type_symbol
_atom_site_label
_atom_site_fract_x
_atom_site_fract_y
_atom_site_fract_z
Si Si1 0.136038 0.694407 0.878670
Si Si2 0.334427 0.391043 0.364837
Si Si3 0.225472 0.074557 0.468758
Si Si4 0.659956 0.846589 0.654935
Si Si5 0.500000 0.722186 0.000000
Si Si6 0.523215 0.729340 0.702096
Si Si7 0.522622 0.072725 0.773213
O O1 0.109440 0.740828 0.797051
O O2 0.060322 0.732175 0.939437
O O3 0.043797 0.626655 0.844309
O O4 0.338251 0.682693 0.935772
O O5 0.281995 0.390577 0.447776
O O6 0.525245 0.424160 0.400159
O O7 0.362842 0.323217 0.324963
O O8 0.177378 0.426350 0.292290
O O9 0.336526 0.113785 0.425111
O O10 0.279933 0.000000 0.488909
O O11 0.512512 0.792064 0.643176
O O12 0.637381 0.898067 0.721526
O O13 0.841831 0.806137 0.690013
O O14 0.574365 0.000000 0.802973
#
# Coordination Sequence:
#
# PCOD9188104 Si02
#       7
#     8   8   8   8   4   8   8
#     4  10  20  36  58  83 110 135 173 222 267 332
#     4  10  20  34  57  78 108 147 188 232 272 314
#     4  10  20  36  53  78 111 150 191 231 272 320
#     4  10  21  34  55  78 110 146 187 233 272 316
#     4  10  20  36  62  86 104 136 172 214 280 326
#     4  10  19  36  56  82 108 140 181 229 278 319
#     4  11  21  36  56  82 111 148 184 221 267 322
#
# _framework density 19.458179999999999
#
# number of rings (size 3 to 8) (size 9 to 14) (size 15 to 20)
#    0.000    1.846    0.000    6.923    0.000    1.231 
#    0.000    8.462    0.000    0.000    0.000    0.000 
#    0.000    0.000    0.000    0.000    0.000    0.000 
#
# Total GULP energy -145134.713639 kJ/mol
# GULP energy per Si atom -5582.104371 kJ/mol
# Density = 1.941389 g / cm^3
# Si number density = 19.458180 Si / 1000 Ang^3
#
#
#
# Elastic Constant Matrix: (Units=GPa)
#
#
# Indices 1 2 3 4 5 6 
#
# 1 60.0271 18.1497 33.7567 0.0000 7.1637 0.0000
# 2 18.1497 123.3751 53.1286 0.0000 -4.2580 0.0000
# 3 33.7567 53.1286 83.9847 0.0000 5.4419 0.0000
# 4 0.0000 0.0000 0.0000 3.7159 0.0000 6.2638
# 5 7.1637 -4.2580 5.4419 0.0000 41.0272 0.0000
# 6 0.0000 0.0000 0.0000 6.2638 0.0000 12.5208
#
#
#
# Elastic Compliance Matrix: (Units=1/GPa)
#
#
# Indices 1 2 3 4 5 6 
#
# 1 0.021838 0.000560 -0.008965 0.000000 -0.002566 0.000000
# 2 0.000560 0.011338 -0.007532 0.000000 0.002078 0.000000
# 3 -0.008965 -0.007532 0.020400 0.000000 -0.001922 0.000000
# 4 0.000000 0.000000 0.000000 1.717272 0.000000 -0.859104
# 5 -0.002566 0.002078 -0.001922 0.000000 0.025293 0.000000
# 6 0.000000 0.000000 0.000000 -0.859104 0.000000 0.509653
#
#
# Mechanical properties :
#
#
# Convention : Reuss Voigt Hill
#
# Bulk Modulus (GPa) = 46.08231 53.05077 49.56654
# Shear Modulus (GPa) = 2.13228 22.27623 12.20426
#
# Velocity S-wave (km/s) = 1.04795 3.38720 2.50712
# Velocity P-wave (km/s) = 5.01980 6.52845 5.82319
#
# Compressibility (1/GPa) = 0.02170030
#
# Stress axis : x y z
#
# Youngs Moduli (GPa) = 45.79219 88.19649 49.02026
#
# Poissons Ratio (x) = -0.04935 0.43947
# Poissons Ratio (y) = -0.02562 0.36923
# Poissons Ratio (z) = 0.41053 0.66431
#
# Static dielectric constant tensor:
#      x y z
#    x 1.747110 0.000000 0.018920 
#    y 0.000000 1.666590 0.000000 
#    z 0.018920 0.000000 1.673780 
# 
# From -- ./inp_files/257727.got.cif
#   From: 2010.05.17/outbox.cif.g08.bks.cpg/sg12_129_cif.got.tgz:257727.got - 2010.06.03 13:09:07.
