data_PCOD9188826
_publ_section_title
;
Structure prediction by ZEFSAII (Michael W. Deem and Ramdas Pophale) SiO2 
 PCOD9188826
Probable space group: C 2/M
;
_chemical_formula_sum "Si O2"
_cell_formula_units_Z 48
_cell_length_a 7.471581
_cell_length_b 26.111835
_cell_length_c 13.487002
_cell_angle_alpha 90.000000
_cell_angle_beta 98.657037
_cell_angle_gamma 90.000000
_cell_volume 2601.291481
_symmetry_space_group_name_H-M "C 2/M"
_symmetry_group_IT_number 12
_symmetry_cell_setting 'monoclinic'
loop_
_space_group_symop_operation_xyz
x,y,z
-x,y,-z
-x,-y,-z
x,-y,z
1/2+x,1/2+y,z
1/2-x,1/2+y,-z
1/2-x,1/2-y,-z
1/2+x,1/2-y,z
loop_
_atom_site_type_symbol
_atom_site_label
_atom_site_fract_x
_atom_site_fract_y
_atom_site_fract_z
Si Si1 0.396068 0.289579 0.895967
Si Si2 0.730576 0.691689 0.791140
Si Si3 0.795367 0.061467 0.573182
Si Si4 0.456806 0.940606 0.265628
Si Si5 0.419029 0.133828 0.094918
Si Si6 0.678003 0.605125 0.640806
O O1 0.552005 0.315606 0.843124
O O2 0.285075 0.251083 0.814624
O O3 0.251787 0.328831 0.929666
O O4 0.500000 0.264614 0.000000
O O5 0.689700 0.663413 0.682949
O O6 0.911741 0.664988 0.846219
O O7 0.634001 0.071042 0.635969
O O8 0.782054 0.094579 0.471885
O O9 0.981952 0.079714 0.639408
O O10 0.801066 0.000000 0.550446
O O11 0.368293 0.908431 0.170947
O O12 0.667136 0.925893 0.288916
O O13 0.433076 0.000000 0.245859
O O14 0.500000 0.112296 0.000000
#
# Coordination Sequence:
#
# PCOD9188826 Si02
#       6
#     8   8   8   8   8   8
#     4  12  21  36  59  81 112 147 195 240 268 332
#     4  11  22  34  56  85 113 143 187 238 283 320
#     4  10  19  36  62  85 111 149 192 232 274 331
#     4  10  21  36  58  86 116 148 187 231 280 338
#     4  11  22  37  56  85 115 149 189 233 285 329
#     4  10  20  34  56  87 114 143 182 237 281 327
#
# _framework density 18.452373999999999
#
# number of rings (size 3 to 8) (size 9 to 14) (size 15 to 20)
#    0.000    1.333    3.333    4.500    0.000    1.667 
#    0.000    0.000    0.000    9.500    0.000    0.000 
#    0.000    0.000    0.000    0.000    0.000    0.000 
#
# Total GULP energy -133742.333442 kJ/mol
# GULP energy per Si atom -5572.597227 kJ/mol
# Density = 1.841038 g / cm^3
# Si number density = 18.452374 Si / 1000 Ang^3
#
#
#
# Elastic Constant Matrix: (Units=GPa)
#
#
# Indices 1 2 3 4 5 6 
#
# 1 93.2313 24.4572 21.6771 0.0000 -3.4733 0.0000
# 2 24.4572 62.7471 51.6250 0.0000 -8.6961 0.0000
# 3 21.6771 51.6250 79.8782 0.0000 -2.0778 0.0000
# 4 0.0000 0.0000 0.0000 -10.8997 0.0000 -46.0217
# 5 -3.4733 -8.6961 -2.0778 0.0000 25.2342 0.0000
# 6 0.0000 0.0000 0.0000 -46.0217 0.0000 -20.7234
#
#
#
# Elastic Compliance Matrix: (Units=1/GPa)
#
#
# Indices 1 2 3 4 5 6 
#
# 1 0.011957 -0.004214 -0.000518 0.000000 0.000151 0.000000
# 2 -0.004214 0.038203 -0.023269 0.000000 0.010669 0.000000
# 3 -0.000518 -0.023269 0.027547 0.000000 -0.005822 0.000000
# 4 0.000000 0.000000 0.000000 0.010952 0.000000 -0.024323
# 5 0.000151 0.010669 -0.005822 0.000000 0.042847 0.000000
# 6 0.000000 0.000000 0.000000 -0.024323 0.000000 0.005761
#
#
# Mechanical properties :
#
#
# Convention : Reuss Voigt Hill
#
# Bulk Modulus (GPa) = 46.07100 47.93059 47.00080
# Shear Modulus (GPa) = 24.93718 7.92873 16.43295
#
# Velocity S-wave (km/s) = 3.68017 2.07514 2.98746
# Velocity P-wave (km/s) = 6.56353 5.63678 6.11773
#
# Compressibility (1/GPa) = 0.02170563
#
# Stress axis : x y z
#
# Youngs Moduli (GPa) = 83.63018 26.17608 36.30173
#
# Poissons Ratio (x) = 0.11030 0.01879
# Poissons Ratio (y) = 0.35241 0.84471
# Poissons Ratio (z) = 0.04329 0.60910
#
# Static dielectric constant tensor:
#      x y z
#    x 1.641800 0.000000 0.007780 
#    y 0.000000 1.653920 0.000000 
#    z 0.007780 0.000000 1.665940 
# 
# From -- ./inp_files/122015.got.cif
#   From: 2010.05.17/outbox.cif.g08.bks.cpg/sg12_62_cif.got.tgz:122015.got - 2010.06.03 13:09:07.
