data_PCOD9188936
_publ_section_title
;
Structure prediction by ZEFSAII (Michael W. Deem and Ramdas Pophale) SiO2 
 PCOD9188936
Probable space group: C 2/M
;
_chemical_formula_sum "Si O2"
_cell_formula_units_Z 56
_cell_length_a 19.030612
_cell_length_b 14.248757
_cell_length_c 14.090189
_cell_angle_alpha 90.000000
_cell_angle_beta 43.107018
_cell_angle_gamma 90.000000
_cell_volume 2610.947528
_symmetry_space_group_name_H-M "C 2/M"
_symmetry_group_IT_number 12
_symmetry_cell_setting 'monoclinic'
loop_
_space_group_symop_operation_xyz
x,y,z
-x,y,-z
-x,-y,-z
x,-y,z
1/2+x,1/2+y,z
1/2-x,1/2+y,-z
1/2-x,1/2-y,-z
1/2+x,1/2-y,z
loop_
_atom_site_type_symbol
_atom_site_label
_atom_site_fract_x
_atom_site_fract_y
_atom_site_fract_z
Si Si1 0.945905 0.894446 0.817735
Si Si2 0.399517 0.259469 0.041506
Si Si3 0.234143 0.782014 0.657591
Si Si4 0.275437 0.850038 0.021351
Si Si5 0.464263 0.288260 0.441456
Si Si6 0.825115 0.605544 0.403496
Si Si7 0.956346 0.600417 0.705349
O O1 0.835486 0.897405 0.872037
O O2 0.022505 0.846407 0.667629
O O3 0.975427 0.000000 0.814714
O O4 0.932961 0.827980 0.922501
O O5 0.326057 0.311575 0.189341
O O6 0.333034 0.174468 0.062333
O O7 0.500000 0.228479 0.000000
O O8 0.348959 0.747362 0.566077
O O9 0.180129 0.689875 0.666333
O O10 0.248737 0.861761 0.563580
O O11 0.250000 0.750000 0.000000
O O12 0.358155 0.896127 0.870230
O O13 0.500000 0.341874 0.500000
O O14 0.537022 0.195876 0.360468
O O15 0.801215 0.500000 0.393424
O O16 0.939929 0.604136 0.333860
O O17 0.955893 0.500000 0.653896
#
# Coordination Sequence:
#
# PCOD9188936 Si02
#       7
#     8   8   8   8   8   8   8
#     4  11  25  43  66  96 133 176 219 268 323 392
#     4  11  23  40  67  98 129 169 216 272 332 389
#     4  10  22  37  63  90 123 168 208 262 320 380
#     4  10  19  38  64  87 125 170 208 261 322 384
#     4  11  23  41  63  90 126 172 217 264 318 382
#     4   9  20  38  60  88 122 163 211 259 315 381
#     4  10  19  36  63  91 119 155 206 267 323 373
#
# _framework density 21.448153000000001
#
# number of rings (size 3 to 8) (size 9 to 14) (size 15 to 20)
#    0.000    1.714    2.857    2.143    6.000    2.000 
#    0.000    2.857    0.000    3.857    0.000    0.000 
#    0.000    0.000    0.000    0.000    0.000    0.000 
#
# Total GULP energy -156333.733062 kJ/mol
# GULP energy per Si atom -5583.347609 kJ/mol
# Density = 2.139934 g / cm^3
# Si number density = 21.448153 Si / 1000 Ang^3
#
#
#
# Elastic Constant Matrix: (Units=GPa)
#
#
# Indices 1 2 3 4 5 6 
#
# 1 90.5631 7.5475 21.3500 0.0000 -0.0043 0.0000
# 2 7.5475 74.8975 -7.8024 0.0000 2.7963 0.0000
# 3 21.3500 -7.8024 83.6342 0.0000 4.2933 0.0000
# 4 0.0000 0.0000 0.0000 -8.3269 0.0000 -1.5108
# 5 -0.0043 2.7963 4.2933 0.0000 31.8814 0.0000
# 6 0.0000 0.0000 0.0000 -1.5108 0.0000 9.5764
#
#
#
# Elastic Compliance Matrix: (Units=1/GPa)
#
#
# Indices 1 2 3 4 5 6 
#
# 1 0.011931 -0.001559 -0.003221 0.000000 0.000572 0.000000
# 2 -0.001559 0.013745 0.001754 0.000000 -0.001442 0.000000
# 3 -0.003221 0.001754 0.013041 0.000000 -0.001910 0.000000
# 4 0.000000 0.000000 0.000000 -0.116751 0.000000 -0.018419
# 5 0.000572 -0.001442 -0.001910 0.000000 0.031750 0.000000
# 6 0.000000 0.000000 0.000000 -0.018419 0.000000 0.101518
#
#
# Mechanical properties :
#
#
# Convention : Reuss Voigt Hill
#
# Bulk Modulus (GPa) = 30.61247 32.36500 31.48874
# Shear Modulus (GPa) = 69.27735 21.82617 45.55176
#
# Velocity S-wave (km/s) = 5.68947 3.19348 4.61348
# Velocity P-wave (km/s) = 7.58049 5.35914 6.56446
#
# Compressibility (1/GPa) = 0.03266643
#
# Stress axis : x y z
#
# Youngs Moduli (GPa) = 83.81359 72.75211 76.68290
#
# Poissons Ratio (x) = 0.11343 0.24697
# Poissons Ratio (y) = 0.13068 -0.13453
# Poissons Ratio (z) = 0.26993 -0.12763
#
# Static dielectric constant tensor:
#      x y z
#    x 1.826390 0.000000 -0.012050 
#    y 0.000000 1.726220 0.000000 
#    z -0.012050 0.000000 1.793460 
# 
# From -- ./inp_files/233674.got.cif
#   From: 2010.05.17/outbox.cif.g08.bks.cpg/sg12_117_cif.got.tgz:233674.got - 2010.06.03 13:09:07.
