data_PCOD9188116
_publ_section_title
;
Structure prediction by ZEFSAII (Michael W. Deem and Ramdas Pophale) SiO2 
 PCOD9188116
Probable space group: C 2/M
;
_chemical_formula_sum "Si O2"
_cell_formula_units_Z 64
_cell_length_a 17.505584
_cell_length_b 21.413615
_cell_length_c 18.522344
_cell_angle_alpha 90.000000
_cell_angle_beta 149.621354
_cell_angle_gamma 90.000000
_cell_volume 3511.284606
_symmetry_space_group_name_H-M "C 2/M"
_symmetry_group_IT_number 12
_symmetry_cell_setting 'monoclinic'
loop_
_space_group_symop_operation_xyz
x,y,z
-x,y,-z
-x,-y,-z
x,-y,z
1/2+x,1/2+y,z
1/2-x,1/2+y,-z
1/2-x,1/2-y,-z
1/2+x,1/2-y,z
loop_
_atom_site_type_symbol
_atom_site_label
_atom_site_fract_x
_atom_site_fract_y
_atom_site_fract_z
Si Si1 0.407663 0.782995 0.492470
Si Si2 0.154647 0.651852 0.407352
Si Si3 0.111260 0.571123 0.864836
Si Si4 0.348918 0.569540 0.330072
Si Si5 0.494608 0.662547 0.341387
Si Si6 0.583715 0.763064 0.212803
Si Si7 0.532251 0.107611 0.108396
Si Si8 0.662231 0.315555 0.938868
O O1 0.500000 0.809739 0.500000
O O2 0.364692 0.826726 0.525528
O O3 0.493920 0.724950 0.600652
O O4 0.253326 0.755614 0.333523
O O5 0.330940 0.642206 0.531354
O O6 0.097917 0.706949 0.305898
O O7 0.043376 0.594405 0.299738
O O8 0.152797 0.500000 0.879211
O O9 0.070093 0.574016 0.916384
O O10 0.234374 0.626218 0.953229
O O11 0.500000 0.568419 0.500000
O O12 0.313915 0.500000 0.275946
O O13 0.389720 0.614690 0.298640
O O14 0.208703 0.592389 0.263394
O O15 0.414664 0.670985 0.200147
O O16 0.517722 0.818683 0.110964
O O17 0.475155 0.703793 0.121364
O O18 0.500000 0.090987 0.000000
O O19 0.750000 0.250000 0.000000
#
# Coordination Sequence:
#
# PCOD9188116 Si02
#       8
#     8   8   8   8   8   8   8   8
#     4  11  19  33  58  89 115 139 188 253 312 340
#     4  10  19  38  58  79 112 151 197 242 291 341
#     4  11  24  39  59  82 116 162 200 235 296 357
#     4  11  23  36  50  77 117 159 193 229 279 340
#     4  11  20  34  57  80 115 156 195 241 281 344
#     4  10  19  36  56  84 117 155 194 234 288 345
#     4  11  22  36  54  82 124 157 190 227 279 346
#     4  12  20  36  59  83 116 153 201 246 284 337
#
# _framework density 18.226946999999999
#
# number of rings (size 3 to 8) (size 9 to 14) (size 15 to 20)
#    0.000    1.125    5.000    5.250    0.000    4.000 
#    2.250    0.000    0.000    0.375    0.000    0.875 
#    0.000    0.000    0.000    0.000    0.000    0.000 
#
# Total GULP energy -178579.060358 kJ/mol
# GULP energy per Si atom -5580.595636 kJ/mol
# Density = 1.818546 g / cm^3
# Si number density = 18.226947 Si / 1000 Ang^3
#
#
#
# Elastic Constant Matrix: (Units=GPa)
#
#
# Indices 1 2 3 4 5 6 
#
# 1 24.5771 -5.1906 -19.7604 -0.0013 7.5499 -0.0003
# 2 -5.1906 81.3600 8.7527 -0.0011 8.9129 -0.0003
# 3 -19.7604 8.7527 52.5484 -0.0029 8.0306 -0.0012
# 4 -0.0013 -0.0011 -0.0029 13.6829 -0.0015 0.7626
# 5 7.5499 8.9129 8.0306 -0.0015 21.1622 -0.0006
# 6 -0.0003 -0.0003 -0.0012 0.7626 -0.0006 9.2025
#
#
#
# Elastic Compliance Matrix: (Units=1/GPa)
#
#
# Indices 1 2 3 4 5 6 
#
# 1 0.090189 0.006927 0.040471 0.000012 -0.050451 0.000004
# 2 0.006927 0.013515 0.001700 0.000001 -0.008808 0.000000
# 3 0.040471 0.001700 0.038515 0.000009 -0.029770 0.000004
# 4 0.000012 0.000001 0.000009 0.073423 -0.000003 -0.006084
# 5 -0.050451 -0.008808 -0.029770 -0.000003 0.080260 0.000000
# 6 0.000004 0.000000 0.000004 -0.006084 0.000000 0.109170
#
#
# Mechanical properties :
#
#
# Convention : Reuss Voigt Hill
#
# Bulk Modulus (GPa) = 4.15949 14.00988 9.08469
# Shear Modulus (GPa) = 12.91941 20.45512 16.68727
#
# Velocity S-wave (km/s) = 2.66523 3.35363 3.02905
# Velocity P-wave (km/s) = 3.42904 4.76433 4.15073
#
# Compressibility (1/GPa) = 0.24041386
#
# Stress axis : x y z
#
# Youngs Moduli (GPa) = 11.08788 73.99156 25.96377
#
# Poissons Ratio (x) = -0.51253 -1.05078
# Poissons Ratio (y) = -0.07680 -0.04413
# Poissons Ratio (z) = -0.44874 -0.12577
#
# Static dielectric constant tensor:
#      x y z
#    x 1.697850 0.000000 -0.009220 
#    y 0.000000 1.658650 0.000000 
#    z -0.009220 0.000000 1.689390 
# 
# From -- ./inp_files/279148.got.cif
#   From: 2010.05.17/outbox.cif.g08.bks.cpg/sg12_140_cif.got.tgz:279148.got - 2010.06.03 13:09:07.
