data_PCOD9188592
_publ_section_title
;
Structure prediction by ZEFSAII (Michael W. Deem and Ramdas Pophale) SiO2 
 PCOD9188592
Probable space group: C 2/M
;
_chemical_formula_sum "Si O2"
_cell_formula_units_Z 52
_cell_length_a 7.917847
_cell_length_b 34.430770
_cell_length_c 14.374518
_cell_angle_alpha 90.000000
_cell_angle_beta 137.740012
_cell_angle_gamma 90.000000
_cell_volume 2635.340464
_symmetry_space_group_name_H-M "C 2/M"
_symmetry_group_IT_number 12
_symmetry_cell_setting 'monoclinic'
loop_
_space_group_symop_operation_xyz
x,y,z
-x,y,-z
-x,-y,-z
x,-y,z
1/2+x,1/2+y,z
1/2-x,1/2+y,-z
1/2-x,1/2-y,-z
1/2+x,1/2-y,z
loop_
_atom_site_type_symbol
_atom_site_label
_atom_site_fract_x
_atom_site_fract_y
_atom_site_fract_z
Si Si1 0.925359 0.838715 0.843336
Si Si2 0.126030 0.098691 0.641113
Si Si3 0.287494 0.659331 0.584847
Si Si4 0.530170 0.954014 0.901661
Si Si5 0.500000 0.410545 0.000000
Si Si6 0.629983 0.820286 0.327160
Si Si7 0.398386 0.209700 0.061623
O O1 0.945659 0.830688 0.740903
O O2 0.659594 0.819320 0.758675
O O3 0.908543 0.882223 0.878158
O O4 0.180826 0.822036 0.990495
O O5 0.298202 0.068963 0.763542
O O6 0.287160 0.137018 0.675772
O O7 0.000000 0.080195 0.500000
O O8 0.896450 0.117298 0.603924
O O9 0.288376 0.684277 0.488478
O O10 0.000000 0.657398 0.500000
O O11 0.778179 0.935813 0.955048
O O12 0.524062 0.000000 0.881929
O O13 0.500000 0.947729 0.000000
O O14 0.613048 0.793117 0.228782
O O15 0.500000 0.203000 0.000000
O O16 0.250000 0.250000 0.000000
#
# Coordination Sequence:
#
# PCOD9188592 Si02
#       7
#     8   8   8   8   4   8   8
#     4  11  19  36  59  88 114 152 205 257 307 373
#     4  10  19  36  60  86 117 159 210 261 314 372
#     4   9  20  33  59  88 118 150 203 267 309 368
#     4  11  24  40  59  91 133 173 213 267 332 395
#     4  12  21  38  70  92 126 162 232 270 324 384
#     4  10  19  37  56  87 117 151 200 255 307 367
#     4  12  24  38  59  86 124 162 203 255 320 379
#
# _framework density 19.731795999999999
#
# number of rings (size 3 to 8) (size 9 to 14) (size 15 to 20)
#    0.000    1.385    3.077    3.000    0.000    1.538 
#    0.000    0.769    0.000    6.923    0.000    0.000 
#    0.000    0.000    0.000    0.000    0.000    0.000 
#
# Total GULP energy -144852.884260 kJ/mol
# GULP energy per Si atom -5571.264779 kJ/mol
# Density = 1.968689 g / cm^3
# Si number density = 19.731796 Si / 1000 Ang^3
#
#
#
# Elastic Constant Matrix: (Units=GPa)
#
#
# Indices 1 2 3 4 5 6 
#
# 1 84.9547 24.9335 25.8377 0.0000 -12.4133 0.0000
# 2 24.9335 50.8115 31.0086 0.0000 -8.3934 0.0000
# 3 25.8377 31.0086 140.8595 0.0000 -29.3341 0.0000
# 4 0.0000 0.0000 0.0000 5.4311 0.0000 -5.9983
# 5 -12.4133 -8.3934 -29.3341 0.0000 36.4398 0.0000
# 6 0.0000 0.0000 0.0000 -5.9983 0.0000 20.7679
#
#
#
# Elastic Compliance Matrix: (Units=1/GPa)
#
#
# Indices 1 2 3 4 5 6 
#
# 1 0.014178 -0.006076 -0.000659 0.000000 0.002900 0.000000
# 2 -0.006076 0.025403 -0.004433 0.000000 0.000212 0.000000
# 3 -0.000659 -0.004433 0.009535 0.000000 0.006430 0.000000
# 4 0.000000 0.000000 0.000000 0.270369 0.000000 0.078089
# 5 0.002900 0.000212 0.006430 0.000000 0.033655 0.000000
# 6 0.000000 0.000000 0.000000 0.078089 0.000000 0.070705
#
#
# Mechanical properties :
#
#
# Convention : Reuss Voigt Hill
#
# Bulk Modulus (GPa) = 37.34279 48.90949 43.12614
# Shear Modulus (GPa) = 10.98635 25.51750 18.25193
#
# Velocity S-wave (km/s) = 2.36219 3.60003 3.04468
# Velocity P-wave (km/s) = 5.13869 6.49009 5.85352
#
# Compressibility (1/GPa) = 0.02677893
#
# Stress axis : x y z
#
# Youngs Moduli (GPa) = 70.52951 39.36576 104.87421
#
# Poissons Ratio (x) = 0.23919 0.06914
# Poissons Ratio (y) = 0.42855 0.46494
# Poissons Ratio (z) = 0.04650 0.17452
#
# Static dielectric constant tensor:
#      x y z
#    x 1.772420 0.000000 -0.099420 
#    y 0.000000 1.645610 0.000000 
#    z -0.099420 0.000000 1.346540 
# 
# From -- ./inp_files/201356.got.cif
#   From: 2010.05.17/outbox.cif.g08.bks.cpg/sg12_101_cif.got.tgz:201356.got - 2010.06.03 13:09:07.
