data_PCOD9188863
_publ_section_title
;
Structure prediction by ZEFSAII (Michael W. Deem and Ramdas Pophale) SiO2 
 PCOD9188863
Probable space group: C 2/M
;
_chemical_formula_sum "Si O2"
_cell_formula_units_Z 44
_cell_length_a 16.176901
_cell_length_b 17.616464
_cell_length_c 7.768220
_cell_angle_alpha 90.000000
_cell_angle_beta 127.550500
_cell_angle_gamma 90.000000
_cell_volume 1755.125804
_symmetry_space_group_name_H-M "C 2/M"
_symmetry_group_IT_number 12
_symmetry_cell_setting 'monoclinic'
loop_
_space_group_symop_operation_xyz
x,y,z
-x,y,-z
-x,-y,-z
x,-y,z
1/2+x,1/2+y,z
1/2-x,1/2+y,-z
1/2-x,1/2-y,-z
1/2+x,1/2-y,z
loop_
_atom_site_type_symbol
_atom_site_label
_atom_site_fract_x
_atom_site_fract_y
_atom_site_fract_z
Si Si1 0.674484 0.212692 0.158378
Si Si2 0.022913 0.893410 0.723648
Si Si3 0.478858 0.219701 0.710207
Si Si4 0.704226 0.417178 0.510302
Si Si5 0.693732 0.862554 0.709966
Si Si6 0.220111 0.000000 0.031335
O O1 0.608230 0.230881 0.248218
O O2 0.760230 0.149665 0.317213
O O3 0.731770 0.288901 0.167937
O O4 0.583558 0.182341 0.918768
O O5 0.000000 0.918169 0.500000
O O6 0.021519 0.802811 0.720361
O O7 0.917444 0.914198 0.689727
O O8 0.126331 0.934242 0.914470
O O9 0.413872 0.175662 0.485138
O O10 0.726001 0.500000 0.618278
O O11 0.765260 0.405738 0.411124
O O12 0.694911 0.930625 0.846002
#
# Coordination Sequence:
#
# PCOD9188863 Si02
#       6
#     8   8   8   8   8   4
#     4  10  19  36  62  89 119 157 193 248 304 350
#     4  12  24  38  60  87 120 158 201 247 293 355
#     4  10  20  38  59  85 122 154 194 244 296 357
#     4  11  21  36  58  91 125 153 196 247 302 356
#     4  11  20  37  62  90 121 152 194 255 308 351
#     4  12  25  37  58  95 118 148 205 253 307 337
#
# _framework density 25.069429
#
# number of rings (size 3 to 8) (size 9 to 14) (size 15 to 20)
#    0.000    1.091    7.273    1.364    0.000    1.455 
#    1.636    5.455    0.000    0.000    0.000    1.909 
#    0.000    0.000    0.000    0.000    0.000    0.000 
#
# Total GULP energy -122663.732242 kJ/mol
# GULP energy per Si atom -5575.624193 kJ/mol
# Density = 2.501237 g / cm^3
# Si number density = 25.069429 Si / 1000 Ang^3
#
#
#
# Elastic Constant Matrix: (Units=GPa)
#
#
# Indices 1 2 3 4 5 6 
#
# 1 78.0778 36.8294 25.5730 0.0000 12.5294 0.0000
# 2 36.8294 211.0365 58.7137 0.0000 18.0579 0.0000
# 3 25.5730 58.7137 118.9315 0.0000 36.9478 0.0000
# 4 0.0000 0.0000 0.0000 44.2939 0.0000 22.4264
# 5 12.5294 18.0579 36.9478 0.0000 27.6845 0.0000
# 6 0.0000 0.0000 0.0000 22.4264 0.0000 20.6949
#
#
#
# Elastic Compliance Matrix: (Units=1/GPa)
#
#
# Indices 1 2 3 4 5 6 
#
# 1 0.014695 -0.001958 -0.000895 0.000000 -0.004179 0.000000
# 2 -0.001958 0.005754 -0.002612 0.000000 0.000619 0.000000
# 3 -0.000895 -0.002612 0.015776 0.000000 -0.018946 0.000000
# 4 0.000000 0.000000 0.000000 0.050022 0.000000 -0.054207
# 5 -0.004179 0.000619 -0.018946 0.000000 0.062895 0.000000
# 6 0.000000 0.000000 0.000000 -0.054207 0.000000 0.107064
#
#
# Mechanical properties :
#
#
# Convention : Reuss Voigt Hill
#
# Bulk Modulus (GPa) = 39.53243 72.25312 55.89278
# Shear Modulus (GPa) = 18.14448 37.66330 27.90389
#
# Velocity S-wave (km/s) = 2.69321 3.88023 3.33988
# Velocity P-wave (km/s) = 5.04724 6.99705 6.10055
#
# Compressibility (1/GPa) = 0.02529569
#
# Stress axis : x y z
#
# Youngs Moduli (GPa) = 68.05010 173.79489 63.38829
#
# Poissons Ratio (x) = 0.34029 0.05672
# Poissons Ratio (y) = 0.13324 0.16555
# Poissons Ratio (z) = 0.06089 0.45391
#
# Static dielectric constant tensor:
#      x y z
#    x 2.225950 0.000000 -0.120670 
#    y 0.000000 1.975820 0.000000 
#    z -0.120670 0.000000 2.058930 
# 
# From -- ./inp_files/76101.got.cif
#   From: 2010.05.17/outbox.cif.g08.bks.cpg/sg12_39_cif.got.tgz:76101.got - 2010.06.03 13:09:07.
