data_PCOD9188061
_publ_section_title
;
Structure prediction by ZEFSAII (Michael W. Deem and Ramdas Pophale) SiO2 
 PCOD9188061
Probable space group: C 2/M
;
_chemical_formula_sum "Si O2"
_cell_formula_units_Z 64
_cell_length_a 20.383748
_cell_length_b 27.854909
_cell_length_c 7.399436
_cell_angle_alpha 90.000000
_cell_angle_beta 54.963461
_cell_angle_gamma 90.000000
_cell_volume 3439.971635
_symmetry_space_group_name_H-M "C 2/M"
_symmetry_group_IT_number 12
_symmetry_cell_setting 'monoclinic'
loop_
_space_group_symop_operation_xyz
x,y,z
-x,y,-z
-x,-y,-z
x,-y,z
1/2+x,1/2+y,z
1/2-x,1/2+y,-z
1/2-x,1/2-y,-z
1/2+x,1/2-y,z
loop_
_atom_site_type_symbol
_atom_site_label
_atom_site_fract_x
_atom_site_fract_y
_atom_site_fract_z
Si Si1 0.021794 0.301681 0.757740
Si Si2 0.359893 0.947787 0.454957
Si Si3 0.184494 0.350236 0.410780
Si Si4 0.583744 0.711054 0.432349
Si Si5 0.968346 0.442708 0.742176
Si Si6 0.649459 0.794965 0.113954
Si Si7 0.768126 0.844230 0.659514
Si Si8 0.296569 0.055421 0.154455
O O1 0.095673 0.337842 0.626154
O O2 0.055068 0.253578 0.611545
O O3 0.940116 0.315830 0.782351
O O4 0.000000 0.294138 0.000000
O O5 0.320233 0.906134 0.633482
O O6 0.452780 0.937321 0.260960
O O7 0.314058 0.949550 0.340003
O O8 0.357584 0.000000 0.548083
O O9 0.191966 0.317938 0.222162
O O10 0.244877 0.344148 0.483276
O O11 0.500000 0.688369 0.500000
O O12 0.630264 0.739645 0.196976
O O13 0.644920 0.676540 0.435109
O O14 0.957697 0.500000 0.745256
O O15 0.000000 0.423960 0.500000
O O16 0.881586 0.426424 0.939284
O O17 0.704253 0.808573 0.858152
O O18 0.760009 0.897663 0.759691
O O19 0.276336 0.000000 0.124869
#
# Coordination Sequence:
#
# PCOD9188061 Si02
#       8
#     8   8   8   8   8   8   8   8
#     4  10  19  36  55  77 107 145 171 212 267 308
#     4   9  18  30  44  64  98 141 182 214 244 290
#     4  10  21  32  51  78 108 141 184 217 252 309
#     4   9  21  40  57  78 106 135 175 218 273 332
#     4   9  17  26  40  64  96 136 174 207 242 286
#     4  10  21  36  54  80 108 140 175 215 257 315
#     4  11  21  36  57  78 107 142 172 224 269 306
#     4   9  19  33  48  71 100 137 179 215 259 305
#
# _framework density 18.604804000000001
#
# number of rings (size 3 to 8) (size 9 to 14) (size 15 to 20)
#    0.000    2.375    1.250    1.875    3.500    3.500 
#    4.500    0.000    0.000    0.375    0.000    0.000 
#    0.000    0.500    0.000    0.250    0.000    0.000 
#
# Total GULP energy -178323.234351 kJ/mol
# GULP energy per Si atom -5572.601073 kJ/mol
# Density = 1.856246 g / cm^3
# Si number density = 18.604804 Si / 1000 Ang^3
#
#
#
# Elastic Constant Matrix: (Units=GPa)
#
#
# Indices 1 2 3 4 5 6 
#
# 1 105.6703 53.7991 14.6970 0.0000 -12.7732 0.0000
# 2 53.7991 72.8735 12.6336 0.0000 -17.9189 0.0000
# 3 14.6970 12.6336 26.9432 0.0000 -1.1621 0.0000
# 4 0.0000 0.0000 0.0000 13.1277 0.0000 -4.9346
# 5 -12.7732 -17.9189 -1.1621 0.0000 21.5640 0.0000
# 6 0.0000 0.0000 0.0000 -4.9346 0.0000 15.3510
#
#
#
# Elastic Compliance Matrix: (Units=1/GPa)
#
#
# Indices 1 2 3 4 5 6 
#
# 1 0.015435 -0.010822 -0.003346 0.000000 -0.000030 0.000000
# 2 -0.010822 0.026485 -0.005856 0.000000 0.015282 0.000000
# 3 -0.003346 -0.005856 0.041487 0.000000 -0.004613 0.000000
# 4 0.000000 0.000000 0.000000 0.086644 0.000000 0.027852
# 5 -0.000030 0.015282 -0.004613 0.000000 0.058806 0.000000
# 6 0.000000 0.000000 0.000000 0.027852 0.000000 0.074096
#
#
# Mechanical properties :
#
#
# Convention : Reuss Voigt Hill
#
# Bulk Modulus (GPa) = 23.06387 40.86069 31.96228
# Shear Modulus (GPa) = 13.98777 18.29901 16.14339
#
# Velocity S-wave (km/s) = 2.74494 3.13958 2.94887
# Velocity P-wave (km/s) = 4.74024 5.92898 5.36762
#
# Compressibility (1/GPa) = 0.04335786
#
# Stress axis : x y z
#
# Youngs Moduli (GPa) = 64.78784 37.75734 24.10366
#
# Poissons Ratio (x) = 0.40862 0.08066
# Poissons Ratio (y) = 0.70115 0.14116
# Poissons Ratio (z) = 0.21680 0.22111
#
# Static dielectric constant tensor:
#      x y z
#    x 1.677060 0.000000 0.032500 
#    y 0.000000 1.719670 0.000000 
#    z 0.032500 0.000000 1.662640 
# 
# From -- ./inp_files/91086.got.cif
#   From: 2010.05.17/outbox.cif.g08.bks.cpg/sg12_46_cif.got.tgz:91086.got - 2010.06.03 13:09:07.
