data_PCOD9188280
_publ_section_title
;
Structure prediction by ZEFSAII (Michael W. Deem and Ramdas Pophale) SiO2 
 PCOD9188280
Probable space group: C 2/M
;
_chemical_formula_sum "Si O2"
_cell_formula_units_Z 58
_cell_length_a 13.116120
_cell_length_b 14.327867
_cell_length_c 17.997176
_cell_angle_alpha 90.000000
_cell_angle_beta 95.202798
_cell_angle_gamma 90.000000
_cell_volume 3368.203205
_symmetry_space_group_name_H-M "C 2/M"
_symmetry_group_IT_number 12
_symmetry_cell_setting 'monoclinic'
loop_
_space_group_symop_operation_xyz
x,y,z
-x,y,-z
-x,-y,-z
x,-y,z
1/2+x,1/2+y,z
1/2-x,1/2+y,-z
1/2-x,1/2-y,-z
1/2+x,1/2-y,z
loop_
_atom_site_type_symbol
_atom_site_label
_atom_site_fract_x
_atom_site_fract_y
_atom_site_fract_z
Si Si1 0.950641 0.724207 0.616255
Si Si2 0.321238 0.607881 0.232880
Si Si3 0.287991 0.889891 0.510930
Si Si4 0.478575 0.602484 0.845583
Si Si5 0.000000 0.000000 0.000000
Si Si6 0.179017 0.772949 0.245820
Si Si7 0.841331 0.389202 0.345809
Si Si8 0.411358 0.607561 0.406003
O O1 0.875351 0.671238 0.555288
O O2 0.889843 0.748478 0.687130
O O3 0.047488 0.658235 0.641388
O O4 0.997519 0.819040 0.586103
O O5 0.292698 0.500000 0.218282
O O6 0.414347 0.632039 0.184166
O O7 0.228497 0.678555 0.218444
O O8 0.362298 0.615655 0.320191
O O9 0.288805 0.874027 0.423031
O O10 0.179772 0.870737 0.542810
O O11 0.310385 0.000000 0.525036
O O12 0.454598 0.500000 0.808157
O O13 0.390647 0.673236 0.817522
O O14 0.490281 0.579719 0.932954
O O15 0.271461 0.838367 0.280590
O O16 0.849019 0.500000 0.333709
O O17 0.444363 0.500000 0.417978
#
# Coordination Sequence:
#
# PCOD9188280 Si02
#       8
#     8   8   8   8   2   8   8   8
#     4  12  21  34  54  78 106 147 197 237 287 332
#     4  10  19  36  58  82 116 150 186 226 271 340
#     4  10  22  39  53  69 107 156 199 245 295 340
#     4   9  19  38  64  86 119 143 177 219 274 341
#     4   8  20  40  68  96 114 148 174 206 284 348
#     4  12  21  35  58  89 110 149 191 235 284 328
#     4  11  24  37  51  77 111 147 198 252 293 329
#     4  10  20  36  54  76 104 146 196 246 284 334
#
# _framework density 17.219864000000001
#
# number of rings (size 3 to 8) (size 9 to 14) (size 15 to 20)
#    0.414    1.103    4.138    1.241    0.000    5.517 
#    0.000    0.690    0.000    4.966    0.000    0.483 
#    0.000    0.000    0.000    0.000    0.000    0.000 
#
# Total GULP energy -161824.284573 kJ/mol
# GULP energy per Si atom -5580.147744 kJ/mol
# Density = 1.718067 g / cm^3
# Si number density = 17.219864 Si / 1000 Ang^3
#
#
#
# Elastic Constant Matrix: (Units=GPa)
#
#
# Indices 1 2 3 4 5 6 
#
# 1 96.1970 77.3224 38.9554 0.0000 4.0489 0.0000
# 2 77.3224 108.7778 29.4722 0.0000 7.8756 0.0000
# 3 38.9554 29.4722 51.7227 0.0000 6.6905 0.0000
# 4 0.0000 0.0000 0.0000 15.5425 0.0000 0.7377
# 5 4.0489 7.8756 6.6905 0.0000 3.5296 0.0000
# 6 0.0000 0.0000 0.0000 0.7377 0.0000 34.2858
#
#
#
# Elastic Compliance Matrix: (Units=1/GPa)
#
#
# Indices 1 2 3 4 5 6 
#
# 1 0.034364 -0.022687 -0.019082 0.000000 0.047372 0.000000
# 2 -0.022687 0.026634 0.008255 0.000000 -0.049052 0.000000
# 3 -0.019082 0.008255 0.037828 0.000000 -0.068236 0.000000
# 4 0.000000 0.000000 0.000000 0.064406 0.000000 -0.001386
# 5 0.047372 -0.049052 -0.068236 0.000000 0.467772 0.000000
# 6 0.000000 0.000000 0.000000 -0.001386 0.000000 0.029196
#
#
# Mechanical properties :
#
#
# Convention : Reuss Voigt Hill
#
# Bulk Modulus (GPa) = 31.44709 60.91084 46.17896
# Shear Modulus (GPa) = 6.77665 18.06808 12.42236
#
# Velocity S-wave (km/s) = 1.98593 3.24274 2.68880
# Velocity P-wave (km/s) = 4.85389 7.03347 6.04276
#
# Compressibility (1/GPa) = 0.03179944
#
# Stress axis : x y z
#
# Youngs Moduli (GPa) = 29.09985 37.54573 26.43517
#
# Poissons Ratio (x) = 0.85179 0.50445
# Poissons Ratio (y) = 0.66018 -0.21823
# Poissons Ratio (z) = 0.55529 -0.30995
#
# Static dielectric constant tensor:
#      x y z
#    x 1.583280 0.000000 -0.001770 
#    y 0.000000 1.616700 0.000000 
#    z -0.001770 0.000000 1.554450 
# 
# From -- ./inp_files/262905.got.cif
#   From: 2010.05.17/outbox.cif.g08.bks.cpg/sg12_132_cif.got.tgz:262905.got - 2010.06.03 13:09:07.
