data_PCOD9188090
_publ_section_title
;
Structure prediction by ZEFSAII (Michael W. Deem and Ramdas Pophale) SiO2 
 PCOD9188090
Probable space group: C 2/M
;
_chemical_formula_sum "Si O2"
_cell_formula_units_Z 48
_cell_length_a 31.604806
_cell_length_b 12.974673
_cell_length_c 12.213311
_cell_angle_alpha 90.000000
_cell_angle_beta 150.216017
_cell_angle_gamma 90.000000
_cell_volume 2487.737448
_symmetry_space_group_name_H-M "C 2/M"
_symmetry_group_IT_number 12
_symmetry_cell_setting 'monoclinic'
loop_
_space_group_symop_operation_xyz
x,y,z
-x,y,-z
-x,-y,-z
x,-y,z
1/2+x,1/2+y,z
1/2-x,1/2+y,-z
1/2-x,1/2-y,-z
1/2+x,1/2-y,z
loop_
_atom_site_type_symbol
_atom_site_label
_atom_site_fract_x
_atom_site_fract_y
_atom_site_fract_z
Si Si1 0.254114 0.612786 0.160331
Si Si2 0.173614 0.248093 0.486674
Si Si3 0.931440 0.321398 0.266360
Si Si4 0.495887 0.284290 0.762698
Si Si5 0.101620 0.119382 0.664955
Si Si6 0.671518 0.377211 0.256663
O O1 0.282913 0.500000 0.263710
O O2 0.280445 0.695589 0.307792
O O3 0.300527 0.630829 0.150069
O O4 0.154734 0.618346 0.924234
O O5 0.239870 0.339537 0.602411
O O6 0.172880 0.173572 0.379996
O O7 0.075011 0.253730 0.308567
O O8 0.968749 0.310175 0.229566
O O9 0.915331 0.205434 0.281102
O O10 0.000000 0.369304 0.500000
O O11 0.448119 0.353727 0.561154
O O12 0.581494 0.338564 0.001126
O O13 0.087059 0.000000 0.663857
O O14 0.670110 0.500000 0.257527
#
# Coordination Sequence:
#
# PCOD9188090 Si02
#       6
#     8   8   8   8   8   8
#     4  10  19  36  56  77 108 151 192 229 280 341
#     4  10  22  39  59  85 120 146 187 237 294 338
#     4  10  20  34  53  79 112 147 186 231 279 331
#     4  10  20  36  59  85 118 148 185 233 285 339
#     4   9  19  33  55  83 112 144 182 231 286 336
#     4  11  22  38  63  89 115 149 193 239 287 342
#
# _framework density 19.294640999999999
#
# number of rings (size 3 to 8) (size 9 to 14) (size 15 to 20)
#    0.000    2.000    1.667    2.000    0.000    6.667 
#    0.000    0.833    0.000    2.000    0.000    0.000 
#    0.000    0.000    0.000    0.000    0.000    0.000 
#
# Total GULP energy -133621.817617 kJ/mol
# GULP energy per Si atom -5567.575734 kJ/mol
# Density = 1.925073 g / cm^3
# Si number density = 19.294641 Si / 1000 Ang^3
#
#
#
# Elastic Constant Matrix: (Units=GPa)
#
#
# Indices 1 2 3 4 5 6 
#
# 1 141.8738 36.8899 37.0999 0.0000 36.2623 0.0000
# 2 36.8899 49.2177 24.4781 0.0000 14.7375 0.0000
# 3 37.0999 24.4781 87.4712 0.0000 28.4077 0.0000
# 4 0.0000 0.0000 0.0000 15.0623 0.0000 13.7670
# 5 36.2623 14.7375 28.4077 0.0000 34.4841 0.0000
# 6 0.0000 0.0000 0.0000 13.7670 0.0000 15.0880
#
#
#
# Elastic Compliance Matrix: (Units=1/GPa)
#
#
# Indices 1 2 3 4 5 6 
#
# 1 0.010746 -0.005301 -0.000191 0.000000 -0.008877 0.000000
# 2 -0.005301 0.027280 -0.004655 0.000000 -0.002249 0.000000
# 3 -0.000191 -0.004655 0.016526 0.000000 -0.011423 0.000000
# 4 0.000000 0.000000 0.000000 0.399902 0.000000 -0.364889
# 5 -0.008877 -0.002249 -0.011423 0.000000 0.048705 0.000000
# 6 0.000000 0.000000 0.000000 -0.364889 0.000000 0.399220
#
#
# Mechanical properties :
#
#
# Convention : Reuss Voigt Hill
#
# Bulk Modulus (GPa) = 29.19145 52.83316 41.01231
# Shear Modulus (GPa) = 5.35279 24.93322 15.14300
#
# Velocity S-wave (km/s) = 1.66741 3.59867 2.80452
# Velocity P-wave (km/s) = 4.34386 6.68648 5.63818
#
# Compressibility (1/GPa) = 0.03425661
#
# Stress axis : x y z
#
# Youngs Moduli (GPa) = 93.05958 36.65695 60.51023
#
# Poissons Ratio (x) = 0.19432 0.01158
# Poissons Ratio (y) = 0.49332 0.28169
# Poissons Ratio (z) = 0.01781 0.17065
#
# Static dielectric constant tensor:
#      x y z
#    x 1.712790 0.000000 0.049010 
#    y 0.000000 1.645850 0.000000 
#    z 0.049010 0.000000 1.718220 
# 
# From -- ./inp_files/143087.got.cif
#   From: 2010.05.17/outbox.cif.g08.bks.cpg/sg12_72_cif.got.tgz:143087.got - 2010.06.03 13:09:07.
