data_PCOD9188686
_publ_section_title
;
Structure prediction by ZEFSAII (Michael W. Deem and Ramdas Pophale) SiO2 
 PCOD9188686
Probable space group: C 2/M
;
_chemical_formula_sum "Si O2"
_cell_formula_units_Z 64
_cell_length_a 16.700907
_cell_length_b 7.894156
_cell_length_c 33.771213
_cell_angle_alpha 90.000000
_cell_angle_beta 41.796630
_cell_angle_gamma 90.000000
_cell_volume 2967.461969
_symmetry_space_group_name_H-M "C 2/M"
_symmetry_group_IT_number 12
_symmetry_cell_setting 'monoclinic'
loop_
_space_group_symop_operation_xyz
x,y,z
-x,y,-z
-x,-y,-z
x,-y,z
1/2+x,1/2+y,z
1/2-x,1/2+y,-z
1/2-x,1/2-y,-z
1/2+x,1/2-y,z
loop_
_atom_site_type_symbol
_atom_site_label
_atom_site_fract_x
_atom_site_fract_y
_atom_site_fract_z
Si Si1 0.730557 0.794131 0.627007
Si Si2 0.351350 0.304369 0.872558
Si Si3 0.541924 0.707996 0.862912
Si Si4 0.329918 0.697141 0.507425
Si Si5 0.465753 0.796272 0.752274
Si Si6 0.594385 0.701813 0.933276
Si Si7 0.701558 0.793210 0.257182
Si Si8 0.578737 0.804846 0.380699
O O1 0.784004 0.728044 0.565771
O O2 0.590966 0.756275 0.684871
O O3 0.805981 0.712016 0.634197
O O4 0.744270 0.000000 0.624734
O O5 0.324052 0.500000 0.890394
O O6 0.419908 0.234082 0.886119
O O7 0.446465 0.288208 0.801616
O O8 0.228607 0.226575 0.900739
O O9 0.539507 0.500000 0.863571
O O10 0.566258 0.764934 0.899122
O O11 0.659933 0.760085 0.794331
O O12 0.311223 0.500000 0.519539
O O13 0.250000 0.750000 0.500000
O O14 0.467460 0.726403 0.445081
O O15 0.358957 0.746863 0.762015
O O16 0.460355 0.000000 0.759873
O O17 0.576477 0.500000 0.937123
O O18 0.500000 0.771490 0.000000
O O19 0.619185 0.730422 0.323610
O O20 0.700494 0.000000 0.259892
O O21 0.544402 0.000000 0.386734
#
# Coordination Sequence:
#
# PCOD9188686 Si02
#       8
#     8   8   8   8   8   8   8   8
#     4  10  22  38  56  81 113 150 191 239 295 349
#     4  11  22  36  58  90 124 156 191 243 305 352
#     4   9  18  35  59  85 118 157 194 236 293 351
#     4  11  23  40  59  79 108 147 191 240 297 356
#     4  10  19  36  61  83 111 153 198 241 283 343
#     4  10  21  40  65  88 114 158 208 240 276 350
#     4   9  17  33  58  82 110 152 195 234 285 348
#     4  11  22  36  57  84 112 149 193 236 291 358
#
# _framework density 21.567252
#
# number of rings (size 3 to 8) (size 9 to 14) (size 15 to 20)
#    0.000    1.875    1.250    3.000    0.000    6.750 
#    0.000    3.750    0.000    0.000    0.000    0.000 
#    0.000    0.000    0.000    0.000    0.000    0.000 
#
# Total GULP energy -178675.985748 kJ/mol
# GULP energy per Si atom -5583.624555 kJ/mol
# Density = 2.151816 g / cm^3
# Si number density = 21.567252 Si / 1000 Ang^3
#
#
#
# Elastic Constant Matrix: (Units=GPa)
#
#
# Indices 1 2 3 4 5 6 
#
# 1 121.2698 -7.2772 33.0838 -0.0013 4.0489 0.0001
# 2 -7.2772 14.0413 -2.1677 -0.0009 1.1483 -0.0022
# 3 33.0838 -2.1677 98.2310 0.0001 1.0650 0.0030
# 4 -0.0013 -0.0009 0.0001 14.6037 0.0000 -3.6069
# 5 4.0489 1.1483 1.0650 0.0000 18.1385 0.0010
# 6 0.0001 -0.0022 0.0030 -3.6069 0.0010 23.1342
#
#
#
# Elastic Compliance Matrix: (Units=1/GPa)
#
#
# Indices 1 2 3 4 5 6 
#
# 1 0.009428 0.004597 -0.003050 0.000001 -0.002216 0.000001
# 2 0.004597 0.074092 0.000149 0.000007 -0.005725 0.000008
# 3 -0.003050 0.000149 0.011210 -0.000001 0.000013 -0.000002
# 4 0.000001 0.000007 -0.000001 0.071219 -0.000001 0.011104
# 5 -0.002216 -0.005725 0.000013 -0.000001 0.055988 -0.000003
# 6 0.000001 0.000008 -0.000002 0.011104 -0.000003 0.044957
#
#
# Mechanical properties :
#
#
# Convention : Reuss Voigt Hill
#
# Bulk Modulus (GPa) = 10.19141 31.20221 20.69681
# Shear Modulus (GPa) = 16.87993 25.16882 21.02438
#
# Velocity S-wave (km/s) = 2.80065 3.41983 3.12561
# Velocity P-wave (km/s) = 3.89793 5.48566 4.75848
#
# Compressibility (1/GPa) = 0.09812189
#
# Stress axis : x y z
#
# Youngs Moduli (GPa) = 106.06767 13.49673 89.20295
#
# Poissons Ratio (x) = -0.06204 0.27205
# Poissons Ratio (y) = -0.48756 -0.01328
# Poissons Ratio (z) = 0.32349 -0.00201
#
# Static dielectric constant tensor:
#      x y z
#    x 1.773240 -0.000020 -0.005590 
#    y -0.000020 1.676200 0.000000 
#    z -0.005590 0.000000 1.805060 
# 
# From -- ./inp_files/375365.got.cif
#   From: 2010.05.17/outbox.cif.g08.bks.cpg/sg12_188_cif.got.tgz:375365.got - 2010.06.03 13:09:07.
