data_PCOD9188821
_publ_section_title
;
Structure prediction by ZEFSAII (Michael W. Deem and Ramdas Pophale) SiO2 
 PCOD9188821
Probable space group: C 2/M
;
_chemical_formula_sum "Si O2"
_cell_formula_units_Z 44
_cell_length_a 8.995441
_cell_length_b 31.606050
_cell_length_c 8.450099
_cell_angle_alpha 90.000000
_cell_angle_beta 92.399765
_cell_angle_gamma 90.000000
_cell_volume 2400.343727
_symmetry_space_group_name_H-M "C 2/M"
_symmetry_group_IT_number 12
_symmetry_cell_setting 'monoclinic'
loop_
_space_group_symop_operation_xyz
x,y,z
-x,y,-z
-x,-y,-z
x,-y,z
1/2+x,1/2+y,z
1/2-x,1/2+y,-z
1/2-x,1/2-y,-z
1/2+x,1/2-y,z
loop_
_atom_site_type_symbol
_atom_site_label
_atom_site_fract_x
_atom_site_fract_y
_atom_site_fract_z
Si Si1 0.998128 0.500000 0.255110
Si Si2 0.196064 0.371504 0.846574
Si Si3 0.253070 0.500000 0.525964
Si Si4 0.824966 0.293468 0.949688
Si Si5 0.334370 0.597459 0.535089
Si Si6 0.000000 0.430008 0.000000
Si Si7 0.595282 0.841505 0.353505
O O1 0.119262 0.500000 0.395575
O O2 0.830395 0.500000 0.310008
O O3 0.020049 0.459107 0.151577
O O4 0.299199 0.390365 0.715697
O O5 0.035953 0.362803 0.755447
O O6 0.244720 0.329415 0.939101
O O7 0.149610 0.403801 0.980467
O O8 0.326611 0.546361 0.512596
O O9 0.824457 0.308872 0.765056
O O10 0.750000 0.250000 0.000000
O O11 0.000000 0.291080 0.000000
O O12 0.500000 0.611679 0.500000
O O13 0.210807 0.623661 0.427794
O O14 0.500000 0.823193 0.500000
#
# Coordination Sequence:
#
# PCOD9188821 Si02
#       7
#     4   8   4   8   8   4   8
#     4  10  22  28  59  90 105 150 198 241 257 341
#     4  10  19  36  62  82 111 150 191 234 283 334
#     4  11  21  34  51  82 116 147 194 227 281 328
#     4  10  21  38  61  87 115 145 185 239 290 340
#     4  11  23  37  55  82 118 154 185 234 289 339
#     4  11  16  34  56  88 112 136 200 238 274 311
#     4   9  19  37  61  84 107 148 193 231 278 337
#
# _framework density 18.330707
#
# number of rings (size 3 to 8) (size 9 to 14) (size 15 to 20)
#    0.000    1.818    4.545    1.364    5.091    1.455 
#    0.000    9.091    0.000    1.091    0.000    0.000 
#    0.000    0.000    0.000    0.000    0.000    0.000 
#
# Total GULP energy -122480.494092 kJ/mol
# GULP energy per Si atom -5567.295186 kJ/mol
# Density = 1.828899 g / cm^3
# Si number density = 18.330707 Si / 1000 Ang^3
#
#
#
# Elastic Constant Matrix: (Units=GPa)
#
#
# Indices 1 2 3 4 5 6 
#
# 1 56.2115 25.3038 29.8187 0.0000 -20.8862 0.0000
# 2 25.3038 128.8164 50.5157 0.0000 -11.4225 0.0000
# 3 29.8187 50.5157 92.9050 0.0000 -14.9215 0.0000
# 4 0.0000 0.0000 0.0000 -18.3973 0.0000 -2.2471
# 5 -20.8862 -11.4225 -14.9215 0.0000 20.2741 0.0000
# 6 0.0000 0.0000 0.0000 -2.2471 0.0000 30.7317
#
#
#
# Elastic Compliance Matrix: (Units=1/GPa)
#
#
# Indices 1 2 3 4 5 6 
#
# 1 0.031470 -0.001909 -0.004568 0.000000 0.027982 0.000000
# 2 -0.001909 0.010043 -0.004825 0.000000 0.000140 0.000000
# 3 -0.004568 -0.004825 0.015492 0.000000 0.003977 0.000000
# 4 0.000000 0.000000 0.000000 -0.053875 0.000000 -0.003939
# 5 0.027982 0.000140 0.003977 0.000000 0.081157 0.000000
# 6 0.000000 0.000000 0.000000 -0.003939 0.000000 0.032252
#
#
# Mechanical properties :
#
#
# Convention : Reuss Voigt Hill
#
# Bulk Modulus (GPa) = 29.07001 54.35660 41.71330
# Shear Modulus (GPa) = 33.19806 18.00803 25.60304
#
# Velocity S-wave (km/s) = 4.26027 3.13772 3.74134
# Velocity P-wave (km/s) = 6.33190 6.54559 6.43963
#
# Compressibility (1/GPa) = 0.03439971
#
# Stress axis : x y z
#
# Youngs Moduli (GPa) = 31.77636 99.57513 64.54759
#
# Poissons Ratio (x) = 0.19008 0.29488
# Poissons Ratio (y) = 0.06066 0.31146
# Poissons Ratio (z) = 0.14517 0.48049
#
# Static dielectric constant tensor:
#      x y z
#    x 1.612780 0.000000 -0.015460 
#    y 0.000000 1.668590 0.000000 
#    z -0.015460 0.000000 1.692380 
# 
# From -- ./inp_files/41637.got.cif
#   From: 2010.05.17/outbox.cif.g08.bks.cpg/sg12_21_cif.got.tgz:41637.got - 2010.06.03 13:09:07.
