data_PCOD9188136
_publ_section_title
;
Structure prediction by ZEFSAII (Michael W. Deem and Ramdas Pophale) SiO2 
 PCOD9188136
Probable space group: C 2/M
;
_chemical_formula_sum "Si O2"
_cell_formula_units_Z 56
_cell_length_a 14.956322
_cell_length_b 8.403416
_cell_length_c 26.981073
_cell_angle_alpha 90.000000
_cell_angle_beta 115.096989
_cell_angle_gamma 90.000000
_cell_volume 3070.944926
_symmetry_space_group_name_H-M "C 2/M"
_symmetry_group_IT_number 12
_symmetry_cell_setting 'monoclinic'
loop_
_space_group_symop_operation_xyz
x,y,z
-x,y,-z
-x,-y,-z
x,-y,z
1/2+x,1/2+y,z
1/2-x,1/2+y,-z
1/2-x,1/2-y,-z
1/2+x,1/2-y,z
loop_
_atom_site_type_symbol
_atom_site_label
_atom_site_fract_x
_atom_site_fract_y
_atom_site_fract_z
Si Si1 0.296830 0.310309 0.561926
Si Si2 0.991539 0.309072 0.354407
Si Si3 0.274470 0.690626 0.060965
Si Si4 0.571912 0.806204 0.061145
Si Si5 0.212000 0.809074 0.644760
Si Si6 0.426421 0.806034 0.731885
Si Si7 0.485036 0.808339 0.143636
O O1 0.298458 0.500000 0.563118
O O2 0.250000 0.250000 0.500000
O O3 0.409103 0.247976 0.594490
O O4 0.232507 0.250020 0.593673
O O5 0.990212 0.500000 0.354950
O O6 0.889727 0.249477 0.354643
O O7 0.010483 0.256684 0.301657
O O8 0.282577 0.500000 0.061400
O O9 0.182094 0.736752 0.072938
O O10 0.372807 0.763107 0.106639
O O11 0.250000 0.750000 0.000000
O O12 0.542106 0.748874 0.108288
O O13 0.564921 0.000000 0.059839
O O14 0.500000 0.750953 0.000000
O O15 0.311959 0.758073 0.697503
O O16 0.210007 0.000000 0.643637
O O17 0.472303 0.748794 0.794251
O O18 0.427292 0.000000 0.732353
O O19 0.493171 0.000000 0.146505
#
# Coordination Sequence:
#
# PCOD9188136 Si02
#       7
#     8   8   8   8   8   8   8
#     4  11  22  38  59  87 120 156 193 236 285 334
#     4  10  20  37  58  84 116 152 193 237 284 337
#     4  11  21  34  52  76 102 133 173 219 269 330
#     4   9  17  31  51  73  98 134 172 208 260 329
#     4  10  20  37  59  85 114 150 195 238 284 337
#     4   8  18  35  56  79 107 143 183 228 279 335
#     4  10  19  36  57  76 104 142 179 221 275 330
#
# _framework density 18.235430000000001
#
# number of rings (size 3 to 8) (size 9 to 14) (size 15 to 20)
#    0.000    2.143    1.429    3.429    0.000    1.714 
#    0.000   10.714    0.000    0.000    0.000    0.000 
#    0.000    0.000    0.000    0.000    0.000    0.000 
#
# Total GULP energy -156224.751147 kJ/mol
# GULP energy per Si atom -5579.455398 kJ/mol
# Density = 1.819393 g / cm^3
# Si number density = 18.235430 Si / 1000 Ang^3
#
#
#
# Elastic Constant Matrix: (Units=GPa)
#
#
# Indices 1 2 3 4 5 6 
#
# 1 193.6334 33.2947 110.5224 0.0000 -5.9023 0.0000
# 2 33.2947 47.5156 28.7326 0.0000 -3.4570 0.0000
# 3 110.5224 28.7326 199.1158 0.0000 -8.7803 0.0000
# 4 0.0000 0.0000 0.0000 17.9274 0.0000 6.7194
# 5 -5.9023 -3.4570 -8.7803 0.0000 13.1621 0.0000
# 6 0.0000 0.0000 0.0000 6.7194 0.0000 28.1583
#
#
#
# Elastic Compliance Matrix: (Units=1/GPa)
#
#
# Indices 1 2 3 4 5 6 
#
# 1 0.007978 -0.003186 -0.003964 0.000000 0.000096 0.000000
# 2 -0.003186 0.024531 -0.001597 0.000000 0.003949 0.000000
# 3 -0.003964 -0.001597 0.007579 0.000000 0.002859 0.000000
# 4 0.000000 0.000000 0.000000 0.061260 0.000000 -0.014618
# 5 0.000096 0.003949 0.002859 0.000000 0.078963 0.000000
# 6 0.000000 0.000000 0.000000 -0.014618 0.000000 0.039002
#
#
# Mechanical properties :
#
#
# Convention : Reuss Voigt Hill
#
# Bulk Modulus (GPa) = 44.26094 87.26268 65.76181
# Shear Modulus (GPa) = 20.46333 29.69724 25.08029
#
# Velocity S-wave (km/s) = 3.35352 4.03990 3.71261
# Velocity P-wave (km/s) = 6.27052 8.34975 7.38369
#
# Compressibility (1/GPa) = 0.02259329
#
# Stress axis : x y z
#
# Youngs Moduli (GPa) = 125.34660 40.76406 131.94029
#
# Poissons Ratio (x) = 0.12987 0.52305
# Poissons Ratio (y) = 0.39935 0.21075
# Poissons Ratio (z) = 0.49691 0.06511
#
# Static dielectric constant tensor:
#      x y z
#    x 1.609390 0.000000 -0.012360 
#    y 0.000000 1.631090 0.000000 
#    z -0.012360 0.000000 1.619320 
# 
# From -- ./inp_files/360036.got.cif
#   From: 2010.05.17/outbox.cif.g08.bks.cpg/sg12_181_cif.got.tgz:360036.got - 2010.06.03 13:09:07.
