data_PCOD9188416
_publ_section_title
;
Structure prediction by ZEFSAII (Michael W. Deem and Ramdas Pophale) SiO2 
 PCOD9188416
Probable space group: C 2/M
;
_chemical_formula_sum "Si O2"
_cell_formula_units_Z 52
_cell_length_a 12.335640
_cell_length_b 14.813571
_cell_length_c 17.336139
_cell_angle_alpha 90.000000
_cell_angle_beta 129.751904
_cell_angle_gamma 90.000000
_cell_volume 2435.559994
_symmetry_space_group_name_H-M "C 2/M"
_symmetry_group_IT_number 12
_symmetry_cell_setting 'monoclinic'
loop_
_space_group_symop_operation_xyz
x,y,z
-x,y,-z
-x,-y,-z
x,-y,z
1/2+x,1/2+y,z
1/2-x,1/2+y,-z
1/2-x,1/2-y,-z
1/2+x,1/2-y,z
loop_
_atom_site_type_symbol
_atom_site_label
_atom_site_fract_x
_atom_site_fract_y
_atom_site_fract_z
Si Si1 0.500000 0.765837 0.000000
Si Si2 0.844406 0.600936 0.359730
Si Si3 0.340960 0.600333 0.398881
Si Si4 0.956448 0.898632 0.862182
Si Si5 0.210361 0.190125 0.906926
Si Si6 0.219103 0.851967 0.464668
Si Si7 0.916734 0.775639 0.309374
O O1 0.461642 0.691716 0.916590
O O2 0.366624 0.830275 0.949663
O O3 0.899914 0.500000 0.371773
O O4 0.688518 0.606625 0.250878
O O5 0.811107 0.614925 0.435050
O O6 0.934722 0.680504 0.361628
O O7 0.500000 0.623356 0.500000
O O8 0.340682 0.500000 0.366092
O O9 0.260114 0.600524 0.443349
O O10 0.308213 0.671742 0.317364
O O11 0.100700 0.887102 0.879504
O O12 0.956747 0.000000 0.897400
O O13 0.137516 0.240913 0.801598
O O14 0.250000 0.250000 0.000000
O O15 0.250000 0.750000 0.500000
O O16 0.052803 0.842139 0.365869
#
# Coordination Sequence:
#
# PCOD9188416 Si02
#       7
#     4   8   8   8   8   8   8
#     4  10  19  36  59  84 114 148 190 242 299 352
#     4  11  22  37  60  88 117 155 199 242 289 351
#     4   9  19  34  57  84 111 145 191 240 286 343
#     4  10  20  35  58  87 110 147 199 244 287 346
#     4  10  21  36  57  87 116 151 193 239 298 347
#     4  11  21  37  60  85 120 155 194 238 295 351
#     4  11  21  38  59  85 121 154 195 245 296 349
#
# _framework density 21.350325000000002
#
# number of rings (size 3 to 8) (size 9 to 14) (size 15 to 20)
#    0.000    1.692    4.615    0.692    0.000    1.231 
#    0.000    2.692    0.000    0.000    0.000    0.000 
#    0.000    0.000    0.000    0.000    0.000    0.000 
#
# Total GULP energy -144764.760100 kJ/mol
# GULP energy per Si atom -5567.875388 kJ/mol
# Density = 2.130173 g / cm^3
# Si number density = 21.350325 Si / 1000 Ang^3
#
#
#
# Elastic Constant Matrix: (Units=GPa)
#
#
# Indices 1 2 3 4 5 6 
#
# 1 32.7688 -3.1033 20.4451 0.0000 -3.0132 0.0000
# 2 -3.1033 74.7830 28.6747 0.0000 -14.3507 0.0000
# 3 20.4451 28.6747 102.2793 0.0000 -18.5093 0.0000
# 4 0.0000 0.0000 0.0000 14.6501 0.0000 3.1928
# 5 -3.0132 -14.3507 -18.5093 0.0000 40.2065 0.0000
# 6 0.0000 0.0000 0.0000 3.1928 0.0000 21.8942
#
#
#
# Elastic Compliance Matrix: (Units=1/GPa)
#
#
# Indices 1 2 3 4 5 6 
#
# 1 0.036358 0.004887 -0.008540 0.000000 0.000537 0.000000
# 2 0.004887 0.016169 -0.004799 0.000000 0.003928 0.000000
# 3 -0.008540 -0.004799 0.013531 0.000000 0.003876 0.000000
# 4 0.000000 0.000000 0.000000 0.070499 0.000000 -0.010281
# 5 0.000537 0.003928 0.003876 0.000000 0.028098 0.000000
# 6 0.000000 0.000000 0.000000 -0.010281 0.000000 0.047173
#
#
# Mechanical properties :
#
#
# Convention : Reuss Voigt Hill
#
# Bulk Modulus (GPa) = 20.34512 33.54043 26.94277
# Shear Modulus (GPa) = 20.39834 26.27114 23.33474
#
# Velocity S-wave (km/s) = 3.09433 3.51163 3.30956
# Velocity P-wave (km/s) = 4.72402 5.67324 5.22025
#
# Compressibility (1/GPa) = 0.04915185
#
# Stress axis : x y z
#
# Youngs Moduli (GPa) = 27.50460 61.84793 73.90303
#
# Poissons Ratio (x) = -0.30223 0.63116
# Poissons Ratio (y) = -0.13440 0.35466
# Poissons Ratio (z) = 0.23490 0.29681
#
# Static dielectric constant tensor:
#      x y z
#    x 1.896730 0.000000 0.003420 
#    y 0.000000 1.687030 0.000000 
#    z 0.003420 0.000000 1.873680 
# 
# From -- ./inp_files/269972.got.cif
#   From: 2010.05.17/outbox.cif.g08.bks.cpg/sg12_135_cif.got.tgz:269972.got - 2010.06.03 13:09:07.
