data_PCOD9188641
_publ_section_title
;
Structure prediction by ZEFSAII (Michael W. Deem and Ramdas Pophale) SiO2 
 PCOD9188641
Probable space group: C 2/M
;
_chemical_formula_sum "Si O2"
_cell_formula_units_Z 56
_cell_length_a 23.054297
_cell_length_b 18.924546
_cell_length_c 9.059264
_cell_angle_alpha 90.000000
_cell_angle_beta 134.392222
_cell_angle_gamma 90.000000
_cell_volume 2824.318184
_symmetry_space_group_name_H-M "C 2/M"
_symmetry_group_IT_number 12
_symmetry_cell_setting 'monoclinic'
loop_
_space_group_symop_operation_xyz
x,y,z
-x,y,-z
-x,-y,-z
x,-y,z
1/2+x,1/2+y,z
1/2-x,1/2+y,-z
1/2-x,1/2-y,-z
1/2+x,1/2-y,z
loop_
_atom_site_type_symbol
_atom_site_label
_atom_site_fract_x
_atom_site_fract_y
_atom_site_fract_z
Si Si1 0.961626 0.921015 0.091648
Si Si2 0.168424 0.329580 0.282559
Si Si3 0.423665 0.843059 0.175107
Si Si4 0.033255 0.205104 0.397174
Si Si5 0.050750 0.576530 0.243109
Si Si6 0.194210 0.166686 0.272219
Si Si7 0.686707 0.214439 0.771934
O O1 0.017179 0.864068 0.274041
O O2 0.125650 0.884898 0.090963
O O3 0.956184 0.000000 0.148622
O O4 0.000000 0.927957 0.000000
O O5 0.110510 0.360676 0.306119
O O6 0.162663 0.244960 0.259532
O O7 0.256438 0.354843 0.493300
O O8 0.139711 0.354348 0.070914
O O9 0.474901 0.770184 0.241954
O O10 0.491241 0.902851 0.270415
O O11 0.374492 0.833997 0.239222
O O12 0.125654 0.230850 0.582431
O O13 0.000000 0.188417 0.500000
O O14 0.089863 0.500000 0.337785
O O15 0.000000 0.571538 0.000000
O O16 0.258103 0.178104 0.252925
O O17 0.750000 0.250000 0.000000
#
# Coordination Sequence:
#
# PCOD9188641 Si02
#       7
#     8   8   8   8   8   8   8
#     4  11  26  43  61  87 124 166 209 258 312 371
#     4  10  20  33  61  89 116 159 197 252 308 352
#     4  10  19  36  60  89 120 156 199 252 302 363
#     4  10  21  38  64  90 119 160 209 255 302 371
#     4   9  19  34  55  88 121 154 197 246 304 375
#     4  11  22  37  58  90 118 156 205 255 302 362
#     4  11  21  36  58  91 120 148 198 258 307 355
#
# _framework density 19.827793
#
# number of rings (size 3 to 8) (size 9 to 14) (size 15 to 20)
#    0.000    1.714    2.857    1.714    6.000    0.857 
#    0.000    0.714    0.000    9.000    0.000    0.000 
#    0.000    0.000    0.000    0.000    0.000    0.000 
#
# Total GULP energy -156113.655123 kJ/mol
# GULP energy per Si atom -5575.487683 kJ/mol
# Density = 1.978266 g / cm^3
# Si number density = 19.827793 Si / 1000 Ang^3
#
#
#
# Elastic Constant Matrix: (Units=GPa)
#
#
# Indices 1 2 3 4 5 6 
#
# 1 116.0397 59.6536 25.8136 0.0000 6.9149 0.0000
# 2 59.6536 80.6471 24.9391 0.0000 0.8973 0.0000
# 3 25.8136 24.9391 119.8046 0.0000 6.4340 0.0000
# 4 0.0000 0.0000 0.0000 22.4350 0.0000 0.5496
# 5 6.9149 0.8973 6.4340 0.0000 24.8696 0.0000
# 6 0.0000 0.0000 0.0000 0.5496 0.0000 9.3383
#
#
#
# Elastic Compliance Matrix: (Units=1/GPa)
#
#
# Indices 1 2 3 4 5 6 
#
# 1 0.014278 -0.010291 -0.000751 0.000000 -0.003404 0.000000
# 2 -0.010291 0.020672 -0.002230 0.000000 0.002693 0.000000
# 3 -0.000751 -0.002230 0.009084 0.000000 -0.002061 0.000000
# 4 0.000000 0.000000 0.000000 0.044638 0.000000 -0.002627
# 5 -0.003404 0.002693 -0.002061 0.000000 0.041592 0.000000
# 6 0.000000 0.000000 0.000000 -0.002627 0.000000 0.107241
#
#
# Mechanical properties :
#
#
# Convention : Reuss Voigt Hill
#
# Bulk Modulus (GPa) = 57.18234 59.70044 58.44139
# Shear Modulus (GPa) = 18.52678 25.06758 21.79718
#
# Velocity S-wave (km/s) = 3.06009 3.55951 3.31920
# Velocity P-wave (km/s) = 6.43332 6.86063 6.65041
#
# Compressibility (1/GPa) = 0.01748792
#
# Stress axis : x y z
#
# Youngs Moduli (GPa) = 70.03660 48.37525 110.08658
#
# Poissons Ratio (x) = 0.49784 0.08272
# Poissons Ratio (y) = 0.72076 0.24553
# Poissons Ratio (z) = 0.05262 0.10789
#
# Static dielectric constant tensor:
#      x y z
#    x 1.708690 0.000000 0.019360 
#    y 0.000000 1.724780 0.000000 
#    z 0.019360 0.000000 1.758990 
# 
# From -- ./inp_files/89681.got.cif
#   From: 2010.05.17/outbox.cif.g08.bks.cpg/sg12_45_cif.got.tgz:89681.got - 2010.06.03 13:09:07.
