data_PCOD9188674
_publ_section_title
;
Structure prediction by ZEFSAII (Michael W. Deem and Ramdas Pophale) SiO2 
 PCOD9188674
Probable space group: C 2/M
;
_chemical_formula_sum "Si O2"
_cell_formula_units_Z 32
_cell_length_a 10.121636
_cell_length_b 33.152063
_cell_length_c 6.801419
_cell_angle_alpha 90.000000
_cell_angle_beta 43.167932
_cell_angle_gamma 90.000000
_cell_volume 1561.367564
_symmetry_space_group_name_H-M "C 2/M"
_symmetry_group_IT_number 12
_symmetry_cell_setting 'monoclinic'
loop_
_space_group_symop_operation_xyz
x,y,z
-x,y,-z
-x,-y,-z
x,-y,z
1/2+x,1/2+y,z
1/2-x,1/2+y,-z
1/2-x,1/2-y,-z
1/2+x,1/2-y,z
loop_
_atom_site_type_symbol
_atom_site_label
_atom_site_fract_x
_atom_site_fract_y
_atom_site_fract_z
Si Si1 0.714781 0.000000 0.608872
Si Si2 0.114703 0.695780 0.566839
Si Si3 0.647026 0.500000 0.083565
Si Si4 0.000000 0.633064 0.000000
Si Si5 0.500000 0.260259 0.000000
Si Si6 0.423100 0.930328 0.783285
O O1 0.585433 0.038787 0.694408
O O2 0.785263 0.000000 0.758450
O O3 0.922448 0.000000 0.283392
O O4 0.000000 0.682382 0.500000
O O5 0.127400 0.660780 0.716905
O O6 0.992864 0.730510 0.816985
O O7 0.315152 0.713166 0.262910
O O8 0.748801 0.459057 0.907283
O O9 0.878095 0.603380 0.992251
O O10 0.500000 0.911259 0.500000
#
# Coordination Sequence:
#
# PCOD9188674 Si02
#       6
#     4   8   4   4   4   8
#     4  10  19  36  61  83 103 146 201 242 293 337
#     4  10  20  38  63  87 118 151 186 232 284 333
#     4  10  19  36  61  81 107 144 195 253 284 336
#     4  11  22  39  54  83 124 156 188 229 288 349
#     4   9  20  38  64  93 112 142 196 235 268 344
#     4  11  21  37  58  79 113 152 191 241 290 339
#
# _framework density 20.494854
#
# number of rings (size 3 to 8) (size 9 to 14) (size 15 to 20)
#    0.000    1.750    2.500    3.750    0.000    2.000 
#    0.000    7.500    0.000    0.000    0.000    0.000 
#    0.000    0.000    0.000    0.000    0.000    0.000 
#
# Total GULP energy -89150.345183 kJ/mol
# GULP energy per Si atom -5571.896574 kJ/mol
# Density = 2.044821 g / cm^3
# Si number density = 20.494854 Si / 1000 Ang^3
#
#
#
# Elastic Constant Matrix: (Units=GPa)
#
#
# Indices 1 2 3 4 5 6 
#
# 1 77.3104 45.0992 49.3496 0.0000 7.5612 0.0000
# 2 45.0992 124.0392 66.9500 0.0000 4.7036 0.0000
# 3 49.3496 66.9500 155.6574 0.0000 9.8993 0.0000
# 4 0.0000 0.0000 0.0000 0.3126 0.0000 13.1204
# 5 7.5612 4.7036 9.8993 0.0000 43.7958 0.0000
# 6 0.0000 0.0000 0.0000 13.1204 0.0000 1.0919
#
#
#
# Elastic Compliance Matrix: (Units=1/GPa)
#
#
# Indices 1 2 3 4 5 6 
#
# 1 0.018100 -0.004528 -0.003676 0.000000 -0.001808 0.000000
# 2 -0.004528 0.011633 -0.003590 0.000000 0.000344 0.000000
# 3 -0.003676 -0.003590 0.009201 0.000000 -0.001060 0.000000
# 4 0.000000 0.000000 0.000000 -0.006355 0.000000 0.076369
# 5 -0.001808 0.000344 -0.001060 0.000000 0.023348 0.000000
# 6 0.000000 0.000000 0.000000 0.076369 0.000000 -0.001819
#
#
# Mechanical properties :
#
#
# Convention : Reuss Voigt Hill
#
# Bulk Modulus (GPa) = 65.16247 75.53385 70.34816
# Shear Modulus (GPa) = 60.37971 22.08059 41.23015
#
# Velocity S-wave (km/s) = 5.43368 3.28590 4.49010
# Velocity P-wave (km/s) = 8.43979 7.16458 7.82819
#
# Compressibility (1/GPa) = 0.01534626
#
# Stress axis : x y z
#
# Youngs Moduli (GPa) = 55.25006 85.96332 108.68349
#
# Poissons Ratio (x) = 0.38927 0.39948
# Poissons Ratio (y) = 0.25019 0.39014
# Poissons Ratio (z) = 0.20308 0.30858
#
# Static dielectric constant tensor:
#      x y z
#    x 1.730100 0.000000 0.062270 
#    y 0.000000 1.750640 0.000000 
#    z 0.062270 0.000000 1.808960 
# 
# From -- ./inp_files/40745.got.cif
#   From: 2010.05.17/outbox.cif.g08.bks.cpg/sg12_21_cif.got.tgz:40745.got - 2010.06.03 13:09:07.
