data_PCOD9188579
_publ_section_title
;
Structure prediction by ZEFSAII (Michael W. Deem and Ramdas Pophale) SiO2 
 PCOD9188579
Probable space group: C 2/M
;
_chemical_formula_sum "Si O2"
_cell_formula_units_Z 56
_cell_length_a 20.996755
_cell_length_b 12.931640
_cell_length_c 16.445832
_cell_angle_alpha 90.000000
_cell_angle_beta 137.648094
_cell_angle_gamma 90.000000
_cell_volume 3008.269689
_symmetry_space_group_name_H-M "C 2/M"
_symmetry_group_IT_number 12
_symmetry_cell_setting 'monoclinic'
loop_
_space_group_symop_operation_xyz
x,y,z
-x,y,-z
-x,-y,-z
x,-y,z
1/2+x,1/2+y,z
1/2-x,1/2+y,-z
1/2-x,1/2-y,-z
1/2+x,1/2-y,z
loop_
_atom_site_type_symbol
_atom_site_label
_atom_site_fract_x
_atom_site_fract_y
_atom_site_fract_z
Si Si1 0.893779 0.275515 0.885239
Si Si2 0.576940 0.617258 0.232719
Si Si3 0.842566 0.383013 0.125617
Si Si4 0.866994 0.813459 0.034921
Si Si5 0.295366 0.615641 0.307666
Si Si6 0.410842 0.618906 0.576341
Si Si7 0.940403 0.726802 0.363919
O O1 0.895964 0.199973 0.809625
O O2 0.814868 0.361983 0.802296
O O3 0.866021 0.209579 0.938318
O O4 0.000000 0.314773 0.000000
O O5 0.599262 0.500000 0.227982
O O6 0.464092 0.626226 0.142083
O O7 0.621927 0.639281 0.362974
O O8 0.863504 0.500000 0.119662
O O9 0.871043 0.295278 0.087421
O O10 0.896222 0.356426 0.260804
O O11 0.729656 0.369243 0.031256
O O12 0.319188 0.500000 0.301381
O O13 0.328649 0.624467 0.432234
O O14 0.355277 0.700388 0.315172
O O15 0.447190 0.500000 0.608712
O O16 0.489831 0.699053 0.621486
O O17 0.000000 0.690787 0.500000
#
# Coordination Sequence:
#
# PCOD9188579 Si02
#       7
#     8   8   8   8   8   8   8
#     4  10  22  37  55  81 110 147 194 231 271 329
#     4  10  20  36  60  82 108 146 190 238 276 320
#     4  11  22  36  58  85 116 147 180 227 286 343
#     4  10  21  39  53  83 114 147 185 227 275 334
#     4  10  20  36  57  83 115 150 186 232 282 330
#     4   9  18  34  60  88 110 141 187 234 283 330
#     4  10  19  36  60  86 114 145 182 233 281 338
#
# _framework density 18.615352999999999
#
# number of rings (size 3 to 8) (size 9 to 14) (size 15 to 20)
#    0.000    2.000    2.857    0.857    0.000    6.571 
#    0.000    2.143    0.000    0.000    0.000    0.000 
#    0.000    0.000    0.000    0.000    0.000    0.000 
#
# Total GULP energy -156202.578053 kJ/mol
# GULP energy per Si atom -5578.663502 kJ/mol
# Density = 1.857298 g / cm^3
# Si number density = 18.615353 Si / 1000 Ang^3
#
#
#
# Elastic Constant Matrix: (Units=GPa)
#
#
# Indices 1 2 3 4 5 6 
#
# 1 40.8504 2.8584 3.8303 0.0000 -7.1067 0.0000
# 2 2.8584 57.4316 18.5842 0.0000 -5.7772 0.0000
# 3 3.8303 18.5842 28.5886 0.0000 -2.2871 0.0000
# 4 0.0000 0.0000 0.0000 20.5746 0.0000 -2.4680
# 5 -7.1067 -5.7772 -2.2871 0.0000 26.7876 0.0000
# 6 0.0000 0.0000 0.0000 -2.4680 0.0000 14.4382
#
#
#
# Elastic Compliance Matrix: (Units=1/GPa)
#
#
# Indices 1 2 3 4 5 6 
#
# 1 0.025915 0.000423 -0.003211 0.000000 0.006692 0.000000
# 2 0.000423 0.022399 -0.014319 0.000000 0.003720 0.000000
# 3 -0.003211 -0.014319 0.044708 0.000000 -0.000123 0.000000
# 4 0.000000 0.000000 0.000000 0.049621 0.000000 0.008482
# 5 0.006692 0.003720 -0.000123 0.000000 0.039898 0.000000
# 6 0.000000 0.000000 0.000000 0.008482 0.000000 0.070711
#
#
# Mechanical properties :
#
#
# Convention : Reuss Voigt Hill
#
# Bulk Modulus (GPa) = 17.00529 19.71295 18.35912
# Shear Modulus (GPa) = 16.28292 19.13326 17.70809
#
# Velocity S-wave (km/s) = 2.96075 3.20944 3.08760
# Velocity P-wave (km/s) = 4.56541 4.93423 4.75340
#
# Compressibility (1/GPa) = 0.05880523
#
# Stress axis : x y z
#
# Youngs Moduli (GPa) = 38.58719 44.64520 22.36742
#
# Poissons Ratio (x) = -0.01887 0.07183
# Poissons Ratio (y) = -0.01631 0.32029
# Poissons Ratio (z) = 0.12392 0.63930
#
# Static dielectric constant tensor:
#      x y z
#    x 1.621150 0.000000 -0.006900 
#    y 0.000000 1.616910 0.000000 
#    z -0.006900 0.000000 1.677460 
# 
# From -- ./inp_files/289189.got.cif
#   From: 2010.05.17/outbox.cif.g08.bks.cpg/sg12_145_cif.got.tgz:289189.got - 2010.06.03 13:09:07.
