data_PCOD9188418
_publ_section_title
;
Structure prediction by ZEFSAII (Michael W. Deem and Ramdas Pophale) SiO2 
 PCOD9188418
Probable space group: C 2/M
;
_chemical_formula_sum "Si O2"
_cell_formula_units_Z 56
_cell_length_a 9.547061
_cell_length_b 18.333058
_cell_length_c 23.644460
_cell_angle_alpha 90.000000
_cell_angle_beta 131.550114
_cell_angle_gamma 90.000000
_cell_volume 3097.089718
_symmetry_space_group_name_H-M "C 2/M"
_symmetry_group_IT_number 12
_symmetry_cell_setting 'monoclinic'
loop_
_space_group_symop_operation_xyz
x,y,z
-x,y,-z
-x,-y,-z
x,-y,z
1/2+x,1/2+y,z
1/2-x,1/2+y,-z
1/2-x,1/2-y,-z
1/2+x,1/2-y,z
loop_
_atom_site_type_symbol
_atom_site_label
_atom_site_fract_x
_atom_site_fract_y
_atom_site_fract_z
Si Si1 0.465922 0.795724 0.209949
Si Si2 0.909086 0.085352 0.160826
Si Si3 0.652664 0.913218 0.735817
Si Si4 0.138651 0.832290 0.739873
Si Si5 0.008272 0.088123 0.408242
Si Si6 0.202666 0.587855 0.423451
Si Si7 0.780038 0.714350 0.947633
O O1 0.402864 0.870248 0.222679
O O2 0.663456 0.804706 0.231705
O O3 0.469189 0.735310 0.260489
O O4 0.311979 0.766429 0.124549
O O5 0.829497 0.111445 0.199950
O O6 0.820415 0.136900 0.089468
O O7 0.132194 0.099766 0.221867
O O8 0.877922 0.000000 0.143037
O O9 0.506532 0.888770 0.648041
O O10 0.627972 0.000000 0.737157
O O11 0.027731 0.871363 0.659814
O O12 0.194117 0.112780 0.491951
O O13 0.836771 0.103862 0.405675
O O14 0.013196 0.000000 0.401216
O O15 0.201414 0.500000 0.427815
O O16 0.750000 0.750000 0.000000
O O17 0.000000 0.704934 0.000000
#
# Coordination Sequence:
#
# PCOD9188418 Si02
#       7
#     8   8   8   8   8   8   8
#     4  11  22  37  58  84 110 145 192 229 280 346
#     4  10  22  38  59  88 117 145 186 235 279 329
#     4  10  19  36  59  84 115 148 185 232 280 327
#     4  11  21  36  57  81 115 152 190 235 278 330
#     4   9  16  30  55  86 113 146 192 233 276 325
#     4   8  15  29  54  84 114 148 186 231 277 326
#     4  11  22  40  61  81 110 148 182 224 285 344
#
# _framework density 18.081491
#
# number of rings (size 3 to 8) (size 9 to 14) (size 15 to 20)
#    0.000    2.000    1.429    5.571    0.000    0.857 
#    0.000    2.143    0.000    6.000    0.000    0.000 
#    0.000    0.000    0.000    0.000    0.000    0.000 
#
# Total GULP energy -156205.753703 kJ/mol
# GULP energy per Si atom -5578.776918 kJ/mol
# Density = 1.804034 g / cm^3
# Si number density = 18.081491 Si / 1000 Ang^3
#
#
#
# Elastic Constant Matrix: (Units=GPa)
#
#
# Indices 1 2 3 4 5 6 
#
# 1 89.8049 57.0477 56.8538 0.0000 10.0105 0.0000
# 2 57.0477 79.6873 67.1698 0.0000 4.4971 0.0000
# 3 56.8538 67.1698 144.3500 0.0000 3.1498 0.0000
# 4 0.0000 0.0000 0.0000 35.8950 0.0000 -2.7717
# 5 10.0105 4.4971 3.1498 0.0000 32.8836 0.0000
# 6 0.0000 0.0000 0.0000 -2.7717 0.0000 19.4711
#
#
#
# Elastic Compliance Matrix: (Units=1/GPa)
#
#
# Indices 1 2 3 4 5 6 
#
# 1 0.021437 -0.013259 -0.002175 0.000000 -0.004504 0.000000
# 2 -0.013259 0.028969 -0.008277 0.000000 0.000867 0.000000
# 3 -0.002175 -0.008277 0.011621 0.000000 0.000681 0.000000
# 4 0.000000 0.000000 0.000000 0.028169 0.000000 0.004010
# 5 -0.004504 0.000867 0.000681 0.000000 0.031598 0.000000
# 6 0.000000 0.000000 0.000000 0.004010 0.000000 0.051929
#
#
# Mechanical properties :
#
#
# Convention : Reuss Voigt Hill
#
# Bulk Modulus (GPa) = 68.46991 75.10942 71.78967
# Shear Modulus (GPa) = 22.12279 26.50134 24.31206
#
# Velocity S-wave (km/s) = 3.50166 3.83255 3.67083
# Velocity P-wave (km/s) = 7.36875 7.82395 7.59976
#
# Compressibility (1/GPa) = 0.01460496
#
# Stress axis : x y z
#
# Youngs Moduli (GPa) = 46.64832 34.52014 86.05270
#
# Poissons Ratio (x) = 0.45770 0.18718
# Poissons Ratio (y) = 0.61851 0.71222
# Poissons Ratio (z) = 0.10147 0.28571
#
# Static dielectric constant tensor:
#      x y z
#    x 1.609480 0.000000 0.013290 
#    y 0.000000 1.626920 0.000000 
#    z 0.013290 0.000000 1.627690 
# 
# From -- ./inp_files/301801.got.cif
#   From: 2010.05.17/outbox.cif.g08.bks.cpg/sg12_151_cif.got.tgz:301801.got - 2010.06.03 13:09:07.
