data_PCOD9188258
_publ_section_title
;
Structure prediction by ZEFSAII (Michael W. Deem and Ramdas Pophale) SiO2 
 PCOD9188258
Probable space group: C 2/M
;
_chemical_formula_sum "Si O2"
_cell_formula_units_Z 48
_cell_length_a 9.575300
_cell_length_b 27.372361
_cell_length_c 10.437106
_cell_angle_alpha 90.000000
_cell_angle_beta 60.864327
_cell_angle_gamma 90.000000
_cell_volume 2389.419294
_symmetry_space_group_name_H-M "C 2/M"
_symmetry_group_IT_number 12
_symmetry_cell_setting 'monoclinic'
loop_
_space_group_symop_operation_xyz
x,y,z
-x,y,-z
-x,-y,-z
x,-y,z
1/2+x,1/2+y,z
1/2-x,1/2+y,-z
1/2-x,1/2-y,-z
1/2+x,1/2-y,z
loop_
_atom_site_type_symbol
_atom_site_label
_atom_site_fract_x
_atom_site_fract_y
_atom_site_fract_z
Si Si1 0.678397 0.214486 0.387573
Si Si2 0.956569 0.369701 0.726696
Si Si3 0.119005 0.877506 0.249239
Si Si4 0.785842 0.866842 0.496576
Si Si5 0.659993 0.057012 0.015662
Si Si6 0.637583 0.202707 0.843113
O O1 0.500000 0.233041 0.500000
O O2 0.648210 0.167076 0.310557
O O3 0.758595 0.190750 0.477537
O O4 0.786456 0.252654 0.266512
O O5 0.107130 0.388785 0.574991
O O6 0.042278 0.335297 0.795041
O O7 0.866378 0.411612 0.844064
O O8 0.158518 0.877807 0.383690
O O9 0.198766 0.920314 0.132699
O O10 0.213692 0.828184 0.163047
O O11 0.927401 0.880499 0.336251
O O12 0.682886 0.000000 0.031560
O O13 0.500000 0.062717 0.000000
O O14 0.500000 0.220132 0.000000
#
# Coordination Sequence:
#
# PCOD9188258 Si02
#       6
#     8   8   8   8   8   8
#     4  10  24  35  55  81 117 159 190 217 279 344
#     4  10  20  39  56  82 116 146 191 238 274 333
#     4  10  19  36  58  80 112 143 185 245 272 324
#     4   9  20  36  54  80 113 150 184 226 282 322
#     4  11  20  38  64  87 109 145 188 237 293 333
#     4  11  21  34  52  81 112 151 190 232 271 322
#
# _framework density 20.088563000000001
#
# number of rings (size 3 to 8) (size 9 to 14) (size 15 to 20)
#    0.000    1.833    5.000    0.000    7.000    5.333 
#    0.000    2.500    0.000    7.500    0.000    0.000 
#    0.000    0.000    0.000    0.000    0.000    0.000 
#
# Total GULP energy -133794.719892 kJ/mol
# GULP energy per Si atom -5574.779995 kJ/mol
# Density = 2.004284 g / cm^3
# Si number density = 20.088563 Si / 1000 Ang^3
#
#
#
# Elastic Constant Matrix: (Units=GPa)
#
#
# Indices 1 2 3 4 5 6 
#
# 1 54.0656 32.5517 46.1110 0.0000 -13.6183 0.0000
# 2 32.5517 106.2588 89.4994 0.0000 -14.7312 0.0000
# 3 46.1110 89.4994 182.8213 0.0000 -47.6036 0.0000
# 4 0.0000 0.0000 0.0000 30.7744 0.0000 -3.9865
# 5 -13.6183 -14.7312 -47.6036 0.0000 29.5790 0.0000
# 6 0.0000 0.0000 0.0000 -3.9865 0.0000 20.5021
#
#
#
# Elastic Compliance Matrix: (Units=1/GPa)
#
#
# Indices 1 2 3 4 5 6 
#
# 1 0.024823 -0.004601 -0.002804 0.000000 0.004624 0.000000
# 2 -0.004601 0.018045 -0.010130 0.000000 -0.009434 0.000000
# 3 -0.002804 -0.010130 0.016329 0.000000 0.019943 0.000000
# 4 0.000000 0.000000 0.000000 0.033334 0.000000 0.006482
# 5 0.004624 -0.009434 0.019943 0.000000 0.063334 0.000000
# 6 0.000000 0.000000 0.000000 0.006482 0.000000 0.050036
#
#
# Mechanical properties :
#
#
# Convention : Reuss Voigt Hill
#
# Bulk Modulus (GPa) = 41.44908 75.49664 58.47286
# Shear Modulus (GPa) = 20.07929 27.83667 23.95798
#
# Velocity S-wave (km/s) = 3.16498 3.72653 3.45718
# Velocity P-wave (km/s) = 5.83387 7.49530 6.71616
#
# Compressibility (1/GPa) = 0.02412599
#
# Stress axis : x y z
#
# Youngs Moduli (GPa) = 40.28565 55.41830 61.24122
#
# Poissons Ratio (x) = 0.25500 0.17173
# Poissons Ratio (y) = 0.18537 0.62035
# Poissons Ratio (z) = 0.11297 0.56136
#
# Static dielectric constant tensor:
#      x y z
#    x 1.793050 0.000000 0.028520 
#    y 0.000000 1.695480 0.000000 
#    z 0.028520 0.000000 1.789490 
# 
# From -- ./inp_files/135210.got.cif
#   From: 2010.05.17/outbox.cif.g08.bks.cpg/sg12_68_cif.got.tgz:135210.got - 2010.06.03 13:09:07.
