data_PCOD9188000
_publ_section_title
;
Structure prediction by ZEFSAII (Michael W. Deem and Ramdas Pophale) SiO2 
 PCOD9188000
Probable space group: C 2/M
;
_chemical_formula_sum "Si O2"
_cell_formula_units_Z 44
_cell_length_a 7.636772
_cell_length_b 30.813655
_cell_length_c 8.803986
_cell_angle_alpha 90.000000
_cell_angle_beta 102.677748
_cell_angle_gamma 90.000000
_cell_volume 2021.217327
_symmetry_space_group_name_H-M "C 2/M"
_symmetry_group_IT_number 12
_symmetry_cell_setting 'monoclinic'
loop_
_space_group_symop_operation_xyz
x,y,z
-x,y,-z
-x,-y,-z
x,-y,z
1/2+x,1/2+y,z
1/2-x,1/2+y,-z
1/2-x,1/2-y,-z
1/2+x,1/2-y,z
loop_
_atom_site_type_symbol
_atom_site_label
_atom_site_fract_x
_atom_site_fract_y
_atom_site_fract_z
Si Si1 0.751052 0.625509 0.203756
Si Si2 0.790856 0.048243 0.015692
Si Si3 0.082032 0.088006 0.664239
Si Si4 0.680877 0.681803 0.617878
Si Si5 0.714120 0.200046 0.025801
Si Si6 0.500000 0.831688 0.500000
O O1 0.577787 0.609462 0.265216
O O2 0.715832 0.667004 0.089189
O O3 0.899355 0.640145 0.352798
O O4 0.801068 0.585917 0.100611
O O5 0.802415 0.060548 0.195401
O O6 0.717837 0.000000 0.977429
O O7 0.000000 0.047673 0.000000
O O8 0.000000 0.064642 0.500000
O O9 0.187747 0.129078 0.617061
O O10 0.500000 0.694926 0.500000
O O11 0.852472 0.697041 0.557391
O O12 0.693323 0.692481 0.795369
O O13 0.500000 0.192033 0.000000
O O14 0.750000 0.250000 0.000000
#
# Coordination Sequence:
#
# PCOD9188000 Si02
#       6
#     8   8   8   8   8   4
#     4  11  22  40  65  92 133 173 218 275 330 389
#     4   9  19  35  62  97 131 172 219 269 330 397
#     4  10  19  35  66  94 126 174 216 269 331 391
#     4  11  23  43  70  99 132 175 225 272 338 397
#     4  12  28  45  68  98 131 176 227 275 334 402
#     4  12  22  40  69  98 130 178 216 282 333 392
#
# _framework density 21.769061000000001
#
# number of rings (size 3 to 8) (size 9 to 14) (size 15 to 20)
#    0.000    1.273    7.273    0.000    2.545    0.364 
#    1.636    2.273    2.000    4.909    0.000    0.000 
#    0.000    0.000    0.000    0.000    0.000    0.000 
#
# Total GULP energy -122959.548859 kJ/mol
# GULP energy per Si atom -5589.070403 kJ/mol
# Density = 2.171951 g / cm^3
# Si number density = 21.769061 Si / 1000 Ang^3
#
#
#
# Elastic Constant Matrix: (Units=GPa)
#
#
# Indices 1 2 3 4 5 6 
#
# 1 76.7869 4.5256 33.3759 0.0000 -0.3147 0.0000
# 2 4.5256 111.9685 66.3832 0.0000 10.3891 0.0000
# 3 33.3759 66.3832 205.0433 0.0000 25.0998 0.0000
# 4 0.0000 0.0000 0.0000 -5.5512 0.0000 4.1306
# 5 -0.3147 10.3891 25.0998 0.0000 36.9255 0.0000
# 6 0.0000 0.0000 0.0000 4.1306 0.0000 3.2948
#
#
#
# Elastic Compliance Matrix: (Units=1/GPa)
#
#
# Indices 1 2 3 4 5 6 
#
# 1 0.014207 0.000942 -0.002836 0.000000 0.001784 0.000000
# 2 0.000942 0.011133 -0.003682 0.000000 -0.000622 0.000000
# 3 -0.002836 -0.003682 0.006988 0.000000 -0.003738 0.000000
# 4 0.000000 0.000000 0.000000 -0.093199 0.000000 0.116842
# 5 0.001784 -0.000622 -0.003738 0.000000 0.029813 0.000000
# 6 0.000000 0.000000 0.000000 0.116842 0.000000 0.157026
#
#
# Mechanical properties :
#
#
# Convention : Reuss Voigt Hill
#
# Bulk Modulus (GPa) = 47.22035 66.92980 57.07507
# Shear Modulus (GPa) = 34.67901 26.23475 30.45688
#
# Velocity S-wave (km/s) = 3.99562 3.47528 3.74450
# Velocity P-wave (km/s) = 6.55936 6.84949 6.70600
#
# Compressibility (1/GPa) = 0.02117731
#
# Stress axis : x y z
#
# Youngs Moduli (GPa) = 70.38555 89.81939 143.09877
#
# Poissons Ratio (x) = -0.08457 0.40580
# Poissons Ratio (y) = -0.06627 0.52683
# Poissons Ratio (z) = 0.19960 0.33068
#
# Static dielectric constant tensor:
#      x y z
#    x 1.857690 0.000000 -0.062620 
#    y 0.000000 1.794750 0.000000 
#    z -0.062620 0.000000 1.645380 
# 
# From -- ./inp_files/41683.got.cif
#   From: 2010.05.17/outbox.cif.g08.bks.cpg/sg12_21_cif.got.tgz:41683.got - 2010.06.03 13:09:07.
