data_PCOD9188670
_publ_section_title
;
Structure prediction by ZEFSAII (Michael W. Deem and Ramdas Pophale) SiO2 
 PCOD9188670
Probable space group: C 2/M
;
_chemical_formula_sum "Si O2"
_cell_formula_units_Z 34
_cell_length_a 10.131815
_cell_length_b 26.749403
_cell_length_c 7.765716
_cell_angle_alpha 90.000000
_cell_angle_beta 46.752235
_cell_angle_gamma 90.000000
_cell_volume 1533.032680
_symmetry_space_group_name_H-M "C 2/M"
_symmetry_group_IT_number 12
_symmetry_cell_setting 'monoclinic'
loop_
_space_group_symop_operation_xyz
x,y,z
-x,y,-z
-x,-y,-z
x,-y,z
1/2+x,1/2+y,z
1/2-x,1/2+y,-z
1/2-x,1/2-y,-z
1/2+x,1/2-y,z
loop_
_atom_site_type_symbol
_atom_site_label
_atom_site_fract_x
_atom_site_fract_y
_atom_site_fract_z
Si Si1 0.787531 0.168281 0.047701
Si Si2 0.784320 0.734290 0.217973
Si Si3 0.516823 0.083964 0.684541
Si Si4 0.378867 0.354527 0.440444
Si Si5 0.000000 0.500000 0.000000
O O1 0.740287 0.207165 0.241698
O O2 0.634289 0.127231 0.166336
O O3 0.790451 0.205160 0.880568
O O4 0.984780 0.144730 0.841563
O O5 0.701924 0.700684 0.442985
O O6 0.000000 0.730931 0.000000
O O7 0.500000 0.066062 0.500000
O O8 0.711642 0.109220 0.550239
O O9 0.486688 0.043290 0.859091
O O10 0.500000 0.370339 0.500000
#
# Coordination Sequence:
#
# PCOD9188670 Si02
#       5
#     8   8   8   8   2
#     4  10  23  39  62 102 150 189 243 290 337 426
#     4  10  19  36  60  97 148 207 239 271 337 417
#     4  12  27  48  78 110 138 187 246 309 368 441
#     4  10  22  43  68 101 151 201 242 287 358 422
#     4  12  26  56  82  98 142 178 240 320 398 434
#
# _framework density 22.178263000000001
#
# number of rings (size 3 to 8) (size 9 to 14) (size 15 to 20)
#    0.000    1.412    2.353    3.176    3.294    5.647 
#    0.000    5.294    0.000    7.059    0.000    0.000 
#    0.000    0.000    0.000    0.000    0.000    0.000 
#
# Total GULP energy -94711.025600 kJ/mol
# GULP energy per Si atom -5571.236800 kJ/mol
# Density = 2.212778 g / cm^3
# Si number density = 22.178263 Si / 1000 Ang^3
#
#
#
# Elastic Constant Matrix: (Units=GPa)
#
#
# Indices 1 2 3 4 5 6 
#
# 1 131.0629 81.9376 101.0408 0.0000 23.4825 0.0000
# 2 81.9376 114.5397 64.5027 0.0000 9.9752 0.0000
# 3 101.0408 64.5027 123.4160 0.0000 10.1336 0.0000
# 4 0.0000 0.0000 0.0000 -17.0241 0.0000 -19.9722
# 5 23.4825 9.9752 10.1336 0.0000 67.9402 0.0000
# 6 0.0000 0.0000 0.0000 -19.9722 0.0000 -44.4191
#
#
#
# Elastic Compliance Matrix: (Units=1/GPa)
#
#
# Indices 1 2 3 4 5 6 
#
# 1 0.028477 -0.009930 -0.017652 0.000000 -0.005752 0.000000
# 2 -0.009930 0.015885 -0.000266 0.000000 0.001140 0.000000
# 3 -0.017652 -0.000266 0.022464 0.000000 0.002790 0.000000
# 4 0.000000 0.000000 0.000000 -0.124316 0.000000 0.055897
# 5 -0.005752 0.001140 0.002790 0.000000 0.016123 0.000000
# 6 0.000000 0.000000 0.000000 0.055897 0.000000 -0.047646
#
#
# Mechanical properties :
#
#
# Convention : Reuss Voigt Hill
#
# Bulk Modulus (GPa) = 89.84575 95.99785 92.92180
# Shear Modulus (GPa) = -168.87958 9.40189 -79.73885
#
# Velocity S-wave (km/s) = -8.73566 2.06117 -6.00264
# Velocity P-wave (km/s) = 7.81987 7.00309 2.46040
#
# Compressibility (1/GPa) = 0.01113019
#
# Stress axis : x y z
#
# Youngs Moduli (GPa) = 35.11623 62.95427 44.51478
#
# Poissons Ratio (x) = 0.62512 0.78578
# Poissons Ratio (y) = 0.34869 0.01184
# Poissons Ratio (z) = 0.61987 0.01675
#
# Static dielectric constant tensor:
#      x y z
#    x 1.994330 0.000000 0.062040 
#    y 0.000000 1.771270 0.000000 
#    z 0.062040 0.000000 1.963730 
# 
# From -- ./inp_files/52235.got.cif
#   From: 2010.05.17/outbox.cif.g08.bks.cpg/sg12_27_cif.got.tgz:52235.got - 2010.06.03 13:09:07.
