data_PCOD9188562
_publ_section_title
;
Structure prediction by ZEFSAII (Michael W. Deem and Ramdas Pophale) SiO2 
 PCOD9188562
Probable space group: C 2/M
;
_chemical_formula_sum "Si O2"
_cell_formula_units_Z 36
_cell_length_a 18.110446
_cell_length_b 12.538447
_cell_length_c 7.789961
_cell_angle_alpha 90.000000
_cell_angle_beta 98.035475
_cell_angle_gamma 90.000000
_cell_volume 1751.552170
_symmetry_space_group_name_H-M "C 2/M"
_symmetry_group_IT_number 12
_symmetry_cell_setting 'monoclinic'
loop_
_space_group_symop_operation_xyz
x,y,z
-x,y,-z
-x,-y,-z
x,-y,z
1/2+x,1/2+y,z
1/2-x,1/2+y,-z
1/2-x,1/2-y,-z
1/2+x,1/2-y,z
loop_
_atom_site_type_symbol
_atom_site_label
_atom_site_fract_x
_atom_site_fract_y
_atom_site_fract_z
Si Si1 0.338331 0.124464 0.434871
Si Si2 0.000000 0.282183 0.500000
Si Si3 0.218051 0.715867 0.229570
Si Si4 0.167474 0.882450 0.970485
Si Si5 0.510226 0.620921 0.799198
O O1 0.425543 0.150979 0.434978
O O2 0.283717 0.202961 0.311513
O O3 0.316888 0.153076 0.624219
O O4 0.323950 0.000000 0.394272
O O5 0.019388 0.205945 0.344717
O O6 0.256202 0.637683 0.105341
O O7 0.160740 0.791488 0.110638
O O8 0.100188 0.876595 0.813612
O O9 0.165099 0.000000 0.048053
O O10 0.484207 0.500000 0.753628
O O11 0.500000 0.639586 0.000000
#
# Coordination Sequence:
#
# PCOD9188562 Si02
#       5
#     8   4   8   8   8
#     4  11  23  39  59  86 119 160 200 244 297 357
#     4  12  22  40  60  88 126 164 198 244 298 368
#     4  10  21  38  60  86 114 152 199 251 296 354
#     4  10  19  36  60  85 114 148 193 251 303 350
#     4  10  21  37  59  89 121 156 199 248 303 356
#
# _framework density 20.5532
#
# number of rings (size 3 to 8) (size 9 to 14) (size 15 to 20)
#    0.000    1.556    2.222    3.333    0.000    0.000 
#    0.000    2.222    0.000    2.667    0.000    0.000 
#    0.000    0.000    0.000    0.000    0.000    0.000 
#
# Total GULP energy -100493.666731 kJ/mol
# GULP energy per Si atom -5582.981485 kJ/mol
# Density = 2.050642 g / cm^3
# Si number density = 20.553200 Si / 1000 Ang^3
#
#
#
# Elastic Constant Matrix: (Units=GPa)
#
#
# Indices 1 2 3 4 5 6 
#
# 1 62.4557 18.4057 -6.2197 0.0000 0.5091 0.0000
# 2 18.4057 81.8803 3.1249 0.0000 -0.2288 0.0000
# 3 -6.2197 3.1249 34.3877 0.0000 -8.7252 0.0000
# 4 0.0000 0.0000 0.0000 19.2721 0.0000 5.0900
# 5 0.5091 -0.2288 -8.7252 0.0000 33.6519 0.0000
# 6 0.0000 0.0000 0.0000 5.0900 0.0000 17.9405
#
#
#
# Elastic Compliance Matrix: (Units=1/GPa)
#
#
# Indices 1 2 3 4 5 6 
#
# 1 0.017583 -0.004093 0.003722 0.000000 0.000671 0.000000
# 2 -0.004093 0.013210 -0.002036 0.000000 -0.000376 0.000000
# 3 0.003722 -0.002036 0.032028 0.000000 0.008234 0.000000
# 4 0.000000 0.000000 0.000000 0.056091 0.000000 -0.015914
# 5 0.000671 -0.000376 0.008234 0.000000 0.031838 0.000000
# 6 0.000000 0.000000 0.000000 -0.015914 0.000000 0.060255
#
#
# Mechanical properties :
#
#
# Convention : Reuss Voigt Hill
#
# Bulk Modulus (GPa) = 17.23914 23.26058 20.24986
# Shear Modulus (GPa) = 21.26280 25.06711 23.16495
#
# Velocity S-wave (km/s) = 3.21989 3.49610 3.36083
# Velocity P-wave (km/s) = 4.71481 5.25726 4.99340
#
# Compressibility (1/GPa) = 0.05800753
#
# Stress axis : x y z
#
# Youngs Moduli (GPa) = 56.87426 75.70276 31.22300
#
# Poissons Ratio (x) = 0.30982 -0.11623
# Poissons Ratio (y) = 0.23276 0.06357
# Poissons Ratio (z) = -0.21171 0.15413
#
# Static dielectric constant tensor:
#      x y z
#    x 1.761990 0.000000 0.004780 
#    y 0.000000 1.703480 0.000000 
#    z 0.004780 0.000000 1.712740 
# 
# From -- ./inp_files/70918.got.cif
#   From: 2010.05.17/outbox.cif.g08.bks.cpg/sg12_36_cif.got.tgz:70918.got - 2010.06.03 13:09:07.
