data_PCOD9188831
_publ_section_title
;
Structure prediction by ZEFSAII (Michael W. Deem and Ramdas Pophale) SiO2 
 PCOD9188831
Probable space group: C 2/M
;
_chemical_formula_sum "Si O2"
_cell_formula_units_Z 44
_cell_length_a 24.145736
_cell_length_b 11.022716
_cell_length_c 12.367948
_cell_angle_alpha 90.000000
_cell_angle_beta 32.633812
_cell_angle_gamma 90.000000
_cell_volume 1775.134417
_symmetry_space_group_name_H-M "C 2/M"
_symmetry_group_IT_number 12
_symmetry_cell_setting 'monoclinic'
loop_
_space_group_symop_operation_xyz
x,y,z
-x,y,-z
-x,-y,-z
x,-y,z
1/2+x,1/2+y,z
1/2-x,1/2+y,-z
1/2-x,1/2-y,-z
1/2+x,1/2-y,z
loop_
_atom_site_type_symbol
_atom_site_label
_atom_site_fract_x
_atom_site_fract_y
_atom_site_fract_z
Si Si1 0.216656 0.000000 0.378624
Si Si2 0.324966 0.500000 0.911750
Si Si3 0.614608 0.734372 0.068613
Si Si4 0.182181 0.000000 0.678780
Si Si5 0.176434 0.265397 0.419344
Si Si6 0.665546 0.000000 0.361953
Si Si7 0.932757 0.239877 0.200301
Si Si8 0.663480 0.000000 0.012594
O O1 0.237907 0.000000 0.470952
O O2 0.156485 0.877724 0.448894
O O3 0.323011 0.000000 0.139083
O O4 0.379120 0.624587 0.856619
O O5 0.222333 0.500000 0.155260
O O6 0.279785 0.500000 0.866994
O O7 0.714679 0.727684 0.824147
O O8 0.617815 0.868874 0.114731
O O9 0.516361 0.715587 0.155701
O O10 0.110756 0.879937 0.787250
O O11 0.250210 0.000000 0.676081
O O12 0.111915 0.371098 0.467172
O O13 0.160330 0.293487 0.574227
O O14 0.000000 0.310539 0.000000
#
# Coordination Sequence:
#
# PCOD9188831 Si02
#       8
#     4   4   8   4   8   4   8   4
#     4   8  18  34  55  76 109 150 181 224 286 330
#     4  10  19  36  62  86 111 151 200 238 277 334
#     4  10  21  37  59  84 114 152 189 233 291 338
#     4  10  20  35  57  86 118 148 191 239 281 344
#     4   9  20  36  53  79 116 148 187 232 277 340
#     4  10  20  35  60  85 113 155 192 232 288 336
#     4  11  21  34  57  86 117 152 191 236 286 343
#     4  10  20  36  59  86 117 151 191 238 285 337
#
# _framework density 24.786854000000002
#
# number of rings (size 3 to 8) (size 9 to 14) (size 15 to 20)
#    0.000    2.182    0.000    3.545    0.000    8.727 
#    0.000    0.909    0.000   42.545    0.000    0.000 
#    0.000    0.000    0.000    0.000    0.000    0.000 
#
# Total GULP energy -122574.043519 kJ/mol
# GULP energy per Si atom -5571.547433 kJ/mol
# Density = 2.473044 g / cm^3
# Si number density = 24.786854 Si / 1000 Ang^3
#
#
#
# Elastic Constant Matrix: (Units=GPa)
#
#
# Indices 1 2 3 4 5 6 
#
# 1 97.5280 18.2767 10.6863 0.0000 -12.1267 0.0000
# 2 18.2767 195.4146 5.6296 0.0000 0.0966 0.0000
# 3 10.6863 5.6296 60.6477 0.0000 -4.7498 0.0000
# 4 0.0000 0.0000 0.0000 -0.5463 0.0000 1.8482
# 5 -12.1267 0.0966 -4.7498 0.0000 29.0273 0.0000
# 6 0.0000 0.0000 0.0000 1.8482 0.0000 17.4388
#
#
#
# Elastic Compliance Matrix: (Units=1/GPa)
#
#
# Indices 1 2 3 4 5 6 
#
# 1 0.011157 -0.001002 -0.001527 0.000000 0.004415 0.000000
# 2 -0.001002 0.005221 -0.000347 0.000000 -0.000493 0.000000
# 3 -0.001527 -0.000347 0.016957 0.000000 0.002138 0.000000
# 4 0.000000 0.000000 0.000000 -1.347298 0.000000 0.142792
# 5 0.004415 -0.000493 0.002138 0.000000 0.036646 0.000000
# 6 0.000000 0.000000 0.000000 0.142792 0.000000 0.042210
#
#
# Mechanical properties :
#
#
# Convention : Reuss Voigt Hill
#
# Bulk Modulus (GPa) = 36.25198 46.97508 41.61353
# Shear Modulus (GPa) = -4.09783 30.45046 13.17632
#
# Velocity S-wave (km/s) = -1.28717 3.50879 2.30811
# Velocity P-wave (km/s) = 3.52819 5.95048 4.89164
#
# Compressibility (1/GPa) = 0.02758470
#
# Stress axis : x y z
#
# Youngs Moduli (GPa) = 89.62620 191.52513 58.97131
#
# Poissons Ratio (x) = 0.19185 0.09006
# Poissons Ratio (y) = 0.08978 0.02045
# Poissons Ratio (z) = 0.13688 0.06641
#
# Static dielectric constant tensor:
#      x y z
#    x 1.912460 0.000000 -0.014750 
#    y 0.000000 2.061650 0.000000 
#    z -0.014750 0.000000 2.064450 
# 
# From -- ./inp_files/175167.got.cif
#   From: 2010.05.17/outbox.cif.g08.bks.cpg/sg12_88_cif.got.tgz:175167.got - 2010.06.03 13:09:07.
