data_PCOD9188521
_publ_section_title
;
Structure prediction by ZEFSAII (Michael W. Deem and Ramdas Pophale) SiO2 
 PCOD9188521
Probable space group: C 2/M
;
_chemical_formula_sum "Si O2"
_cell_formula_units_Z 56
_cell_length_a 20.814310
_cell_length_b 8.310383
_cell_length_c 14.040220
_cell_angle_alpha 90.000000
_cell_angle_beta 80.407174
_cell_angle_gamma 90.000000
_cell_volume 2394.646074
_symmetry_space_group_name_H-M "C 2/M"
_symmetry_group_IT_number 12
_symmetry_cell_setting 'monoclinic'
loop_
_space_group_symop_operation_xyz
x,y,z
-x,y,-z
-x,-y,-z
x,-y,z
1/2+x,1/2+y,z
1/2-x,1/2+y,-z
1/2-x,1/2-y,-z
1/2+x,1/2-y,z
loop_
_atom_site_type_symbol
_atom_site_label
_atom_site_fract_x
_atom_site_fract_y
_atom_site_fract_z
Si Si1 0.547822 0.806383 0.071062
Si Si2 0.125702 0.678466 0.302333
Si Si3 0.682324 0.316060 0.103188
Si Si4 0.564854 0.805696 0.763747
Si Si5 0.003798 0.184125 0.612301
Si Si6 0.772837 0.191913 0.596862
Si Si7 0.198298 0.694838 0.813155
O O1 0.623502 0.757520 0.055716
O O2 0.504413 0.758609 0.173021
O O3 0.548590 0.000000 0.066657
O O4 0.500000 0.747273 0.000000
O O5 0.143458 0.500000 0.263823
O O6 0.150157 0.802638 0.217036
O O7 0.050202 0.691916 0.339437
O O8 0.160262 0.721701 0.392129
O O9 0.690648 0.500000 0.072509
O O10 0.754456 0.245133 0.112324
O O11 0.567539 0.730917 0.657404
O O12 0.623470 0.754103 0.819511
O O13 0.568569 0.000000 0.756748
O O14 0.000000 0.193076 0.500000
O O15 0.986756 0.000000 0.641393
O O16 0.750000 0.250000 0.500000
O O17 0.728268 0.232209 0.700721
O O18 0.780379 0.000000 0.593599
O O19 0.199172 0.500000 0.822857
#
# Coordination Sequence:
#
# PCOD9188521 Si02
#       7
#     8   8   8   8   8   8   8
#     4  10  21  37  60  90 119 150 191 239 292 352
#     4  11  21  35  55  78 106 149 195 235 284 344
#     4  10  19  36  60  83 113 147 187 239 288 343
#     4  10  20  38  61  83 113 153 197 240 286 351
#     4  11  24  38  53  80 117 152 190 244 297 338
#     4  10  20  34  51  76 109 147 193 244 289 339
#     4   8  18  35  55  79 107 148 192 234 287 340
#
# _framework density 23.385503
#
# number of rings (size 3 to 8) (size 9 to 14) (size 15 to 20)
#    0.000    2.000    1.429    3.429    2.000    1.429 
#    0.000    4.286    0.000    0.000    0.000    0.000 
#    0.000    0.000    0.000    0.000    0.000    0.000 
#
# Total GULP energy -156160.105380 kJ/mol
# GULP energy per Si atom -5577.146621 kJ/mol
# Density = 2.333228 g / cm^3
# Si number density = 23.385503 Si / 1000 Ang^3
#
#
#
# Elastic Constant Matrix: (Units=GPa)
#
#
# Indices 1 2 3 4 5 6 
#
# 1 145.8001 19.9549 43.1764 0.0000 41.7654 0.0000
# 2 19.9549 45.4869 20.2585 0.0000 1.8180 0.0000
# 3 43.1764 20.2585 98.6987 0.0000 47.1182 0.0000
# 4 0.0000 0.0000 0.0000 23.3605 0.0000 8.5846
# 5 41.7654 1.8180 47.1182 0.0000 42.8022 0.0000
# 6 0.0000 0.0000 0.0000 8.5846 0.0000 25.8976
#
#
#
# Elastic Compliance Matrix: (Units=1/GPa)
#
#
# Indices 1 2 3 4 5 6 
#
# 1 0.010507 -0.005288 0.002690 0.000000 -0.012989 0.000000
# 2 -0.005288 0.028777 -0.011535 0.000000 0.016636 0.000000
# 3 0.002690 -0.011535 0.026012 0.000000 -0.030770 0.000000
# 4 0.000000 0.000000 0.000000 0.048745 0.000000 -0.016158
# 5 -0.012989 0.016636 -0.030770 0.000000 0.069203 0.000000
# 6 0.000000 0.000000 0.000000 -0.016158 0.000000 0.043970
#
#
# Mechanical properties :
#
#
# Convention : Reuss Voigt Hill
#
# Bulk Modulus (GPa) = 27.00616 50.75170 38.87893
# Shear Modulus (GPa) = 18.66904 32.18512 25.42708
#
# Velocity S-wave (km/s) = 2.82852 3.71386 3.30100
# Velocity P-wave (km/s) = 4.71600 6.33558 5.58481
#
# Compressibility (1/GPa) = 0.03702859
#
# Stress axis : x y z
#
# Youngs Moduli (GPa) = 95.17888 34.75032 38.44359
#
# Poissons Ratio (x) = 0.18376 -0.10341
# Poissons Ratio (y) = 0.50331 0.44346
# Poissons Ratio (z) = -0.25602 0.40085
#
# Static dielectric constant tensor:
#      x y z
#    x 2.078300 0.000000 0.013040 
#    y 0.000000 1.814030 0.000000 
#    z 0.013040 0.000000 1.955870 
# 
# From -- ./inp_files/280395.got.cif
#   From: 2010.05.17/outbox.cif.g08.bks.cpg/sg12_141_cif.got.tgz:280395.got - 2010.06.03 13:09:07.
