data_PCOD9188955
_publ_section_title
;
Structure prediction by ZEFSAII (Michael W. Deem and Ramdas Pophale) SiO2 
 PCOD9188955
Probable space group: C 2/M
;
_chemical_formula_sum "Si O2"
_cell_formula_units_Z 60
_cell_length_a 15.290672
_cell_length_b 11.984198
_cell_length_c 17.896279
_cell_angle_alpha 90.000000
_cell_angle_beta 74.899367
_cell_angle_gamma 90.000000
_cell_volume 3166.189921
_symmetry_space_group_name_H-M "C 2/M"
_symmetry_group_IT_number 12
_symmetry_cell_setting 'monoclinic'
loop_
_space_group_symop_operation_xyz
x,y,z
-x,y,-z
-x,-y,-z
x,-y,z
1/2+x,1/2+y,z
1/2-x,1/2+y,-z
1/2-x,1/2-y,-z
1/2+x,1/2-y,z
loop_
_atom_site_type_symbol
_atom_site_label
_atom_site_fract_x
_atom_site_fract_y
_atom_site_fract_z
Si Si1 0.242202 0.630450 0.626733
Si Si2 0.120090 0.874368 0.836389
Si Si3 0.111215 0.871528 0.274803
Si Si4 0.920905 0.800163 0.322028
Si Si5 0.500000 0.701186 0.000000
Si Si6 0.648696 0.873173 0.024409
Si Si7 0.596790 0.628731 0.508973
Si Si8 0.769952 0.773556 0.873604
O O1 0.220738 0.500000 0.617516
O O2 0.307027 0.637329 0.684755
O O3 0.149512 0.697836 0.658649
O O4 0.311204 0.676097 0.547689
O O5 0.087534 0.855031 0.758402
O O6 0.046305 0.863343 0.920194
O O7 0.192470 0.777378 0.837954
O O8 0.157620 0.000000 0.832397
O O9 0.154325 0.841078 0.186460
O O10 0.029143 0.786682 0.307677
O O11 0.077666 0.000000 0.285496
O O12 0.897803 0.867191 0.402954
O O13 0.426434 0.783128 0.980124
O O14 0.725773 0.853782 0.945141
O O15 0.616682 0.000000 0.031781
O O16 0.689448 0.833567 0.093409
O O17 0.500000 0.675808 0.500000
O O18 0.596249 0.500000 0.483055
#
# Coordination Sequence:
#
# PCOD9188955 Si02
#       8
#     8   8   8   8   4   8   8   8
#     4  10  22  40  61  88 124 160 199 246 302 361
#     4  11  22  37  57  86 121 156 197 251 307 360
#     4  11  21  38  62  87 118 157 203 250 295 357
#     4  12  22  37  63  94 121 157 207 251 299 360
#     4  10  22  38  56  82 114 158 204 250 290 364
#     4  10  20  36  57  80 110 153 200 246 303 360
#     4  10  19  36  63  94 122 157 203 250 300 355
#     4  10  21  37  56  82 117 153 195 250 306 362
#
# _framework density 18.950222
#
# number of rings (size 3 to 8) (size 9 to 14) (size 15 to 20)
#    0.000    1.467    2.667    3.600    0.000    0.000 
#    0.000    7.333    0.000    0.400    0.000    0.000 
#    0.000    0.000    0.000    0.000    0.000    0.000 
#
# Total GULP energy -167157.632386 kJ/mol
# GULP energy per Si atom -5571.921080 kJ/mol
# Density = 1.890709 g / cm^3
# Si number density = 18.950222 Si / 1000 Ang^3
#
#
#
# Elastic Constant Matrix: (Units=GPa)
#
#
# Indices 1 2 3 4 5 6 
#
# 1 81.3410 33.6518 28.0110 0.0000 -14.5996 0.0000
# 2 33.6518 58.9331 19.2063 0.0000 -0.3827 0.0000
# 3 28.0110 19.2063 101.2690 0.0000 -0.3297 0.0000
# 4 0.0000 0.0000 0.0000 -5.2285 0.0000 11.5405
# 5 -14.5996 -0.3827 -0.3297 0.0000 33.3780 0.0000
# 6 0.0000 0.0000 0.0000 11.5405 0.0000 -2.9030
#
#
#
# Elastic Compliance Matrix: (Units=1/GPa)
#
#
# Indices 1 2 3 4 5 6 
#
# 1 0.018903 -0.009642 -0.003373 0.000000 0.008124 0.000000
# 2 -0.009642 0.023005 -0.001709 0.000000 -0.003970 0.000000
# 3 -0.003373 -0.001709 0.011127 0.000000 -0.001385 0.000000
# 4 0.000000 0.000000 0.000000 0.024601 0.000000 0.097797
# 5 0.008124 -0.003970 -0.001385 0.000000 0.033454 0.000000
# 6 0.000000 0.000000 0.000000 0.097797 0.000000 0.044308
#
#
# Mechanical properties :
#
#
# Convention : Reuss Voigt Hill
#
# Bulk Modulus (GPa) = 42.39641 44.80904 43.60272
# Shear Modulus (GPa) = 25.94598 15.76091 20.85345
#
# Velocity S-wave (km/s) = 3.70424 2.88705 3.32088
# Velocity P-wave (km/s) = 6.38093 5.90003 6.14519
#
# Compressibility (1/GPa) = 0.02358690
#
# Stress axis : x y z
#
# Youngs Moduli (GPa) = 52.90270 43.46859 89.86808
#
# Poissons Ratio (x) = 0.41911 0.30316
# Poissons Ratio (y) = 0.51006 0.15360
# Poissons Ratio (z) = 0.17846 0.07429
#
# Static dielectric constant tensor:
#      x y z
#    x 1.719560 0.000000 0.001900 
#    y 0.000000 1.624160 0.000000 
#    z 0.001900 0.000000 1.696410 
# 
# From -- ./inp_files/269267.got.cif
#   From: 2010.05.17/outbox.cif.g08.bks.cpg/sg12_135_cif.got.tgz:269267.got - 2010.06.03 13:09:07.
