data_PCOD9188575
_publ_section_title
;
Structure prediction by ZEFSAII (Michael W. Deem and Ramdas Pophale) SiO2 
 PCOD9188575
Probable space group: C 2/M
;
_chemical_formula_sum "Si O2"
_cell_formula_units_Z 56
_cell_length_a 14.773404
_cell_length_b 17.952773
_cell_length_c 14.265081
_cell_angle_alpha 90.000000
_cell_angle_beta 117.434506
_cell_angle_gamma 90.000000
_cell_volume 3357.943215
_symmetry_space_group_name_H-M "C 2/M"
_symmetry_group_IT_number 12
_symmetry_cell_setting 'monoclinic'
loop_
_space_group_symop_operation_xyz
x,y,z
-x,y,-z
-x,-y,-z
x,-y,z
1/2+x,1/2+y,z
1/2-x,1/2+y,-z
1/2-x,1/2-y,-z
1/2+x,1/2-y,z
loop_
_atom_site_type_symbol
_atom_site_label
_atom_site_fract_x
_atom_site_fract_y
_atom_site_fract_z
Si Si1 0.742413 0.340928 0.805220
Si Si2 0.089958 0.276077 0.657910
Si Si3 0.108151 0.763260 0.001584
Si Si4 0.799923 0.917665 0.025613
Si Si5 0.370601 0.913309 0.699216
Si Si6 0.354812 0.795226 0.529105
Si Si7 0.597757 0.864172 0.842297
O O1 0.647637 0.298329 0.715165
O O2 0.811524 0.279391 0.892940
O O3 0.804239 0.378267 0.750810
O O4 0.710282 0.399788 0.869011
O O5 0.129967 0.302569 0.575508
O O6 0.118531 0.339151 0.746470
O O7 0.967849 0.262132 0.607165
O O8 0.143499 0.846095 0.991562
O O9 0.097858 0.711307 0.904792
O O10 0.000000 0.765445 0.000000
O O11 0.686508 0.913709 0.927987
O O12 0.843739 0.000000 0.030266
O O13 0.351740 0.868142 0.593692
O O14 0.487490 0.901633 0.787670
O O15 0.349012 0.000000 0.676559
O O16 0.250000 0.750000 0.500000
#
# Coordination Sequence:
#
# PCOD9188575 Si02
#       7
#     8   8   8   8   8   8   8
#     4  11  19  36  58  82 113 148 193 225 273 341
#     4  10  19  36  60  86 102 148 200 229 273 328
#     4  11  20  34  56  81 110 153 197 222 261 341
#     4  11  22  34  52  83 121 150 182 233 279 327
#     4  11  22  35  58  89 116 142 179 239 297 329
#     4  10  21  36  60  85 110 143 192 236 277 342
#     4  10  19  37  55  82 114 150 185 229 277 342
#
# _framework density 16.676876
#
# number of rings (size 3 to 8) (size 9 to 14) (size 15 to 20)
#    0.000    1.429    5.714    1.714    0.000    0.286 
#    0.000    8.571    0.000    2.571    0.000    0.000 
#    0.000    0.000    0.000    0.000    0.000    0.000 
#
# Total GULP energy -156075.779643 kJ/mol
# GULP energy per Si atom -5574.134987 kJ/mol
# Density = 1.663892 g / cm^3
# Si number density = 16.676876 Si / 1000 Ang^3
#
#
#
# Elastic Constant Matrix: (Units=GPa)
#
#
# Indices 1 2 3 4 5 6 
#
# 1 90.0643 45.0661 41.6573 0.0000 -14.3020 0.0000
# 2 45.0661 112.6809 44.0433 0.0000 -9.8142 0.0000
# 3 41.6573 44.0433 104.2383 0.0000 -16.1057 0.0000
# 4 0.0000 0.0000 0.0000 3.9416 0.0000 -1.0644
# 5 -14.3020 -9.8142 -16.1057 0.0000 17.0676 0.0000
# 6 0.0000 0.0000 0.0000 -1.0644 0.0000 16.6070
#
#
#
# Elastic Compliance Matrix: (Units=1/GPa)
#
#
# Indices 1 2 3 4 5 6 
#
# 1 0.016122 -0.004458 -0.003358 0.000000 0.007778 0.000000
# 2 -0.004458 0.011934 -0.003252 0.000000 0.000058 0.000000
# 3 -0.003358 -0.003252 0.013563 0.000000 0.008115 0.000000
# 4 0.000000 0.000000 0.000000 0.258173 0.000000 0.016547
# 5 0.007778 0.000058 0.008115 0.000000 0.072799 0.000000
# 6 0.000000 0.000000 0.000000 0.016547 0.000000 0.061276
#
#
# Mechanical properties :
#
#
# Convention : Reuss Voigt Hill
#
# Bulk Modulus (GPa) = 51.32428 63.16854 57.24641
# Shear Modulus (GPa) = 10.81090 19.27101 15.04096
#
# Velocity S-wave (km/s) = 2.54885 3.40303 3.00643
# Velocity P-wave (km/s) = 6.28528 7.30760 6.81563
#
# Compressibility (1/GPa) = 0.01948396
#
# Stress axis : x y z
#
# Youngs Moduli (GPa) = 62.02723 83.79669 73.73008
#
# Poissons Ratio (x) = 0.37358 0.24755
# Poissons Ratio (y) = 0.27652 0.23975
# Poissons Ratio (z) = 0.20826 0.27248
#
# Static dielectric constant tensor:
#      x y z
#    x 1.564620 0.000000 0.003830 
#    y 0.000000 1.547510 0.000000 
#    z 0.003830 0.000000 1.573690 
# 
# From -- ./inp_files/145495.got.cif
#   From: 2010.05.17/outbox.cif.g08.bks.cpg/sg12_73_cif.got.tgz:145495.got - 2010.06.03 13:09:07.
