data_PCOD9188100
_publ_section_title
;
Structure prediction by ZEFSAII (Michael W. Deem and Ramdas Pophale) SiO2 
 PCOD9188100
Probable space group: C 2/M
;
_chemical_formula_sum "Si O2"
_cell_formula_units_Z 40
_cell_length_a 14.417224
_cell_length_b 31.967589
_cell_length_c 8.338486
_cell_angle_alpha 90.000000
_cell_angle_beta 27.902055
_cell_angle_gamma 90.000000
_cell_volume 1798.410660
_symmetry_space_group_name_H-M "C 2/M"
_symmetry_group_IT_number 12
_symmetry_cell_setting 'monoclinic'
loop_
_space_group_symop_operation_xyz
x,y,z
-x,y,-z
-x,-y,-z
x,-y,z
1/2+x,1/2+y,z
1/2-x,1/2+y,-z
1/2-x,1/2-y,-z
1/2+x,1/2-y,z
loop_
_atom_site_type_symbol
_atom_site_label
_atom_site_fract_x
_atom_site_fract_y
_atom_site_fract_z
Si Si1 0.153282 0.000000 0.908052
Si Si2 0.062018 0.500000 0.088573
Si Si3 0.240169 0.800418 0.657645
Si Si4 0.216588 0.164323 0.022337
Si Si5 0.291920 0.930856 0.917123
Si Si6 0.776412 0.797065 0.668610
O O1 0.147322 0.041162 0.027510
O O2 0.367320 0.000000 0.497104
O O3 0.000000 0.000000 0.000000
O O4 0.175747 0.458428 0.972723
O O5 0.000000 0.500000 0.000000
O O6 0.313643 0.810371 0.365775
O O7 0.289995 0.752974 0.632491
O O8 0.298697 0.829496 0.716895
O O9 0.000000 0.801223 0.000000
O O10 0.312456 0.190085 0.023283
O O11 0.994244 0.182416 0.344710
O O12 0.219704 0.115623 0.058596
O O13 0.500000 0.927927 0.500000
#
# Coordination Sequence:
#
# PCOD9188100 Si02
#       6
#     4   4   8   8   8   8
#     4   9  19  39  68  90 116 157 191 231 302 371
#     4   9  19  43  66  88 120 153 193 241 298 360
#     4   9  18  35  55  76 111 156 198 239 294 345
#     4  10  19  36  56  80 114 149 190 245 290 334
#     4   9  20  41  60  86 121 151 191 237 294 365
#     4   9  19  35  53  80 110 150 196 245 281 342
#
# _framework density 22.241861
#
# number of rings (size 3 to 8) (size 9 to 14) (size 15 to 20)
#    0.000    2.800    0.000    1.800    0.000    2.400 
#   28.800    1.000    0.000    0.000    0.000    0.000 
#    0.000    0.000    0.000    0.000    0.000    0.000 
#
# Total GULP energy -111679.405879 kJ/mol
# GULP energy per Si atom -5583.970294 kJ/mol
# Density = 2.219124 g / cm^3
# Si number density = 22.241861 Si / 1000 Ang^3
#
#
#
# Elastic Constant Matrix: (Units=GPa)
#
#
# Indices 1 2 3 4 5 6 
#
# 1 231.7953 105.0449 23.0990 0.0000 26.6866 0.0000
# 2 105.0449 126.4093 9.0066 0.0000 9.1105 0.0000
# 3 23.0990 9.0066 65.5887 0.0000 13.2452 0.0000
# 4 0.0000 0.0000 0.0000 30.4326 0.0000 -6.4309
# 5 26.6866 9.1105 13.2452 0.0000 42.7750 0.0000
# 6 0.0000 0.0000 0.0000 -6.4309 0.0000 10.2199
#
#
#
# Elastic Compliance Matrix: (Units=1/GPa)
#
#
# Indices 1 2 3 4 5 6 
#
# 1 0.007450 -0.005887 -0.001205 0.000000 -0.003021 0.000000
# 2 -0.005887 0.012727 0.000140 0.000000 0.000919 0.000000
# 3 -0.001205 0.000140 0.016540 0.000000 -0.004400 0.000000
# 4 0.000000 0.000000 0.000000 0.037899 0.000000 0.023848
# 5 -0.003021 0.000919 -0.004400 0.000000 0.026429 0.000000
# 6 0.000000 0.000000 0.000000 0.023848 0.000000 0.112855
#
#
# Mechanical properties :
#
#
# Convention : Reuss Voigt Hill
#
# Bulk Modulus (GPa) = 43.83601 77.56604 60.70102
# Shear Modulus (GPa) = 21.23957 35.79502 28.51729
#
# Velocity S-wave (km/s) = 3.09356 4.01603 3.58459
# Velocity P-wave (km/s) = 5.70190 7.51360 6.66956
#
# Compressibility (1/GPa) = 0.02281230
#
# Stress axis : x y z
#
# Youngs Moduli (GPa) = 134.22689 78.57365 60.45875
#
# Poissons Ratio (x) = 0.46259 0.07287
# Poissons Ratio (y) = 0.79024 -0.00848
# Poissons Ratio (z) = 0.16178 -0.01101
#
# Static dielectric constant tensor:
#      x y z
#    x 1.844000 0.000000 0.013340 
#    y 0.000000 1.731300 0.000000 
#    z 0.013340 0.000000 2.013790 
# 
# From -- ./inp_files/68468.got.cif
#   From: 2010.05.17/outbox.cif.g08.bks.cpg/sg12_35_cif.got.tgz:68468.got - 2010.06.03 13:09:07.
