data_PCOD9188383
_publ_section_title
;
Structure prediction by ZEFSAII (Michael W. Deem and Ramdas Pophale) SiO2 
 PCOD9188383
Probable space group: C 2/M
;
_chemical_formula_sum "Si O2"
_cell_formula_units_Z 56
_cell_length_a 27.302169
_cell_length_b 9.357422
_cell_length_c 18.601552
_cell_angle_alpha 90.000000
_cell_angle_beta 143.067336
_cell_angle_gamma 90.000000
_cell_volume 2855.534567
_symmetry_space_group_name_H-M "C 2/M"
_symmetry_group_IT_number 12
_symmetry_cell_setting 'monoclinic'
loop_
_space_group_symop_operation_xyz
x,y,z
-x,y,-z
-x,-y,-z
x,-y,z
1/2+x,1/2+y,z
1/2-x,1/2+y,-z
1/2-x,1/2-y,-z
1/2+x,1/2-y,z
loop_
_atom_site_type_symbol
_atom_site_label
_atom_site_fract_x
_atom_site_fract_y
_atom_site_fract_z
Si Si1 0.333266 0.172224 0.125183
Si Si2 0.617871 0.334470 0.324120
Si Si3 0.770561 0.838389 0.670015
Si Si4 0.948239 0.668286 0.121926
Si Si5 0.376714 0.339104 0.501275
Si Si6 0.956027 0.171674 0.371121
Si Si7 0.921107 0.163484 0.954078
O O1 0.397185 0.192871 0.134444
O O2 0.377456 0.243402 0.247529
O O3 0.320905 0.000000 0.120705
O O4 0.250000 0.250000 0.000000
O O5 0.603042 0.500000 0.284488
O O6 0.688075 0.277766 0.354069
O O7 0.535523 0.245311 0.222744
O O8 0.639655 0.336362 0.433078
O O9 0.693796 0.757759 0.612545
O O10 0.844028 0.838179 0.811993
O O11 0.743992 0.000000 0.622368
O O12 0.959154 0.500000 0.126281
O O13 0.904409 0.736031 0.001644
O O14 0.369093 0.500000 0.464333
O O15 0.469069 0.295353 0.595007
O O16 0.000000 0.204319 0.500000
O O17 0.938960 0.000000 0.350113
O O18 0.936536 0.000000 0.996381
O O19 0.000000 0.209067 0.000000
#
# Coordination Sequence:
#
# PCOD9188383 Si02
#       7
#     8   8   8   8   8   8   8
#     4  11  25  44  67  95 125 161 208 262 318 380
#     4  10  19  36  59  82 113 157 200 236 288 354
#     4  10  21  35  55  84 118 157 201 245 286 346
#     4  11  23  37  59  90 118 150 196 251 300 348
#     4  10  21  36  58  86 118 157 195 239 299 358
#     4  10  22  42  68  95 125 162 204 258 321 379
#     4  10  20  37  58  81 117 163 204 241 292 359
#
# _framework density 19.611039999999999
#
# number of rings (size 3 to 8) (size 9 to 14) (size 15 to 20)
#    0.000    1.714    2.857    1.286    0.000    5.714 
#    0.000    4.286    0.000    0.000    0.000    0.000 
#    0.000    0.000    0.000    0.000    0.000    0.000 
#
# Total GULP energy -156120.383850 kJ/mol
# GULP energy per Si atom -5575.727995 kJ/mol
# Density = 1.956640 g / cm^3
# Si number density = 19.611040 Si / 1000 Ang^3
#
#
#
# Elastic Constant Matrix: (Units=GPa)
#
#
# Indices 1 2 3 4 5 6 
#
# 1 45.3944 41.2701 29.4207 0.0000 -3.3488 0.0000
# 2 41.2701 64.9996 58.1670 0.0000 7.5336 0.0000
# 3 29.4207 58.1670 116.4857 0.0000 7.1994 0.0000
# 4 0.0000 0.0000 0.0000 22.9720 0.0000 -1.7469
# 5 -3.3488 7.5336 7.1994 0.0000 32.2272 0.0000
# 6 0.0000 0.0000 0.0000 -1.7469 0.0000 24.7396
#
#
#
# Elastic Compliance Matrix: (Units=1/GPa)
#
#
# Indices 1 2 3 4 5 6 
#
# 1 0.061601 -0.047278 0.007068 0.000000 0.015874 0.000000
# 2 -0.047278 0.064480 -0.019288 0.000000 -0.015677 0.000000
# 3 0.007068 -0.019288 0.016333 0.000000 0.001595 0.000000
# 4 0.000000 0.000000 0.000000 0.043766 0.000000 0.003090
# 5 0.015874 -0.015677 0.001595 0.000000 0.035988 0.000000
# 6 0.000000 0.000000 0.000000 0.003090 0.000000 0.040639
#
#
# Mechanical properties :
#
#
# Convention : Reuss Voigt Hill
#
# Bulk Modulus (GPa) = 42.70043 53.84394 48.27219
# Shear Modulus (GPa) = 12.83337 22.52256 17.67796
#
# Velocity S-wave (km/s) = 2.56089 3.39257 3.00564
# Velocity P-wave (km/s) = 5.52858 6.54688 6.05916
#
# Compressibility (1/GPa) = 0.02341897
#
# Stress axis : x y z
#
# Youngs Moduli (GPa) = 16.23341 15.50857 61.22718
#
# Poissons Ratio (x) = 0.73321 -0.43277
# Poissons Ratio (y) = 0.76748 1.18098
# Poissons Ratio (z) = -0.11474 0.29914
#
# Static dielectric constant tensor:
#      x y z
#    x 1.707820 0.000000 -0.019490 
#    y 0.000000 1.704410 0.000000 
#    z -0.019490 0.000000 1.734420 
# 
# From -- ./inp_files/329644.got.cif
#   From: 2010.05.17/outbox.cif.g08.bks.cpg/sg12_165_cif.got.tgz:329644.got - 2010.06.03 13:09:07.
