data_PCOD9188664
_publ_section_title
;
Structure prediction by ZEFSAII (Michael W. Deem and Ramdas Pophale) SiO2 
 PCOD9188664
Probable space group: C 2/M
;
_chemical_formula_sum "Si O2"
_cell_formula_units_Z 50
_cell_length_a 28.427987
_cell_length_b 17.054840
_cell_length_c 14.520518
_cell_angle_alpha 90.000000
_cell_angle_beta 160.582731
_cell_angle_gamma 90.000000
_cell_volume 2340.432939
_symmetry_space_group_name_H-M "C 2/M"
_symmetry_group_IT_number 12
_symmetry_cell_setting 'monoclinic'
loop_
_space_group_symop_operation_xyz
x,y,z
-x,y,-z
-x,-y,-z
x,-y,z
1/2+x,1/2+y,z
1/2-x,1/2+y,-z
1/2-x,1/2-y,-z
1/2+x,1/2-y,z
loop_
_atom_site_type_symbol
_atom_site_label
_atom_site_fract_x
_atom_site_fract_y
_atom_site_fract_z
Si Si1 0.606803 0.789816 0.270720
Si Si2 0.726237 0.405865 0.111537
Si Si3 0.830504 0.908846 0.193342
Si Si4 0.415877 0.910769 0.622977
Si Si5 0.750718 0.908108 0.244574
Si Si6 0.500000 0.500000 0.000000
Si Si7 0.514303 0.635308 0.186189
O O1 0.750000 0.750000 0.500000
O O2 0.652357 0.852474 0.430891
O O3 0.510416 0.721080 0.135484
O O4 0.500000 0.828904 0.000000
O O5 0.704374 0.500000 0.063461
O O6 0.869010 0.392221 0.432582
O O7 0.724936 0.374330 0.005244
O O8 0.601519 0.375776 0.947346
O O9 0.788849 0.873529 0.214727
O O10 0.000000 0.909558 0.500000
O O11 0.780015 0.000000 0.104019
O O12 0.369145 0.000000 0.555496
O O13 0.583047 0.905154 0.944350
O O14 0.834677 0.870127 0.482999
O O15 0.795717 0.000000 0.328316
O O16 0.498118 0.569013 0.914788
#
# Coordination Sequence:
#
# PCOD9188664 Si02
#       7
#     8   8   8   8   8   2   8
#     4  12  26  44  61  87 119 163 210 256 310 362
#     4  10  19  36  60  92 123 157 203 254 306 363
#     4   9  16  29  59  94 123 155 201 255 301 364
#     4  10  24  41  60  86 125 163 201 252 313 372
#     4  10  19  36  60  92 125 161 202 247 310 368
#     4  12  24  36  64  96 118 160 212 258 308 350
#     4  12  22  38  64  88 124 155 206 265 299 357
#
# _framework density 21.363568999999998
#
# number of rings (size 3 to 8) (size 9 to 14) (size 15 to 20)
#    0.000    1.440    4.000    1.920    0.000    0.960 
#    0.000    3.200    0.000    5.760    0.000    0.000 
#    0.000    0.000    0.000    0.000    0.000    0.000 
#
# Total GULP energy -139411.624860 kJ/mol
# GULP energy per Si atom -5576.464994 kJ/mol
# Density = 2.131495 g / cm^3
# Si number density = 21.363569 Si / 1000 Ang^3
#
#
#
# Elastic Constant Matrix: (Units=GPa)
#
#
# Indices 1 2 3 4 5 6 
#
# 1 105.1361 28.1234 12.7515 0.0000 -27.4384 0.0000
# 2 28.1234 38.7343 6.6787 0.0000 -13.7050 0.0000
# 3 12.7515 6.6787 69.1487 0.0000 -22.1100 0.0000
# 4 0.0000 0.0000 0.0000 16.6510 0.0000 -0.1253
# 5 -27.4384 -13.7050 -22.1100 0.0000 35.7423 0.0000
# 6 0.0000 0.0000 0.0000 -0.1253 0.0000 18.9904
#
#
#
# Elastic Compliance Matrix: (Units=1/GPa)
#
#
# Indices 1 2 3 4 5 6 
#
# 1 0.013401 -0.007003 0.000793 0.000000 0.008092 0.000000
# 2 -0.007003 0.033581 0.000556 0.000000 0.007844 0.000000
# 3 0.000793 0.000556 0.018106 0.000000 0.012022 0.000000
# 4 0.000000 0.000000 0.000000 0.060059 0.000000 0.000396
# 5 0.008092 0.007844 0.012022 0.000000 0.044635 0.000000
# 6 0.000000 0.000000 0.000000 0.000396 0.000000 0.052661
#
#
# Mechanical properties :
#
#
# Convention : Reuss Voigt Hill
#
# Bulk Modulus (GPa) = 18.59455 34.23623 26.41539
# Shear Modulus (GPa) = 19.86676 25.30779 22.58727
#
# Velocity S-wave (km/s) = 3.05279 3.44557 3.25511
# Velocity P-wave (km/s) = 4.59878 5.64709 5.14968
#
# Compressibility (1/GPa) = 0.05377920
#
# Stress axis : x y z
#
# Youngs Moduli (GPa) = 74.62373 29.77866 55.23144
#
# Poissons Ratio (x) = 0.20854 -0.04378
# Poissons Ratio (y) = 0.52259 -0.03072
# Poissons Ratio (z) = -0.05916 -0.01656
#
# Static dielectric constant tensor:
#      x y z
#    x 1.791900 0.000000 -0.012180 
#    y 0.000000 1.769810 0.000000 
#    z -0.012180 0.000000 1.793930 
# 
# From -- ./inp_files/251729.got.cif
#   From: 2010.05.17/outbox.cif.g08.bks.cpg/sg12_126_cif.got.tgz:251729.got - 2010.06.03 13:09:07.
