data_PCOD9188571
_publ_section_title
;
Structure prediction by ZEFSAII (Michael W. Deem and Ramdas Pophale) SiO2 
 PCOD9188571
Probable space group: C 2/M
;
_chemical_formula_sum "Si O2"
_cell_formula_units_Z 64
_cell_length_a 29.171067
_cell_length_b 8.236224
_cell_length_c 14.601203
_cell_angle_alpha 90.000000
_cell_angle_beta 120.333862
_cell_angle_gamma 90.000000
_cell_volume 3027.811417
_symmetry_space_group_name_H-M "C 2/M"
_symmetry_group_IT_number 12
_symmetry_cell_setting 'monoclinic'
loop_
_space_group_symop_operation_xyz
x,y,z
-x,y,-z
-x,-y,-z
x,-y,z
1/2+x,1/2+y,z
1/2-x,1/2+y,-z
1/2-x,1/2-y,-z
1/2+x,1/2-y,z
loop_
_atom_site_type_symbol
_atom_site_label
_atom_site_fract_x
_atom_site_fract_y
_atom_site_fract_z
Si Si1 0.483687 0.696379 0.880730
Si Si2 0.872809 0.309348 0.804542
Si Si3 0.240020 0.804083 0.386341
Si Si4 0.839709 0.188896 0.954567
Si Si5 0.166251 0.690233 0.655072
Si Si6 0.767462 0.815062 0.116625
Si Si7 0.555146 0.694936 0.598165
Si Si8 0.571261 0.301961 0.821450
O O1 0.483323 0.500000 0.880534
O O2 0.424728 0.759695 0.800408
O O3 0.525511 0.750350 0.845860
O O4 0.500000 0.750837 0.000000
O O5 0.874394 0.500000 0.825480
O O6 0.816897 0.263617 0.702652
O O7 0.876187 0.209316 0.902814
O O8 0.250000 0.750000 0.500000
O O9 0.289000 0.747447 0.370893
O O10 0.237717 0.000000 0.376959
O O11 0.788130 0.296438 0.885983
O O12 0.823730 0.000000 0.946697
O O13 0.872372 0.242038 0.076444
O O14 0.160698 0.500000 0.633381
O O15 0.189884 0.720154 0.780575
O O16 0.107875 0.766215 0.593635
O O17 0.785211 0.000000 0.127396
O O18 0.750000 0.750000 0.000000
O O19 0.500000 0.756360 0.500000
O O20 0.551244 0.500000 0.599941
O O21 0.563010 0.756204 0.710120
O O22 0.571007 0.500000 0.820757
#
# Coordination Sequence:
#
# PCOD9188571 Si02
#       8
#     8   8   8   8   8   8   8   8
#     4  10  19  36  60  85 119 169 217 261 321 385
#     4  12  24  38  59  91 128 166 210 260 320 383
#     4  11  25  45  69  95 128 168 214 265 320 382
#     4  11  20  36  60  87 122 165 211 261 318 381
#     4  11  24  43  67  94 127 167 213 264 320 384
#     4  12  24  38  60  93 130 170 212 260 320 388
#     4  10  22  41  65  93 125 164 213 267 319 379
#     4   9  19  36  60  89 121 162 212 263 318 381
#
# _framework density 21.137378999999999
#
# number of rings (size 3 to 8) (size 9 to 14) (size 15 to 20)
#    0.000    1.250    2.500    4.125    0.000    4.000 
#    0.000    2.500    0.000    0.000    0.000    0.000 
#    0.000    0.000    0.000    0.000    0.000    0.000 
#
# Total GULP energy -178871.742477 kJ/mol
# GULP energy per Si atom -5589.741952 kJ/mol
# Density = 2.108927 g / cm^3
# Si number density = 21.137379 Si / 1000 Ang^3
#
#
#
# Elastic Constant Matrix: (Units=GPa)
#
#
# Indices 1 2 3 4 5 6 
#
# 1 123.5315 6.0641 51.2873 0.0000 18.3409 0.0000
# 2 6.0641 31.0539 5.4327 0.0000 0.4071 0.0000
# 3 51.2873 5.4327 125.0225 0.0000 13.5087 0.0000
# 4 0.0000 0.0000 0.0000 20.6103 0.0000 1.8986
# 5 18.3409 0.4071 13.5087 0.0000 37.1086 0.0000
# 6 0.0000 0.0000 0.0000 1.8986 0.0000 26.4528
#
#
#
# Elastic Compliance Matrix: (Units=1/GPa)
#
#
# Indices 1 2 3 4 5 6 
#
# 1 0.010267 -0.001299 -0.003756 0.000000 -0.003693 0.000000
# 2 -0.001299 0.032614 -0.000952 0.000000 0.000631 0.000000
# 3 -0.003756 -0.000952 0.009763 0.000000 -0.001687 0.000000
# 4 0.000000 0.000000 0.000000 0.048842 0.000000 -0.003506
# 5 -0.003693 0.000631 -0.001687 0.000000 0.029380 0.000000
# 6 0.000000 0.000000 0.000000 -0.003506 0.000000 0.038055
#
#
# Mechanical properties :
#
#
# Convention : Reuss Voigt Hill
#
# Bulk Modulus (GPa) = 24.61350 45.01957 34.81653
# Shear Modulus (GPa) = 25.70963 31.28926 28.49945
#
# Velocity S-wave (km/s) = 3.49135 3.85162 3.67590
# Velocity P-wave (km/s) = 5.28418 6.41286 5.87568
#
# Compressibility (1/GPa) = 0.04062811
#
# Stress axis : x y z
#
# Youngs Moduli (GPa) = 97.40309 30.66159 102.42635
#
# Poissons Ratio (x) = 0.03984 0.38473
# Poissons Ratio (y) = 0.12656 0.09755
# Poissons Ratio (z) = 0.36586 0.02920
#
# Static dielectric constant tensor:
#      x y z
#    x 1.815480 0.000000 -0.009450 
#    y 0.000000 1.736450 0.000000 
#    z -0.009450 0.000000 1.752040 
# 
# From -- ./inp_files/249956.got.cif
#   From: 2010.05.17/outbox.cif.g08.bks.cpg/sg12_125_cif.got.tgz:249956.got - 2010.06.03 13:09:07.
