data_PCOD9188805
_publ_section_title
;
Structure prediction by ZEFSAII (Michael W. Deem and Ramdas Pophale) SiO2 
 PCOD9188805
Probable space group: C 2/M
;
_chemical_formula_sum "Si O2"
_cell_formula_units_Z 32
_cell_length_a 10.538055
_cell_length_b 15.199688
_cell_length_c 17.151284
_cell_angle_alpha 90.000000
_cell_angle_beta 146.289241
_cell_angle_gamma 90.000000
_cell_volume 1524.703011
_symmetry_space_group_name_H-M "C 2/M"
_symmetry_group_IT_number 12
_symmetry_cell_setting 'monoclinic'
loop_
_space_group_symop_operation_xyz
x,y,z
-x,y,-z
-x,-y,-z
x,-y,z
1/2+x,1/2+y,z
1/2-x,1/2+y,-z
1/2-x,1/2-y,-z
1/2+x,1/2-y,z
loop_
_atom_site_type_symbol
_atom_site_label
_atom_site_fract_x
_atom_site_fract_y
_atom_site_fract_z
Si Si1 0.288747 0.404295 0.166491
Si Si2 0.803899 0.637721 0.456192
Si Si3 0.065030 0.329398 0.910824
Si Si4 0.752829 0.653320 0.603507
O O1 0.228857 0.500000 0.169871
O O2 0.556360 0.395241 0.306265
O O3 0.165406 0.325687 0.152081
O O4 0.204218 0.398194 0.034651
O O5 0.834380 0.615879 0.562584
O O6 0.789193 0.743170 0.435301
O O7 0.000000 0.604197 0.500000
O O8 0.949696 0.353180 0.769634
O O9 0.250000 0.250000 0.000000
O O10 0.500000 0.618492 0.500000
#
# Coordination Sequence:
#
# PCOD9188805 Si02
#       4
#     8   8   8   8
#     4  11  24  42  62  95 137 171 206 266 341 391
#     4  10  21  36  62  92 126 171 210 271 318 381
#     4  11  21  37  64  94 119 168 219 265 317 383
#     4  10  19  36  61  93 125 156 226 276 307 362
#
# _framework density 20.987694000000001
#
# number of rings (size 3 to 8) (size 9 to 14) (size 15 to 20)
#    0.000    1.500    5.000    1.500    0.000    0.500 
#    0.000    3.750    0.000    1.500    0.000    0.000 
#    0.000    0.000    0.000    0.000    0.000    0.000 
#
# Total GULP energy -89096.064327 kJ/mol
# GULP energy per Si atom -5568.504020 kJ/mol
# Density = 2.093993 g / cm^3
# Si number density = 20.987694 Si / 1000 Ang^3
#
#
#
# Elastic Constant Matrix: (Units=GPa)
#
#
# Indices 1 2 3 4 5 6 
#
# 1 179.8034 38.1327 123.6841 0.0000 -3.7174 0.0000
# 2 38.1327 41.2623 3.7046 -0.0007 24.8385 -0.0003
# 3 123.6841 3.7046 211.6761 -0.0030 -9.0617 -0.0014
# 4 0.0000 -0.0007 -0.0030 -20.2440 -0.0006 -11.8074
# 5 -3.7174 24.8385 -9.0617 -0.0006 49.4547 -0.0002
# 6 0.0000 -0.0003 -0.0014 -11.8074 -0.0002 1.7092
#
#
#
# Elastic Compliance Matrix: (Units=1/GPa)
#
#
# Indices 1 2 3 4 5 6 
#
# 1 0.015615 -0.019292 -0.008387 0.000001 0.009326 0.000000
# 2 -0.019292 0.058968 0.008981 -0.000002 -0.029421 0.000000
# 3 -0.008387 0.008981 0.009321 -0.000001 -0.003433 0.000000
# 4 0.000001 -0.000002 -0.000001 -0.009822 0.000001 -0.067853
# 5 0.009326 -0.029421 -0.003433 0.000001 0.035069 0.000000
# 6 0.000000 0.000000 0.000000 -0.067853 0.000000 0.116335
#
#
# Mechanical properties :
#
#
# Convention : Reuss Voigt Hill
#
# Bulk Modulus (GPa) = 21.50180 84.86496 53.18338
# Shear Modulus (GPa) = 17.96065 23.99867 20.97966
#
# Velocity S-wave (km/s) = 2.92853 3.38518 3.16510
# Velocity P-wave (km/s) = 4.65857 7.47012 6.22515
#
# Compressibility (1/GPa) = 0.04650774
#
# Stress axis : x y z
#
# Youngs Moduli (GPa) = 64.03894 16.95822 107.28631
#
# Poissons Ratio (x) = 0.32716 0.89985
# Poissons Ratio (y) = 1.23546 -0.96355
# Poissons Ratio (z) = 0.53712 -0.15230
#
# Static dielectric constant tensor:
#      x y z
#    x 1.800760 0.000000 0.001920 
#    y 0.000000 1.772880 0.000000 
#    z 0.001920 0.000000 1.758350 
# 
# From -- ./inp_files/305864.got.cif
#   From: 2010.05.17/outbox.cif.g08.bks.cpg/sg12_153_cif.got.tgz:305864.got - 2010.06.03 13:09:07.
