data_PCOD9188792
_publ_section_title
;
Structure prediction by ZEFSAII (Michael W. Deem and Ramdas Pophale) SiO2 
 PCOD9188792
Probable space group: C 2/M
;
_chemical_formula_sum "Si O2"
_cell_formula_units_Z 56
_cell_length_a 22.392585
_cell_length_b 14.131326
_cell_length_c 17.951590
_cell_angle_alpha 90.000000
_cell_angle_beta 153.459180
_cell_angle_gamma 90.000000
_cell_volume 2538.268340
_symmetry_space_group_name_H-M "C 2/M"
_symmetry_group_IT_number 12
_symmetry_cell_setting 'monoclinic'
loop_
_space_group_symop_operation_xyz
x,y,z
-x,y,-z
-x,-y,-z
x,-y,z
1/2+x,1/2+y,z
1/2-x,1/2+y,-z
1/2-x,1/2-y,-z
1/2+x,1/2-y,z
loop_
_atom_site_type_symbol
_atom_site_label
_atom_site_fract_x
_atom_site_fract_y
_atom_site_fract_z
Si Si1 0.847349 0.110651 0.172598
Si Si2 0.158977 0.888621 0.670650
Si Si3 0.802656 0.389557 0.259139
Si Si4 0.429994 0.276436 0.650837
Si Si5 0.510820 0.612907 0.131444
Si Si6 0.767245 0.764245 0.689201
Si Si7 0.400362 0.112250 0.207508
O O1 0.785557 0.128643 0.184285
O O2 0.979878 0.170017 0.309924
O O3 0.881933 0.000000 0.207712
O O4 0.742834 0.130916 0.990863
O O5 0.252864 0.832093 0.719168
O O6 0.000000 0.862993 0.500000
O O7 0.161117 0.000000 0.655936
O O8 0.828102 0.500000 0.301624
O O9 0.821790 0.332025 0.356400
O O10 0.884996 0.361382 0.277368
O O11 0.646600 0.379103 0.061160
O O12 0.452733 0.341023 0.748101
O O13 0.287431 0.260962 0.453917
O O14 0.495141 0.172343 0.723646
O O15 0.543790 0.500000 0.164980
O O16 0.598993 0.675763 0.173793
O O17 0.425955 0.000000 0.232060
#
# Coordination Sequence:
#
# PCOD9188792 Si02
#       7
#     8   8   8   8   8   8   8
#     4  10  19  36  61  91 122 157 210 261 305 366
#     4  10  21  37  61  92 125 162 202 254 313 372
#     4  10  22  42  68  94 124 167 214 262 312 371
#     4  12  23  38  63  95 126 163 204 263 323 374
#     4  11  25  46  68  89 120 171 224 258 299 372
#     4  12  25  39  62  97 129 164 206 260 318 374
#     4  10  22  38  62  95 125 161 207 262 321 371
#
# _framework density 22.062283999999998
#
# number of rings (size 3 to 8) (size 9 to 14) (size 15 to 20)
#    0.000    1.286    2.857    3.000    2.000    2.857 
#    0.000    2.143    0.000    1.714    0.000    0.000 
#    0.000    0.000    0.000    0.000    0.000    0.000 
#
# Total GULP energy -156381.527108 kJ/mol
# GULP energy per Si atom -5585.054540 kJ/mol
# Density = 2.201207 g / cm^3
# Si number density = 22.062284 Si / 1000 Ang^3
#
#
#
# Elastic Constant Matrix: (Units=GPa)
#
#
# Indices 1 2 3 4 5 6 
#
# 1 86.5601 47.0800 26.2697 0.0000 -11.3445 0.0000
# 2 47.0800 93.7442 13.9642 0.0000 9.9832 0.0000
# 3 26.2697 13.9642 49.5308 -0.0001 3.1403 0.0000
# 4 0.0000 0.0000 -0.0001 28.5741 0.0000 5.9983
# 5 -11.3445 9.9832 3.1403 0.0000 29.1209 0.0000
# 6 0.0000 0.0000 0.0000 5.9983 0.0000 47.8699
#
#
#
# Elastic Compliance Matrix: (Units=1/GPa)
#
#
# Indices 1 2 3 4 5 6 
#
# 1 0.022349 -0.011250 -0.009543 0.000000 0.013592 0.000000
# 2 -0.011250 0.017165 0.001791 0.000000 -0.010460 0.000000
# 3 -0.009543 0.001791 0.025193 0.000000 -0.007048 0.000000
# 4 0.000000 0.000000 0.000000 0.035942 0.000000 -0.004504
# 5 0.013592 -0.010460 -0.007048 0.000000 0.043981 0.000000
# 6 0.000000 0.000000 0.000000 -0.004504 0.000000 0.021454
#
#
# Mechanical properties :
#
#
# Convention : Reuss Voigt Hill
#
# Bulk Modulus (GPa) = 37.45151 44.94031 41.19591
# Shear Modulus (GPa) = 23.47527 30.61439 27.04483
#
# Velocity S-wave (km/s) = 3.26551 3.72914 3.50500
# Velocity P-wave (km/s) = 5.58841 6.24147 5.92394
#
# Compressibility (1/GPa) = 0.02670119
#
# Stress axis : x y z
#
# Youngs Moduli (GPa) = 44.74414 58.25968 39.69352
#
# Poissons Ratio (x) = 0.65543 0.37881
# Poissons Ratio (y) = 0.50338 -0.07108
# Poissons Ratio (z) = 0.42701 -0.10433
#
# Static dielectric constant tensor:
#      x y z
#    x 1.845170 0.000000 -0.008200 
#    y 0.000000 1.824160 0.000000 
#    z -0.008200 0.000000 1.835880 
# 
# From -- ./inp_files/284483.got.cif
#   From: 2010.05.17/outbox.cif.g08.bks.cpg/sg12_143_cif.got.tgz:284483.got - 2010.06.03 13:09:07.
