data_PCOD9188403
_publ_section_title
;
Structure prediction by ZEFSAII (Michael W. Deem and Ramdas Pophale) SiO2 
 PCOD9188403
Probable space group: C 2/M
;
_chemical_formula_sum "Si O2"
_cell_formula_units_Z 56
_cell_length_a 17.136978
_cell_length_b 17.559260
_cell_length_c 14.424535
_cell_angle_alpha 90.000000
_cell_angle_beta 48.211864
_cell_angle_gamma 90.000000
_cell_volume 3236.356270
_symmetry_space_group_name_H-M "C 2/M"
_symmetry_group_IT_number 12
_symmetry_cell_setting 'monoclinic'
loop_
_space_group_symop_operation_xyz
x,y,z
-x,y,-z
-x,-y,-z
x,-y,z
1/2+x,1/2+y,z
1/2-x,1/2+y,-z
1/2-x,1/2-y,-z
1/2+x,1/2-y,z
loop_
_atom_site_type_symbol
_atom_site_label
_atom_site_fract_x
_atom_site_fract_y
_atom_site_fract_z
Si Si1 0.490215 0.793427 0.398413
Si Si2 0.668064 0.680650 0.550393
Si Si3 0.932959 0.166054 0.172231
Si Si4 0.174305 0.313437 0.105649
Si Si5 0.009182 0.656386 0.888302
Si Si6 0.852042 0.909106 0.055327
Si Si7 0.361526 0.912520 0.374330
O O1 0.500000 0.809669 0.500000
O O2 0.423384 0.715716 0.439899
O O3 0.596530 0.787601 0.251826
O O4 0.422202 0.859376 0.401023
O O5 0.750000 0.750000 0.500000
O O6 0.617529 0.659379 0.688044
O O7 0.740878 0.612067 0.461069
O O8 0.949809 0.255988 0.141059
O O9 0.861512 0.128511 0.149669
O O10 0.044936 0.124375 0.077072
O O11 0.248809 0.378901 0.086975
O O12 0.099000 0.340662 0.082596
O O13 0.250000 0.250000 0.000000
O O14 0.085796 0.606766 0.765304
O O15 0.000000 0.628903 0.000000
O O16 0.856885 0.000000 0.056839
O O17 0.373198 0.000000 0.390183
#
# Coordination Sequence:
#
# PCOD9188403 Si02
#       7
#     8   8   8   8   8   8   8
#     4  10  22  37  60  87 120 152 198 253 296 356
#     4  10  19  36  59  83 113 155 201 233 286 356
#     4  11  18  38  59  86 120 153 197 240 300 363
#     4  11  20  37  58  86 122 161 202 238 298 364
#     4  11  20  37  64  86 112 162 207 251 285 355
#     4  11  24  36  59  94 126 149 191 254 312 356
#     4  10  23  39  57  87 121 152 199 250 302 355
#
# _framework density 17.30341
#
# number of rings (size 3 to 8) (size 9 to 14) (size 15 to 20)
#    0.000    1.429    7.143    0.857    4.000    5.143 
#    0.000    0.000    0.000    0.429    0.000    0.000 
#    0.000    0.000    0.000    0.000    0.000    0.000 
#
# Total GULP energy -156139.849037 kJ/mol
# GULP energy per Si atom -5576.423180 kJ/mol
# Density = 1.726403 g / cm^3
# Si number density = 17.303410 Si / 1000 Ang^3
#
#
#
# Elastic Constant Matrix: (Units=GPa)
#
#
# Indices 1 2 3 4 5 6 
#
# 1 81.3331 24.2216 60.0905 0.0000 21.6946 0.0000
# 2 24.2216 81.1053 25.9817 0.0000 -2.5205 0.0000
# 3 60.0905 25.9817 93.0760 0.0000 22.7395 0.0000
# 4 0.0000 0.0000 0.0000 18.6031 0.0000 -0.3536
# 5 21.6946 -2.5205 22.7395 0.0000 21.0743 0.0000
# 6 0.0000 0.0000 0.0000 -0.3536 0.0000 15.2374
#
#
#
# Elastic Compliance Matrix: (Units=1/GPa)
#
#
# Indices 1 2 3 4 5 6 
#
# 1 0.026695 -0.004446 -0.012425 0.000000 -0.014606 0.000000
# 2 -0.004446 0.015278 -0.004019 0.000000 0.010740 0.000000
# 3 -0.012425 -0.004019 0.022923 0.000000 -0.012424 0.000000
# 4 0.000000 0.000000 0.000000 0.053778 0.000000 0.001248
# 5 -0.014606 0.010740 -0.012424 0.000000 0.077176 0.000000
# 6 0.000000 0.000000 0.000000 0.001248 0.000000 0.065657
#
#
# Mechanical properties :
#
#
# Convention : Reuss Voigt Hill
#
# Bulk Modulus (GPa) = 43.25822 52.90021 48.07921
# Shear Modulus (GPa) = 16.07757 20.66433 18.37095
#
# Velocity S-wave (km/s) = 3.05151 3.45952 3.26190
# Velocity P-wave (km/s) = 6.12125 6.82614 6.48328
#
# Compressibility (1/GPa) = 0.02311700
#
# Stress axis : x y z
#
# Youngs Moduli (GPa) = 37.46041 65.45148 43.62511
#
# Poissons Ratio (x) = 0.29099 0.54204
# Poissons Ratio (y) = 0.16654 0.17531
# Poissons Ratio (z) = 0.46545 0.26302
#
# Static dielectric constant tensor:
#      x y z
#    x 1.568610 0.000000 0.011720 
#    y 0.000000 1.289020 0.000000 
#    z 0.011720 0.000000 1.552040 
# 
# From -- ./inp_files/216297.got.cif
#   From: 2010.05.17/outbox.cif.g08.bks.cpg/sg12_109_cif.got.tgz:216297.got - 2010.06.03 13:09:07.
