data_PCOD9188254
_publ_section_title
;
Structure prediction by ZEFSAII (Michael W. Deem and Ramdas Pophale) SiO2 
 PCOD9188254
Probable space group: C 2/M
;
_chemical_formula_sum "Si O2"
_cell_formula_units_Z 56
_cell_length_a 15.079290
_cell_length_b 7.676628
_cell_length_c 27.023581
_cell_angle_alpha 90.000000
_cell_angle_beta 115.682651
_cell_angle_gamma 90.000000
_cell_volume 2819.158322
_symmetry_space_group_name_H-M "C 2/M"
_symmetry_group_IT_number 12
_symmetry_cell_setting 'monoclinic'
loop_
_space_group_symop_operation_xyz
x,y,z
-x,y,-z
-x,-y,-z
x,-y,z
1/2+x,1/2+y,z
1/2-x,1/2+y,-z
1/2-x,1/2-y,-z
1/2+x,1/2-y,z
loop_
_atom_site_type_symbol
_atom_site_label
_atom_site_fract_x
_atom_site_fract_y
_atom_site_fract_z
Si Si1 0.597100 0.289490 0.768243
Si Si2 0.523199 0.294117 0.859417
Si Si3 0.351217 0.000000 0.931743
Si Si4 0.483257 0.713387 0.643580
Si Si5 0.307249 0.302576 0.850188
Si Si6 0.435644 0.296950 0.439769
Si Si7 0.424049 0.000000 0.055358
Si Si8 0.765502 0.207856 0.561582
O O1 0.601770 0.500000 0.767434
O O2 0.549426 0.244114 0.809673
O O3 0.532863 0.227514 0.706370
O O4 0.708557 0.221325 0.794785
O O5 0.544742 0.500000 0.871446
O O6 0.406977 0.268645 0.843215
O O7 0.580928 0.170418 0.911405
O O8 0.303365 0.831987 0.894581
O O9 0.465156 0.000000 0.940905
O O10 0.352237 0.000000 0.991064
O O11 0.483987 0.500000 0.645597
O O12 0.542406 0.773566 0.609236
O O13 0.371056 0.767858 0.606939
O O14 0.313124 0.500000 0.869996
O O15 0.500000 0.217382 0.500000
O O16 0.465687 0.500000 0.444054
O O17 0.323523 0.284765 0.428696
O O18 0.750000 0.250000 0.500000
O O19 0.761769 0.000000 0.565476
#
# Coordination Sequence:
#
# PCOD9188254 Si02
#       8
#     8   8   4   8   8   8   4   8
#     4  10  20  38  60  79 114 153 195 240 291 349
#     4   9  20  36  58  84 115 156 194 241 297 343
#     4   9  18  36  58  90 117 157 189 244 291 351
#     4   9  20  37  57  81 109 154 191 228 292 350
#     4  10  20  36  59  86 115 154 197 241 296 344
#     4  10  19  36  58  80 111 149 186 228 287 348
#     4   9  18  34  62  86 119 151 201 235 291 350
#     4  11  21  36  58  83 113 150 188 233 291 346
#
# _framework density 19.864083999999998
#
# number of rings (size 3 to 8) (size 9 to 14) (size 15 to 20)
#    0.000    2.286    2.143    0.429    1.000    2.000 
#    0.000    7.143    0.000    0.000    0.000    0.000 
#    0.000    0.000    0.000    0.000    0.000    0.000 
#
# Total GULP energy -156314.322274 kJ/mol
# GULP energy per Si atom -5582.654367 kJ/mol
# Density = 1.981887 g / cm^3
# Si number density = 19.864084 Si / 1000 Ang^3
#
#
#
# Elastic Constant Matrix: (Units=GPa)
#
#
# Indices 1 2 3 4 5 6 
#
# 1 64.8220 2.4327 28.3426 0.0000 -7.8683 0.0000
# 2 2.4327 48.9642 19.3959 0.0000 -7.5030 0.0000
# 3 28.3426 19.3959 111.0178 0.0000 -8.6252 0.0000
# 4 0.0000 0.0000 0.0000 12.9994 0.0000 4.7610
# 5 -7.8683 -7.5030 -8.6252 0.0000 31.4887 0.0000
# 6 0.0000 0.0000 0.0000 4.7610 0.0000 14.9945
#
#
#
# Elastic Compliance Matrix: (Units=1/GPa)
#
#
# Indices 1 2 3 4 5 6 
#
# 1 0.017778 0.001450 -0.004516 0.000000 0.003551 0.000000
# 2 0.001450 0.022636 -0.003962 0.000000 0.004671 0.000000
# 3 -0.004516 -0.003962 0.010924 0.000000 0.000920 0.000000
# 4 0.000000 0.000000 0.000000 0.087050 0.000000 -0.027640
# 5 0.003551 0.004671 0.000920 0.000000 0.034010 0.000000
# 6 0.000000 0.000000 0.000000 -0.027640 0.000000 0.075467
#
#
# Mechanical properties :
#
#
# Convention : Reuss Voigt Hill
#
# Bulk Modulus (GPa) = 26.82276 36.12735 31.47506
# Shear Modulus (GPa) = 18.22495 23.53870 20.88182
#
# Velocity S-wave (km/s) = 3.03228 3.44610 3.24579
# Velocity P-wave (km/s) = 5.07859 5.83617 5.47051
#
# Compressibility (1/GPa) = 0.03728176
#
# Stress axis : x y z
#
# Youngs Moduli (GPa) = 56.24900 44.17701 91.54000
#
# Poissons Ratio (x) = -0.06405 0.41341
# Poissons Ratio (y) = -0.08155 0.36268
# Poissons Ratio (z) = 0.25403 0.17503
#
# Static dielectric constant tensor:
#      x y z
#    x 1.685370 0.000000 0.003160 
#    y 0.000000 1.727990 0.000000 
#    z 0.003160 0.000000 1.671680 
# 
# From -- ./inp_files/339131.got.cif
#   From: 2010.05.17/outbox.cif.g08.bks.cpg/sg12_170_cif.got.tgz:339131.got - 2010.06.03 13:09:07.
