data_PCOD9188972
_publ_section_title
;
Structure prediction by ZEFSAII (Michael W. Deem and Ramdas Pophale) SiO2 
 PCOD9188972
Probable space group: C 2/M
;
_chemical_formula_sum "Si O2"
_cell_formula_units_Z 40
_cell_length_a 13.655049
_cell_length_b 23.199018
_cell_length_c 14.022171
_cell_angle_alpha 90.000000
_cell_angle_beta 157.208116
_cell_angle_gamma 90.000000
_cell_volume 1720.762464
_symmetry_space_group_name_H-M "C 2/M"
_symmetry_group_IT_number 12
_symmetry_cell_setting 'monoclinic'
loop_
_space_group_symop_operation_xyz
x,y,z
-x,y,-z
-x,-y,-z
x,-y,z
1/2+x,1/2+y,z
1/2-x,1/2+y,-z
1/2-x,1/2-y,-z
1/2+x,1/2-y,z
loop_
_atom_site_type_symbol
_atom_site_label
_atom_site_fract_x
_atom_site_fract_y
_atom_site_fract_z
Si Si1 0.213463 0.255579 0.621427
Si Si2 0.074088 0.802303 0.811040
Si Si3 0.086784 0.069545 0.974016
Si Si4 0.344852 0.931268 0.575000
Si Si5 0.475080 0.136232 0.874430
O O1 0.393536 0.305026 0.741444
O O2 0.356157 0.199275 0.789488
O O3 0.000000 0.277777 0.500000
O O4 0.081139 0.225047 0.413692
O O5 0.250000 0.750000 0.000000
O O6 0.252300 0.851349 0.928481
O O7 0.880236 0.078075 0.703606
O O8 0.102306 0.000000 0.995624
O O9 0.000000 0.091549 0.000000
O O10 0.378295 0.087755 0.216239
O O11 0.319045 0.897388 0.652469
O O12 0.354880 0.000000 0.602477
O O13 0.500000 0.106488 0.000000
#
# Coordination Sequence:
#
# PCOD9188972 Si02
#       5
#     8   8   8   8   8
#     4  10  19  36  64  87 113 156 210 262 322 386
#     4   9  20  36  58  88 114 152 205 267 314 384
#     4   9  18  37  64  88 115 161 215 267 326 379
#     4  10  22  37  61  94 130 170 217 267 310 371
#     4  11  22  36  60  88 127 172 216 254 318 384
#
# _framework density 23.245511
#
# number of rings (size 3 to 8) (size 9 to 14) (size 15 to 20)
#    0.000    2.200    2.000    0.600    2.800    2.800 
#    0.000    0.000   13.200    4.200    0.000    0.000 
#    0.000    0.000    0.000    0.000    0.000    0.000 
#
# Total GULP energy -111564.391470 kJ/mol
# GULP energy per Si atom -5578.219573 kJ/mol
# Density = 2.319260 g / cm^3
# Si number density = 23.245511 Si / 1000 Ang^3
#
#
#
# Elastic Constant Matrix: (Units=GPa)
#
#
# Indices 1 2 3 4 5 6 
#
# 1 168.9745 33.3886 54.9690 0.0023 6.6462 0.0009
# 2 33.3886 58.9203 8.8456 0.0002 0.3491 0.0001
# 3 54.9690 8.8456 147.3750 0.0037 -19.6054 0.0035
# 4 0.0023 0.0002 0.0037 26.1638 0.0026 -5.5695
# 5 6.6462 0.3491 -19.6054 0.0026 52.6781 0.0012
# 6 0.0009 0.0001 0.0035 -5.5695 0.0012 26.1020
#
#
#
# Elastic Compliance Matrix: (Units=1/GPa)
#
#
# Indices 1 2 3 4 5 6 
#
# 1 0.007722 -0.003926 -0.002915 0.000000 -0.002033 0.000000
# 2 -0.003926 0.019136 0.000384 0.000000 0.000511 0.000000
# 3 -0.002915 0.000384 0.008310 -0.000002 0.003458 -0.000002
# 4 0.000000 0.000000 -0.000002 0.040039 -0.000003 0.008543
# 5 -0.002033 0.000511 0.003458 -0.000003 0.020523 -0.000002
# 6 0.000000 0.000000 -0.000002 0.008543 -0.000002 0.040134
#
#
# Mechanical properties :
#
#
# Convention : Reuss Voigt Hill
#
# Bulk Modulus (GPa) = 44.93725 63.29736 54.11731
# Shear Modulus (GPa) = 32.01076 39.52656 35.76866
#
# Velocity S-wave (km/s) = 3.71492 4.12806 3.92693
# Velocity P-wave (km/s) = 6.14609 7.07179 6.62513
#
# Compressibility (1/GPa) = 0.02225325
#
# Stress axis : x y z
#
# Youngs Moduli (GPa) = 129.49794 52.25663 120.34190
#
# Poissons Ratio (x) = 0.20517 0.35081
# Poissons Ratio (y) = 0.50844 -0.04620
# Poissons Ratio (z) = 0.37750 -0.02006
#
# Static dielectric constant tensor:
#      x y z
#    x 1.924140 0.000000 0.035160 
#    y 0.000000 2.042490 0.000010 
#    z 0.035160 0.000010 1.871870 
# 
# From -- ./inp_files/7730.got.cif
#   From: 2010.05.17/outbox.cif.g08.bks.cpg/sg12_4_cif.got.tgz:7730.got - 2010.06.03 13:09:07.
