data_PCOD9188935
_publ_section_title
;
Structure prediction by ZEFSAII (Michael W. Deem and Ramdas Pophale) SiO2 
 PCOD9188935
Probable space group: C 2/M
;
_chemical_formula_sum "Si O2"
_cell_formula_units_Z 64
_cell_length_a 9.384361
_cell_length_b 28.306083
_cell_length_c 15.389381
_cell_angle_alpha 90.000000
_cell_angle_beta 45.707406
_cell_angle_gamma 90.000000
_cell_volume 2926.085525
_symmetry_space_group_name_H-M "C 2/M"
_symmetry_group_IT_number 12
_symmetry_cell_setting 'monoclinic'
loop_
_space_group_symop_operation_xyz
x,y,z
-x,y,-z
-x,-y,-z
x,-y,z
1/2+x,1/2+y,z
1/2-x,1/2+y,-z
1/2-x,1/2-y,-z
1/2+x,1/2-y,z
loop_
_atom_site_type_symbol
_atom_site_label
_atom_site_fract_x
_atom_site_fract_y
_atom_site_fract_z
Si Si1 0.723440 0.346127 0.393948
Si Si2 0.293678 0.448482 0.639861
Si Si3 0.808789 0.556204 0.023510
Si Si4 0.645823 0.052429 0.200587
Si Si5 0.501944 0.240348 0.268820
Si Si6 0.441143 0.717473 0.119324
Si Si7 0.425873 0.382603 0.193802
Si Si8 0.276003 0.826748 0.565219
O O1 0.500000 0.327440 0.500000
O O2 0.713019 0.392086 0.335300
O O3 0.876669 0.306446 0.300984
O O4 0.784353 0.353243 0.469125
O O5 0.500000 0.450800 0.500000
O O6 0.285878 0.500000 0.694168
O O7 0.086335 0.450025 0.675859
O O8 0.774511 0.500000 0.047417
O O9 0.616891 0.585701 0.132478
O O10 0.848752 0.565083 0.904049
O O11 0.000000 0.568521 0.000000
O O12 0.767784 0.087380 0.207209
O O13 0.734384 0.000000 0.170967
O O14 0.554190 0.260652 0.152333
O O15 0.704423 0.227450 0.232271
O O16 0.362478 0.279419 0.375492
O O17 0.481363 0.661910 0.110441
O O18 0.500000 0.735163 0.000000
O O19 0.326104 0.361118 0.321778
O O20 0.500000 0.814908 0.500000
#
# Coordination Sequence:
#
# PCOD9188935 Si02
#       8
#     8   8   8   8   8   8   8   8
#     4  11  21  36  60  85 113 154 203 252 311 379
#     4   9  19  34  54  85 121 156 198 249 307 371
#     4  10  22  40  64  95 129 167 215 268 317 375
#     4  10  19  36  63  90 122 168 216 257 308 378
#     4  11  22  39  62  87 117 159 205 255 315 374
#     4  11  23  40  60  87 123 159 202 257 316 379
#     4  11  23  40  62  91 124 166 210 261 325 383
#     4  11  23  40  60  89 123 156 205 264 317 380
#
# _framework density 21.872226000000001
#
# number of rings (size 3 to 8) (size 9 to 14) (size 15 to 20)
#    0.000    1.500    0.000    6.375    0.000    3.000 
#    0.000   10.000    0.000    3.375    0.000    0.000 
#    0.000    0.000    0.000    0.000    0.000    0.000 
#
# Total GULP energy -178538.334298 kJ/mol
# GULP energy per Si atom -5579.322947 kJ/mol
# Density = 2.182244 g / cm^3
# Si number density = 21.872226 Si / 1000 Ang^3
#
#
#
# Elastic Constant Matrix: (Units=GPa)
#
#
# Indices 1 2 3 4 5 6 
#
# 1 78.7758 24.4066 18.3948 0.0000 -29.7968 0.0000
# 2 24.4066 91.5902 37.5067 0.0000 -12.4006 0.0000
# 3 18.3948 37.5067 65.5681 0.0000 -9.7157 0.0000
# 4 0.0000 0.0000 0.0000 15.8487 0.0000 9.7813
# 5 -29.7968 -12.4006 -9.7157 0.0000 36.9457 0.0000
# 6 0.0000 0.0000 0.0000 9.7813 0.0000 48.9972
#
#
#
# Elastic Compliance Matrix: (Units=1/GPa)
#
#
# Indices 1 2 3 4 5 6 
#
# 1 0.019274 -0.002427 -0.001910 0.000000 0.014227 0.000000
# 2 -0.002427 0.014837 -0.007657 0.000000 0.001009 0.000000
# 3 -0.001910 -0.007657 0.020351 0.000000 0.001241 0.000000
# 4 0.000000 0.000000 0.000000 0.071963 0.000000 -0.014366
# 5 0.014227 0.001009 0.001241 0.000000 0.039206 0.000000
# 6 0.000000 0.000000 0.000000 -0.014366 0.000000 0.023277
#
#
# Mechanical properties :
#
#
# Convention : Reuss Voigt Hill
#
# Bulk Modulus (GPa) = 32.81626 44.06116 38.43871
# Shear Modulus (GPa) = 22.41602 30.73339 26.57470
#
# Velocity S-wave (km/s) = 3.20482 3.75258 3.48946
# Velocity P-wave (km/s) = 5.36010 6.24214 5.81786
#
# Compressibility (1/GPa) = 0.03047270
#
# Stress axis : x y z
#
# Youngs Moduli (GPa) = 51.88373 67.39858 49.13754
#
# Poissons Ratio (x) = 0.16360 0.09388
# Poissons Ratio (y) = 0.12594 0.37623
# Poissons Ratio (z) = 0.09912 0.51605
#
# Static dielectric constant tensor:
#      x y z
#    x 1.806700 0.000000 0.030360 
#    y 0.000000 1.853420 0.000000 
#    z 0.030360 0.000000 1.856280 
# 
# From -- ./inp_files/201259.got.cif
#   From: 2010.05.17/outbox.cif.g08.bks.cpg/sg12_101_cif.got.tgz:201259.got - 2010.06.03 13:09:07.
