data_PCOD9188282
_publ_section_title
;
Structure prediction by ZEFSAII (Michael W. Deem and Ramdas Pophale) SiO2 
 PCOD9188282
Probable space group: C 2/M
;
_chemical_formula_sum "Si O2"
_cell_formula_units_Z 64
_cell_length_a 11.930068
_cell_length_b 15.845196
_cell_length_c 28.737850
_cell_angle_alpha 90.000000
_cell_angle_beta 29.066869
_cell_angle_gamma 90.000000
_cell_volume 2639.241778
_symmetry_space_group_name_H-M "C 2/M"
_symmetry_group_IT_number 12
_symmetry_cell_setting 'monoclinic'
loop_
_space_group_symop_operation_xyz
x,y,z
-x,y,-z
-x,-y,-z
x,-y,z
1/2+x,1/2+y,z
1/2-x,1/2+y,-z
1/2-x,1/2-y,-z
1/2+x,1/2-y,z
loop_
_atom_site_type_symbol
_atom_site_label
_atom_site_fract_x
_atom_site_fract_y
_atom_site_fract_z
Si Si1 0.467135 0.406464 0.956575
Si Si2 0.593135 0.665116 0.212790
Si Si3 0.549704 0.319440 0.568919
Si Si4 0.460258 0.860065 0.783791
Si Si5 0.728642 0.402092 0.593653
Si Si6 0.500002 0.837013 0.874451
Si Si7 0.800634 0.600035 0.393454
Si Si8 0.761132 0.810815 0.263175
O O1 0.374205 0.500000 0.981045
O O2 0.732398 0.404047 0.845244
O O3 0.500000 0.393844 0.000000
O O4 0.266472 0.342778 0.014620
O O5 0.621020 0.762400 0.187637
O O6 0.418087 0.657563 0.319546
O O7 0.447154 0.630727 0.222175
O O8 0.831159 0.629194 0.146421
O O9 0.750000 0.250000 0.500000
O O10 0.619827 0.388046 0.582563
O O11 0.338850 0.260736 0.664508
O O12 0.611540 0.359548 0.496632
O O13 0.509181 0.883431 0.820102
O O14 0.669073 0.880552 0.672956
O O15 0.704209 0.500000 0.616512
O O16 0.000000 0.380456 0.500000
O O17 0.608500 0.745642 0.822565
O O18 0.786017 0.500000 0.403913
O O19 0.041992 0.638120 0.325381
#
# Coordination Sequence:
#
# PCOD9188282 Si02
#       8
#     8   8   8   8   8   8   8   8
#     4   9  19  37  62  93 125 157 194 247 308 365
#     4  11  21  38  63  87 120 159 202 255 305 353
#     4  10  19  36  58  82 117 158 207 255 292 357
#     4  10  21  38  64  90 120 155 204 248 305 365
#     4  11  22  36  56  87 123 164 211 258 308 356
#     4  10  20  39  63  92 117 156 204 251 307 360
#     4  11  21  37  61  88 121 163 207 247 304 367
#     4  10  21  39  61  89 123 158 208 252 302 360
#
# _framework density 24.249386999999999
#
# number of rings (size 3 to 8) (size 9 to 14) (size 15 to 20)
#    0.000    1.750    2.500    3.000    0.000    3.000 
#    0.000    1.875    0.000    3.000    0.000    1.750 
#    0.000    0.000    0.000    0.000    0.000    0.000 
#
# Total GULP energy -178533.113955 kJ/mol
# GULP energy per Si atom -5579.159811 kJ/mol
# Density = 2.419419 g / cm^3
# Si number density = 24.249387 Si / 1000 Ang^3
#
#
#
# Elastic Constant Matrix: (Units=GPa)
#
#
# Indices 1 2 3 4 5 6 
#
# 1 88.8814 -12.8031 -2.5103 -0.0248 -5.4083 0.0074
# 2 -12.8031 68.0505 -0.0563 0.0523 8.3096 -0.0212
# 3 -2.5103 -0.0563 113.6124 0.2814 -9.9135 -0.1026
# 4 -0.0248 0.0523 0.2814 123.7214 -0.0684 -37.9380
# 5 -5.4083 8.3096 -9.9135 -0.0684 31.3822 0.0285
# 6 0.0074 -0.0212 -0.1026 -37.9380 0.0285 34.3629
#
#
#
# Elastic Compliance Matrix: (Units=1/GPa)
#
#
# Indices 1 2 3 4 5 6 
#
# 1 0.011647 0.001996 0.000398 0.000002 0.001605 0.000000
# 2 0.001996 0.015542 -0.000285 -0.000006 -0.003861 0.000005
# 3 0.000398 -0.000285 0.009073 -0.000017 0.003010 0.000005
# 4 0.000002 -0.000006 -0.000017 0.012220 0.000011 0.013491
# 5 0.001605 -0.003861 0.003010 0.000011 0.034115 -0.000010
# 6 0.000000 0.000005 0.000005 0.013491 -0.000010 0.043996
#
#
# Mechanical properties :
#
#
# Convention : Reuss Voigt Hill
#
# Bulk Modulus (GPa) = 24.70341 26.64497 25.67419
# Shear Modulus (GPa) = 36.80042 56.95424 46.87733
#
# Velocity S-wave (km/s) = 3.89984 4.85158 4.40151
# Velocity P-wave (km/s) = 5.52157 6.51119 6.03669
#
# Compressibility (1/GPa) = 0.04048024
#
# Stress axis : x y z
#
# Youngs Moduli (GPa) = 85.85668 64.34287 110.21427
#
# Poissons Ratio (x) = -0.12841 -0.04390
# Poissons Ratio (y) = -0.17135 0.03142
# Poissons Ratio (z) = -0.03420 0.01835
#
# Static dielectric constant tensor:
#      x y z
#    x 2.034000 0.000000 -0.035880 
#    y 0.000000 1.795590 0.000000 
#    z -0.035880 0.000000 2.008420 
# 
# From -- ./inp_files/374411.got.cif
#   From: 2010.05.17/outbox.cif.g08.bks.cpg/sg12_188_cif.got.tgz:374411.got - 2010.06.03 13:09:07.
