data_PCOD9188099
_publ_section_title
;
Structure prediction by ZEFSAII (Michael W. Deem and Ramdas Pophale) SiO2 
 PCOD9188099
Probable space group: C 2/M
;
_chemical_formula_sum "Si O2"
_cell_formula_units_Z 52
_cell_length_a 7.786864
_cell_length_b 24.292499
_cell_length_c 19.917989
_cell_angle_alpha 90.000000
_cell_angle_beta 136.368200
_cell_angle_gamma 90.000000
_cell_volume 2599.817174
_symmetry_space_group_name_H-M "C 2/M"
_symmetry_group_IT_number 12
_symmetry_cell_setting 'monoclinic'
loop_
_space_group_symop_operation_xyz
x,y,z
-x,y,-z
-x,-y,-z
x,-y,z
1/2+x,1/2+y,z
1/2-x,1/2+y,-z
1/2-x,1/2-y,-z
1/2+x,1/2-y,z
loop_
_atom_site_type_symbol
_atom_site_label
_atom_site_fract_x
_atom_site_fract_y
_atom_site_fract_z
Si Si1 0.698763 0.059787 0.283659
Si Si2 0.288010 0.264754 0.106084
Si Si3 0.116665 0.661867 0.169454
Si Si4 0.516827 0.066638 0.425517
Si Si5 0.327517 0.437704 0.786561
Si Si6 0.000000 0.915923 0.500000
Si Si7 0.134430 0.861480 0.966071
O O1 0.727829 0.114774 0.247943
O O2 0.423515 0.063501 0.238729
O O3 0.890077 0.058447 0.400044
O O4 0.719547 0.000000 0.254378
O O5 0.298480 0.300700 0.176638
O O6 0.434460 0.207313 0.153097
O O7 0.407440 0.302480 0.081325
O O8 0.000000 0.261309 0.000000
O O9 0.925761 0.632436 0.064081
O O10 0.500000 0.073109 0.500000
O O11 0.266942 0.079895 0.313730
O O12 0.736718 0.104001 0.456378
O O13 0.567009 0.000000 0.426404
O O14 0.413482 0.500000 0.805643
O O15 0.529476 0.403038 0.882208
O O16 0.000000 0.868004 0.000000
#
# Coordination Sequence:
#
# PCOD9188099 Si02
#       7
#     8   8   8   8   8   4   8
#     4  10  20  34  58  86 113 147 184 226 288 345
#     4  10  22  36  56  81 106 145 195 235 270 320
#     4  11  21  36  57  82 110 147 190 232 276 334
#     4   9  17  31  52  77 105 143 190 233 275 331
#     4   9  19  32  51  83 116 149 183 221 284 351
#     4  10  19  36  56  80 114 146 186 238 281 338
#     4  11  19  33  54  79 113 145 183 232 275 327
#
# _framework density 20.001404999999998
#
# number of rings (size 3 to 8) (size 9 to 14) (size 15 to 20)
#    0.000    2.000    1.538    5.538    0.000    2.154 
#    0.000    2.308    0.000    3.692    2.000    0.000 
#    0.000    0.000    0.000    0.000    0.000    0.000 
#
# Total GULP energy -144783.887737 kJ/mol
# GULP energy per Si atom -5568.611067 kJ/mol
# Density = 1.995588 g / cm^3
# Si number density = 20.001405 Si / 1000 Ang^3
#
#
#
# Elastic Constant Matrix: (Units=GPa)
#
#
# Indices 1 2 3 4 5 6 
#
# 1 68.2488 33.1963 28.8608 0.0001 -23.3869 0.0000
# 2 33.1963 101.0749 72.3633 -0.0001 -20.5398 0.0000
# 3 28.8608 72.3633 122.0832 0.0002 -18.5408 0.0000
# 4 0.0001 -0.0001 0.0002 56.0192 0.0001 -8.4401
# 5 -23.3869 -20.5398 -18.5408 0.0001 28.8739 0.0000
# 6 0.0000 0.0000 0.0000 -8.4401 0.0000 13.2577
#
#
#
# Elastic Compliance Matrix: (Units=1/GPa)
#
#
# Indices 1 2 3 4 5 6 
#
# 1 0.021718 -0.003624 -0.000782 0.000000 0.014511 0.000000
# 2 -0.003624 0.018892 -0.009691 0.000000 0.004281 0.000000
# 3 -0.000782 -0.009691 0.014380 0.000000 0.001706 0.000000
# 4 0.000000 0.000000 0.000000 0.019745 0.000000 0.012570
# 5 0.014511 0.004281 0.001706 0.000000 0.050527 0.000000
# 6 0.000000 0.000000 0.000000 0.012570 0.000000 0.083430
#
#
# Mechanical properties :
#
#
# Convention : Reuss Voigt Hill
#
# Bulk Modulus (GPa) = 37.32102 62.24977 49.78540
# Shear Modulus (GPa) = 20.34018 30.09592 25.21805
#
# Velocity S-wave (km/s) = 3.19241 3.88324 3.55465
# Velocity P-wave (km/s) = 5.68228 7.16215 6.46470
#
# Compressibility (1/GPa) = 0.02679455
#
# Stress axis : x y z
#
# Youngs Moduli (GPa) = 46.04414 52.93208 69.54343
#
# Poissons Ratio (x) = 0.19183 0.05441
# Poissons Ratio (y) = 0.16687 0.67396
# Poissons Ratio (z) = 0.03602 0.51298
#
# Static dielectric constant tensor:
#      x y z
#    x 1.817780 0.000000 0.003690 
#    y 0.000000 1.737210 0.000000 
#    z 0.003690 0.000000 1.692000 
# 
# From -- ./inp_files/302366.got.cif
#   From: 2010.05.17/outbox.cif.g08.bks.cpg/sg12_152_cif.got.tgz:302366.got - 2010.06.03 13:09:07.
