data_PCOD9188713
_publ_section_title
;
Structure prediction by ZEFSAII (Michael W. Deem and Ramdas Pophale) SiO2 
 PCOD9188713
Probable space group: C 2/M
;
_chemical_formula_sum "Si O2"
_cell_formula_units_Z 48
_cell_length_a 19.195757
_cell_length_b 13.955373
_cell_length_c 9.103922
_cell_angle_alpha 90.000000
_cell_angle_beta 92.077376
_cell_angle_gamma 90.000000
_cell_volume 2437.191764
_symmetry_space_group_name_H-M "C 2/M"
_symmetry_group_IT_number 12
_symmetry_cell_setting 'monoclinic'
loop_
_space_group_symop_operation_xyz
x,y,z
-x,y,-z
-x,-y,-z
x,-y,z
1/2+x,1/2+y,z
1/2-x,1/2+y,-z
1/2-x,1/2-y,-z
1/2+x,1/2-y,z
loop_
_atom_site_type_symbol
_atom_site_label
_atom_site_fract_x
_atom_site_fract_y
_atom_site_fract_z
Si Si1 0.610237 0.393160 0.575328
Si Si2 0.655615 0.110790 0.169124
Si Si3 0.769790 0.241255 0.331489
Si Si4 0.538234 0.608593 0.271791
Si Si5 0.510667 0.185938 0.167621
Si Si6 0.138181 0.612920 0.816006
O O1 0.639629 0.500000 0.580021
O O2 0.661939 0.324983 0.662579
O O3 0.535803 0.394853 0.649971
O O4 0.594800 0.369792 0.403520
O O5 0.709331 0.186642 0.239764
O O6 0.578578 0.130467 0.229697
O O7 0.675688 0.000000 0.196934
O O8 0.650205 0.125903 0.992335
O O9 0.750000 0.250000 0.500000
O O10 0.796730 0.339524 0.262324
O O11 0.550636 0.500000 0.213378
O O12 0.531315 0.701514 0.169897
O O13 0.436072 0.161937 0.233700
O O14 0.500000 0.152890 0.000000
O O15 0.132895 0.500000 0.786954
#
# Coordination Sequence:
#
# PCOD9188713 Si02
#       6
#     8   8   8   8   8   8
#     4   9  18  33  54  75 106 149 187 227 281 345
#     4  10  22  40  62  87 118 157 196 240 296 355
#     4  12  23  37  59  88 119 152 194 245 299 351
#     4   9  17  32  54  81 110 145 189 231 281 340
#     4  10  19  36  61  86 115 151 196 244 290 343
#     4  10  22  41  62  85 116 157 202 242 289 351
#
# _framework density 19.694799
#
# number of rings (size 3 to 8) (size 9 to 14) (size 15 to 20)
#    0.000    2.000    1.667    3.500    0.000    3.667 
#    0.000    0.833    0.000    3.000    0.000    0.000 
#    0.000    0.000    0.000    0.000    0.000    0.000 
#
# Total GULP energy -133784.824942 kJ/mol
# GULP energy per Si atom -5574.367706 kJ/mol
# Density = 1.964997 g / cm^3
# Si number density = 19.694799 Si / 1000 Ang^3
#
#
#
# Elastic Constant Matrix: (Units=GPa)
#
#
# Indices 1 2 3 4 5 6 
#
# 1 90.5381 42.5450 22.2266 0.0000 9.4443 0.0000
# 2 42.5450 89.8737 21.0624 0.0000 10.0719 0.0000
# 3 22.2266 21.0624 30.7466 0.0000 -3.3699 0.0000
# 4 0.0000 0.0000 0.0000 26.4670 0.0000 2.8636
# 5 9.4443 10.0719 -3.3699 0.0000 24.6417 0.0000
# 6 0.0000 0.0000 0.0000 2.8636 0.0000 29.9865
#
#
#
# Elastic Compliance Matrix: (Units=1/GPa)
#
#
# Indices 1 2 3 4 5 6 
#
# 1 0.016098 -0.004951 -0.008833 0.000000 -0.005354 0.000000
# 2 -0.004951 0.015988 -0.008002 0.000000 -0.005732 0.000000
# 3 -0.008833 -0.008002 0.045807 0.000000 0.012920 0.000000
# 4 0.000000 0.000000 0.000000 0.038177 0.000000 -0.003646
# 5 -0.005354 -0.005732 0.012920 0.000000 0.046743 0.000000
# 6 0.000000 0.000000 0.000000 -0.003646 0.000000 0.033696
#
#
# Mechanical properties :
#
#
# Convention : Reuss Voigt Hill
#
# Bulk Modulus (GPa) = 29.13539 42.53627 35.83583
# Shear Modulus (GPa) = 19.87901 24.57401 22.22651
#
# Velocity S-wave (km/s) = 3.18048 3.53617 3.36303
# Velocity P-wave (km/s) = 5.32098 6.19009 5.77192
#
# Compressibility (1/GPa) = 0.03432252
#
# Stress axis : x y z
#
# Youngs Moduli (GPa) = 62.11773 62.54751 21.83084
#
# Poissons Ratio (x) = 0.30965 0.19283
# Poissons Ratio (y) = 0.30752 0.17468
# Poissons Ratio (z) = 0.54869 0.50048
#
# Static dielectric constant tensor:
#      x y z
#    x 1.720620 0.000000 -0.009280 
#    y 0.000000 1.716610 0.000000 
#    z -0.009280 0.000000 1.684380 
# 
# From -- ./inp_files/73639.got.cif
#   From: 2010.05.17/outbox.cif.g08.bks.cpg/sg12_37_cif.got.tgz:73639.got - 2010.06.03 13:09:07.
