data_PCOD9188793
_publ_section_title
;
Structure prediction by ZEFSAII (Michael W. Deem and Ramdas Pophale) SiO2 
 PCOD9188793
Probable space group: C 2/M
;
_chemical_formula_sum "Si O2"
_cell_formula_units_Z 56
_cell_length_a 20.016810
_cell_length_b 15.238204
_cell_length_c 8.971408
_cell_angle_alpha 90.000000
_cell_angle_beta 91.111636
_cell_angle_gamma 90.000000
_cell_volume 2735.945948
_symmetry_space_group_name_H-M "C 2/M"
_symmetry_group_IT_number 12
_symmetry_cell_setting 'monoclinic'
loop_
_space_group_symop_operation_xyz
x,y,z
-x,y,-z
-x,-y,-z
x,-y,z
1/2+x,1/2+y,z
1/2-x,1/2+y,-z
1/2-x,1/2-y,-z
1/2+x,1/2-y,z
loop_
_atom_site_type_symbol
_atom_site_label
_atom_site_fract_x
_atom_site_fract_y
_atom_site_fract_z
Si Si1 0.045339 0.095835 0.229226
Si Si2 0.117311 0.304442 0.713690
Si Si3 0.591416 0.635074 0.896819
Si Si4 0.500132 0.100815 0.176836
Si Si5 0.728575 0.268608 0.222478
Si Si6 0.234978 0.900623 0.961269
Si Si7 0.409629 0.235883 0.624128
O O1 0.058750 0.168927 0.350182
O O2 0.966792 0.090517 0.197392
O O3 0.073540 0.000000 0.263237
O O4 0.072978 0.128495 0.070031
O O5 0.094932 0.233206 0.835698
O O6 0.197407 0.289727 0.710698
O O7 0.089413 0.289544 0.547616
O O8 0.076686 0.388884 0.769595
O O9 0.663680 0.594381 0.877432
O O10 0.549166 0.167012 0.270129
O O11 0.522211 0.000000 0.198793
O O12 0.500000 0.120407 0.000000
O O13 0.718654 0.354694 0.118777
O O14 0.667477 0.251010 0.329920
O O15 0.727725 0.178950 0.122342
O O16 0.263187 0.000000 0.971662
#
# Coordination Sequence:
#
# PCOD9188793 Si02
#       7
#     8   8   8   8   8   8   8
#     4  11  21  35  62  94 126 164 205 253 314 378
#     4  11  24  43  64  94 133 173 212 267 331 392
#     4  10  19  36  61  91 122 159 204 255 307 367
#     4  11  26  46  72  99 127 171 226 281 329 385
#     4  10  24  39  63  93 127 175 216 268 326 386
#     4  10  20  37  62  92 123 161 216 267 313 373
#     4  12  24  42  66  94 137 169 215 268 329 399
#
# _framework density 20.468240999999999
#
# number of rings (size 3 to 8) (size 9 to 14) (size 15 to 20)
#    0.000    1.286    2.857    3.429    4.000    2.286 
#    0.000    5.000    0.000    5.143    0.000    0.000 
#    0.000    0.000    0.000    0.000    0.000    0.000 
#
# Total GULP energy -156066.069073 kJ/mol
# GULP energy per Si atom -5573.788181 kJ/mol
# Density = 2.042165 g / cm^3
# Si number density = 20.468241 Si / 1000 Ang^3
#
#
#
# Elastic Constant Matrix: (Units=GPa)
#
#
# Indices 1 2 3 4 5 6 
#
# 1 81.4685 32.0915 22.6993 0.0000 3.3321 0.0000
# 2 32.0915 96.1477 80.5724 0.0000 31.6283 0.0000
# 3 22.6993 80.5724 65.5567 0.0000 -5.1230 0.0000
# 4 0.0000 0.0000 0.0000 -82.0966 0.0000 76.6806
# 5 3.3321 31.6283 -5.1230 0.0000 16.3107 0.0000
# 6 0.0000 0.0000 0.0000 76.6806 0.0000 -47.6224
#
#
#
# Elastic Compliance Matrix: (Units=1/GPa)
#
#
# Indices 1 2 3 4 5 6 
#
# 1 0.013764 -0.001177 -0.003445 0.000000 -0.001611 0.000000
# 2 -0.001177 -0.010620 0.015468 0.000000 0.025692 0.000000
# 3 -0.003445 0.015468 -0.004975 0.000000 -0.030852 0.000000
# 4 0.000000 0.000000 0.000000 0.024170 0.000000 0.038919
# 5 -0.001611 0.025692 -0.030852 0.000000 0.002129 0.000000
# 6 0.000000 0.000000 0.000000 0.038919 0.000000 0.041668
#
#
# Mechanical properties :
#
#
# Convention : Reuss Voigt Hill
#
# Bulk Modulus (GPa) = 50.35095 57.09991 53.72543
# Shear Modulus (GPa) = 97.91267 -15.49435 41.20916
#
# Velocity S-wave (km/s) = 6.92389 -2.75434 4.49187
# Velocity P-wave (km/s) = 9.41134 4.22401 7.29436
#
# Compressibility (1/GPa) = 0.01986060
#
# Stress axis : x y z
#
# Youngs Moduli (GPa) = 72.65250 -94.16336 -201.01989
#
# Poissons Ratio (x) = -0.11085 -0.69250
# Poissons Ratio (y) = 0.08553 3.10930
# Poissons Ratio (z) = 0.25028 1.45648
#
# Static dielectric constant tensor:
#      x y z
#    x 1.807130 0.000000 -0.003850 
#    y 0.000000 1.969960 0.000000 
#    z -0.003850 0.000000 1.712050 
# 
# From -- ./inp_files/86376.got.cif
#   From: 2010.05.17/outbox.cif.g08.bks.cpg/sg12_44_cif.got.tgz:86376.got - 2010.06.03 13:09:07.
