data_PCOD9188631
_publ_section_title
;
Structure prediction by ZEFSAII (Michael W. Deem and Ramdas Pophale) SiO2 
 PCOD9188631
Probable space group: C 2/M
;
_chemical_formula_sum "Si O2"
_cell_formula_units_Z 56
_cell_length_a 9.494981
_cell_length_b 15.132477
_cell_length_c 28.314004
_cell_angle_alpha 90.000000
_cell_angle_beta 35.911576
_cell_angle_gamma 90.000000
_cell_volume 2386.162897
_symmetry_space_group_name_H-M "C 2/M"
_symmetry_group_IT_number 12
_symmetry_cell_setting 'monoclinic'
loop_
_space_group_symop_operation_xyz
x,y,z
-x,y,-z
-x,-y,-z
x,-y,z
1/2+x,1/2+y,z
1/2-x,1/2+y,-z
1/2-x,1/2-y,-z
1/2+x,1/2-y,z
loop_
_atom_site_type_symbol
_atom_site_label
_atom_site_fract_x
_atom_site_fract_y
_atom_site_fract_z
Si Si1 0.108517 0.597621 0.232275
Si Si2 0.277120 0.660012 0.022228
Si Si3 0.548300 0.228395 0.166278
Si Si4 0.505793 0.777462 0.337627
Si Si5 0.838382 0.907620 0.903799
Si Si6 0.213901 0.902208 0.584459
Si Si7 0.220011 0.899184 0.475704
O O1 0.017632 0.500000 0.244001
O O2 0.950000 0.648296 0.313496
O O3 0.375154 0.587376 0.180031
O O4 0.148970 0.665342 0.178959
O O5 0.292728 0.595960 0.972860
O O6 0.500000 0.651427 0.000000
O O7 0.250000 0.750000 0.000000
O O8 0.048964 0.667313 0.119202
O O9 0.287215 0.256762 0.255450
O O10 0.710935 0.314386 0.108849
O O11 0.376818 0.684101 0.364446
O O12 0.415390 0.824575 0.409982
O O13 0.736414 0.000000 0.912287
O O14 0.500000 0.899911 0.500000
O O15 0.124813 0.893471 0.554775
O O16 0.148711 0.000000 0.620960
O O17 0.000000 0.886774 0.500000
O O18 0.316841 0.000000 0.443582
#
# Coordination Sequence:
#
# PCOD9188631 Si02
#       7
#     8   8   8   8   8   8   8
#     4  10  21  37  59  90 123 159 209 259 307 367
#     4  10  19  36  60  88 121 165 213 259 310 364
#     4  10  22  36  57  92 126 163 199 260 321 370
#     4  11  23  37  60  90 123 163 198 257 321 372
#     4   9  19  37  60  88 119 160 215 263 304 367
#     4  10  23  42  62  86 121 164 209 253 309 383
#     4  10  22  40  64  93 120 158 214 266 308 367
#
# _framework density 23.468641000000002
#
# number of rings (size 3 to 8) (size 9 to 14) (size 15 to 20)
#    0.000    2.000    1.429    1.286    4.000    2.000 
#    0.000    0.714    0.000    7.714    0.000    0.000 
#    0.000    0.000    0.000    0.000    0.000    0.000 
#
# Total GULP energy -156094.475354 kJ/mol
# GULP energy per Si atom -5574.802691 kJ/mol
# Density = 2.341523 g / cm^3
# Si number density = 23.468641 Si / 1000 Ang^3
#
#
#
# Elastic Constant Matrix: (Units=GPa)
#
#
# Indices 1 2 3 4 5 6 
#
# 1 62.9410 20.7755 -0.9310 -0.1079 -2.6304 -0.0134
# 2 20.7755 196.1764 42.3413 0.0197 -0.2766 0.0045
# 3 -0.9310 42.3413 63.9625 -0.8932 -10.6691 -0.1252
# 4 -0.1079 0.0197 -0.8932-1526.5398 0.0020 -220.9990
# 5 -2.6304 -0.2766 -10.6691 0.0020 28.9643 -0.0016
# 6 -0.0134 0.0045 -0.1252 -220.9990 -0.0016 -13.4549
#
#
#
# Elastic Compliance Matrix: (Units=1/GPa)
#
#
# Indices 1 2 3 4 5 6 
#
# 1 0.016747 -0.002222 0.002094 -0.000002 0.002271 -0.000002
# 2 -0.002222 0.006303 -0.004505 0.000003 -0.001801 0.000001
# 3 0.002094 -0.004505 0.019893 -0.000011 0.007475 -0.000003
# 4 -0.000002 0.000003 -0.000011 0.000475 -0.000005 -0.007809
# 5 0.002271 -0.001801 0.007475 -0.000005 0.037468 0.000002
# 6 -0.000002 0.000001 -0.000003 -0.007809 0.000002 0.053939
#
#
# Mechanical properties :
#
#
# Convention : Reuss Voigt Hill
#
# Bulk Modulus (GPa) = 29.69455 49.71685 39.70570
# Shear Modulus (GPa) = 32.19203 -284.81315 -126.31056
#
# Velocity S-wave (km/s) = 3.70767 -11.02826 -7.34424
# Velocity P-wave (km/s) = 5.56861 11.87152 7.41362
#
# Compressibility (1/GPa) = 0.03367621
#
# Stress axis : x y z
#
# Youngs Moduli (GPa) = 59.71117 158.66619 50.26804
#
# Poissons Ratio (x) = 0.35259 -0.10524
# Poissons Ratio (y) = 0.13269 0.22645
# Poissons Ratio (z) = -0.12501 0.71476
#
# Static dielectric constant tensor:
#      x y z
#    x 1.979420 0.000000 0.023390 
#    y 0.000000 1.982580 0.000000 
#    z 0.023390 0.000000 1.931040 
# 
# From -- ./inp_files/373973.got.cif
#   From: 2010.05.17/outbox.cif.g08.bks.cpg/sg12_187_cif.got.tgz:373973.got - 2010.06.03 13:09:07.
