data_PCOD9188818
_publ_section_title
;
Structure prediction by ZEFSAII (Michael W. Deem and Ramdas Pophale) SiO2 
 PCOD9188818
Probable space group: C 2/M
;
_chemical_formula_sum "Si O2"
_cell_formula_units_Z 56
_cell_length_a 10.783300
_cell_length_b 28.635239
_cell_length_c 10.726222
_cell_angle_alpha 90.000000
_cell_angle_beta 65.887560
_cell_angle_gamma 90.000000
_cell_volume 3023.075416
_symmetry_space_group_name_H-M "C 2/M"
_symmetry_group_IT_number 12
_symmetry_cell_setting 'monoclinic'
loop_
_space_group_symop_operation_xyz
x,y,z
-x,y,-z
-x,-y,-z
x,-y,z
1/2+x,1/2+y,z
1/2-x,1/2+y,-z
1/2-x,1/2-y,-z
1/2+x,1/2-y,z
loop_
_atom_site_type_symbol
_atom_site_label
_atom_site_fract_x
_atom_site_fract_y
_atom_site_fract_z
Si Si1 0.166441 0.946281 0.075756
Si Si2 0.226373 0.355092 0.364067
Si Si3 0.970829 0.666853 0.322912
Si Si4 0.160287 0.240756 0.660376
Si Si5 0.340268 0.446292 0.211589
Si Si6 0.634790 0.877381 0.887423
Si Si7 0.339854 0.227587 0.069506
O O1 0.240820 0.911398 0.138703
O O2 0.003580 0.943401 0.151758
O O3 0.205401 0.000000 0.084439
O O4 0.199474 0.936206 0.916449
O O5 0.128313 0.346736 0.522298
O O6 0.343204 0.315233 0.323557
O O7 0.280157 0.407127 0.326216
O O8 0.124670 0.345939 0.290467
O O9 0.963248 0.723054 0.307921
O O10 0.907065 0.639634 0.232638
O O11 0.250000 0.250000 0.500000
O O12 0.215937 0.259069 0.770444
O O13 0.300951 0.500000 0.255424
O O14 0.661420 0.828232 0.945839
O O15 0.500000 0.900275 0.000000
O O16 0.500000 0.242123 0.000000
O O17 0.250000 0.250000 0.000000
#
# Coordination Sequence:
#
# PCOD9188818 Si02
#       7
#     8   8   8   8   8   8   8
#     4   9  19  36  56  81 111 144 184 233 277 336
#     4  10  19  36  62  76 110 155 186 224 294 322
#     4   9  20  37  53  85 113 140 188 240 265 344
#     4   9  20  36  56  79 110 153 194 226 278 353
#     4   9  19  36  58  84 109 141 193 233 273 339
#     4  10  20  35  55  78 114 139 179 231 284 328
#     4  10  23  36  52  81 118 146 185 243 289 337
#
# _framework density 18.524182
#
# number of rings (size 3 to 8) (size 9 to 14) (size 15 to 20)
#    0.000    2.571    0.000    1.714    8.000    1.429 
#    2.571    3.571    0.000    1.714    0.000    0.000 
#    0.000    0.000    0.000    0.000    0.000    0.000 
#
# Total GULP energy -155953.290803 kJ/mol
# GULP energy per Si atom -5569.760386 kJ/mol
# Density = 1.848202 g / cm^3
# Si number density = 18.524182 Si / 1000 Ang^3
#
#
#
# Elastic Constant Matrix: (Units=GPa)
#
#
# Indices 1 2 3 4 5 6 
#
# 1 83.8915 46.8275 29.3122 0.0000 15.5092 0.0000
# 2 46.8275 113.6231 32.8318 0.0000 1.5174 0.0000
# 3 29.3122 32.8318 60.6513 0.0000 13.6412 0.0000
# 4 0.0000 0.0000 0.0000 27.2240 0.0000 0.3964
# 5 15.5092 1.5174 13.6412 0.0000 19.5514 0.0000
# 6 0.0000 0.0000 0.0000 0.3964 0.0000 32.5705
#
#
#
# Elastic Compliance Matrix: (Units=1/GPa)
#
#
# Indices 1 2 3 4 5 6 
#
# 1 0.019056 -0.006937 -0.002581 0.000000 -0.012778 0.000000
# 2 -0.006937 0.013191 -0.005688 0.000000 0.008448 0.000000
# 3 -0.002581 -0.005688 0.024024 0.000000 -0.014273 0.000000
# 4 0.000000 0.000000 0.000000 0.036739 0.000000 -0.000447
# 5 -0.012778 0.008448 -0.014273 0.000000 0.070586 0.000000
# 6 0.000000 0.000000 0.000000 -0.000447 0.000000 0.030708
#
#
# Mechanical properties :
#
#
# Convention : Reuss Voigt Hill
#
# Bulk Modulus (GPa) = 38.66992 52.90097 45.78545
# Shear Modulus (GPa) = 21.42834 25.81546 23.62190
#
# Velocity S-wave (km/s) = 3.40483 3.73716 3.57486
# Velocity P-wave (km/s) = 6.03141 6.87325 6.46604
#
# Compressibility (1/GPa) = 0.02585989
#
# Stress axis : x y z
#
# Youngs Moduli (GPa) = 52.47555 75.81029 41.62509
#
# Poissons Ratio (x) = 0.52593 0.10742
# Poissons Ratio (y) = 0.36405 0.23675
# Poissons Ratio (z) = 0.13542 0.43118
#
# Static dielectric constant tensor:
#      x y z
#    x 9.791380 0.000000 2.242800 
#    y 0.000000 1.633750 0.000000 
#    z 2.242800 0.000000 2.301420 
# 
# From -- ./inp_files/124215.got.cif
#   From: 2010.05.17/outbox.cif.g08.bks.cpg/sg12_63_cif.got.tgz:124215.got - 2010.06.03 13:09:07.
