data_PCOD9188510
_publ_section_title
;
Structure prediction by ZEFSAII (Michael W. Deem and Ramdas Pophale) SiO2 
 PCOD9188510
Probable space group: C 2/M
;
_chemical_formula_sum "Si O2"
_cell_formula_units_Z 58
_cell_length_a 25.189740
_cell_length_b 7.481320
_cell_length_c 23.257606
_cell_angle_alpha 90.000000
_cell_angle_beta 143.268827
_cell_angle_gamma 90.000000
_cell_volume 2621.275163
_symmetry_space_group_name_H-M "C 2/M"
_symmetry_group_IT_number 12
_symmetry_cell_setting 'monoclinic'
loop_
_space_group_symop_operation_xyz
x,y,z
-x,y,-z
-x,-y,-z
x,-y,z
1/2+x,1/2+y,z
1/2-x,1/2+y,-z
1/2-x,1/2-y,-z
1/2+x,1/2-y,z
loop_
_atom_site_type_symbol
_atom_site_label
_atom_site_fract_x
_atom_site_fract_y
_atom_site_fract_z
Si Si1 0.397256 0.216308 0.403937
Si Si2 0.476548 0.796071 0.677492
Si Si3 0.150893 0.719337 0.765149
Si Si4 0.120431 0.717692 0.294533
Si Si5 0.702976 0.287331 0.019835
Si Si6 0.179574 0.792820 0.540706
Si Si7 0.000000 0.500000 0.000000
Si Si8 0.976066 0.208684 0.079601
O O1 0.500000 0.273295 0.500000
O O2 0.358255 0.275671 0.308902
O O3 0.341850 0.279083 0.410494
O O4 0.397095 0.000000 0.404717
O O5 0.564259 0.717607 0.725013
O O6 0.435616 0.715839 0.699510
O O7 0.398926 0.798138 0.562762
O O8 0.500534 0.000000 0.713071
O O9 0.149728 0.500000 0.763093
O O10 0.236658 0.779342 0.874860
O O11 0.122704 0.500000 0.297194
O O12 0.222212 0.778331 0.386220
O O13 0.069945 0.775594 0.193561
O O14 0.703072 0.500000 0.023909
O O15 0.750000 0.250000 0.000000
O O16 0.601364 0.233452 0.942338
O O17 0.177104 0.000000 0.521220
O O18 0.975282 0.342813 0.026064
O O19 0.961436 0.000000 0.050886
#
# Coordination Sequence:
#
# PCOD9188510 Si02
#       8
#     8   8   8   8   8   8   2   8
#     4  10  19  36  60  82 113 158 211 256 308 386
#     4  10  19  36  63  88 122 172 216 257 323 394
#     4   9  18  35  60  90 119 159 210 262 321 387
#     4  10  22  41  63  91 126 170 218 272 335 391
#     4  10  22  40  66 101 135 170 227 283 344 413
#     4  11  23  36  55  89 130 165 208 263 326 385
#     4  12  26  48  76  94 148 178 230 292 356 394
#     4  11  25  45  72 103 134 183 235 284 345 414
#
# _framework density 22.126636000000001
#
# number of rings (size 3 to 8) (size 9 to 14) (size 15 to 20)
#    0.000    1.793    2.069    1.862    0.966    4.138 
#    0.000    2.759    0.000    0.000    0.000    0.000 
#    0.000    0.000    0.000    0.000    0.000    0.000 
#
# Total GULP energy -161813.835907 kJ/mol
# GULP energy per Si atom -5579.787445 kJ/mol
# Density = 2.207627 g / cm^3
# Si number density = 22.126636 Si / 1000 Ang^3
#
#
#
# Elastic Constant Matrix: (Units=GPa)
#
#
# Indices 1 2 3 4 5 6 
#
# 1 49.4455 -4.7689 -19.2981 -0.0001 -12.5018 0.0001
# 2 -4.7689 78.4891 -13.4530 0.0001 -1.9604 -0.0001
# 3 -19.2981 -13.4530 52.9983 -0.0001 5.5200 0.0001
# 4 -0.0001 0.0001 -0.0001 -44.9851 0.0001 35.8938
# 5 -12.5018 -1.9604 5.5200 0.0001 35.3102 -0.0001
# 6 0.0001 -0.0001 0.0001 35.8938 -0.0001 -7.3667
#
#
#
# Elastic Compliance Matrix: (Units=1/GPa)
#
#
# Indices 1 2 3 4 5 6 
#
# 1 0.026343 0.003452 0.009634 0.000000 0.008013 0.000000
# 2 0.003452 0.013774 0.004622 0.000000 0.001264 0.000000
# 3 0.009634 0.004622 0.023551 0.000000 -0.000014 0.000000
# 4 0.000000 0.000000 0.000000 0.007698 0.000000 0.037508
# 5 0.008013 0.001264 -0.000014 0.000000 0.031230 0.000000
# 6 0.000000 0.000000 0.000000 0.037508 0.000000 0.047008
#
#
# Mechanical properties :
#
#
# Convention : Reuss Voigt Hill
#
# Bulk Modulus (GPa) = 10.09250 11.76588 10.92919
# Shear Modulus (GPa) = 33.96363 11.15520 22.55942
#
# Velocity S-wave (km/s) = 3.92211 2.24777 3.19652
# Velocity P-wave (km/s) = 5.00817 3.47357 4.30973
#
# Compressibility (1/GPa) = 0.09908343
#
# Stress axis : x y z
#
# Youngs Moduli (GPa) = 37.96050 72.60013 42.46084
#
# Poissons Ratio (x) = -0.25061 -0.40906
# Poissons Ratio (y) = -0.13104 -0.19624
# Poissons Ratio (z) = -0.36571 -0.33553
#
# Static dielectric constant tensor:
#      x y z
#    x 1.788800 0.000000 0.009030 
#    y 0.000000 1.868450 0.000000 
#    z 0.009030 0.000000 1.780530 
# 
# From -- ./inp_files/324611.got.cif
#   From: 2010.05.17/outbox.cif.g08.bks.cpg/sg12_163_cif.got.tgz:324611.got - 2010.06.03 13:09:07.
