data_PCOD9188364
_publ_section_title
;
Structure prediction by ZEFSAII (Michael W. Deem and Ramdas Pophale) SiO2 
 PCOD9188364
Probable space group: C 2/M
;
_chemical_formula_sum "Si O2"
_cell_formula_units_Z 56
_cell_length_a 9.116430
_cell_length_b 26.357261
_cell_length_c 17.448468
_cell_angle_alpha 90.000000
_cell_angle_beta 134.573360
_cell_angle_gamma 90.000000
_cell_volume 2986.601616
_symmetry_space_group_name_H-M "C 2/M"
_symmetry_group_IT_number 12
_symmetry_cell_setting 'monoclinic'
loop_
_space_group_symop_operation_xyz
x,y,z
-x,y,-z
-x,-y,-z
x,-y,z
1/2+x,1/2+y,z
1/2-x,1/2+y,-z
1/2-x,1/2-y,-z
1/2+x,1/2-y,z
loop_
_atom_site_type_symbol
_atom_site_label
_atom_site_fract_x
_atom_site_fract_y
_atom_site_fract_z
Si Si1 0.790457 0.942348 0.326637
Si Si2 0.785082 0.790588 0.311420
Si Si3 0.283907 0.946037 0.877669
Si Si4 0.962272 0.637367 0.671234
Si Si5 0.144266 0.860968 0.426696
Si Si6 0.666354 0.322582 0.262491
Si Si7 0.728125 0.170027 0.117126
O O1 0.696571 0.944375 0.206826
O O2 0.631197 0.911653 0.320683
O O3 0.001110 0.909680 0.395124
O O4 0.827175 0.000000 0.365613
O O5 0.627087 0.815448 0.313073
O O6 0.784770 0.730527 0.314517
O O7 0.727122 0.811880 0.205255
O O8 0.009611 0.813949 0.408704
O O9 0.210755 0.889578 0.869980
O O10 0.172000 0.000000 0.854186
O O11 0.500000 0.948837 0.000000
O O12 0.857524 0.637000 0.549210
O O13 0.205573 0.643734 0.750242
O O14 0.163479 0.851245 0.343317
O O15 0.433057 0.305730 0.155781
O O16 0.500000 0.178157 0.000000
#
# Coordination Sequence:
#
# PCOD9188364 Si02
#       7
#     8   8   8   8   8   8   8
#     4  10  19  36  59  81 110 145 182 220 267 332
#     4  10  20  36  55  78 109 146 189 221 263 327
#     4   9  16  31  61  85  98 132 185 226 259 318
#     4  11  21  34  54  81 114 138 184 235 270 310
#     4  10  21  36  53  80 108 151 189 214 268 327
#     4  11  22  36  53  80 111 142 183 232 275 311
#     4  10  20  38  58  79 110 145 185 218 271 341
#
# _framework density 18.750409000000001
#
# number of rings (size 3 to 8) (size 9 to 14) (size 15 to 20)
#    0.000    1.857    4.286    3.857    0.000    5.143 
#    0.000    2.143    0.000    1.714    0.000    5.000 
#    0.000    0.000    0.000    0.000    0.000    0.000 
#
# Total GULP energy -155906.734818 kJ/mol
# GULP energy per Si atom -5568.097672 kJ/mol
# Density = 1.870773 g / cm^3
# Si number density = 18.750409 Si / 1000 Ang^3
#
#
#
# Elastic Constant Matrix: (Units=GPa)
#
#
# Indices 1 2 3 4 5 6 
#
# 1 84.8785 11.8266 7.3282 0.0001 16.7929 0.0000
# 2 11.8266 102.3293 -9.4298 0.0000 4.2242 0.0000
# 3 7.3282 -9.4298 81.0692 0.0003 11.4930 -0.0002
# 4 0.0001 0.0000 0.0003 32.8313 0.0001 -12.4801
# 5 16.7929 4.2242 11.4930 0.0001 16.8980 0.0000
# 6 0.0000 0.0000 -0.0002 -12.4801 0.0000 9.0934
#
#
#
# Elastic Compliance Matrix: (Units=1/GPa)
#
#
# Indices 1 2 3 4 5 6 
#
# 1 0.014820 -0.001037 0.000654 0.000000 -0.014914 0.000000
# 2 -0.001037 0.010152 0.001647 0.000000 -0.002628 0.000000
# 3 0.000654 0.001647 0.013965 0.000000 -0.010560 0.000000
# 4 0.000000 0.000000 0.000000 0.063682 0.000000 0.087399
# 5 -0.014914 -0.002628 -0.010560 0.000000 0.081838 0.000000
# 6 0.000000 0.000000 0.000000 0.087399 0.000000 0.229920
#
#
# Mechanical properties :
#
#
# Convention : Reuss Voigt Hill
#
# Bulk Modulus (GPa) = 24.11624 31.96965 28.04294
# Shear Modulus (GPa) = 11.74617 29.00134 20.37375
#
# Velocity S-wave (km/s) = 2.50561 3.93708 3.29990
# Velocity P-wave (km/s) = 4.61090 6.14448 5.43208
#
# Compressibility (1/GPa) = 0.04146584
#
# Stress axis : x y z
#
# Youngs Moduli (GPa) = 67.47566 98.49813 71.60944
#
# Poissons Ratio (x) = 0.10213 -0.04683
# Poissons Ratio (y) = 0.06997 -0.11795
# Poissons Ratio (z) = -0.04413 -0.16224
#
# Static dielectric constant tensor:
#      x y z
#    x 1.649130 0.000000 0.004960 
#    y 0.000000 1.707630 0.000000 
#    z 0.004960 0.000000 1.665080 
# 
# From -- ./inp_files/259571.got.cif
#   From: 2010.05.17/outbox.cif.g08.bks.cpg/sg12_130_cif.got.tgz:259571.got - 2010.06.03 13:09:07.
