data_PCOD9188633
_publ_section_title
;
Structure prediction by ZEFSAII (Michael W. Deem and Ramdas Pophale) SiO2 
 PCOD9188633
Probable space group: C 2/M
;
_chemical_formula_sum "Si O2"
_cell_formula_units_Z 40
_cell_length_a 16.651273
_cell_length_b 18.820705
_cell_length_c 19.123365
_cell_angle_alpha 90.000000
_cell_angle_beta 17.302355
_cell_angle_gamma 90.000000
_cell_volume 1782.416614
_symmetry_space_group_name_H-M "C 2/M"
_symmetry_group_IT_number 12
_symmetry_cell_setting 'monoclinic'
loop_
_space_group_symop_operation_xyz
x,y,z
-x,y,-z
-x,-y,-z
x,-y,z
1/2+x,1/2+y,z
1/2-x,1/2+y,-z
1/2-x,1/2-y,-z
1/2+x,1/2-y,z
loop_
_atom_site_type_symbol
_atom_site_label
_atom_site_fract_x
_atom_site_fract_y
_atom_site_fract_z
Si Si1 0.019894 0.203273 0.782872
Si Si2 0.728782 0.079473 0.512432
Si Si3 0.837857 0.134495 0.072502
Si Si4 0.446011 0.423950 0.627528
Si Si5 0.442929 0.728855 0.629927
O O1 0.079027 0.140630 0.678826
O O2 0.266689 0.258299 0.575800
O O3 0.750000 0.250000 0.000000
O O4 0.016252 0.161408 0.859616
O O5 0.423956 0.095665 0.741782
O O6 0.782073 0.078482 0.551428
O O7 0.801839 0.000000 0.426248
O O8 0.727770 0.205852 0.200751
O O9 0.000000 0.095812 0.000000
O O10 0.500000 0.424590 0.500000
O O11 0.314113 0.500000 0.755756
O O12 0.315195 0.347834 0.751960
O O13 0.500000 0.732780 0.500000
#
# Coordination Sequence:
#
# PCOD9188633 Si02
#       5
#     8   8   8   8   8
#     4  11  22  37  62  92 121 161 210 257 304 364
#     4  10  23  41  61  90 130 163 201 258 309 366
#     4  11  22  38  62  91 122 165 211 252 304 367
#     4   9  18  35  61  87 117 160 201 245 313 373
#     4  10  19  36  60  88 123 158 201 258 301 355
#
# _framework density 22.441443
#
# number of rings (size 3 to 8) (size 9 to 14) (size 15 to 20)
#    0.000    1.800    2.000    2.400    0.000    4.400 
#    0.000    2.000    0.000    1.800    0.000    0.000 
#    0.000    0.000    0.000    0.000    0.000    0.000 
#
# Total GULP energy -111575.053406 kJ/mol
# GULP energy per Si atom -5578.752670 kJ/mol
# Density = 2.239037 g / cm^3
# Si number density = 22.441443 Si / 1000 Ang^3
#
#
#
# Elastic Constant Matrix: (Units=GPa)
#
#
# Indices 1 2 3 4 5 6 
#
# 1 169.9383 34.4247 35.1649 -0.0636 -14.1924 -0.0347
# 2 34.4247 162.1261 27.8649 -0.2874 -3.6005 -0.1620
# 3 35.1649 27.8649 77.2222 -0.1140 -27.9310 -0.0850
# 4 -0.0636 -0.2874 -0.1140 5.7238 -0.1177 -3.7453
# 5 -14.1924 -3.6005 -27.9310 -0.1177 42.0102 0.0804
# 6 -0.0347 -0.1620 -0.0850 -3.7453 0.0804 21.9590
#
#
#
# Elastic Compliance Matrix: (Units=1/GPa)
#
#
# Indices 1 2 3 4 5 6 
#
# 1 0.006639 -0.000970 -0.002491 -0.000022 0.000503 -0.000012
# 2 -0.000970 0.006776 -0.002516 0.000314 -0.001419 0.000097
# 3 -0.002491 -0.002516 0.019237 0.000536 0.011734 0.000101
# 4 -0.000022 0.000314 0.000536 0.196706 0.000863 0.033551
# 5 0.000503 -0.001419 0.011734 0.000863 0.031656 0.000067
# 6 -0.000012 0.000097 0.000101 0.033551 0.000067 0.051263
#
#
# Mechanical properties :
#
#
# Convention : Reuss Voigt Hill
#
# Bulk Modulus (GPa) = 48.31604 67.13286 57.72445
# Shear Modulus (GPa) = 15.09989 34.72740 24.91364
#
# Velocity S-wave (km/s) = 2.59676 3.93805 3.33552
# Velocity P-wave (km/s) = 5.52879 7.11739 6.37279
#
# Compressibility (1/GPa) = 0.02069706
#
# Stress axis : x y z
#
# Youngs Moduli (GPa) = 150.63634 147.58851 51.98389
#
# Poissons Ratio (x) = 0.14321 0.12948
# Poissons Ratio (y) = 0.14617 0.13078
# Poissons Ratio (z) = 0.37521 0.37129
#
# Static dielectric constant tensor:
#      x y z
#    x 1.887070 -0.000070 -0.043380 
#    y -0.000070 1.855030 0.000200 
#    z -0.043380 0.000200 1.832740 
# 
# From -- ./inp_files/15122.got.cif
#   From: 2010.05.17/outbox.cif.g08.bks.cpg/sg12_8_cif.got.tgz:15122.got - 2010.06.03 13:09:07.
