data_PCOD9188443
_publ_section_title
;
Structure prediction by ZEFSAII (Michael W. Deem and Ramdas Pophale) SiO2 
 PCOD9188443
Probable space group: C 2/M
;
_chemical_formula_sum "Si O2"
_cell_formula_units_Z 64
_cell_length_a 15.856561
_cell_length_b 8.320703
_cell_length_c 34.275941
_cell_angle_alpha 90.000000
_cell_angle_beta 45.680714
_cell_angle_gamma 90.000000
_cell_volume 3235.506773
_symmetry_space_group_name_H-M "C 2/M"
_symmetry_group_IT_number 12
_symmetry_cell_setting 'monoclinic'
loop_
_space_group_symop_operation_xyz
x,y,z
-x,y,-z
-x,-y,-z
x,-y,z
1/2+x,1/2+y,z
1/2-x,1/2+y,-z
1/2-x,1/2-y,-z
1/2+x,1/2-y,z
loop_
_atom_site_type_symbol
_atom_site_label
_atom_site_fract_x
_atom_site_fract_y
_atom_site_fract_z
Si Si1 0.878552 0.694169 0.060265
Si Si2 0.189464 0.307578 0.059564
Si Si3 0.547754 0.190083 0.441535
Si Si4 0.636130 0.686382 0.559540
Si Si5 0.483604 0.188670 0.326259
Si Si6 0.711071 0.804706 0.667999
Si Si7 0.257895 0.308575 0.740470
Si Si8 0.919845 0.696786 0.135625
O O1 0.878246 0.500000 0.060057
O O2 0.767090 0.750094 0.071050
O O3 0.883527 0.747808 0.103688
O O4 0.000000 0.746933 0.000000
O O5 0.189005 0.500000 0.059758
O O6 0.053217 0.252902 0.102798
O O7 0.250000 0.250000 0.000000
O O8 0.500000 0.226870 0.500000
O O9 0.473944 0.288823 0.433763
O O10 0.683685 0.233193 0.391869
O O11 0.529235 0.000000 0.440391
O O12 0.652716 0.500000 0.563772
O O13 0.750000 0.750000 0.500000
O O14 0.603725 0.780023 0.609241
O O15 0.413712 0.240748 0.310301
O O16 0.606269 0.275720 0.294002
O O17 0.508503 0.000000 0.315775
O O18 0.727950 0.747602 0.706844
O O19 0.719944 0.000000 0.663764
O O20 0.240533 0.500000 0.744506
O O21 0.172084 0.246258 0.802038
O O22 0.919087 0.500000 0.135588
#
# Coordination Sequence:
#
# PCOD9188443 Si02
#       8
#     8   8   8   8   8   8   8   8
#     4  10  19  36  59  85 121 163 202 247 305 361
#     4  11  21  36  59  89 122 161 204 251 304 361
#     4  11  23  38  59  89 122 154 195 247 302 361
#     4  12  24  39  60  88 122 159 200 248 303 362
#     4  11  23  40  62  90 122 158 201 253 307 354
#     4  10  22  39  61  87 118 158 199 244 300 360
#     4  10  21  41  64  86 116 163 210 245 297 364
#     4   9  20  38  60  85 120 163 203 246 302 363
#
# _framework density 19.780519000000002
#
# number of rings (size 3 to 8) (size 9 to 14) (size 15 to 20)
#    0.000    1.500    2.500    3.000    0.000    5.250 
#    0.000    3.125    0.000    0.000    0.000    0.000 
#    0.000    0.000    0.000    0.000    0.000    0.000 
#
# Total GULP energy -178833.385108 kJ/mol
# GULP energy per Si atom -5588.543285 kJ/mol
# Density = 1.973550 g / cm^3
# Si number density = 19.780519 Si / 1000 Ang^3
#
#
#
# Elastic Constant Matrix: (Units=GPa)
#
#
# Indices 1 2 3 4 5 6 
#
# 1 152.5906 3.5079 69.0260 -0.0004 11.9851 -0.0004
# 2 3.5079 10.3776 3.5321 -0.0012 7.2984 0.0019
# 3 69.0260 3.5321 146.4972 -0.0004 8.2573 -0.0006
# 4 -0.0004 -0.0012 -0.0004 7.8966 -0.0009 -1.5955
# 5 11.9851 7.2984 8.2573 -0.0009 25.9023 -0.0003
# 6 -0.0004 0.0019 -0.0006 -1.5955 -0.0003 32.4598
#
#
#
# Elastic Compliance Matrix: (Units=1/GPa)
#
#
# Indices 1 2 3 4 5 6 
#
# 1 0.008513 0.000426 -0.003862 0.000000 -0.002828 0.000000
# 2 0.000426 0.120343 -0.001201 0.000014 -0.033723 -0.000007
# 3 -0.003862 -0.001201 0.008711 0.000000 -0.000652 0.000000
# 4 0.000000 0.000014 0.000000 0.127907 0.000001 0.006287
# 5 -0.002828 -0.033723 -0.000652 0.000001 0.049625 0.000002
# 6 0.000000 -0.000007 0.000000 0.006287 0.000002 0.031116
#
#
# Mechanical properties :
#
#
# Convention : Reuss Voigt Hill
#
# Bulk Modulus (GPa) = 7.79470 51.28859 29.54165
# Shear Modulus (GPa) = 12.55479 28.81171 20.68325
#
# Velocity S-wave (km/s) = 2.52207 3.82064 3.23714
# Velocity P-wave (km/s) = 3.52566 6.74153 5.37952
#
# Compressibility (1/GPa) = 0.12829223
#
# Stress axis : x y z
#
# Youngs Moduli (GPa) = 117.47061 8.30957 114.79215
#
# Poissons Ratio (x) = -0.00354 0.44332
# Poissons Ratio (y) = -0.04999 0.13789
# Poissons Ratio (z) = 0.45366 0.00998
#
# Static dielectric constant tensor:
#      x y z
#    x 1.686340 0.000010 0.007680 
#    y 0.000010 1.796030 -0.000010 
#    z 0.007680 -0.000010 1.681150 
# 
# From -- ./inp_files/375515.got.cif
#   From: 2010.05.17/outbox.cif.g08.bks.cpg/sg12_188_cif.got.tgz:375515.got - 2010.06.03 13:09:07.
