data_PCOD9188360
_publ_section_title
;
Structure prediction by ZEFSAII (Michael W. Deem and Ramdas Pophale) SiO2 
 PCOD9188360
Probable space group: C 2/M
;
_chemical_formula_sum "Si O2"
_cell_formula_units_Z 56
_cell_length_a 14.779203
_cell_length_b 8.424979
_cell_length_c 28.939167
_cell_angle_alpha 90.000000
_cell_angle_beta 123.037245
_cell_angle_gamma 90.000000
_cell_volume 3020.743179
_symmetry_space_group_name_H-M "C 2/M"
_symmetry_group_IT_number 12
_symmetry_cell_setting 'monoclinic'
loop_
_space_group_symop_operation_xyz
x,y,z
-x,y,-z
-x,-y,-z
x,-y,z
1/2+x,1/2+y,z
1/2-x,1/2+y,-z
1/2-x,1/2-y,-z
1/2+x,1/2-y,z
loop_
_atom_site_type_symbol
_atom_site_label
_atom_site_fract_x
_atom_site_fract_y
_atom_site_fract_z
Si Si1 0.312343 0.189764 0.562054
Si Si2 0.244723 0.306691 0.351831
Si Si3 0.323019 0.307601 0.946280
Si Si4 0.515267 0.692585 0.931015
Si Si5 0.049708 0.810244 0.649489
Si Si6 0.498273 0.811091 0.734469
Si Si7 0.411383 0.311378 0.145052
O O1 0.250000 0.250000 0.500000
O O2 0.256512 0.243001 0.594716
O O3 0.436382 0.245656 0.598485
O O4 0.311680 0.000000 0.561858
O O5 0.247407 0.500000 0.351753
O O6 0.346754 0.250883 0.350543
O O7 0.127498 0.258187 0.299574
O O8 0.310988 0.500000 0.943367
O O9 0.409734 0.264979 0.930702
O O10 0.210439 0.227949 0.903651
O O11 0.379839 0.257347 0.010123
O O12 0.518859 0.500000 0.931562
O O13 0.518336 0.747074 0.879210
O O14 0.052884 0.762637 0.704221
O O15 0.047297 0.000000 0.645568
O O16 0.556334 0.767292 0.797978
O O17 0.498597 0.000000 0.728212
O O18 0.424770 0.500000 0.153642
#
# Coordination Sequence:
#
# PCOD9188360 Si02
#       7
#     8   8   8   8   8   8   8
#     4  10  20  36  55  82 115 146 177 213 252 301
#     4   8  18  36  57  76 103 140 176 211 258 307
#     4   9  17  34  55  74  98 134 170 207 256 313
#     4   8  17  33  53  74 101 133 169 208 255 311
#     4  10  19  36  59  81 104 137 175 218 264 306
#     4  10  21  38  54  74 103 138 175 214 257 311
#     4  11  21  33  50  77 105 132 168 215 260 305
#
# _framework density 18.538485000000001
#
# number of rings (size 3 to 8) (size 9 to 14) (size 15 to 20)
#    0.000    2.571    0.000    3.857    0.000    1.714 
#    0.000   17.857    0.000    0.000    0.000    0.000 
#    0.000    0.000    0.000    0.000    0.000    0.000 
#
# Total GULP energy -156195.587403 kJ/mol
# GULP energy per Si atom -5578.413836 kJ/mol
# Density = 1.849629 g / cm^3
# Si number density = 18.538485 Si / 1000 Ang^3
#
#
#
# Elastic Constant Matrix: (Units=GPa)
#
#
# Indices 1 2 3 4 5 6 
#
# 1 118.3865 11.3922 37.6251 0.0000 -18.1176 0.0000
# 2 11.3922 28.8334 6.8578 0.0000 -3.5959 0.0000
# 3 37.6251 6.8578 82.3257 0.0000 -17.9220 0.0000
# 4 0.0000 0.0000 0.0000 25.6833 0.0000 6.3788
# 5 -18.1176 -3.5959 -17.9220 0.0000 12.6122 0.0000
# 6 0.0000 0.0000 0.0000 6.3788 0.0000 20.2721
#
#
#
# Elastic Compliance Matrix: (Units=1/GPa)
#
#
# Indices 1 2 3 4 5 6 
#
# 1 0.011282 -0.002383 -0.002284 0.000000 0.012281 0.000000
# 2 -0.002383 0.036533 -0.000625 0.000000 0.006105 0.000000
# 3 -0.002284 -0.000625 0.018084 0.000000 0.022238 0.000000
# 4 0.000000 0.000000 0.000000 0.042237 0.000000 -0.013290
# 5 0.012281 0.006105 0.022238 0.000000 0.130272 0.000000
# 6 0.000000 0.000000 0.000000 -0.013290 0.000000 0.053511
#
#
# Mechanical properties :
#
#
# Convention : Reuss Voigt Hill
#
# Bulk Modulus (GPa) = 18.07816 37.92174 27.99995
# Shear Modulus (GPa) = 15.57922 23.29155 19.43538
#
# Velocity S-wave (km/s) = 2.90206 3.54840 3.24138
# Velocity P-wave (km/s) = 4.58281 6.10642 5.39863
#
# Compressibility (1/GPa) = 0.05531538
#
# Stress axis : x y z
#
# Youngs Moduli (GPa) = 88.64027 27.37220 55.29763
#
# Poissons Ratio (x) = 0.06521 0.12629
# Poissons Ratio (y) = 0.21119 0.03458
# Poissons Ratio (z) = 0.20245 0.01712
#
# Static dielectric constant tensor:
#      x y z
#    x 1.647080 0.000000 -0.017090 
#    y 0.000000 1.639700 0.000000 
#    z -0.017090 0.000000 1.616860 
# 
# From -- ./inp_files/360037.got.cif
#   From: 2010.05.17/outbox.cif.g08.bks.cpg/sg12_181_cif.got.tgz:360037.got - 2010.06.03 13:09:07.
