data_PCOD9188230
_publ_section_title
;
Structure prediction by ZEFSAII (Michael W. Deem and Ramdas Pophale) SiO2 
 PCOD9188230
Probable space group: C 2/M
;
_chemical_formula_sum "Si O2"
_cell_formula_units_Z 56
_cell_length_a 19.621424
_cell_length_b 8.136759
_cell_length_c 21.520677
_cell_angle_alpha 90.000000
_cell_angle_beta 56.935908
_cell_angle_gamma 90.000000
_cell_volume 2879.475798
_symmetry_space_group_name_H-M "C 2/M"
_symmetry_group_IT_number 12
_symmetry_cell_setting 'monoclinic'
loop_
_space_group_symop_operation_xyz
x,y,z
-x,y,-z
-x,-y,-z
x,-y,z
1/2+x,1/2+y,z
1/2-x,1/2+y,-z
1/2-x,1/2-y,-z
1/2+x,1/2-y,z
loop_
_atom_site_type_symbol
_atom_site_label
_atom_site_fract_x
_atom_site_fract_y
_atom_site_fract_z
Si Si1 0.456446 0.312273 0.329614
Si Si2 0.296017 0.196300 0.718349
Si Si3 0.859590 0.182376 0.811905
Si Si4 0.000022 0.807834 0.930075
Si Si5 0.971306 0.800284 0.582355
Si Si6 0.118799 0.798393 0.759940
Si Si7 0.659380 0.815917 0.050003
O O1 0.425641 0.500000 0.352913
O O2 0.549561 0.320977 0.260047
O O3 0.468457 0.238454 0.392480
O O4 0.408642 0.238013 0.294766
O O5 0.301279 0.273931 0.784224
O O6 0.378819 0.247051 0.642235
O O7 0.212007 0.244616 0.727492
O O8 0.296161 0.000000 0.724854
O O9 0.858167 0.308955 0.868120
O O10 0.840978 0.000000 0.845904
O O11 0.908905 0.791120 0.949593
O O12 0.060437 0.741520 0.845916
O O13 0.022493 0.000000 0.925078
O O14 0.000000 0.735961 0.000000
O O15 0.000000 0.748751 0.500000
O O16 0.972659 0.000000 0.584757
O O17 0.111371 0.000000 0.761879
O O18 0.653223 0.000000 0.028569
O O19 0.750000 0.750000 0.000000
#
# Coordination Sequence:
#
# PCOD9188230 Si02
#       7
#     8   8   8   8   8   8   8
#     4   8  14  29  55  77  98 135 180 217 262 328
#     4  10  20  32  53  84 114 143 180 226 275 333
#     4  10  19  36  58  78 104 143 185 229 276 330
#     4  10  21  38  59  81 110 150 190 232 285 341
#     4   9  18  34  56  80 107 143 187 233 277 326
#     4   9  17  32  53  79 109 144 183 221 274 338
#     4  12  25  39  56  80 110 144 189 241 289 337
#
# _framework density 19.447984000000002
#
# number of rings (size 3 to 8) (size 9 to 14) (size 15 to 20)
#    0.000    2.286    1.429    3.000    2.000    0.571 
#    0.000    2.143    0.000    0.000    0.000    0.000 
#    0.000    0.000    0.000    0.000    0.000    0.000 
#
# Total GULP energy -156047.106317 kJ/mol
# GULP energy per Si atom -5573.110940 kJ/mol
# Density = 1.940372 g / cm^3
# Si number density = 19.447984 Si / 1000 Ang^3
#
#
#
# Elastic Constant Matrix: (Units=GPa)
#
#
# Indices 1 2 3 4 5 6 
#
# 1 161.1560 -0.8241 56.6843 0.0000 27.2503 0.0006
# 2 -0.8241 24.6225 -0.5230 0.0001 2.9121 0.0006
# 3 56.6843 -0.5230 87.7399 0.0000 26.4788 0.0000
# 4 0.0000 0.0001 0.0000 14.0476 0.0000 -2.6637
# 5 27.2503 2.9121 26.4788 0.0000 29.2694 0.0000
# 6 0.0006 0.0006 0.0000 -2.6637 0.0000 20.2288
#
#
#
# Elastic Compliance Matrix: (Units=1/GPa)
#
#
# Indices 1 2 3 4 5 6 
#
# 1 0.008365 0.000675 -0.004167 0.000000 -0.004085 0.000000
# 2 0.000675 0.041417 0.001711 -0.000001 -0.006297 -0.000001
# 3 -0.004167 0.001711 0.017855 0.000000 -0.012443 0.000000
# 4 0.000000 -0.000001 0.000000 0.073009 0.000000 0.009614
# 5 -0.004085 -0.006297 -0.012443 0.000000 0.049852 0.000000
# 6 0.000000 -0.000001 0.000000 0.009614 0.000000 0.050700
#
#
# Mechanical properties :
#
#
# Convention : Reuss Voigt Hill
#
# Bulk Modulus (GPa) = 15.60689 42.68809 29.14749
# Shear Modulus (GPa) = 18.78853 27.25457 23.02155
#
# Velocity S-wave (km/s) = 3.11157 3.74760 3.44430
# Velocity P-wave (km/s) = 4.57729 6.38150 5.55316
#
# Compressibility (1/GPa) = 0.06407426
#
# Stress axis : x y z
#
# Youngs Moduli (GPa) = 119.54224 24.14474 56.00650
#
# Poissons Ratio (x) = -0.01629 0.23341
# Poissons Ratio (y) = -0.08064 -0.09585
# Poissons Ratio (z) = 0.49819 -0.04132
#
# Static dielectric constant tensor:
#      x y z
#    x 1.676250 0.000000 0.026980 
#    y 0.000000 1.708010 0.000000 
#    z 0.026980 0.000000 1.708230 
# 
# From -- ./inp_files/313711.got.cif
#   From: 2010.05.17/outbox.cif.g08.bks.cpg/sg12_157_cif.got.tgz:313711.got - 2010.06.03 13:09:07.
