data_PCOD9188184
_publ_section_title
;
Structure prediction by ZEFSAII (Michael W. Deem and Ramdas Pophale) SiO2 
 PCOD9188184
Probable space group: C 2/M
;
_chemical_formula_sum "Si O2"
_cell_formula_units_Z 64
_cell_length_a 25.605384
_cell_length_b 19.785270
_cell_length_c 8.363962
_cell_angle_alpha 90.000000
_cell_angle_beta 132.125740
_cell_angle_gamma 90.000000
_cell_volume 3142.669560
_symmetry_space_group_name_H-M "C 2/M"
_symmetry_group_IT_number 12
_symmetry_cell_setting 'monoclinic'
loop_
_space_group_symop_operation_xyz
x,y,z
-x,y,-z
-x,-y,-z
x,-y,z
1/2+x,1/2+y,z
1/2-x,1/2+y,-z
1/2-x,1/2-y,-z
1/2+x,1/2-y,z
loop_
_atom_site_type_symbol
_atom_site_label
_atom_site_fract_x
_atom_site_fract_y
_atom_site_fract_z
Si Si1 0.465087 0.821601 0.262188
Si Si2 0.196865 0.810957 0.673594
Si Si3 0.604652 0.197886 0.344573
Si Si4 0.123322 0.185087 0.851885
Si Si5 0.035700 0.923448 0.819983
Si Si6 0.579856 0.923362 0.095749
Si Si7 0.112237 0.077597 0.320569
Si Si8 0.813094 0.750276 0.757480
O O1 0.500000 0.846710 0.500000
O O2 0.529419 0.798420 0.276465
O O3 0.416669 0.757607 0.213695
O O4 0.426218 0.880735 0.081681
O O5 0.159638 0.737696 0.567271
O O6 0.170224 0.827574 0.794319
O O7 0.167222 0.865811 0.487372
O O8 0.279860 0.802929 0.815459
O O9 0.618947 0.121752 0.311852
O O10 0.616193 0.236182 0.198056
O O11 0.064850 0.128902 0.754191
O O12 0.174139 0.184549 0.110734
O O13 0.955103 0.911939 0.702542
O O14 0.043966 0.000000 0.780737
O O15 0.079912 0.916542 0.076533
O O16 0.605704 0.000000 0.129427
O O17 0.500000 0.926492 0.000000
O O18 0.137453 0.000000 0.391053
O O19 0.750000 0.750000 0.500000
#
# Coordination Sequence:
#
# PCOD9188184 Si02
#       8
#     8   8   8   8   8   8   8   8
#     4  11  21  34  57  92 120 141 179 235 304 355
#     4  11  22  36  55  81 119 155 195 239 287 334
#     4  10  19  36  57  82 110 145 189 235 278 341
#     4  12  22  35  57  87 120 152 187 246 297 345
#     4   9  19  34  56  85 119 154 195 243 295 346
#     4   9  19  35  57  82 111 147 183 225 283 348
#     4   9  19  36  56  84 118 158 200 240 287 345
#     4  10  22  38  57  80 106 155 204 238 273 330
#
# _framework density 20.364851000000002
#
# number of rings (size 3 to 8) (size 9 to 14) (size 15 to 20)
#    0.000    1.875    2.500    3.375    0.000    1.750 
#    0.000    1.875    0.000    3.000    0.000    0.000 
#    0.000    0.000    0.000    0.000    0.000    0.000 
#
# Total GULP energy -178245.018149 kJ/mol
# GULP energy per Si atom -5570.156817 kJ/mol
# Density = 2.031850 g / cm^3
# Si number density = 20.364851 Si / 1000 Ang^3
#
#
#
# Elastic Constant Matrix: (Units=GPa)
#
#
# Indices 1 2 3 4 5 6 
#
# 1 104.4001 34.9808 16.7429 0.0000 -9.2642 0.0000
# 2 34.9808 69.7159 21.0997 0.0000 8.7319 0.0000
# 3 16.7429 21.0997 60.7611 0.0000 -0.8958 0.0000
# 4 0.0000 0.0000 0.0000 16.0536 0.0000 2.0898
# 5 -9.2642 8.7319 -0.8958 0.0000 25.4780 0.0000
# 6 0.0000 0.0000 0.0000 2.0898 0.0000 13.4994
#
#
#
# Elastic Compliance Matrix: (Units=1/GPa)
#
#
# Indices 1 2 3 4 5 6 
#
# 1 0.012676 -0.006934 -0.000983 0.000000 0.006951 0.000000
# 2 -0.006934 0.020691 -0.005419 0.000000 -0.009803 0.000000
# 3 -0.000983 -0.005419 0.018642 0.000000 0.002155 0.000000
# 4 0.000000 0.000000 0.000000 0.063572 0.000000 -0.009841
# 5 0.006951 -0.009803 0.002155 0.000000 0.045212 0.000000
# 6 0.000000 0.000000 0.000000 -0.009841 0.000000 0.075601
#
#
# Mechanical properties :
#
#
# Convention : Reuss Voigt Hill
#
# Bulk Modulus (GPa) = 39.46546 42.28042 40.87294
# Shear Modulus (GPa) = 18.41543 21.80981 20.11262
#
# Velocity S-wave (km/s) = 3.01038 3.27609 3.14604
# Velocity P-wave (km/s) = 5.61288 5.92595 5.77154
#
# Compressibility (1/GPa) = 0.02533861
#
# Stress axis : x y z
#
# Youngs Moduli (GPa) = 78.88819 48.33059 53.64161
#
# Poissons Ratio (x) = 0.33511 0.05272
# Poissons Ratio (y) = 0.54698 0.29068
# Poissons Ratio (z) = 0.07753 0.26190
#
# Static dielectric constant tensor:
#      x y z
#    x 1.771530 0.000000 -0.007550 
#    y 0.000000 1.752180 0.000000 
#    z -0.007550 0.000000 1.845850 
# 
# From -- ./inp_files/99144.got.cif
#   From: 2010.05.17/outbox.cif.g08.bks.cpg/sg12_50_cif.got.tgz:99144.got - 2010.06.03 13:09:07.
