data_PCOD9188482
_publ_section_title
;
Structure prediction by ZEFSAII (Michael W. Deem and Ramdas Pophale) SiO2 
 PCOD9188482
Probable space group: C 2/M
;
_chemical_formula_sum "Si O2"
_cell_formula_units_Z 56
_cell_length_a 16.194351
_cell_length_b 18.273206
_cell_length_c 21.294198
_cell_angle_alpha 90.000000
_cell_angle_beta 154.938638
_cell_angle_gamma 90.000000
_cell_volume 2669.217094
_symmetry_space_group_name_H-M "C 2/M"
_symmetry_group_IT_number 12
_symmetry_cell_setting 'monoclinic'
loop_
_space_group_symop_operation_xyz
x,y,z
-x,y,-z
-x,-y,-z
x,-y,z
1/2+x,1/2+y,z
1/2-x,1/2+y,-z
1/2-x,1/2-y,-z
1/2+x,1/2-y,z
loop_
_atom_site_type_symbol
_atom_site_label
_atom_site_fract_x
_atom_site_fract_y
_atom_site_fract_z
Si Si1 0.203788 0.822583 0.148959
Si Si2 0.254281 0.702371 0.401577
Si Si3 0.221187 0.083389 0.836472
Si Si4 0.004632 0.584429 0.571583
Si Si5 0.220673 0.187840 0.725577
Si Si6 0.149510 0.225360 0.865871
Si Si7 0.738465 0.579014 0.495619
O O1 0.355613 0.876308 0.284127
O O2 0.163730 0.758659 0.172156
O O3 0.284510 0.781270 0.143588
O O4 0.000000 0.862222 0.000000
O O5 0.489487 0.711816 0.575299
O O6 0.247165 0.673110 0.325310
O O7 0.196191 0.642721 0.413444
O O8 0.087818 0.765039 0.292609
O O9 0.290955 0.122775 0.819964
O O10 0.221348 0.144946 0.891691
O O11 0.992556 0.076533 0.662801
O O12 0.293235 0.000000 0.898156
O O13 0.064659 0.500000 0.605468
O O14 0.000000 0.620014 0.500000
O O15 0.800336 0.587435 0.466204
O O16 0.250000 0.250000 0.000000
O O17 0.818194 0.500000 0.571558
#
# Coordination Sequence:
#
# PCOD9188482 Si02
#       7
#     8   8   8   8   8   8   8
#     4  11  23  39  58  86 123 162 205 264 310 371
#     4  10  19  36  59  90 119 157 202 252 312 366
#     4   9  20  38  60  87 121 160 201 248 309 374
#     4  10  22  38  59  87 120 162 210 258 310 368
#     4   9  21  34  61  92 119 155 202 256 306 371
#     4  11  23  38  61  87 123 164 208 261 310 374
#     4   9  18  34  58  87 118 151 197 253 304 363
#
# _framework density 20.979935000000001
#
# number of rings (size 3 to 8) (size 9 to 14) (size 15 to 20)
#    0.000    2.143    1.429    0.857    4.000    3.714 
#    0.000    4.286    0.000   14.571    0.000    0.000 
#    0.000    0.000    0.000    0.000    0.000    0.000 
#
# Total GULP energy -156094.528820 kJ/mol
# GULP energy per Si atom -5574.804601 kJ/mol
# Density = 2.093218 g / cm^3
# Si number density = 20.979935 Si / 1000 Ang^3
#
#
#
# Elastic Constant Matrix: (Units=GPa)
#
#
# Indices 1 2 3 4 5 6 
#
# 1 97.8506 33.9101 17.0709 0.0115 -18.9456 -0.0120
# 2 33.9101 102.8121 26.1423 -0.0321 -16.3924 -0.0542
# 3 17.0709 26.1423 52.1955 -0.0092 -8.3049 -0.0254
# 4 0.0115 -0.0321 -0.0092 9.2775 -0.0015 -3.0646
# 5 -18.9456 -16.3924 -8.3049 -0.0015 36.9699 0.0086
# 6 -0.0120 -0.0542 -0.0254 -3.0646 0.0086 9.1036
#
#
#
# Elastic Compliance Matrix: (Units=1/GPa)
#
#
# Indices 1 2 3 4 5 6 
#
# 1 0.012453 -0.002882 -0.001885 -0.000034 0.004681 -0.000022
# 2 -0.002882 0.012360 -0.004782 0.000067 0.002929 0.000076
# 3 -0.001885 -0.004782 0.022483 0.000021 0.001964 0.000037
# 4 -0.000034 0.000067 0.000021 0.121273 0.000013 0.040826
# 5 0.004681 0.002929 0.001964 0.000013 0.031188 0.000004
# 6 -0.000022 0.000076 0.000037 0.040826 0.000004 0.123591
#
#
# Mechanical properties :
#
#
# Convention : Reuss Voigt Hill
#
# Bulk Modulus (GPa) = 35.46230 45.23387 40.34808
# Shear Modulus (GPa) = 14.21080 22.78586 18.49833
#
# Velocity S-wave (km/s) = 2.60542 3.29915 2.97259
# Velocity P-wave (km/s) = 5.09810 6.00998 5.57272
#
# Compressibility (1/GPa) = 0.02819896
#
# Stress axis : x y z
#
# Youngs Moduli (GPa) = 80.29881 80.90590 44.47853
#
# Poissons Ratio (x) = 0.23317 0.08383
# Poissons Ratio (y) = 0.23142 0.21269
# Poissons Ratio (z) = 0.15135 0.38688
#
# Static dielectric constant tensor:
#      x y z
#    x 1.781940 0.000000 0.054840 
#    y 0.000000 1.803170 -0.000030 
#    z 0.054840 -0.000030 1.824080 
# 
# From -- ./inp_files/311741.got.cif
#   From: 2010.05.17/outbox.cif.g08.bks.cpg/sg12_156_cif.got.tgz:311741.got - 2010.06.03 13:09:07.
