data_PCOD9188407
_publ_section_title
;
Structure prediction by ZEFSAII (Michael W. Deem and Ramdas Pophale) SiO2 
 PCOD9188407
Probable space group: C 2/M
;
_chemical_formula_sum "Si O2"
_cell_formula_units_Z 48
_cell_length_a 15.567575
_cell_length_b 8.425285
_cell_length_c 19.606753
_cell_angle_alpha 90.000000
_cell_angle_beta 90.058294
_cell_angle_gamma 90.000000
_cell_volume 2571.645021
_symmetry_space_group_name_H-M "C 2/M"
_symmetry_group_IT_number 12
_symmetry_cell_setting 'monoclinic'
loop_
_space_group_symop_operation_xyz
x,y,z
-x,y,-z
-x,-y,-z
x,-y,z
1/2+x,1/2+y,z
1/2-x,1/2+y,-z
1/2-x,1/2-y,-z
1/2+x,1/2-y,z
loop_
_atom_site_type_symbol
_atom_site_label
_atom_site_fract_x
_atom_site_fract_y
_atom_site_fract_z
Si Si1 0.094245 0.691837 0.173620
Si Si2 0.344931 0.808194 0.675110
Si Si3 0.999859 0.306094 0.578170
Si Si4 0.153614 0.309930 0.676141
Si Si5 0.596931 0.690081 0.824908
Si Si6 0.249405 0.691781 0.077095
O O1 0.092166 0.500000 0.173836
O O2 0.124560 0.742620 0.249286
O O3 0.164710 0.744092 0.118515
O O4 0.998949 0.752757 0.159649
O O5 0.415276 0.756276 0.619831
O O6 0.249553 0.747616 0.661280
O O7 0.342936 0.000000 0.675322
O O8 0.999851 0.500000 0.577815
O O9 0.000000 0.252619 0.500000
O O10 0.083997 0.255304 0.620247
O O11 0.152189 0.500000 0.677172
O O12 0.124916 0.250285 0.750482
O O13 0.598638 0.500000 0.823642
O O14 0.666776 0.745101 0.880531
O O15 0.249404 0.500000 0.077111
O O16 0.250000 0.750000 0.000000
#
# Coordination Sequence:
#
# PCOD9188407 Si02
#       6
#     8   8   8   8   8   8
#     4  10  20  38  60  85 114 151 193 232 279 340
#     4  10  19  36  59  83 115 152 190 234 283 335
#     4   9  19  36  57  82 116 155 189 230 287 341
#     4  11  21  35  58  87 114 149 196 237 278 339
#     4  11  22  38  60  87 116 149 190 237 284 336
#     4  10  23  41  59  82 118 151 186 233 287 340
#
# _framework density 18.665095000000001
#
# number of rings (size 3 to 8) (size 9 to 14) (size 15 to 20)
#    0.000    1.833    3.333    1.000    0.000    4.000 
#    0.000    3.333    0.000    3.500    0.000    0.000 
#    0.000    0.000    0.000    0.000    0.000    0.000 
#
# Total GULP energy -134049.670274 kJ/mol
# GULP energy per Si atom -5585.402928 kJ/mol
# Density = 1.862261 g / cm^3
# Si number density = 18.665095 Si / 1000 Ang^3
#
#
#
# Elastic Constant Matrix: (Units=GPa)
#
#
# Indices 1 2 3 4 5 6 
#
# 1 231.3808 29.2133 128.1012 0.0000 -0.1960 0.0000
# 2 29.2133 13.0631 24.9496 0.0000 -0.9923 0.0000
# 3 128.1012 24.9496 200.6987 0.0000 -0.5994 0.0000
# 4 0.0000 0.0000 0.0000 18.2271 0.0000 0.0569
# 5 -0.1960 -0.9923 -0.5994 0.0000 34.2029 0.0000
# 6 0.0000 0.0000 0.0000 0.0569 0.0000 35.6419
#
#
#
# Elastic Compliance Matrix: (Units=1/GPa)
#
#
# Indices 1 2 3 4 5 6 
#
# 1 0.007585 -0.010148 -0.003581 0.000000 -0.000314 0.000000
# 2 -0.010148 0.114211 -0.007712 0.000000 0.003120 0.000000
# 3 -0.003581 -0.007712 0.008227 0.000000 -0.000100 0.000000
# 4 0.000000 0.000000 0.000000 0.054864 0.000000 -0.000088
# 5 -0.000314 0.003120 -0.000100 0.000000 0.029324 0.000000
# 6 0.000000 0.000000 0.000000 -0.000088 0.000000 0.028057
#
#
# Mechanical properties :
#
#
# Convention : Reuss Voigt Hill
#
# Bulk Modulus (GPa) = 11.47552 89.96343 50.71948
# Shear Modulus (GPa) = 15.91366 35.13962 25.52664
#
# Velocity S-wave (km/s) = 2.92308 4.34364 3.70214
# Velocity P-wave (km/s) = 4.18975 8.57086 6.74588
#
# Compressibility (1/GPa) = 0.08714201
#
# Stress axis : x y z
#
# Youngs Moduli (GPa) = 131.83155 8.75575 121.55653
#
# Poissons Ratio (x) = 0.08885 0.43530
# Poissons Ratio (y) = 1.33780 0.93738
# Poissons Ratio (z) = 0.47209 0.06752
#
# Static dielectric constant tensor:
#      x y z
#    x 1.626320 0.000000 0.004140 
#    y 0.000000 1.649140 0.000000 
#    z 0.004140 0.000000 1.618670 
# 
# From -- ./inp_files/267607.got.cif
#   From: 2010.05.17/outbox.cif.g08.bks.cpg/sg12_134_cif.got.tgz:267607.got - 2010.06.03 13:09:07.
