data_PCOD9188196
_publ_section_title
;
Structure prediction by ZEFSAII (Michael W. Deem and Ramdas Pophale) SiO2 
 PCOD9188196
Probable space group: C 2/M
;
_chemical_formula_sum "Si O2"
_cell_formula_units_Z 36
_cell_length_a 7.447334
_cell_length_b 21.685647
_cell_length_c 12.026276
_cell_angle_alpha 90.000000
_cell_angle_beta 74.624806
_cell_angle_gamma 90.000000
_cell_volume 1872.734202
_symmetry_space_group_name_H-M "C 2/M"
_symmetry_group_IT_number 12
_symmetry_cell_setting 'monoclinic'
loop_
_space_group_symop_operation_xyz
x,y,z
-x,y,-z
-x,-y,-z
x,-y,z
1/2+x,1/2+y,z
1/2-x,1/2+y,-z
1/2-x,1/2-y,-z
1/2+x,1/2-y,z
loop_
_atom_site_type_symbol
_atom_site_label
_atom_site_fract_x
_atom_site_fract_y
_atom_site_fract_z
Si Si1 0.978856 0.700327 0.761716
Si Si2 0.000000 0.352131 0.000000
Si Si3 0.875716 0.928045 0.909180
Si Si4 0.590909 0.660648 0.712763
Si Si5 0.301119 0.821889 0.474427
O O1 0.785266 0.673378 0.746727
O O2 0.994705 0.688293 0.889262
O O3 0.987173 0.773295 0.735495
O O4 0.149358 0.669808 0.663043
O O5 0.818697 0.394754 0.035419
O O6 0.978904 0.891780 0.793841
O O7 0.850179 0.000000 0.887362
O O8 0.000000 0.923122 0.000000
O O9 0.647460 0.645375 0.576063
O O10 0.500000 0.832817 0.500000
O O11 0.250000 0.750000 0.500000
#
# Coordination Sequence:
#
# PCOD9188196 Si02
#       5
#     8   4   8   8   8
#     4  10  20  32  57  90 118 148 181 234 294 340
#     4  12  23  38  60  86 115 144 190 240 288 344
#     4  11  24  41  59  80 113 156 196 234 279 335
#     4  10  19  36  57  84 118 149 190 233 284 340
#     4   8  16  31  52  80 114 148 179 222 280 338
#
# _framework density 19.223229
#
# number of rings (size 3 to 8) (size 9 to 14) (size 15 to 20)
#    0.000    2.000    2.222    1.667    1.556    3.556 
#    0.000    0.000    0.000   10.000    0.000    0.000 
#    0.000    0.000    0.000    0.000    0.000    0.000 
#
# Total GULP energy -100489.659948 kJ/mol
# GULP energy per Si atom -5582.758886 kJ/mol
# Density = 1.917948 g / cm^3
# Si number density = 19.223229 Si / 1000 Ang^3
#
#
#
# Elastic Constant Matrix: (Units=GPa)
#
#
# Indices 1 2 3 4 5 6 
#
# 1 79.2216 18.6724 41.9103 0.0000 -8.7943 0.0000
# 2 18.6724 48.0974 34.7842 0.0000 -16.6047 0.0000
# 3 41.9103 34.7842 175.2436 0.0000 -16.9528 0.0000
# 4 0.0000 0.0000 0.0000 -23.2688 0.0000 10.4216
# 5 -8.7943 -16.6047 -16.9528 0.0000 36.9867 0.0000
# 6 0.0000 0.0000 0.0000 10.4216 0.0000 16.2530
#
#
#
# Elastic Compliance Matrix: (Units=1/GPa)
#
#
# Indices 1 2 3 4 5 6 
#
# 1 0.015030 -0.003558 -0.002822 0.000000 0.000683 0.000000
# 2 -0.003558 0.028441 -0.003810 0.000000 0.010176 0.000000
# 3 -0.002822 -0.003810 0.007228 0.000000 0.000931 0.000000
# 4 0.000000 0.000000 0.000000 -0.033388 0.000000 0.021409
# 5 0.000683 0.010176 0.000931 0.000000 0.032194 0.000000
# 6 0.000000 0.000000 0.000000 0.021409 0.000000 0.047800
#
#
# Mechanical properties :
#
#
# Convention : Reuss Voigt Hill
#
# Bulk Modulus (GPa) = 32.98377 54.81072 43.89724
# Shear Modulus (GPa) = 39.12607 19.80723 29.46665
#
# Velocity S-wave (km/s) = 4.51638 3.21344 3.91943
# Velocity P-wave (km/s) = 6.66277 6.50714 6.58541
#
# Compressibility (1/GPa) = 0.03031794
#
# Stress axis : x y z
#
# Youngs Moduli (GPa) = 66.53207 35.16066 138.35833
#
# Poissons Ratio (x) = 0.12511 0.39048
# Poissons Ratio (y) = 0.23674 0.52713
# Poissons Ratio (z) = 0.18777 0.13396
#
# Static dielectric constant tensor:
#      x y z
#    x 1.727980 0.000000 0.012750 
#    y 0.000000 1.606560 0.000000 
#    z 0.012750 0.000000 1.720170 
# 
# From -- ./inp_files/118757.got.cif
#   From: 2010.05.17/outbox.cif.g08.bks.cpg/sg12_60_cif.got.tgz:118757.got - 2010.06.03 13:09:07.
