data_PCOD9188903
_publ_section_title
;
Structure prediction by ZEFSAII (Michael W. Deem and Ramdas Pophale) SiO2 
 PCOD9188903
Probable space group: C 2/M
;
_chemical_formula_sum "Si O2"
_cell_formula_units_Z 56
_cell_length_a 13.075186
_cell_length_b 20.437034
_cell_length_c 14.492232
_cell_angle_alpha 90.000000
_cell_angle_beta 36.554942
_cell_angle_gamma 90.000000
_cell_volume 2306.486189
_symmetry_space_group_name_H-M "C 2/M"
_symmetry_group_IT_number 12
_symmetry_cell_setting 'monoclinic'
loop_
_space_group_symop_operation_xyz
x,y,z
-x,y,-z
-x,-y,-z
x,-y,z
1/2+x,1/2+y,z
1/2-x,1/2+y,-z
1/2-x,1/2-y,-z
1/2+x,1/2-y,z
loop_
_atom_site_type_symbol
_atom_site_label
_atom_site_fract_x
_atom_site_fract_y
_atom_site_fract_z
Si Si1 0.690741 0.923151 0.998207
Si Si2 0.646646 0.715378 0.707348
Si Si3 0.366884 0.375116 0.701979
Si Si4 0.649999 0.427288 0.627653
Si Si5 0.136105 0.163763 0.968778
Si Si6 0.807548 0.425450 0.340226
Si Si7 0.012098 0.728346 0.357011
O O1 0.711309 0.894470 0.881383
O O2 0.795834 0.880598 0.996453
O O3 0.741210 0.000000 0.964321
O O4 0.495900 0.917978 0.166873
O O5 0.629158 0.637327 0.701049
O O6 0.494193 0.720760 0.895727
O O7 0.584076 0.765435 0.673031
O O8 0.856262 0.719549 0.545098
O O9 0.509326 0.421417 0.647363
O O10 0.314853 0.382280 0.634183
O O11 0.419743 0.301510 0.679698
O O12 0.649228 0.500000 0.669061
O O13 0.817194 0.416747 0.443213
O O14 0.310325 0.186776 0.787449
O O15 0.000000 0.127972 0.000000
O O16 0.753065 0.500000 0.361719
#
# Coordination Sequence:
#
# PCOD9188903 Si02
#       7
#     8   8   8   8   8   8   8
#     4  11  23  41  65  93 128 169 220 273 331 390
#     4  10  22  44  70  93 133 177 215 273 327 383
#     4  11  21  37  61  96 131 172 206 262 326 399
#     4  10  19  36  62  95 130 165 209 261 325 395
#     4  12  26  45  68  95 128 176 223 281 326 374
#     4  10  21  36  61  98 136 167 205 262 327 404
#     4  10  23  45  65  97 132 171 221 263 325 396
#
# _framework density 24.279357000000001
#
# number of rings (size 3 to 8) (size 9 to 14) (size 15 to 20)
#    0.000    1.429    2.857    3.429    0.000    4.286 
#   12.857    0.000    0.000    0.000    0.000    6.000 
#    0.000    0.000    0.000    0.000    0.000    0.000 
#
# Total GULP energy -156085.689901 kJ/mol
# GULP energy per Si atom -5574.488925 kJ/mol
# Density = 2.422410 g / cm^3
# Si number density = 24.279357 Si / 1000 Ang^3
#
#
#
# Elastic Constant Matrix: (Units=GPa)
#
#
# Indices 1 2 3 4 5 6 
#
# 1 59.2668 6.0510 6.9678 0.0023 -22.3985 0.0080
# 2 6.0510 94.0363 31.2889 -0.0028 -15.8878 0.0379
# 3 6.9678 31.2889 172.2829 -0.0040 -12.9886 0.0747
# 4 0.0023 -0.0028 -0.0040 35.3503 -0.0054 -2.0870
# 5 -22.3985 -15.8878 -12.9886 -0.0054 32.1647 -0.0021
# 6 0.0080 0.0379 0.0747 -2.0870 -0.0021 -20.0027
#
#
#
# Elastic Compliance Matrix: (Units=1/GPa)
#
#
# Indices 1 2 3 4 5 6 
#
# 1 0.023055 0.001315 0.000091 0.000002 0.016741 0.000010
# 2 0.001315 0.012198 -0.001800 0.000003 0.006214 0.000016
# 3 0.000091 -0.001800 0.006256 0.000002 0.001700 0.000020
# 4 0.000002 0.000003 0.000002 0.028115 0.000008 -0.002933
# 5 0.016741 0.006214 0.001700 0.000008 0.046504 0.000019
# 6 0.000010 0.000016 0.000020 -0.002933 0.000019 -0.049687
#
#
# Mechanical properties :
#
#
# Convention : Reuss Voigt Hill
#
# Bulk Modulus (GPa) = 24.55807 46.02238 35.29022
# Shear Modulus (GPa) = 61.87887 28.25435 45.06661
#
# Velocity S-wave (km/s) = 5.05386 3.41503 4.31300
# Velocity P-wave (km/s) = 6.64772 5.87762 6.27449
#
# Compressibility (1/GPa) = 0.04071981
#
# Stress axis : x y z
#
# Youngs Moduli (GPa) = 43.37515 81.97784 159.85080
#
# Poissons Ratio (x) = -0.10777 -0.01453
# Poissons Ratio (y) = -0.05702 0.28775
# Poissons Ratio (z) = -0.00394 0.14757
#
# Static dielectric constant tensor:
#      x y z
#    x 2.019610 0.000000 0.040330 
#    y 0.000000 1.896230 0.000000 
#    z 0.040330 0.000000 2.225400 
# 
# From -- ./inp_files/272364.got.cif
#   From: 2010.05.17/outbox.cif.g08.bks.cpg/sg12_137_cif.got.tgz:272364.got - 2010.06.03 13:09:07.
