data_PCOD9188212
_publ_section_title
;
Structure prediction by ZEFSAII (Michael W. Deem and Ramdas Pophale) SiO2 
 PCOD9188212
Probable space group: C 2/M
;
_chemical_formula_sum "Si O2"
_cell_formula_units_Z 56
_cell_length_a 13.329521
_cell_length_b 19.644400
_cell_length_c 14.149926
_cell_angle_alpha 90.000000
_cell_angle_beta 140.540641
_cell_angle_gamma 90.000000
_cell_volume 2354.745832
_symmetry_space_group_name_H-M "C 2/M"
_symmetry_group_IT_number 12
_symmetry_cell_setting 'monoclinic'
loop_
_space_group_symop_operation_xyz
x,y,z
-x,y,-z
-x,-y,-z
x,-y,z
1/2+x,1/2+y,z
1/2-x,1/2+y,-z
1/2-x,1/2-y,-z
1/2+x,1/2-y,z
loop_
_atom_site_type_symbol
_atom_site_label
_atom_site_fract_x
_atom_site_fract_y
_atom_site_fract_z
Si Si1 0.466785 0.215651 0.614694
Si Si2 0.831999 0.397000 0.866820
Si Si3 0.297314 0.081209 0.461676
Si Si4 0.314592 0.306287 0.114131
Si Si5 0.527143 0.422932 0.417094
Si Si6 0.804887 0.719794 0.701793
Si Si7 0.061982 0.858932 0.147378
O O1 0.444232 0.134476 0.575780
O O2 0.610235 0.268305 0.739316
O O3 0.360358 0.251442 0.458203
O O4 0.399602 0.218701 0.672254
O O5 0.834797 0.346139 0.956752
O O6 0.654188 0.426348 0.751854
O O7 0.819286 0.352462 0.762652
O O8 0.000000 0.433025 0.000000
O O9 0.202119 0.096514 0.295395
O O10 0.164333 0.102498 0.445793
O O11 0.332474 0.000000 0.495286
O O12 0.427817 0.352479 0.131032
O O13 0.250000 0.250000 0.000000
O O14 0.500000 0.390384 0.500000
O O15 0.582522 0.500000 0.475439
O O16 0.875493 0.781505 0.815059
O O17 0.000000 0.881692 0.000000
#
# Coordination Sequence:
#
# PCOD9188212 Si02
#       7
#     8   8   8   8   8   8   8
#     4   9  19  35  56  85 118 159 199 257 308 366
#     4  12  23  35  56  88 125 165 198 250 303 369
#     4  10  20  38  62  89 121 164 214 261 303 367
#     4  11  22  35  56  89 125 161 195 253 318 381
#     4  10  22  38  59  87 122 166 213 250 297 367
#     4   9  18  32  55  81 119 150 198 248 308 371
#     4  10  19  36  57  86 123 159 207 257 312 369
#
# _framework density 23.781759999999998
#
# number of rings (size 3 to 8) (size 9 to 14) (size 15 to 20)
#    0.000    1.857    1.429    4.714    2.000    0.571 
#    0.000    0.000    0.000    3.429    0.000   13.000 
#    0.000    1.143    0.000    0.000    0.000    0.000 
#
# Total GULP energy -155930.263492 kJ/mol
# GULP energy per Si atom -5568.937982 kJ/mol
# Density = 2.372763 g / cm^3
# Si number density = 23.781760 Si / 1000 Ang^3
#
#
#
# Elastic Constant Matrix: (Units=GPa)
#
#
# Indices 1 2 3 4 5 6 
#
# 1 89.6779 25.0242 23.4641 0.0000 -2.3109 0.0000
# 2 25.0242 107.6986 17.3444 0.0000 0.6907 0.0000
# 3 23.4641 17.3444 99.4576 0.0000 -5.7444 0.0000
# 4 0.0000 0.0000 0.0000 7.0845 0.0000 6.8701
# 5 -2.3109 0.6907 -5.7444 0.0000 41.3971 0.0000
# 6 0.0000 0.0000 0.0000 6.8701 0.0000 -1.3506
#
#
#
# Elastic Compliance Matrix: (Units=1/GPa)
#
#
# Indices 1 2 3 4 5 6 
#
# 1 0.012513 -0.002509 -0.002492 0.000000 0.000395 0.000000
# 2 -0.002509 0.010063 -0.001190 0.000000 -0.000473 0.000000
# 3 -0.002492 -0.001190 0.010931 0.000000 0.001398 0.000000
# 4 0.000000 0.000000 0.000000 0.023792 0.000000 0.121024
# 5 0.000395 -0.000473 0.001398 0.000000 0.024380 0.000000
# 6 0.000000 0.000000 0.000000 0.121024 0.000000 -0.124800
#
#
# Mechanical properties :
#
#
# Convention : Reuss Voigt Hill
#
# Bulk Modulus (GPa) = 47.33732 47.61105 47.47419
# Shear Modulus (GPa) = -210.98728 24.82629 -93.08050
#
# Velocity S-wave (km/s) = -9.42925 3.23448 -6.26294
# Velocity P-wave (km/s) = 9.92973 5.83203 5.68273
#
# Compressibility (1/GPa) = 0.02112498
#
# Stress axis : x y z
#
# Youngs Moduli (GPa) = 79.91551 99.37574 91.48539
#
# Poissons Ratio (x) = 0.24931 0.22797
# Poissons Ratio (y) = 0.20049 0.10890
# Poissons Ratio (z) = 0.19914 0.11829
#
# Static dielectric constant tensor:
#      x y z
#    x 2.015220 0.000000 0.057170 
#    y 0.000000 1.986940 0.000000 
#    z 0.057170 0.000000 1.958130 
# 
# From -- ./inp_files/217722.got.cif
#   From: 2010.05.17/outbox.cif.g08.bks.cpg/sg12_109_cif.got.tgz:217722.got - 2010.06.03 13:09:07.
