data_PCOD9188498
_publ_section_title
;
Structure prediction by ZEFSAII (Michael W. Deem and Ramdas Pophale) SiO2 
 PCOD9188498
Probable space group: C 2/M
;
_chemical_formula_sum "Si O2"
_cell_formula_units_Z 48
_cell_length_a 16.148606
_cell_length_b 14.807194
_cell_length_c 31.025670
_cell_angle_alpha 90.000000
_cell_angle_beta 161.495247
_cell_angle_gamma 90.000000
_cell_volume 2354.577980
_symmetry_space_group_name_H-M "C 2/M"
_symmetry_group_IT_number 12
_symmetry_cell_setting 'monoclinic'
loop_
_space_group_symop_operation_xyz
x,y,z
-x,y,-z
-x,-y,-z
x,-y,z
1/2+x,1/2+y,z
1/2-x,1/2+y,-z
1/2-x,1/2-y,-z
1/2+x,1/2-y,z
loop_
_atom_site_type_symbol
_atom_site_label
_atom_site_fract_x
_atom_site_fract_y
_atom_site_fract_z
Si Si1 0.771520 0.284819 0.644141
Si Si2 0.985050 0.811653 0.663198
Si Si3 0.921922 0.673205 0.369991
Si Si4 0.694756 0.709653 0.060276
Si Si5 0.949188 0.097232 0.087855
Si Si6 0.534024 0.898034 0.955961
O O1 0.500000 0.335948 0.500000
O O2 0.899538 0.249578 0.662488
O O3 0.671952 0.209874 0.629686
O O4 0.016323 0.327623 0.789776
O O5 0.715614 0.863982 0.519729
O O6 0.052364 0.752919 0.653605
O O7 0.236096 0.868694 0.800952
O O8 0.699347 0.609003 0.241693
O O9 0.500000 0.674786 0.000000
O O10 0.573008 0.679521 0.955493
O O11 0.684144 0.818960 0.056160
O O12 0.964629 0.000000 0.072998
O O13 0.689678 0.100552 0.988010
O O14 0.554103 0.000000 0.982641
#
# Coordination Sequence:
#
# PCOD9188498 Si02
#       6
#     8   8   8   8   8   8
#     4  10  20  34  58  87 113 153 195 232 293 355
#     4  10  20  36  56  87 114 155 193 236 292 349
#     4  10  19  36  60  79 119 155 192 238 291 342
#     4  12  21  38  61  83 119 152 190 247 295 338
#     4  11  23  38  60  87 114 157 202 237 288 346
#     4  11  22  36  57  85 115 151 194 235 288 348
#
# _framework density 20.385819000000001
#
# number of rings (size 3 to 8) (size 9 to 14) (size 15 to 20)
#    0.000    1.333    5.000    1.500    0.000    1.333 
#    0.000    0.833    0.000    4.000    0.000    0.000 
#    0.000    0.000    0.000    0.000    0.000    0.000 
#
# Total GULP energy -133713.277320 kJ/mol
# GULP energy per Si atom -5571.386555 kJ/mol
# Density = 2.033942 g / cm^3
# Si number density = 20.385819 Si / 1000 Ang^3
#
#
#
# Elastic Constant Matrix: (Units=GPa)
#
#
# Indices 1 2 3 4 5 6 
#
# 1 94.6491 13.5137 1.5663 0.0134 7.5142 0.0001
# 2 13.5137 34.6531 0.9558 0.0175 4.5605 -0.0056
# 3 1.5663 0.9558 148.8806 0.0412 10.2843 -0.0153
# 4 0.0134 0.0175 0.0412 -4.3190 -0.0126 10.4328
# 5 7.5142 4.5605 10.2843 -0.0126 34.9318 0.0067
# 6 0.0001 -0.0056 -0.0153 10.4328 0.0067 -6.3480
#
#
#
# Elastic Compliance Matrix: (Units=1/GPa)
#
#
# Indices 1 2 3 4 5 6 
#
# 1 0.011310 -0.004161 0.000039 -0.000010 -0.001901 -0.000014
# 2 -0.004161 0.030894 0.000064 -0.000016 -0.003157 -0.000057
# 3 0.000039 0.000064 0.006857 -0.000009 -0.002035 -0.000033
# 4 -0.000010 -0.000016 -0.000009 0.077960 0.000010 0.128126
# 5 -0.001901 -0.003157 -0.002035 0.000010 0.030047 0.000056
# 6 -0.000014 -0.000057 -0.000033 0.128126 0.000056 0.053042
#
#
# Mechanical properties :
#
#
# Convention : Reuss Voigt Hill
#
# Bulk Modulus (GPa) = 24.42440 34.47272 29.44856
# Shear Modulus (GPa) = 21.56327 22.32942 21.94635
#
# Velocity S-wave (km/s) = 3.25585 3.31318 3.28464
# Velocity P-wave (km/s) = 5.11284 5.61989 5.37235
#
# Compressibility (1/GPa) = 0.04094267
#
# Stress axis : x y z
#
# Youngs Moduli (GPa) = 88.41910 32.36879 145.84553
#
# Poissons Ratio (x) = 0.13470 -0.00570
# Poissons Ratio (y) = 0.36795 -0.00926
# Poissons Ratio (z) = -0.00345 -0.00206
#
# Static dielectric constant tensor:
#      x y z
#    x 1.755670 0.000000 0.000190 
#    y 0.000000 1.716890 -0.000010 
#    z 0.000190 -0.000010 1.753850 
# 
# From -- ./inp_files/376644.got.cif
#   From: 2010.05.17/outbox.cif.g08.bks.cpg/sg12_189_cif.got.tgz:376644.got - 2010.06.03 13:09:07.
