data_PCOD9188895
_publ_section_title
;
Structure prediction by ZEFSAII (Michael W. Deem and Ramdas Pophale) SiO2 
 PCOD9188895
Probable space group: C 2/M
;
_chemical_formula_sum "Si O2"
_cell_formula_units_Z 48
_cell_length_a 8.148532
_cell_length_b 26.761608
_cell_length_c 19.640097
_cell_angle_alpha 90.000000
_cell_angle_beta 147.211962
_cell_angle_gamma 90.000000
_cell_volume 2319.315880
_symmetry_space_group_name_H-M "C 2/M"
_symmetry_group_IT_number 12
_symmetry_cell_setting 'monoclinic'
loop_
_space_group_symop_operation_xyz
x,y,z
-x,y,-z
-x,-y,-z
x,-y,z
1/2+x,1/2+y,z
1/2-x,1/2+y,-z
1/2-x,1/2-y,-z
1/2+x,1/2-y,z
loop_
_atom_site_type_symbol
_atom_site_label
_atom_site_fract_x
_atom_site_fract_y
_atom_site_fract_z
Si Si1 0.196070 0.440083 0.134586
Si Si2 0.139211 0.792555 0.870464
Si Si3 0.653820 0.059030 0.852647
Si Si4 0.217155 0.887584 0.243123
Si Si5 0.238361 0.173103 0.532985
Si Si6 0.585661 0.727370 0.700924
O O1 0.178095 0.500000 0.131554
O O2 0.525618 0.422791 0.226033
O O3 0.060413 0.421909 0.159743
O O4 0.000000 0.424062 0.000000
O O5 0.048845 0.798018 0.760180
O O6 0.003213 0.841839 0.858008
O O7 0.936834 0.744665 0.820342
O O8 0.500000 0.786938 0.000000
O O9 0.652655 0.086719 0.779650
O O10 0.588815 0.000000 0.819292
O O11 0.000000 0.062534 0.000000
O O12 0.486391 0.863679 0.380633
O O13 0.385703 0.222080 0.621608
O O14 0.000000 0.148639 0.500000
O O15 0.049427 0.191817 0.403181
#
# Coordination Sequence:
#
# PCOD9188895 Si02
#       6
#     8   8   8   8   8   8
#     4  10  19  36  62  93 135 175 210 257 323 401
#     4  11  23  39  61  94 129 166 205 280 335 377
#     4  10  20  37  64  93 132 180 209 250 325 398
#     4  11  23  36  59  99 134 160 219 273 315 370
#     4  10  21  40  64  88 118 174 227 275 305 370
#     4  10  21  41  64  82 120 170 227 257 322 397
#
# _framework density 20.695757
#
# number of rings (size 3 to 8) (size 9 to 14) (size 15 to 20)
#    0.000    1.667    3.333    1.500    0.000    1.333 
#    0.000    1.667    0.000    2.000    0.000   11.667 
#    0.000    0.000    0.000    0.000    0.000    0.000 
#
# Total GULP energy -133906.376364 kJ/mol
# GULP energy per Si atom -5579.432348 kJ/mol
# Density = 2.064865 g / cm^3
# Si number density = 20.695757 Si / 1000 Ang^3
#
#
#
# Elastic Constant Matrix: (Units=GPa)
#
#
# Indices 1 2 3 4 5 6 
#
# 1 167.8827 43.9862 41.2127 0.0002 2.8011 0.0000
# 2 43.9862 39.8872 27.3674 0.0000 -4.5725 -0.0001
# 3 41.2127 27.3674 27.5146 -0.0009 5.2349 -0.0001
# 4 0.0002 0.0000 -0.0009 4.0242 0.0000 15.0360
# 5 2.8011 -4.5725 5.2349 0.0000 32.1970 0.0000
# 6 0.0000 -0.0001 -0.0001 15.0360 0.0000 27.4760
#
#
#
# Elastic Compliance Matrix: (Units=1/GPa)
#
#
# Indices 1 2 3 4 5 6 
#
# 1 0.009512 -0.001401 -0.013063 0.000003 0.001097 -0.000002
# 2 -0.001401 0.104363 -0.107887 0.000023 0.032485 -0.000013
# 3 -0.013063 -0.107887 0.171216 -0.000037 -0.042023 0.000020
# 4 0.000003 0.000023 -0.000037 -0.237863 0.000009 0.130168
# 5 0.001097 0.032485 -0.042023 0.000009 0.042409 -0.000005
# 6 -0.000002 -0.000013 0.000020 0.130168 -0.000005 -0.034838
#
#
# Mechanical properties :
#
#
# Convention : Reuss Voigt Hill
#
# Bulk Modulus (GPa) = 24.75899 51.15746 37.95822
# Shear Modulus (GPa) = 15.97622 20.92064 18.44843
#
# Velocity S-wave (km/s) = 2.78142 3.18286 2.98889
# Velocity P-wave (km/s) = 4.72275 6.18708 5.50383
#
# Compressibility (1/GPa) = 0.04038937
#
# Stress axis : x y z
#
# Youngs Moduli (GPa) = 105.12981 9.58190 5.84057
#
# Poissons Ratio (x) = 0.01342 0.07629
# Poissons Ratio (y) = 0.14729 0.63012
# Poissons Ratio (z) = 1.37329 1.03376
#
# Static dielectric constant tensor:
#      x y z
#    x 1.834940 0.000000 0.041920 
#    y 0.000000 1.786640 0.000000 
#    z 0.041920 0.000000 1.734180 
# 
# From -- ./inp_files/302795.got.cif
#   From: 2010.05.17/outbox.cif.g08.bks.cpg/sg12_152_cif.got.tgz:302795.got - 2010.06.03 13:09:07.
