data_PCOD9188380
_publ_section_title
;
Structure prediction by ZEFSAII (Michael W. Deem and Ramdas Pophale) SiO2 
 PCOD9188380
Probable space group: C 2/M
;
_chemical_formula_sum "Si O2"
_cell_formula_units_Z 48
_cell_length_a 11.375705
_cell_length_b 14.081594
_cell_length_c 31.700914
_cell_angle_alpha 90.000000
_cell_angle_beta 156.511315
_cell_angle_gamma 90.000000
_cell_volume 2023.971085
_symmetry_space_group_name_H-M "C 2/M"
_symmetry_group_IT_number 12
_symmetry_cell_setting 'monoclinic'
loop_
_space_group_symop_operation_xyz
x,y,z
-x,y,-z
-x,-y,-z
x,-y,z
1/2+x,1/2+y,z
1/2-x,1/2+y,-z
1/2-x,1/2-y,-z
1/2+x,1/2-y,z
loop_
_atom_site_type_symbol
_atom_site_label
_atom_site_fract_x
_atom_site_fract_y
_atom_site_fract_z
Si Si1 0.782674 0.899737 0.888567
Si Si2 0.684704 0.608193 0.437256
Si Si3 0.216345 0.105451 0.611686
Si Si4 0.627206 0.680690 0.837527
Si Si5 0.289454 0.653425 0.040145
Si Si6 0.324150 0.687764 0.652753
O O1 0.633829 0.796625 0.838205
O O2 0.994938 0.904331 0.918231
O O3 0.609241 0.000000 0.834417
O O4 0.000000 0.895303 0.000000
O O5 0.794986 0.500000 0.472862
O O6 0.467984 0.614861 0.405464
O O7 0.555618 0.632867 0.348714
O O8 0.969554 0.675269 0.535990
O O9 0.402902 0.201609 0.671890
O O10 0.000000 0.108347 0.500000
O O11 0.356562 0.000000 0.657338
O O12 0.567511 0.660137 0.866638
O O13 0.428921 0.652188 0.732721
O O14 0.945272 0.631473 0.933849
O O15 0.250000 0.750000 0.000000
#
# Coordination Sequence:
#
# PCOD9188380 Si02
#       6
#     8   8   8   8   8   8
#     4  10  19  36  59  82 112 151 188 231 285 339
#     4  10  22  43  61  82 119 157 193 240 293 354
#     4  10  21  38  58  83 119 153 189 240 293 342
#     4  10  20  35  61  85 111 146 197 235 282 340
#     4   9  17  38  56  79 114 152 179 230 284 339
#     4  11  21  35  65  88 110 153 201 238 288 350
#
# _framework density 23.715754
#
# number of rings (size 3 to 8) (size 9 to 14) (size 15 to 20)
#    0.000    2.000    5.000    1.500    0.000    3.333 
#    0.000    5.000    0.000    0.000    0.000    0.000 
#    0.000    0.000    0.000    0.000    0.000    0.000 
#
# Total GULP energy -133954.542709 kJ/mol
# GULP energy per Si atom -5581.439280 kJ/mol
# Density = 2.366178 g / cm^3
# Si number density = 23.715754 Si / 1000 Ang^3
#
#
#
# Elastic Constant Matrix: (Units=GPa)
#
#
# Indices 1 2 3 4 5 6 
#
# 1 129.6292 11.5147 42.4309 0.0005 -44.6306 0.0001
# 2 11.5147 79.6350 -1.1569 -0.0007 -2.3373 -0.0004
# 3 42.4309 -1.1569 115.0207 0.0009 -52.5473 0.0024
# 4 0.0005 -0.0007 0.0009 14.4658 0.0012 -9.6142
# 5 -44.6306 -2.3373 -52.5473 0.0012 53.3023 0.0009
# 6 0.0001 -0.0004 0.0024 -9.6142 0.0009 26.8086
#
#
#
# Elastic Compliance Matrix: (Units=1/GPa)
#
#
# Indices 1 2 3 4 5 6 
#
# 1 0.010978 -0.001311 0.000200 -0.000002 0.009332 -0.000001
# 2 -0.001311 0.012760 0.000666 0.000001 0.000119 0.000000
# 3 0.000200 0.000666 0.015860 -0.000005 0.015832 -0.000004
# 4 -0.000002 0.000001 -0.000005 0.090761 -0.000009 0.032549
# 5 0.009332 0.000119 0.015832 -0.000009 0.042188 -0.000006
# 6 -0.000001 0.000000 -0.000004 0.032549 -0.000006 0.048975
#
#
# Mechanical properties :
#
#
# Convention : Reuss Voigt Hill
#
# Bulk Modulus (GPa) = 25.83320 47.76248 36.79784
# Shear Modulus (GPa) = 21.24828 37.01509 29.13169
#
# Velocity S-wave (km/s) = 2.99650 3.95496 3.50861
# Velocity P-wave (km/s) = 4.78419 6.40616 5.65364
#
# Compressibility (1/GPa) = 0.03870988
#
# Stress axis : x y z
#
# Youngs Moduli (GPa) = 91.08992 78.37015 63.05261
#
# Poissons Ratio (x) = 0.10271 -0.01264
# Poissons Ratio (y) = 0.11938 -0.04200
# Poissons Ratio (z) = -0.01826 -0.05220
#
# Static dielectric constant tensor:
#      x y z
#    x 1.901270 0.000000 0.004460 
#    y 0.000000 1.931190 0.000000 
#    z 0.004460 0.000000 1.962230 
# 
# From -- ./inp_files/374148.got.cif
#   From: 2010.05.17/outbox.cif.g08.bks.cpg/sg12_188_cif.got.tgz:374148.got - 2010.06.03 13:09:07.
