data_PCOD9188668
_publ_section_title
;
Structure prediction by ZEFSAII (Michael W. Deem and Ramdas Pophale) SiO2 
 PCOD9188668
Probable space group: C 2/M
;
_chemical_formula_sum "Si O2"
_cell_formula_units_Z 58
_cell_length_a 9.785000
_cell_length_b 18.388552
_cell_length_c 22.919947
_cell_angle_alpha 90.000000
_cell_angle_beta 141.485030
_cell_angle_gamma 90.000000
_cell_volume 2568.113136
_symmetry_space_group_name_H-M "C 2/M"
_symmetry_group_IT_number 12
_symmetry_cell_setting 'monoclinic'
loop_
_space_group_symop_operation_xyz
x,y,z
-x,y,-z
-x,-y,-z
x,-y,z
1/2+x,1/2+y,z
1/2-x,1/2+y,-z
1/2-x,1/2-y,-z
1/2+x,1/2-y,z
loop_
_atom_site_type_symbol
_atom_site_label
_atom_site_fract_x
_atom_site_fract_y
_atom_site_fract_z
Si Si1 0.042369 0.578469 0.444935
Si Si2 0.446595 0.388078 0.390619
Si Si3 0.351572 0.415226 0.005950
Si Si4 0.403620 0.713260 0.100542
Si Si5 0.984471 0.582622 0.797860
Si Si6 0.000000 0.000000 0.500000
Si Si7 0.138946 0.725881 0.605810
Si Si8 0.377313 0.229679 0.217560
O O1 0.980115 0.500000 0.398000
O O2 0.304332 0.586049 0.529197
O O3 0.000000 0.574898 0.500000
O O4 0.924771 0.651180 0.382668
O O5 0.277235 0.410793 0.284284
O O6 0.366213 0.435068 0.419425
O O7 0.437304 0.301862 0.392537
O O8 0.392293 0.500000 0.028086
O O9 0.106793 0.403921 0.899677
O O10 0.500000 0.390623 0.000000
O O11 0.399147 0.370089 0.079119
O O12 0.322841 0.732497 0.137506
O O13 0.659647 0.736203 0.183090
O O14 0.250000 0.750000 0.000000
O O15 0.045155 0.500000 0.800813
O O16 0.062004 0.645844 0.779207
O O17 0.399700 0.733855 0.684073
O O18 0.000000 0.722527 0.500000
#
# Coordination Sequence:
#
# PCOD9188668 Si02
#       8
#     8   8   8   8   8   2   8   8
#     4  10  21  39  60  79 114 168 213 250 295 363
#     4  11  21  37  59  92 124 157 206 255 325 371
#     4  10  19  36  64  94 125 156 200 259 320 371
#     4  12  22  43  63  93 125 164 206 263 310 382
#     4  10  19  36  60  93 119 155 205 261 306 377
#     4  12  20  36  58  92 120 160 192 274 328 364
#     4  10  23  42  63  92 128 168 210 270 312 375
#     4  11  25  39  65  94 124 167 213 255 324 380
#
# _framework density 22.584676000000002
#
# number of rings (size 3 to 8) (size 9 to 14) (size 15 to 20)
#    0.000    1.379    4.828    0.828    0.000    5.517 
#    0.000    0.690    0.000    2.483    0.000    0.000 
#    0.000    0.000    0.000    0.000    0.000    0.000 
#
# Total GULP energy -161764.709923 kJ/mol
# GULP energy per Si atom -5578.093446 kJ/mol
# Density = 2.253327 g / cm^3
# Si number density = 22.584676 Si / 1000 Ang^3
#
#
#
# Elastic Constant Matrix: (Units=GPa)
#
#
# Indices 1 2 3 4 5 6 
#
# 1 35.6362 11.4998 0.2034 0.0000 1.1136 0.0000
# 2 11.4998 176.8860 34.2653 0.0000 4.3541 0.0000
# 3 0.2034 34.2653 116.5506 0.0002 6.0177 0.0001
# 4 0.0000 0.0000 0.0002 30.8434 0.0001 -4.5288
# 5 1.1136 4.3541 6.0177 0.0001 26.0413 0.0000
# 6 0.0000 0.0000 0.0001 -4.5288 0.0000 15.4250
#
#
#
# Elastic Compliance Matrix: (Units=1/GPa)
#
#
# Indices 1 2 3 4 5 6 
#
# 1 0.028721 -0.001954 0.000578 0.000000 -0.001035 0.000000
# 2 -0.001954 0.006137 -0.001773 0.000000 -0.000533 0.000000
# 3 0.000578 -0.001773 0.009196 0.000000 -0.001853 0.000000
# 4 0.000000 0.000000 0.000000 0.033883 0.000000 0.009948
# 5 -0.001035 -0.000533 -0.001853 0.000000 0.038962 0.000000
# 6 0.000000 0.000000 0.000000 0.009948 0.000000 0.067750
#
#
# Mechanical properties :
#
#
# Convention : Reuss Voigt Hill
#
# Bulk Modulus (GPa) = 26.48637 46.77886 36.63261
# Shear Modulus (GPa) = 24.56608 33.33556 28.95082
#
# Velocity S-wave (km/s) = 3.30166 3.84608 3.58422
# Velocity P-wave (km/s) = 5.12715 6.36244 5.77790
#
# Compressibility (1/GPa) = 0.03775528
#
# Stress axis : x y z
#
# Youngs Moduli (GPa) = 34.81789 162.94606 108.74298
#
# Poissons Ratio (x) = 0.31834 -0.06282
# Poissons Ratio (y) = 0.06802 0.19284
# Poissons Ratio (z) = -0.02011 0.28896
#
# Static dielectric constant tensor:
#      x y z
#    x 2.284410 0.000000 0.012220 
#    y 0.000000 1.909110 0.000000 
#    z 0.012220 0.000000 1.876430 
# 
# From -- ./inp_files/374384.got.cif
#   From: 2010.05.17/outbox.cif.g08.bks.cpg/sg12_188_cif.got.tgz:374384.got - 2010.06.03 13:09:07.
