data_PCOD9188570
_publ_section_title
;
Structure prediction by ZEFSAII (Michael W. Deem and Ramdas Pophale) SiO2 
 PCOD9188570
Probable space group: C 2/M
;
_chemical_formula_sum "Si O2"
_cell_formula_units_Z 52
_cell_length_a 9.186129
_cell_length_b 19.769245
_cell_length_c 19.186619
_cell_angle_alpha 90.000000
_cell_angle_beta 47.297965
_cell_angle_gamma 90.000000
_cell_volume 2560.611627
_symmetry_space_group_name_H-M "C 2/M"
_symmetry_group_IT_number 12
_symmetry_cell_setting 'monoclinic'
loop_
_space_group_symop_operation_xyz
x,y,z
-x,y,-z
-x,-y,-z
x,-y,z
1/2+x,1/2+y,z
1/2-x,1/2+y,-z
1/2-x,1/2-y,-z
1/2+x,1/2-y,z
loop_
_atom_site_type_symbol
_atom_site_label
_atom_site_fract_x
_atom_site_fract_y
_atom_site_fract_z
Si Si1 0.813750 0.793638 0.913285
Si Si2 0.245750 0.781144 0.799522
Si Si3 0.392299 0.578668 0.609727
Si Si4 0.931818 0.579347 0.781610
Si Si5 0.000000 0.264214 0.500000
Si Si6 0.685092 0.578526 0.993312
Si Si7 0.920437 0.806355 0.380395
O O1 0.701668 0.762456 0.883757
O O2 0.044363 0.779417 0.821810
O O3 0.750000 0.750000 0.000000
O O4 0.800729 0.870344 0.946464
O O5 0.301828 0.859629 0.792840
O O6 0.431126 0.743881 0.705727
O O7 0.500000 0.589727 0.500000
O O8 0.408759 0.500000 0.618642
O O9 0.492377 0.619469 0.639740
O O10 0.157857 0.594784 0.686683
O O11 0.888057 0.500000 0.776670
O O12 0.879861 0.583855 0.880912
O O13 0.935573 0.219621 0.455392
O O14 0.799702 0.305548 0.578818
O O15 0.659341 0.500000 0.022312
O O16 0.500000 0.594608 0.000000
#
# Coordination Sequence:
#
# PCOD9188570 Si02
#       7
#     8   8   8   8   4   8   8
#     4  12  22  38  57  88 121 159 202 248 301 353
#     4  12  24  37  61  89 124 158 197 254 302 356
#     4  10  21  39  63  89 119 158 201 246 298 368
#     4  10  20  36  59  90 116 155 206 248 289 354
#     4  10  22  38  64  86 124 152 202 254 306 366
#     4  10  19  36  60  85 118 159 206 251 292 351
#     4  11  22  40  60  93 121 159 201 253 306 364
#
# _framework density 20.307649000000001
#
# number of rings (size 3 to 8) (size 9 to 14) (size 15 to 20)
#    0.000    1.231    3.846    3.231    2.154    0.000 
#    0.000    1.154    0.000    5.538    0.000    0.000 
#    0.000    0.000    0.000    0.000    0.000    0.000 
#
# Total GULP energy -144972.971204 kJ/mol
# GULP energy per Si atom -5575.883508 kJ/mol
# Density = 2.026143 g / cm^3
# Si number density = 20.307649 Si / 1000 Ang^3
#
#
#
# Elastic Constant Matrix: (Units=GPa)
#
#
# Indices 1 2 3 4 5 6 
#
# 1 60.6761 24.7096 10.4446 0.0000 -18.6544 -0.0001
# 2 24.7096 79.7057 15.6935 0.0000 -10.2550 0.0000
# 3 10.4446 15.6935 84.3867 0.0000 -24.0427 0.0000
# 4 0.0000 0.0000 0.0000 27.1425 0.0000 3.2083
# 5 -18.6544 -10.2550 -24.0427 0.0000 30.7176 0.0000
# 6 -0.0001 0.0000 0.0000 3.2083 0.0000 17.4796
#
#
#
# Elastic Compliance Matrix: (Units=1/GPa)
#
#
# Indices 1 2 3 4 5 6 
#
# 1 0.022568 -0.005678 0.002094 0.000000 0.013449 0.000000
# 2 -0.005678 0.014694 -0.002078 0.000000 -0.000169 0.000000
# 3 0.002094 -0.002078 0.015627 0.000000 0.012809 0.000000
# 4 0.000000 0.000000 0.000000 0.037660 0.000000 -0.006912
# 5 0.013449 -0.000169 0.012809 0.000000 0.050691 0.000000
# 6 0.000000 0.000000 0.000000 -0.006912 0.000000 0.058478
#
#
# Mechanical properties :
#
#
# Convention : Reuss Voigt Hill
#
# Bulk Modulus (GPa) = 24.05894 36.27378 30.16636
# Shear Modulus (GPa) = 22.23249 26.66266 24.44758
#
# Velocity S-wave (km/s) = 3.31234 3.62738 3.47343
# Velocity P-wave (km/s) = 5.14799 5.95355 5.56536
#
# Compressibility (1/GPa) = 0.04156460
#
# Stress axis : x y z
#
# Youngs Moduli (GPa) = 44.31145 68.05566 63.99192
#
# Poissons Ratio (x) = 0.38644 -0.13403
# Poissons Ratio (y) = 0.25161 0.13298
# Poissons Ratio (z) = -0.09281 0.14143
#
# Static dielectric constant tensor:
#      x y z
#    x 1.734570 0.000000 -0.069630 
#    y 0.000000 1.766100 0.000000 
#    z -0.069630 0.000000 1.864130 
# 
# From -- ./inp_files/301070.got.cif
#   From: 2010.05.17/outbox.cif.g08.bks.cpg/sg12_151_cif.got.tgz:301070.got - 2010.06.03 13:09:07.
