data_PCOD9188905
_publ_section_title
;
Structure prediction by ZEFSAII (Michael W. Deem and Ramdas Pophale) SiO2 
 PCOD9188905
Probable space group: C 2/M
;
_chemical_formula_sum "Si O2"
_cell_formula_units_Z 32
_cell_length_a 11.046431
_cell_length_b 16.694344
_cell_length_c 16.517632
_cell_angle_alpha 90.000000
_cell_angle_beta 154.777127
_cell_angle_gamma 90.000000
_cell_volume 1298.051466
_symmetry_space_group_name_H-M "C 2/M"
_symmetry_group_IT_number 12
_symmetry_cell_setting 'monoclinic'
loop_
_space_group_symop_operation_xyz
x,y,z
-x,y,-z
-x,-y,-z
x,-y,z
1/2+x,1/2+y,z
1/2-x,1/2+y,-z
1/2-x,1/2-y,-z
1/2+x,1/2-y,z
loop_
_atom_site_type_symbol
_atom_site_label
_atom_site_fract_x
_atom_site_fract_y
_atom_site_fract_z
Si Si1 0.182045 0.589530 0.827894
Si Si2 0.302045 0.500000 0.223803
Si Si3 0.193744 0.820853 0.767729
Si Si4 0.119302 0.500000 0.486139
Si Si5 0.047156 0.261973 0.226562
O O1 0.216769 0.500000 0.886411
O O2 0.994577 0.648293 0.766124
O O3 0.009819 0.573488 0.642113
O O4 0.500000 0.619434 0.000000
O O5 0.346041 0.412122 0.288543
O O6 0.546716 0.500000 0.305189
O O7 0.000000 0.500000 0.000000
O O8 0.973654 0.793314 0.705181
O O9 0.218932 0.763719 0.703794
O O10 0.500000 0.819635 0.000000
O O11 0.000000 0.500000 0.500000
O O12 0.750000 0.250000 0.000000
#
# Coordination Sequence:
#
# PCOD9188905 Si02
#       5
#     8   4   8   4   8
#     4   9  20  38  63  98 133 177 233 279 352 411
#     4  10  22  40  62  98 132 177 225 284 341 411
#     4   9  20  35  60  91 129 169 222 277 343 401
#     4  10  23  40  64 102 143 183 234 292 344 423
#     4  10  19  36  62  96 132 173 225 286 340 413
#
# _framework density 24.652336999999999
#
# number of rings (size 3 to 8) (size 9 to 14) (size 15 to 20)
#    0.750    1.750    0.000    2.250    1.750    8.000 
#    2.250    3.750    0.000    3.000    0.000    0.000 
#    0.000    0.000    0.000    0.000    0.000    0.000 
#
# Total GULP energy -89192.289532 kJ/mol
# GULP energy per Si atom -5574.518096 kJ/mol
# Density = 2.459623 g / cm^3
# Si number density = 24.652337 Si / 1000 Ang^3
#
#
#
# Elastic Constant Matrix: (Units=GPa)
#
#
# Indices 1 2 3 4 5 6 
#
# 1 175.7752 62.8596 42.9619 -0.0546 -6.4474 -0.0248
# 2 62.8596 129.4913 1.1146 0.0739 -9.6630 0.0182
# 3 42.9619 1.1146 89.2211 0.0494 9.7033 -0.0350
# 4 -0.0546 0.0739 0.0494 8.9530 -0.0492 -10.6635
# 5 -6.4474 -9.6630 9.7033 -0.0492 35.7158 -0.0190
# 6 -0.0248 0.0182 -0.0350 -10.6635 -0.0190 21.0659
#
#
#
# Elastic Compliance Matrix: (Units=1/GPa)
#
#
# Indices 1 2 3 4 5 6 
#
# 1 0.008073 -0.003771 -0.004006 0.000302 0.001526 0.000160
# 2 -0.003771 0.009653 0.001530 -0.000285 0.001515 -0.000153
# 3 -0.004006 0.001530 0.013552 -0.000298 -0.003992 -0.000138
# 4 0.000302 -0.000285 -0.000298 0.281307 0.000522 0.142398
# 5 0.001526 0.001515 -0.003992 0.000522 0.029769 0.000285
# 6 0.000160 -0.000153 -0.000138 0.142398 0.000285 0.119552
#
#
# Mechanical properties :
#
#
# Convention : Reuss Voigt Hill
#
# Bulk Modulus (GPa) = 53.23336 67.59553 60.41445
# Shear Modulus (GPa) = 10.40235 32.31703 21.35969
#
# Velocity S-wave (km/s) = 2.05640 3.62458 2.94672
# Velocity P-wave (km/s) = 5.22292 6.70789 6.01143
#
# Compressibility (1/GPa) = 0.01878521
#
# Stress axis : x y z
#
# Youngs Moduli (GPa) = 123.87309 103.59508 73.78835
#
# Poissons Ratio (x) = 0.39062 0.29561
# Poissons Ratio (y) = 0.46708 -0.11293
# Poissons Ratio (z) = 0.49626 -0.15854
#
# Static dielectric constant tensor:
#      x y z
#    x 1.916360 0.000030 0.041510 
#    y 0.000030 2.057700 -0.000060 
#    z 0.041510 -0.000060 1.890890 
# 
# From -- ./inp_files/264090.got.cif
#   From: 2010.05.17/outbox.cif.g08.bks.cpg/sg12_133_cif.got.tgz:264090.got - 2010.06.03 13:09:07.
