data_PCOD9188954
_publ_section_title
;
Structure prediction by ZEFSAII (Michael W. Deem and Ramdas Pophale) SiO2 
 PCOD9188954
Probable space group: C 2/M
;
_chemical_formula_sum "Si O2"
_cell_formula_units_Z 42
_cell_length_a 13.034491
_cell_length_b 13.040353
_cell_length_c 11.634051
_cell_angle_alpha 90.000000
_cell_angle_beta 65.705656
_cell_angle_gamma 90.000000
_cell_volume 1802.371569
_symmetry_space_group_name_H-M "C 2/M"
_symmetry_group_IT_number 12
_symmetry_cell_setting 'monoclinic'
loop_
_space_group_symop_operation_xyz
x,y,z
-x,y,-z
-x,-y,-z
x,-y,z
1/2+x,1/2+y,z
1/2-x,1/2+y,-z
1/2-x,1/2-y,-z
1/2+x,1/2-y,z
loop_
_atom_site_type_symbol
_atom_site_label
_atom_site_fract_x
_atom_site_fract_y
_atom_site_fract_z
Si Si1 0.118026 0.884790 0.509566
Si Si2 0.293563 0.189044 0.272600
Si Si3 0.426543 0.614420 0.196998
Si Si4 0.500000 0.000000 0.000000
Si Si5 0.163206 0.801475 0.126796
Si Si6 0.469033 0.107998 0.784998
O O1 0.201731 0.803446 0.414745
O O2 0.094400 0.880038 0.655472
O O3 0.000000 0.875390 0.500000
O O4 0.163277 0.000000 0.464421
O O5 0.347561 0.292538 0.194787
O O6 0.230282 0.136606 0.193883
O O7 0.398129 0.129247 0.279586
O O8 0.398692 0.500000 0.169281
O O9 0.559049 0.638039 0.117828
O O10 0.544427 0.087227 0.071899
O O11 0.100534 0.706024 0.219038
O O12 0.250000 0.750000 0.000000
O O13 0.439158 0.000000 0.740624
#
# Coordination Sequence:
#
# PCOD9188954 Si02
#       6
#     8   8   8   2   8   8
#     4  10  19  36  63  94 116 149 199 250 297 354
#     4  11  21  37  63  86 121 155 194 245 300 348
#     4  10  23  41  60  88 122 157 199 243 300 357
#     4   8  16  36  56  72 112 144 196 240 278 326
#     4  11  23  37  56  87 118 155 200 242 290 348
#     4   9  20  35  54  81 109 148 193 241 284 340
#
# _framework density 23.302631000000002
#
# number of rings (size 3 to 8) (size 9 to 14) (size 15 to 20)
#    0.571    1.333    1.905    2.286    0.000    4.571 
#    0.000    0.952    0.000    0.571    0.000    0.000 
#    0.000    0.000    0.000    0.000    0.000    0.000 
#
# Total GULP energy -116914.774517 kJ/mol
# GULP energy per Si atom -5567.370215 kJ/mol
# Density = 2.324959 g / cm^3
# Si number density = 23.302631 Si / 1000 Ang^3
#
#
#
# Elastic Constant Matrix: (Units=GPa)
#
#
# Indices 1 2 3 4 5 6 
#
# 1 68.0718 -0.0039 19.9502 0.0000 -14.3432 0.0000
# 2 -0.0039 94.7386 -0.2963 0.0000 -19.6869 0.0000
# 3 19.9502 -0.2963 76.7416 0.0000 -15.0540 0.0000
# 4 0.0000 0.0000 0.0000 -7.2013 0.0000 -6.0772
# 5 -14.3432 -19.6869 -15.0540 0.0000 36.4721 0.0000
# 6 0.0000 0.0000 0.0000 -6.0772 0.0000 7.7997
#
#
#
# Elastic Compliance Matrix: (Units=1/GPa)
#
#
# Indices 1 2 3 4 5 6 
#
# 1 0.016893 0.001234 -0.003213 0.000000 0.005983 0.000000
# 2 0.001234 0.012123 0.001202 0.000000 0.007525 0.000000
# 3 -0.003213 0.001202 0.014962 0.000000 0.005561 0.000000
# 4 0.000000 0.000000 0.000000 -0.083777 0.000000 -0.065276
# 5 0.005983 0.007525 0.005561 0.000000 0.036128 0.000000
# 6 0.000000 0.000000 0.000000 -0.065276 0.000000 0.077350
#
#
# Mechanical properties :
#
#
# Convention : Reuss Voigt Hill
#
# Bulk Modulus (GPa) = 23.57193 30.98355 27.27774
# Shear Modulus (GPa) = 55.94486 22.07422 39.00954
#
# Velocity S-wave (km/s) = 4.90511 3.08114 4.09594
# Velocity P-wave (km/s) = 6.49751 5.09734 5.83954
#
# Compressibility (1/GPa) = 0.04242335
#
# Stress axis : x y z
#
# Youngs Moduli (GPa) = 59.19676 82.48834 66.83820
#
# Poissons Ratio (x) = -0.10179 0.21476
# Poissons Ratio (y) = -0.07305 -0.08035
# Poissons Ratio (z) = 0.19021 -0.09917
#
# Static dielectric constant tensor:
#      x y z
#    x 1.853370 0.000000 -0.046660 
#    y 0.000000 1.937180 0.000000 
#    z -0.046660 0.000000 1.904120 
# 
# From -- ./inp_files/204232.got.cif
#   From: 2010.05.17/outbox.cif.g08.bks.cpg/sg12_103_cif.got.tgz:204232.got - 2010.06.03 13:09:07.
