data_PCOD9188038
_publ_section_title
;
Structure prediction by ZEFSAII (Michael W. Deem and Ramdas Pophale) SiO2 
 PCOD9188038
Probable space group: C 2/M
;
_chemical_formula_sum "Si O2"
_cell_formula_units_Z 54
_cell_length_a 14.491619
_cell_length_b 30.373174
_cell_length_c 15.112650
_cell_angle_alpha 90.000000
_cell_angle_beta 28.072214
_cell_angle_gamma 90.000000
_cell_volume 3130.292326
_symmetry_space_group_name_H-M "C 2/M"
_symmetry_group_IT_number 12
_symmetry_cell_setting 'monoclinic'
loop_
_space_group_symop_operation_xyz
x,y,z
-x,y,-z
-x,-y,-z
x,-y,z
1/2+x,1/2+y,z
1/2-x,1/2+y,-z
1/2-x,1/2-y,-z
1/2+x,1/2-y,z
loop_
_atom_site_type_symbol
_atom_site_label
_atom_site_fract_x
_atom_site_fract_y
_atom_site_fract_z
Si Si1 0.209239 0.162623 0.611098
Si Si2 0.131406 0.349991 0.713280
Si Si3 0.500000 0.500000 0.500000
Si Si4 0.066825 0.743516 0.765746
Si Si5 0.000000 0.687346 0.500000
Si Si6 0.320077 0.349074 0.851061
Si Si7 0.270302 0.083008 0.220149
Si Si8 0.810822 0.747980 0.811083
O O1 0.311342 0.144794 0.436682
O O2 0.195034 0.215907 0.625756
O O3 0.343885 0.156122 0.582008
O O4 0.984086 0.148215 0.788625
O O5 0.186397 0.299568 0.691352
O O6 0.225950 0.385552 0.696991
O O7 0.898437 0.351215 0.925799
O O8 0.655516 0.538755 0.336639
O O9 0.928982 0.731983 0.798455
O O10 0.918252 0.757334 0.969369
O O11 0.883582 0.719348 0.667091
O O12 0.330476 0.388341 0.772182
O O13 0.343163 0.301139 0.783931
O O14 0.500000 0.075948 0.000000
#
# Coordination Sequence:
#
# PCOD9188038 Si02
#       8
#     8   8   2   8   4   8   8   8
#     4  11  22  32  49  71 106 146 188 238 273 308
#     4  10  19  36  54  76 100 139 187 227 267 327
#     4  12  22  38  56  90 120 134 166 224 286 352
#     4   9  18  34  49  65 100 144 189 243 277 303
#     4  12  24  29  44  76 102 146 198 232 279 314
#     4   9  21  37  54  73 103 143 188 228 272 323
#     4  10  22  38  61  85 110 145 179 221 281 346
#     4   9  19  33  48  70 100 141 196 241 271 306
#
# _framework density 17.250785
#
# number of rings (size 3 to 8) (size 9 to 14) (size 15 to 20)
#    0.000    2.074    1.481    2.444    4.148    1.185 
#    0.000    0.000    0.000    0.000    0.000    0.000 
#    0.000    9.481    0.000   26.667    0.000    0.000 
#
# Total GULP energy -150388.119906 kJ/mol
# GULP energy per Si atom -5569.930367 kJ/mol
# Density = 1.721152 g / cm^3
# Si number density = 17.250785 Si / 1000 Ang^3
#
#
#
# Elastic Constant Matrix: (Units=GPa)
#
#
# Indices 1 2 3 4 5 6 
#
# 1 86.2236 32.8853 15.9304 0.0006 -1.8628 -0.0001
# 2 32.8853 109.9811 24.0745 0.0000 0.1781 0.0000
# 3 15.9304 24.0745 74.9939 0.0013 7.2278 -0.0001
# 4 0.0006 0.0000 0.0013 28.2285 -0.0002 -3.6351
# 5 -1.8628 0.1781 7.2278 -0.0002 26.4951 0.0001
# 6 -0.0001 0.0000 -0.0001 -3.6351 0.0001 1.5058
#
#
#
# Elastic Compliance Matrix: (Units=1/GPa)
#
#
# Indices 1 2 3 4 5 6 
#
# 1 0.013335 -0.003591 -0.001820 0.000000 0.001458 0.000000
# 2 -0.003591 0.010764 -0.002733 0.000000 0.000421 0.000000
# 3 -0.001820 -0.002733 0.015004 -0.000001 -0.004203 0.000000
# 4 0.000000 0.000000 -0.000001 0.051406 0.000000 0.124097
# 5 0.001458 0.000421 -0.004203 0.000000 0.038989 -0.000001
# 6 0.000000 0.000000 0.000000 0.124097 -0.000001 0.963674
#
#
# Mechanical properties :
#
#
# Convention : Reuss Voigt Hill
#
# Bulk Modulus (GPa) = 43.83431 46.33098 45.08265
# Shear Modulus (GPa) = 4.47601 24.46645 14.47123
#
# Velocity S-wave (km/s) = 1.61255 3.77009 2.89947
# Velocity P-wave (km/s) = 5.37887 6.77252 6.11553
#
# Compressibility (1/GPa) = 0.02281318
#
# Stress axis : x y z
#
# Youngs Moduli (GPa) = 74.98909 92.90339 66.65101
#
# Poissons Ratio (x) = 0.33364 0.12133
# Poissons Ratio (y) = 0.26930 0.18216
# Poissons Ratio (z) = 0.13651 0.25391
#
# Static dielectric constant tensor:
#      x y z
#    x 1.651480 0.000000 -0.023100 
#    y 0.000000 1.551850 0.000000 
#    z -0.023100 0.000000 1.658190 
# 
# From -- ./inp_files/219106.got.cif
#   From: 2010.05.17/outbox.cif.g08.bks.cpg/sg12_110_cif.got.tgz:219106.got - 2010.06.03 13:09:07.
