data_PCOD9188649
_publ_section_title
;
Structure prediction by ZEFSAII (Michael W. Deem and Ramdas Pophale) SiO2 
 PCOD9188649
Probable space group: C 2/M
;
_chemical_formula_sum "Si O2"
_cell_formula_units_Z 48
_cell_length_a 19.919233
_cell_length_b 14.521977
_cell_length_c 10.775608
_cell_angle_alpha 90.000000
_cell_angle_beta 35.143980
_cell_angle_gamma 90.000000
_cell_volume 1794.262135
_symmetry_space_group_name_H-M "C 2/M"
_symmetry_group_IT_number 12
_symmetry_cell_setting 'monoclinic'
loop_
_space_group_symop_operation_xyz
x,y,z
-x,y,-z
-x,-y,-z
x,-y,z
1/2+x,1/2+y,z
1/2-x,1/2+y,-z
1/2-x,1/2-y,-z
1/2+x,1/2-y,z
loop_
_atom_site_type_symbol
_atom_site_label
_atom_site_fract_x
_atom_site_fract_y
_atom_site_fract_z
Si Si1 0.748927 0.857093 0.461565
Si Si2 0.891689 0.648068 0.095747
Si Si3 0.969562 0.398173 0.353720
Si Si4 0.489382 0.601748 0.192910
Si Si5 0.332227 0.394442 0.678782
Si Si6 0.118737 0.778130 0.168118
O O1 0.750000 0.750000 0.500000
O O2 0.676385 0.900279 0.686617
O O3 0.665999 0.875415 0.470208
O O4 0.884136 0.885867 0.252255
O O5 0.775379 0.672229 0.194527
O O6 0.000000 0.700763 0.000000
O O7 0.963853 0.597581 0.879615
O O8 0.979099 0.500000 0.395511
O O9 0.033920 0.309957 0.315983
O O10 0.540403 0.500000 0.102938
O O11 0.413328 0.605616 0.435474
O O12 0.582843 0.679662 0.087359
O O13 0.291891 0.500000 0.758911
O O14 0.390423 0.358990 0.715841
O O15 0.250000 0.750000 0.000000
#
# Coordination Sequence:
#
# PCOD9188649 Si02
#       6
#     8   8   8   8   8   8
#     4  10  19  36  60  90 115 145 183 236 296 340
#     4   9  19  32  55  84 115 149 178 231 286 342
#     4  11  22  37  56  84 122 154 190 235 282 335
#     4  10  21  38  62  88 113 145 187 240 294 340
#     4  10  20  36  58  87 115 144 186 238 291 340
#     4  12  23  34  53  82 122 157 185 228 286 340
#
# _framework density 26.751944000000002
#
# number of rings (size 3 to 8) (size 9 to 14) (size 15 to 20)
#    0.000    1.667    3.333    2.000    0.000   10.000 
#    0.000    0.000    0.000    2.000    0.000    5.833 
#    0.000    0.000    0.000    0.000    0.000    0.000 
#
# Total GULP energy -133794.645562 kJ/mol
# GULP energy per Si atom -5574.776898 kJ/mol
# Density = 2.669106 g / cm^3
# Si number density = 26.751944 Si / 1000 Ang^3
#
#
#
# Elastic Constant Matrix: (Units=GPa)
#
#
# Indices 1 2 3 4 5 6 
#
# 1 176.8733 54.8717 42.8334 0.0000 -49.0463 0.0000
# 2 54.8717 187.4645 35.2227 0.0000 -17.5022 0.0000
# 3 42.8334 35.2227 92.8405 0.0000 -37.0448 0.0000
# 4 0.0000 0.0000 0.0000 45.7587 0.0000 -20.2517
# 5 -49.0463 -17.5022 -37.0448 0.0000 51.4776 0.0000
# 6 0.0000 0.0000 0.0000 -20.2517 0.0000 -6.1280
#
#
#
# Elastic Compliance Matrix: (Units=1/GPa)
#
#
# Indices 1 2 3 4 5 6 
#
# 1 0.008198 -0.001680 -0.000359 0.000000 0.006981 0.000000
# 2 -0.001680 0.006099 -0.001894 0.000000 -0.000890 0.000000
# 3 -0.000359 -0.001894 0.015798 0.000000 0.010383 0.000000
# 4 0.000000 0.000000 0.000000 0.008874 0.000000 -0.029327
# 5 0.006981 -0.000890 0.010383 0.000000 0.033246 0.000000
# 6 0.000000 0.000000 0.000000 -0.029327 0.000000 -0.066265
#
#
# Mechanical properties :
#
#
# Convention : Reuss Voigt Hill
#
# Bulk Modulus (GPa) = 44.98784 80.33710 62.66247
# Shear Modulus (GPa) = 235.55701 39.83835 137.69768
#
# Velocity S-wave (km/s) = 9.39380 3.86317 7.18218
# Velocity P-wave (km/s) = 11.59789 7.07067 9.60483
#
# Compressibility (1/GPa) = 0.02222823
#
# Stress axis : x y z
#
# Youngs Moduli (GPa) = 121.98409 163.96419 63.29805
#
# Poissons Ratio (x) = 0.27551 0.02274
# Poissons Ratio (y) = 0.20497 0.11988
# Poissons Ratio (z) = 0.04382 0.31052
#
# Static dielectric constant tensor:
#      x y z
#    x 2.124750 0.000000 0.033160 
#    y 0.000000 2.129110 0.000000 
#    z 0.033160 0.000000 2.166870 
# 
# From -- ./inp_files/240587.got.cif
#   From: 2010.05.17/outbox.cif.g08.bks.cpg/sg12_121_cif.got.tgz:240587.got - 2010.06.03 13:09:07.
