data_PCOD9188776
_publ_section_title
;
Structure prediction by ZEFSAII (Michael W. Deem and Ramdas Pophale) SiO2 
 PCOD9188776
Probable space group: C 2/M
;
_chemical_formula_sum "Si O2"
_cell_formula_units_Z 56
_cell_length_a 21.481522
_cell_length_b 8.912969
_cell_length_c 31.012046
_cell_angle_alpha 90.000000
_cell_angle_beta 152.019487
_cell_angle_gamma 90.000000
_cell_volume 2785.795554
_symmetry_space_group_name_H-M "C 2/M"
_symmetry_group_IT_number 12
_symmetry_cell_setting 'monoclinic'
loop_
_space_group_symop_operation_xyz
x,y,z
-x,y,-z
-x,-y,-z
x,-y,z
1/2+x,1/2+y,z
1/2-x,1/2+y,-z
1/2-x,1/2-y,-z
1/2+x,1/2-y,z
loop_
_atom_site_type_symbol
_atom_site_label
_atom_site_fract_x
_atom_site_fract_y
_atom_site_fract_z
Si Si1 0.901780 0.178141 0.713528
Si Si2 0.356294 0.839257 0.245893
Si Si3 0.643634 0.171951 0.405637
Si Si4 0.352005 0.681014 0.393720
Si Si5 0.962992 0.819670 0.027804
Si Si6 0.325346 0.170482 0.124426
Si Si7 0.707132 0.828321 0.218420
O O1 0.881914 0.228421 0.651943
O O2 0.773105 0.248285 0.657917
O O3 0.046810 0.243065 0.816135
O O4 0.902381 0.000000 0.718651
O O5 0.509293 0.834958 0.351034
O O6 0.353049 0.841776 0.192612
O O7 0.283630 0.697955 0.220563
O O8 0.296391 0.000000 0.223981
O O9 0.750000 0.250000 0.500000
O O10 0.676838 0.000000 0.413252
O O11 0.500000 0.729641 0.500000
O O12 0.348739 0.500000 0.396977
O O13 0.311749 0.715897 0.319542
O O14 0.077170 0.770188 0.130727
O O15 0.950596 0.000000 0.018001
O O16 0.823696 0.763702 0.963499
O O17 0.000000 0.773618 0.000000
O O18 0.322625 0.000000 0.105038
O O19 0.669247 0.000000 0.202485
#
# Coordination Sequence:
#
# PCOD9188776 Si02
#       7
#     8   8   8   8   8   8   8
#     4  11  23  39  60  88 118 153 200 252 303 358
#     4   9  18  34  54  80 117 156 191 232 288 356
#     4  10  21  36  56  83 116 154 195 245 303 361
#     4  10  24  46  65  82 113 163 210 252 304 359
#     4  10  19  36  61  89 123 163 200 235 296 369
#     4   9  18  36  61  86 118 162 196 231 291 361
#     4  11  23  36  57  90 121 152 200 255 303 351
#
# _framework density 20.101977999999999
#
# number of rings (size 3 to 8) (size 9 to 14) (size 15 to 20)
#    0.000    2.000    1.429    3.000    2.000    5.143 
#    0.000    0.714    0.000    0.000    0.000    0.000 
#    0.000    0.000    0.000    0.000    0.000    0.000 
#
# Total GULP energy -155870.575114 kJ/mol
# GULP energy per Si atom -5566.806254 kJ/mol
# Density = 2.005622 g / cm^3
# Si number density = 20.101978 Si / 1000 Ang^3
#
#
#
# Elastic Constant Matrix: (Units=GPa)
#
#
# Indices 1 2 3 4 5 6 
#
# 1 50.3375 19.4904 18.5122 -0.0001 23.0757 0.0000
# 2 19.4904 43.0810 33.7851 -0.0003 14.2867 0.0000
# 3 18.5122 33.7851 113.8577 -0.0014 24.7164 -0.0003
# 4 -0.0001 -0.0003 -0.0014 19.0043 -0.0001 -4.3780
# 5 23.0757 14.2867 24.7164 -0.0001 29.5692 0.0000
# 6 0.0000 0.0000 -0.0003 -4.3780 0.0000 14.4455
#
#
#
# Elastic Compliance Matrix: (Units=1/GPa)
#
#
# Indices 1 2 3 4 5 6 
#
# 1 0.033351 -0.009152 0.002423 0.000000 -0.023630 0.000000
# 2 -0.009152 0.034709 -0.008211 0.000000 -0.002764 0.000000
# 3 0.002423 -0.008211 0.012675 0.000001 -0.008518 0.000000
# 4 0.000000 0.000000 0.000001 0.056569 -0.000001 0.017145
# 5 -0.023630 -0.002764 -0.008518 -0.000001 0.060716 0.000000
# 6 0.000000 0.000000 0.000000 0.017145 0.000000 0.074422
#
#
# Mechanical properties :
#
#
# Convention : Reuss Voigt Hill
#
# Bulk Modulus (GPa) = 19.66428 38.98352 29.32390
# Shear Modulus (GPa) = 15.66058 21.63635 18.64847
#
# Velocity S-wave (km/s) = 2.79419 3.28431 3.04911
# Velocity P-wave (km/s) = 4.49594 5.81526 5.19763
#
# Compressibility (1/GPa) = 0.05085362
#
# Stress axis : x y z
#
# Youngs Moduli (GPa) = 29.98397 28.81129 78.89850
#
# Poissons Ratio (x) = 0.26369 -0.19116
# Poissons Ratio (y) = 0.27442 0.64784
# Poissons Ratio (z) = -0.07265 0.23657
#
# Static dielectric constant tensor:
#      x y z
#    x 1.750900 0.000000 0.021280 
#    y 0.000000 1.720160 0.000000 
#    z 0.021280 0.000000 1.698770 
# 
# From -- ./inp_files/380758.got.cif
#   From: 2010.05.17/outbox.cif.g08.bks.cpg/sg12_191_cif.got.tgz:380758.got - 2010.06.03 13:09:07.
