data_PCOD9188298
_publ_section_title
;
Structure prediction by ZEFSAII (Michael W. Deem and Ramdas Pophale) SiO2 
 PCOD9188298
Probable space group: C 2/M
;
_chemical_formula_sum "Si O2"
_cell_formula_units_Z 64
_cell_length_a 10.630663
_cell_length_b 18.508376
_cell_length_c 28.851765
_cell_angle_alpha 90.000000
_cell_angle_beta 143.952448
_cell_angle_gamma 90.000000
_cell_volume 3340.530210
_symmetry_space_group_name_H-M "C 2/M"
_symmetry_group_IT_number 12
_symmetry_cell_setting 'monoclinic'
loop_
_space_group_symop_operation_xyz
x,y,z
-x,y,-z
-x,-y,-z
x,-y,z
1/2+x,1/2+y,z
1/2-x,1/2+y,-z
1/2-x,1/2-y,-z
1/2+x,1/2-y,z
loop_
_atom_site_type_symbol
_atom_site_label
_atom_site_fract_x
_atom_site_fract_y
_atom_site_fract_z
Si Si1 0.452507 0.171679 0.842639
Si Si2 0.158238 0.086766 0.003260
Si Si3 0.535562 0.157066 0.260198
Si Si4 0.772778 0.236184 0.452751
Si Si5 0.457144 0.338136 0.853690
Si Si6 0.826693 0.081272 0.725648
Si Si7 0.953150 0.193729 0.696585
Si Si8 0.661896 0.919713 0.384967
O O1 0.609819 0.121288 0.918402
O O2 0.463936 0.143054 0.793571
O O3 0.529761 0.255148 0.869520
O O4 0.201513 0.175915 0.779272
O O5 0.165853 0.000000 0.002445
O O6 0.073072 0.120567 0.929949
O O7 0.000000 0.104777 0.000000
O O8 0.622122 0.237637 0.295347
O O9 0.657638 0.100626 0.329123
O O10 0.292343 0.161168 0.205877
O O11 0.750000 0.250000 0.500000
O O12 0.594160 0.278677 0.369356
O O13 0.757811 0.150256 0.438577
O O14 0.000000 0.261132 0.500000
O O15 0.463214 0.377650 0.805844
O O16 0.829352 0.124888 0.678646
O O17 0.584825 0.078979 0.672196
O O18 0.905471 0.000000 0.743391
O O19 0.749861 0.000000 0.419407
#
# Coordination Sequence:
#
# PCOD9188298 Si02
#       8
#     8   8   8   8   8   8   8   8
#     4  11  21  36  60  83 114 156 202 251 295 354
#     4  11  23  37  54  82 123 159 199 255 309 354
#     4   9  18  33  58  85 111 150 201 248 288 341
#     4  11  24  40  67  94 124 161 199 249 310 375
#     4  10  19  36  58  84 112 155 206 251 298 348
#     4  10  19  36  61  86 117 159 203 244 297 358
#     4  10  22  37  60  86 120 152 198 245 297 363
#     4   9  20  36  60  88 120 154 194 245 297 358
#
# _framework density 19.158635
#
# number of rings (size 3 to 8) (size 9 to 14) (size 15 to 20)
#    0.000    1.875    2.500    2.250    3.500    1.750 
#    0.000    1.250    0.000    3.750    0.000    0.000 
#    0.000    0.000    0.000    0.000    0.000    0.000 
#
# Total GULP energy -178507.808977 kJ/mol
# GULP energy per Si atom -5578.369031 kJ/mol
# Density = 1.911503 g / cm^3
# Si number density = 19.158635 Si / 1000 Ang^3
#
#
#
# Elastic Constant Matrix: (Units=GPa)
#
#
# Indices 1 2 3 4 5 6 
#
# 1 57.7966 35.5359 26.8644 0.0000 -14.4827 0.0000
# 2 35.5359 113.3196 38.7927 -0.0001 -11.1736 0.0000
# 3 26.8644 38.7927 79.8901 -0.0003 -13.1976 0.0000
# 4 0.0000 -0.0001 -0.0003 21.9901 0.0000 3.2572
# 5 -14.4827 -11.1736 -13.1976 0.0000 31.8649 0.0000
# 6 0.0000 0.0000 0.0000 3.2572 0.0000 18.6873
#
#
#
# Elastic Compliance Matrix: (Units=1/GPa)
#
#
# Indices 1 2 3 4 5 6 
#
# 1 0.024562 -0.005472 -0.004374 0.000000 0.007433 0.000000
# 2 -0.005472 0.011889 -0.003924 0.000000 0.000057 0.000000
# 3 -0.004374 -0.003924 0.016464 0.000000 0.003455 0.000000
# 4 0.000000 0.000000 0.000000 0.046680 0.000000 -0.008136
# 5 0.007433 0.000057 0.003455 0.000000 0.036212 0.000000
# 6 0.000000 0.000000 0.000000 -0.008136 0.000000 0.054930
#
#
# Mechanical properties :
#
#
# Convention : Reuss Voigt Hill
#
# Bulk Modulus (GPa) = 39.40822 50.37692 44.89257
# Shear Modulus (GPa) = 22.05194 24.49603 23.27398
#
# Velocity S-wave (km/s) = 3.39635 3.57962 3.48918
# Velocity P-wave (km/s) = 5.99953 6.59064 6.30202
#
# Compressibility (1/GPa) = 0.02537542
#
# Stress axis : x y z
#
# Youngs Moduli (GPa) = 40.71255 84.10842 60.73783
#
# Poissons Ratio (x) = 0.46025 0.26570
# Poissons Ratio (y) = 0.22278 0.23832
# Poissons Ratio (z) = 0.17810 0.33002
#
# Static dielectric constant tensor:
#      x y z
#    x 1.672930 0.000000 0.024630 
#    y 0.000000 1.669180 0.000000 
#    z 0.024630 0.000000 1.686660 
# 
# From -- ./inp_files/306219.got.cif
#   From: 2010.05.17/outbox.cif.g08.bks.cpg/sg12_154_cif.got.tgz:306219.got - 2010.06.03 13:09:07.
