data_PCOD9188750
_publ_section_title
;
Structure prediction by ZEFSAII (Michael W. Deem and Ramdas Pophale) SiO2 
 PCOD9188750
Probable space group: C 2/M
;
_chemical_formula_sum "Si O2"
_cell_formula_units_Z 36
_cell_length_a 16.936414
_cell_length_b 7.356921
_cell_length_c 25.063120
_cell_angle_alpha 90.000000
_cell_angle_beta 28.108344
_cell_angle_gamma 90.000000
_cell_volume 1471.305908
_symmetry_space_group_name_H-M "C 2/M"
_symmetry_group_IT_number 12
_symmetry_cell_setting 'monoclinic'
loop_
_space_group_symop_operation_xyz
x,y,z
-x,y,-z
-x,-y,-z
x,-y,z
1/2+x,1/2+y,z
1/2-x,1/2+y,-z
1/2-x,1/2-y,-z
1/2+x,1/2-y,z
loop_
_atom_site_type_symbol
_atom_site_label
_atom_site_fract_x
_atom_site_fract_y
_atom_site_fract_z
Si Si1 0.874108 0.719975 0.527780
Si Si2 0.250000 0.250000 0.000000
Si Si3 0.397723 0.778509 0.704213
Si Si4 0.524449 0.279664 0.923625
Si Si5 0.488157 0.208781 0.768451
O O1 0.863519 0.500000 0.533764
O O2 0.688010 0.790026 0.647740
O O3 0.000000 0.771965 0.500000
O O4 0.957121 0.779516 0.422587
O O5 0.123833 0.288539 0.024808
O O6 0.087437 0.200774 0.134602
O O7 0.212629 0.725016 0.795356
O O8 0.428188 0.720805 0.746842
O O9 0.400846 0.000000 0.703345
O O10 0.514020 0.500000 0.927364
O O11 0.500000 0.229105 0.000000
O O12 0.422861 0.000000 0.813592
#
# Coordination Sequence:
#
# PCOD9188750 Si02
#       5
#     8   4   8   8   8
#     4  10  21  38  61  90 121 158 209 264 312 373
#     4  12  22  34  60  92 124 158 212 260 306 364
#     4   9  18  36  60  87 119 157 208 258 309 375
#     4  10  19  36  61  87 119 162 211 257 307 376
#     4  11  23  38  60  90 124 165 210 259 318 379
#
# _framework density 24.468060000000001
#
# number of rings (size 3 to 8) (size 9 to 14) (size 15 to 20)
#    0.000    1.778    2.222    2.667    0.000    4.000 
#    0.000    0.000    0.000    5.333    0.000    0.000 
#    0.000    0.000    0.000    0.000    0.000    0.000 
#
# Total GULP energy -100270.040599 kJ/mol
# GULP energy per Si atom -5570.557811 kJ/mol
# Density = 2.441237 g / cm^3
# Si number density = 24.468060 Si / 1000 Ang^3
#
#
#
# Elastic Constant Matrix: (Units=GPa)
#
#
# Indices 1 2 3 4 5 6 
#
# 1 171.9339 -2.1144 55.8299 0.0001 -7.2981 -0.0001
# 2 -2.1144 88.7218 -3.9539 0.0003 6.7397 -0.0005
# 3 55.8299 -3.9539 196.4572 0.0005 -3.2096 0.0001
# 4 0.0001 0.0003 0.0005 76.4780 0.0001 -30.7939
# 5 -7.2981 6.7397 -3.2096 0.0001 60.1664 -0.0001
# 6 -0.0001 -0.0005 0.0001 -30.7939 -0.0001 -4.1306
#
#
#
# Elastic Compliance Matrix: (Units=1/GPa)
#
#
# Indices 1 2 3 4 5 6 
#
# 1 0.006435 0.000021 -0.001817 0.000000 0.000681 0.000000
# 2 0.000021 0.011377 0.000202 0.000000 -0.001261 0.000000
# 3 -0.001817 0.000202 0.005612 0.000000 0.000056 0.000000
# 4 0.000000 0.000000 0.000000 0.003267 0.000000 -0.024359
# 5 0.000681 -0.001261 0.000056 0.000000 0.016847 0.000000
# 6 0.000000 0.000000 0.000000 -0.024359 0.000000 -0.060497
#
#
# Mechanical properties :
#
#
# Convention : Reuss Voigt Hill
#
# Bulk Modulus (GPa) = 49.41880 61.84845 55.63362
# Shear Modulus (GPa) = -711.76253 53.65951 -329.05151
#
# Velocity S-wave (km/s) = -17.07413 4.68807 -11.60922
# Velocity P-wave (km/s) = 19.19532 7.39163 12.52646
#
# Compressibility (1/GPa) = 0.02023522
#
# Stress axis : x y z
#
# Youngs Moduli (GPa) = 155.38863 87.90049 178.20191
#
# Poissons Ratio (x) = -0.00181 0.32385
# Poissons Ratio (y) = -0.00320 -0.03609
# Poissons Ratio (z) = 0.28239 -0.01780
#
# Static dielectric constant tensor:
#      x y z
#    x 1.872120 0.000000 0.019680 
#    y 0.000000 2.074410 0.000000 
#    z 0.019680 0.000000 1.887410 
# 
# From -- ./inp_files/309654.got.cif
#   From: 2010.05.17/outbox.cif.g08.bks.cpg/sg12_155_cif.got.tgz:309654.got - 2010.06.03 13:09:07.
