data_PCOD9188201
_publ_section_title
;
Structure prediction by ZEFSAII (Michael W. Deem and Ramdas Pophale) SiO2 
 PCOD9188201
Probable space group: C 2/M
;
_chemical_formula_sum "Si O2"
_cell_formula_units_Z 58
_cell_length_a 13.705242
_cell_length_b 16.228290
_cell_length_c 13.425741
_cell_angle_alpha 90.000000
_cell_angle_beta 63.901081
_cell_angle_gamma 90.000000
_cell_volume 2681.584089
_symmetry_space_group_name_H-M "C 2/M"
_symmetry_group_IT_number 12
_symmetry_cell_setting 'monoclinic'
loop_
_space_group_symop_operation_xyz
x,y,z
-x,y,-z
-x,-y,-z
x,-y,z
1/2+x,1/2+y,z
1/2-x,1/2+y,-z
1/2-x,1/2-y,-z
1/2+x,1/2-y,z
loop_
_atom_site_type_symbol
_atom_site_label
_atom_site_fract_x
_atom_site_fract_y
_atom_site_fract_z
Si Si1 0.848588 0.850816 0.497695
Si Si2 0.034307 0.907246 0.740834
Si Si3 0.387179 0.161210 0.450781
Si Si4 0.371248 0.862802 0.679724
Si Si5 0.000000 0.000000 0.500000
Si Si6 0.337311 0.286950 0.815491
Si Si7 0.160924 0.911401 0.888563
Si Si8 0.385107 0.233492 0.003873
O O1 0.872516 0.871427 0.370754
O O2 0.718937 0.847944 0.569408
O O3 0.894847 0.757601 0.480125
O O4 0.907154 0.924610 0.530002
O O5 0.076627 0.905698 0.834340
O O6 0.924892 0.857878 0.772531
O O7 0.015702 0.000000 0.713854
O O8 0.500702 0.132810 0.352279
O O9 0.368128 0.115602 0.564678
O O10 0.337543 0.767677 0.716763
O O11 0.280686 0.908823 0.785381
O O12 0.215908 0.312432 0.899769
O O13 0.378244 0.227898 0.888170
O O14 0.139951 0.830501 0.962459
O O15 0.145283 0.000000 0.946772
O O16 0.500000 0.212684 0.000000
#
# Coordination Sequence:
#
# PCOD9188201 Si02
#       8
#     8   8   8   8   2   8   8   8
#     4  11  22  37  56  84 120 164 201 253 295 355
#     4  11  20  35  56  83 118 147 190 241 299 350
#     4  10  21  36  59  86 120 160 207 243 303 356
#     4  10  19  36  57  85 116 154 195 245 289 358
#     4  12  24  40  56  82 128 160 214 252 300 346
#     4  10  21  35  57  86 112 147 196 237 299 361
#     4  10  21  35  56  84 118 152 187 240 302 355
#     4  10  20  37  57  83 115 146 188 244 298 358
#
# _framework density 21.629006
#
# number of rings (size 3 to 8) (size 9 to 14) (size 15 to 20)
#    0.000    1.655    4.828    0.828    0.000    0.828 
#    1.241    0.690    0.000    0.414    0.000    0.000 
#    0.000    0.000    0.000    0.000    0.000    0.000 
#
# Total GULP energy -161633.855028 kJ/mol
# GULP energy per Si atom -5573.581208 kJ/mol
# Density = 2.157978 g / cm^3
# Si number density = 21.629006 Si / 1000 Ang^3
#
#
#
# Elastic Constant Matrix: (Units=GPa)
#
#
# Indices 1 2 3 4 5 6 
#
# 1 133.2599 19.8616 12.0725 0.0000 -43.0622 0.0000
# 2 19.8616 70.1193 -2.0195 0.0000 -8.2321 0.0000
# 3 12.0725 -2.0195 61.0369 0.0000 -17.0341 0.0000
# 4 0.0000 0.0000 0.0000 17.9955 0.0000 0.9471
# 5 -43.0622 -8.2321 -17.0341 0.0000 36.0750 0.0000
# 6 0.0000 0.0000 0.0000 0.9471 0.0000 22.5656
#
#
#
# Elastic Compliance Matrix: (Units=1/GPa)
#
#
# Indices 1 2 3 4 5 6 
#
# 1 0.012604 -0.001700 0.001775 0.000000 0.015495 0.000000
# 2 -0.001700 0.015026 0.001410 0.000000 0.002066 0.000000
# 3 0.001775 0.001410 0.019304 0.000000 0.011556 0.000000
# 4 0.000000 0.000000 0.000000 0.055692 0.000000 -0.002337
# 5 0.015495 0.002066 0.011556 0.000000 0.052145 0.000000
# 6 0.000000 0.000000 0.000000 -0.002337 0.000000 0.044413
#
#
# Mechanical properties :
#
#
# Convention : Reuss Voigt Hill
#
# Bulk Modulus (GPa) = 20.03825 36.02726 28.03275
# Shear Modulus (GPa) = 23.49088 30.96066 27.22577
#
# Velocity S-wave (km/s) = 3.29915 3.78754 3.55175
# Velocity P-wave (km/s) = 4.87823 5.98501 5.45974
#
# Compressibility (1/GPa) = 0.04990455
#
# Stress axis : x y z
#
# Youngs Moduli (GPa) = 79.34039 66.55139 51.80258
#
# Poissons Ratio (x) = 0.11312 -0.09196
# Poissons Ratio (y) = 0.13486 -0.07303
# Poissons Ratio (z) = -0.14085 -0.09382
#
# Static dielectric constant tensor:
#      x y z
#    x 1.825800 0.000000 0.063980 
#    y 0.000000 1.799200 0.000000 
#    z 0.063980 0.000000 1.939120 
# 
# From -- ./inp_files/215199.got.cif
#   From: 2010.05.17/outbox.cif.g08.bks.cpg/sg12_108_cif.got.tgz:215199.got - 2010.06.03 13:09:07.
