data_PCOD9188029
_publ_section_title
;
Structure prediction by ZEFSAII (Michael W. Deem and Ramdas Pophale) SiO2 
 PCOD9188029
Probable space group: C 2/M
;
_chemical_formula_sum "Si O2"
_cell_formula_units_Z 56
_cell_length_a 22.120265
_cell_length_b 13.040966
_cell_length_c 11.151896
_cell_angle_alpha 90.000000
_cell_angle_beta 84.814335
_cell_angle_gamma 90.000000
_cell_volume 3203.816270
_symmetry_space_group_name_H-M "C 2/M"
_symmetry_group_IT_number 12
_symmetry_cell_setting 'monoclinic'
loop_
_space_group_symop_operation_xyz
x,y,z
-x,y,-z
-x,-y,-z
x,-y,z
1/2+x,1/2+y,z
1/2-x,1/2+y,-z
1/2-x,1/2-y,-z
1/2+x,1/2-y,z
loop_
_atom_site_type_symbol
_atom_site_label
_atom_site_fract_x
_atom_site_fract_y
_atom_site_fract_z
Si Si1 0.555277 0.121411 0.072819
Si Si2 0.084567 0.619395 0.567743
Si Si3 0.310060 0.270682 0.411689
Si Si4 0.543788 0.207429 0.336685
Si Si5 0.190055 0.381056 0.003916
Si Si6 0.632202 0.621201 0.384479
Si Si7 0.234611 0.235679 0.205449
O O1 0.557489 0.179944 0.197915
O O2 0.618681 0.133745 0.993179
O O3 0.547012 0.000000 0.100572
O O4 0.500000 0.155755 0.000000
O O5 0.079182 0.500000 0.600339
O O6 0.146767 0.670737 0.599094
O O7 0.079211 0.633827 0.424645
O O8 0.027047 0.683315 0.627859
O O9 0.250000 0.250000 0.500000
O O10 0.348113 0.353336 0.481668
O O11 0.282873 0.289881 0.285575
O O12 0.569520 0.319377 0.365931
O O13 0.201051 0.500000 0.024743
O O14 0.205800 0.316853 0.119653
O O15 0.229478 0.342985 0.885659
O O16 0.629879 0.500000 0.364767
O O17 0.683220 0.676457 0.291643
#
# Coordination Sequence:
#
# PCOD9188029 Si02
#       7
#     8   8   8   8   8   8   8
#     4  10  20  33  53  83 114 142 176 225 285 333
#     4  10  20  34  58  84 110 143 177 227 290 340
#     4   9  21  36  53  83 113 143 185 229 273 326
#     4  10  19  36  53  82 111 142 182 230 277 338
#     4  10  21  35  56  83 111 151 189 228 281 330
#     4  10  20  37  59  80 109 151 189 229 280 333
#     4  10  20  38  55  80 115 148 191 232 273 333
#
# _framework density 17.479154999999999
#
# number of rings (size 3 to 8) (size 9 to 14) (size 15 to 20)
#    0.000    2.143    1.429    2.143    2.000    3.429 
#    0.000    5.714    0.000    0.429    0.000    0.000 
#    0.000    0.000    0.000    0.000    0.000    0.000 
#
# Total GULP energy -156088.265454 kJ/mol
# GULP energy per Si atom -5574.580909 kJ/mol
# Density = 1.743937 g / cm^3
# Si number density = 17.479155 Si / 1000 Ang^3
#
#
#
# Elastic Constant Matrix: (Units=GPa)
#
#
# Indices 1 2 3 4 5 6 
#
# 1 99.1220 46.8206 25.5172 0.0000 0.3837 0.0000
# 2 46.8206 90.8852 30.2989 0.0000 -12.4692 0.0000
# 3 25.5172 30.2989 55.1091 0.0000 -1.4921 0.0000
# 4 0.0000 0.0000 0.0000 4.7075 0.0000 -4.9348
# 5 0.3837 -12.4692 -1.4921 0.0000 18.6822 0.0000
# 6 0.0000 0.0000 0.0000 -4.9348 0.0000 20.5448
#
#
#
# Elastic Compliance Matrix: (Units=1/GPa)
#
#
# Indices 1 2 3 4 5 6 
#
# 1 0.014181 -0.007088 -0.002811 0.000000 -0.005247 0.000000
# 2 -0.007088 0.018480 -0.006554 0.000000 0.011956 0.000000
# 3 -0.002811 -0.006554 0.022984 0.000000 -0.002481 0.000000
# 4 0.000000 0.000000 0.000000 0.283914 0.000000 0.068195
# 5 -0.005247 0.011956 -0.002481 0.000000 0.061416 0.000000
# 6 0.000000 0.000000 0.000000 0.068195 0.000000 0.065054
#
#
# Mechanical properties :
#
#
# Convention : Reuss Voigt Hill
#
# Bulk Modulus (GPa) = 43.98093 50.04330 47.01212
# Shear Modulus (GPa) = 9.87136 18.28555 14.07846
#
# Velocity S-wave (km/s) = 2.37903 3.23791 2.84111
# Velocity P-wave (km/s) = 5.72389 6.53232 6.14142
#
# Compressibility (1/GPa) = 0.02273713
#
# Stress axis : x y z
#
# Youngs Moduli (GPa) = 70.51900 54.11317 43.50864
#
# Poissons Ratio (x) = 0.38355 0.12231
# Poissons Ratio (y) = 0.49983 0.28518
# Poissons Ratio (z) = 0.19824 0.35468
#
# Static dielectric constant tensor:
#      x y z
#    x 1.609550 0.000000 -0.005420 
#    y 0.000000 1.573960 0.000000 
#    z -0.005420 0.000000 1.607060 
# 
# From -- ./inp_files/164847.got.cif
#   From: 2010.05.17/outbox.cif.g08.bks.cpg/sg12_83_cif.got.tgz:164847.got - 2010.06.03 13:09:07.
