data_PCOD9188656
_publ_section_title
;
Structure prediction by ZEFSAII (Michael W. Deem and Ramdas Pophale) SiO2 
 PCOD9188656
Probable space group: C 2/M
;
_chemical_formula_sum "Si O2"
_cell_formula_units_Z 42
_cell_length_a 14.725221
_cell_length_b 7.314836
_cell_length_c 14.874913
_cell_angle_alpha 90.000000
_cell_angle_beta 81.400471
_cell_angle_gamma 90.000000
_cell_volume 1584.202479
_symmetry_space_group_name_H-M "C 2/M"
_symmetry_group_IT_number 12
_symmetry_cell_setting 'monoclinic'
loop_
_space_group_symop_operation_xyz
x,y,z
-x,y,-z
-x,-y,-z
x,-y,z
1/2+x,1/2+y,z
1/2-x,1/2+y,-z
1/2-x,1/2-y,-z
1/2+x,1/2-y,z
loop_
_atom_site_type_symbol
_atom_site_label
_atom_site_fract_x
_atom_site_fract_y
_atom_site_fract_z
Si Si1 0.396440 0.790699 0.932151
Si Si2 0.643866 0.789924 0.414166
Si Si3 0.195971 0.277691 0.881975
Si Si4 0.533655 0.221472 0.260769
Si Si5 0.000000 0.000000 0.500000
Si Si6 0.664669 0.220206 0.680289
O O1 0.293581 0.788768 0.904978
O O2 0.454795 0.708455 0.842147
O O3 0.427098 0.000000 0.937729
O O4 0.381466 0.716132 0.034586
O O5 0.615857 0.733106 0.315449
O O6 0.581264 0.658127 0.480570
O O7 0.753911 0.779868 0.396587
O O8 0.617371 0.000000 0.433760
O O9 0.196658 0.500000 0.884868
O O10 0.182820 0.223294 0.781224
O O11 0.439292 0.283578 0.319868
O O12 0.531705 0.000000 0.254776
O O13 0.664914 0.000000 0.676949
#
# Coordination Sequence:
#
# PCOD9188656 Si02
#       6
#     8   8   8   8   2   8
#     4   9  16  29  48  79 119 165 213 257 297 349
#     4  11  23  44  70  96 124 161 205 250 319 386
#     4   9  17  27  49  81 118 165 214 255 298 350
#     4   9  19  35  61  88 124 166 209 257 309 368
#     4  12  26  48  76  94 124 158 198 260 324 386
#     4  10  19  36  60  90 126 167 209 257 308 366
#
# _framework density 26.511762999999998
#
# number of rings (size 3 to 8) (size 9 to 14) (size 15 to 20)
#    0.000    2.286    2.857    0.286    0.000    0.762 
#    1.714    4.762    0.000    0.000    0.000    6.667 
#    0.000    0.000    0.000    0.000    0.000    0.000 
#
# Total GULP energy -117278.405919 kJ/mol
# GULP energy per Si atom -5584.685996 kJ/mol
# Density = 2.645142 g / cm^3
# Si number density = 26.511763 Si / 1000 Ang^3
#
#
#
# Elastic Constant Matrix: (Units=GPa)
#
#
# Indices 1 2 3 4 5 6 
#
# 1 101.2675 -0.2675 49.9058 0.0000 -38.1794 0.0000
# 2 -0.2675 139.8420 19.6647 0.0000 -19.5522 0.0000
# 3 49.9058 19.6647 182.4764 0.0000 -33.4969 0.0000
# 4 0.0000 0.0000 0.0000 -0.1354 0.0000 -7.5747
# 5 -38.1794 -19.5522 -33.4969 0.0000 52.6875 0.0000
# 6 0.0000 0.0000 0.0000 -7.5747 0.0000 3.9471
#
#
#
# Elastic Compliance Matrix: (Units=1/GPa)
#
#
# Indices 1 2 3 4 5 6 
#
# 1 0.014774 0.001741 -0.002428 0.000000 0.009808 0.000000
# 2 0.001741 0.007766 -0.000625 0.000000 0.003746 0.000000
# 3 -0.002428 -0.000625 0.006618 0.000000 0.002216 0.000000
# 4 0.000000 0.000000 0.000000 -0.068157 0.000000 -0.130799
# 5 0.009808 0.003746 0.002216 0.000000 0.028887 0.000000
# 6 0.000000 0.000000 0.000000 -0.130799 0.000000 0.002338
#
#
# Mechanical properties :
#
#
# Convention : Reuss Voigt Hill
#
# Bulk Modulus (GPa) = 37.68765 62.46575 50.07670
# Shear Modulus (GPa) = 1353.50717 34.91870 694.21293
#
# Velocity S-wave (km/s) = 22.61944 3.63313 16.19936
# Velocity P-wave (km/s) = 26.38999 6.41967 19.20474
#
# Compressibility (1/GPa) = 0.02653389
#
# Stress axis : x y z
#
# Youngs Moduli (GPa) = 67.68800 128.76738 151.09464
#
# Poissons Ratio (x) = -0.22418 0.36680
# Poissons Ratio (y) = -0.11784 0.09450
# Poissons Ratio (z) = 0.16432 0.08053
#
# Static dielectric constant tensor:
#      x y z
#    x 2.032070 0.000000 0.022080 
#    y 0.000000 2.012150 0.000000 
#    z 0.022080 0.000000 2.117370 
# 
# From -- ./inp_files/266984.got.cif
#   From: 2010.05.17/outbox.cif.g08.bks.cpg/sg12_134_cif.got.tgz:266984.got - 2010.06.03 13:09:07.
