data_PCOD9188305
_publ_section_title
;
Structure prediction by ZEFSAII (Michael W. Deem and Ramdas Pophale) SiO2 
 PCOD9188305
Probable space group: C 2/M
;
_chemical_formula_sum "Si O2"
_cell_formula_units_Z 56
_cell_length_a 18.506362
_cell_length_b 12.403787
_cell_length_c 14.188944
_cell_angle_alpha 90.000000
_cell_angle_beta 61.480617
_cell_angle_gamma 90.000000
_cell_volume 2861.831958
_symmetry_space_group_name_H-M "C 2/M"
_symmetry_group_IT_number 12
_symmetry_cell_setting 'monoclinic'
loop_
_space_group_symop_operation_xyz
x,y,z
-x,y,-z
-x,-y,-z
x,-y,z
1/2+x,1/2+y,z
1/2-x,1/2+y,-z
1/2-x,1/2-y,-z
1/2+x,1/2-y,z
loop_
_atom_site_type_symbol
_atom_site_label
_atom_site_fract_x
_atom_site_fract_y
_atom_site_fract_z
Si Si1 0.492346 0.616538 0.615702
Si Si2 0.121301 0.716827 0.602042
Si Si3 0.252247 0.870693 0.624834
Si Si4 0.148968 0.882023 0.166251
Si Si5 0.447512 0.317911 0.949814
Si Si6 0.427165 0.877947 0.175140
Si Si7 0.711009 0.749469 0.842285
O O1 0.500000 0.616423 0.500000
O O2 0.524989 0.500000 0.630913
O O3 0.541348 0.717696 0.622505
O O4 0.397979 0.620998 0.705005
O O5 0.181206 0.806602 0.611980
O O6 0.166286 0.662306 0.485002
O O7 0.096407 0.635597 0.700543
O O8 0.246414 0.823296 0.734859
O O9 0.242042 0.000000 0.631350
O O10 0.075633 0.867086 0.136372
O O11 0.218572 0.793351 0.133043
O O12 0.185999 0.000000 0.127184
O O13 0.501431 0.209256 0.895013
O O14 0.500000 0.374276 0.000000
O O15 0.358002 0.307002 0.051908
O O16 0.343785 0.844356 0.171817
O O17 0.451779 0.000000 0.138477
#
# Coordination Sequence:
#
# PCOD9188305 Si02
#       7
#     8   8   8   8   8   8   8
#     4  10  20  34  57  84 115 155 193 239 297 353
#     4  10  19  36  58  84 121 153 197 252 288 357
#     4  10  21  36  59  87 118 158 197 245 303 351
#     4  11  22  38  60  86 118 155 198 245 299 355
#     4  10  22  40  59  87 119 156 199 249 299 352
#     4  10  20  37  62  88 116 157 205 247 296 352
#     4  10  22  38  59  86 121 155 197 251 292 354
#
# _framework density 19.567885
#
# number of rings (size 3 to 8) (size 9 to 14) (size 15 to 20)
#    0.000    1.857    1.429    2.571    0.000    4.000 
#    0.000    5.000    0.000    1.714    0.000    0.000 
#    0.000    0.000    0.000    0.000    0.000    0.000 
#
# Total GULP energy -156013.579132 kJ/mol
# GULP energy per Si atom -5571.913540 kJ/mol
# Density = 1.952335 g / cm^3
# Si number density = 19.567885 Si / 1000 Ang^3
#
#
#
# Elastic Constant Matrix: (Units=GPa)
#
#
# Indices 1 2 3 4 5 6 
#
# 1 57.9805 16.3437 7.5518 0.0000 1.7669 0.0000
# 2 16.3437 94.4478 16.7356 0.0000 3.8481 0.0000
# 3 7.5518 16.7356 106.0344 0.0000 -1.4625 0.0000
# 4 0.0000 0.0000 0.0000 -22.0685 0.0000 -6.6462
# 5 1.7669 3.8481 -1.4625 0.0000 21.4456 0.0000
# 6 0.0000 0.0000 0.0000 -6.6462 0.0000 8.5944
#
#
#
# Elastic Compliance Matrix: (Units=1/GPa)
#
#
# Indices 1 2 3 4 5 6 
#
# 1 0.018223 -0.002962 -0.000845 0.000000 -0.001028 0.000000
# 2 -0.002962 0.011467 -0.001625 0.000000 -0.001924 0.000000
# 3 -0.000845 -0.001625 0.009762 0.000000 0.001027 0.000000
# 4 0.000000 0.000000 0.000000 -0.036754 0.000000 -0.028422
# 5 -0.001028 -0.001924 0.001027 0.000000 0.047130 0.000000
# 6 0.000000 0.000000 0.000000 -0.028422 0.000000 0.094376
#
#
# Mechanical properties :
#
#
# Convention : Reuss Voigt Hill
#
# Bulk Modulus (GPa) = 34.97954 37.74722 36.36338
# Shear Modulus (GPa) = 30.37725 16.11639 23.24682
#
# Velocity S-wave (km/s) = 3.94433 2.87298 3.45049
# Velocity P-wave (km/s) = 6.21759 5.50796 5.87350
#
# Compressibility (1/GPa) = 0.02858814
#
# Stress axis : x y z
#
# Youngs Moduli (GPa) = 54.87442 87.20808 102.44054
#
# Poissons Ratio (x) = 0.25831 0.08652
# Poissons Ratio (y) = 0.16254 0.16651
# Poissons Ratio (z) = 0.04635 0.14175
#
# Static dielectric constant tensor:
#      x y z
#    x 1.689820 0.000000 0.029880 
#    y 0.000000 1.716100 0.000000 
#    z 0.029880 0.000000 1.725410 
# 
# From -- ./inp_files/223720.got.cif
#   From: 2010.05.17/outbox.cif.g08.bks.cpg/sg12_112_cif.got.tgz:223720.got - 2010.06.03 13:09:07.
