data_PCOD9188255
_publ_section_title
;
Structure prediction by ZEFSAII (Michael W. Deem and Ramdas Pophale) SiO2 
 PCOD9188255
Probable space group: C 2/M
;
_chemical_formula_sum "Si O2"
_cell_formula_units_Z 64
_cell_length_a 20.024202
_cell_length_b 7.662713
_cell_length_c 32.173401
_cell_angle_alpha 90.000000
_cell_angle_beta 143.912880
_cell_angle_gamma 90.000000
_cell_volume 2907.775604
_symmetry_space_group_name_H-M "C 2/M"
_symmetry_group_IT_number 12
_symmetry_cell_setting 'monoclinic'
loop_
_space_group_symop_operation_xyz
x,y,z
-x,y,-z
-x,-y,-z
x,-y,z
1/2+x,1/2+y,z
1/2-x,1/2+y,-z
1/2-x,1/2-y,-z
1/2+x,1/2-y,z
loop_
_atom_site_type_symbol
_atom_site_label
_atom_site_fract_x
_atom_site_fract_y
_atom_site_fract_z
Si Si1 0.021808 0.215051 0.220954
Si Si2 0.252164 0.786837 0.769039
Si Si3 0.095913 0.210343 0.015842
Si Si4 0.512914 0.702788 0.886964
Si Si5 0.184413 0.791823 0.509491
Si Si6 0.736303 0.204270 0.627245
Si Si7 0.823566 0.791543 0.178504
Si Si8 0.570540 0.704156 0.610567
O O1 0.972967 0.276635 0.152153
O O2 0.150042 0.274859 0.293704
O O3 0.938935 0.272978 0.215898
O O4 0.024136 0.000000 0.221443
O O5 0.378215 0.714973 0.827113
O O6 0.204518 0.728365 0.789591
O O7 0.166505 0.726097 0.690098
O O8 0.260375 0.000000 0.772275
O O9 0.218050 0.253255 0.095505
O O10 0.084283 0.000000 0.008294
O O11 0.000000 0.274455 0.000000
O O12 0.073584 0.279290 0.958100
O O13 0.547200 0.500000 0.901830
O O14 0.250000 0.750000 0.500000
O O15 0.243307 0.728449 0.581410
O O16 0.054923 0.721328 0.445983
O O17 0.179546 0.000000 0.510319
O O18 0.623375 0.281373 0.591186
O O19 0.730491 0.000000 0.633088
O O20 0.834349 0.000000 0.187283
O O21 0.561039 0.500000 0.616030
#
# Coordination Sequence:
#
# PCOD9188255 Si02
#       8
#     8   8   8   8   8   8   8   8
#     4   9  20  37  58  84 114 150 189 236 290 342
#     4  10  20  34  57  85 110 144 191 241 284 337
#     4  10  20  34  54  79 112 149 187 235 291 346
#     4  10  19  36  58  80 111 150 190 234 287 344
#     4  11  25  43  63  90 125 161 196 242 296 348
#     4  11  22  39  66  91 119 158 200 241 289 353
#     4  10  21  36  56  81 112 148 191 236 288 347
#     4  10  22  40  62  87 120 157 196 243 297 347
#
# _framework density 22.009951000000001
#
# number of rings (size 3 to 8) (size 9 to 14) (size 15 to 20)
#    0.000    1.875    2.500    1.125    1.750    3.750 
#    0.000    1.875    0.000    0.000    0.000    0.000 
#    0.000    0.000    0.000    0.000    0.000    0.000 
#
# Total GULP energy -178779.571600 kJ/mol
# GULP energy per Si atom -5586.861613 kJ/mol
# Density = 2.195986 g / cm^3
# Si number density = 22.009951 Si / 1000 Ang^3
#
#
#
# Elastic Constant Matrix: (Units=GPa)
#
#
# Indices 1 2 3 4 5 6 
#
# 1 83.4641 -21.7777 22.5296 -0.0013 -7.1398 -0.0003
# 2 -21.7777 38.0227 -6.7710 -0.0021 0.4261 -0.0008
# 3 22.5296 -6.7710 63.1043 0.0006 -12.4518 -0.0002
# 4 -0.0013 -0.0021 0.0006 -5.9685 0.0000 -4.9443
# 5 -7.1398 0.4261 -12.4518 0.0000 41.5341 -0.0001
# 6 -0.0003 -0.0008 -0.0002 -4.9443 -0.0001 17.0346
#
#
#
# Elastic Compliance Matrix: (Units=1/GPa)
#
#
# Indices 1 2 3 4 5 6 
#
# 1 0.015358 0.008003 -0.004379 -0.000006 0.001245 -0.000001
# 2 0.008003 0.030998 0.000720 -0.000011 0.001274 -0.000002
# 3 -0.004379 0.000720 0.018427 0.000002 0.004764 0.000001
# 4 -0.000006 -0.000011 0.000002 -0.135070 0.000000 -0.039204
# 5 0.001245 0.001274 0.004764 0.000000 0.025706 0.000000
# 6 -0.000001 -0.000002 0.000001 -0.039204 0.000000 0.047325
#
#
# Mechanical properties :
#
#
# Convention : Reuss Voigt Hill
#
# Bulk Modulus (GPa) = 13.61082 19.17254 16.39168
# Shear Modulus (GPa) = 269.60512 23.22740 146.41626
#
# Velocity S-wave (km/s) = 11.07963 3.25208 8.16500
# Velocity P-wave (km/s) = 13.03361 4.77820 9.81596
#
# Compressibility (1/GPa) = 0.07347097
#
# Stress axis : x y z
#
# Youngs Moduli (GPa) = 65.11386 32.26055 54.26682
#
# Poissons Ratio (x) = -0.25817 0.23762
# Poissons Ratio (y) = -0.52108 -0.03908
# Poissons Ratio (z) = 0.28511 -0.02323
#
# Static dielectric constant tensor:
#      x y z
#    x 1.810400 0.000000 -0.019250 
#    y 0.000000 1.836870 0.000000 
#    z -0.019250 0.000000 1.793770 
# 
# From -- ./inp_files/378401.got.cif
#   From: 2010.05.17/outbox.cif.g08.bks.cpg/sg12_190_cif.got.tgz:378401.got - 2010.06.03 13:09:07.
