data_PCOD9188487
_publ_section_title
;
Structure prediction by ZEFSAII (Michael W. Deem and Ramdas Pophale) SiO2 
 PCOD9188487
Probable space group: C 2/M
;
_chemical_formula_sum "Si O2"
_cell_formula_units_Z 56
_cell_length_a 9.676261
_cell_length_b 13.788922
_cell_length_c 33.024599
_cell_angle_alpha 90.000000
_cell_angle_beta 33.426809
_cell_angle_gamma 90.000000
_cell_volume 2427.311962
_symmetry_space_group_name_H-M "C 2/M"
_symmetry_group_IT_number 12
_symmetry_cell_setting 'monoclinic'
loop_
_space_group_symop_operation_xyz
x,y,z
-x,y,-z
-x,-y,-z
x,-y,z
1/2+x,1/2+y,z
1/2-x,1/2+y,-z
1/2-x,1/2-y,-z
1/2+x,1/2-y,z
loop_
_atom_site_type_symbol
_atom_site_label
_atom_site_fract_x
_atom_site_fract_y
_atom_site_fract_z
Si Si1 0.238475 0.882433 0.968674
Si Si2 0.979498 0.277365 0.548969
Si Si3 0.825351 0.392862 0.351046
Si Si4 0.086700 0.107562 0.786910
Si Si5 0.437516 0.382304 0.115726
Si Si6 0.438760 0.882375 0.184823
Si Si7 0.567408 0.704497 0.708428
O O1 0.473343 0.859579 0.883026
O O2 0.235320 0.000000 0.971272
O O3 0.000000 0.852892 0.000000
O O4 0.172720 0.850817 0.030430
O O5 0.250000 0.250000 0.500000
O O6 0.000000 0.324641 0.500000
O O7 0.829786 0.174540 0.580582
O O8 0.805880 0.333599 0.623983
O O9 0.723619 0.500000 0.368299
O O10 0.113917 0.401999 0.292345
O O11 0.852696 0.317566 0.307334
O O12 0.044468 0.149442 0.842078
O O13 0.012256 0.163437 0.765505
O O14 0.971248 0.000000 0.814258
O O15 0.435529 0.500000 0.118681
O O16 0.179383 0.360093 0.154701
O O17 0.183135 0.823346 0.255248
O O18 0.395722 0.000000 0.198335
#
# Coordination Sequence:
#
# PCOD9188487 Si02
#       7
#     8   8   8   8   8   8   8
#     4   7  11  23  45  77 123 175 218 256 303 368
#     4  10  22  41  66  93 124 156 196 249 312 372
#     4   9  22  40  64  89 118 163 210 246 294 374
#     4  10  19  36  59  91 127 164 207 253 312 367
#     4   8  15  27  51  85 127 177 223 257 299 376
#     4   9  16  30  53  89 132 174 215 258 317 377
#     4  10  22  35  61  90 127 160 197 264 313 368
#
# _framework density 23.070788
#
# number of rings (size 3 to 8) (size 9 to 14) (size 15 to 20)
#    0.857    2.143    0.000    3.000    0.000    2.571 
#    0.000    2.143    0.000    9.857    0.000    1.000 
#    0.000    9.714    0.000    0.000    0.000    0.000 
#
# Total GULP energy -155937.938076 kJ/mol
# GULP energy per Si atom -5569.212074 kJ/mol
# Density = 2.301828 g / cm^3
# Si number density = 23.070788 Si / 1000 Ang^3
#
#
#
# Elastic Constant Matrix: (Units=GPa)
#
#
# Indices 1 2 3 4 5 6 
#
# 1 90.5751 6.3301 41.5123 0.0010 28.9213 0.0004
# 2 6.3301 73.7164 20.0850 -0.0046 17.5879 0.0014
# 3 41.5123 20.0850 119.1104 -0.0063 10.6435 0.0031
# 4 0.0010 -0.0046 -0.0063 29.0894 0.0030 -1.7515
# 5 28.9213 17.5879 10.6435 0.0030 34.8870 0.0002
# 6 0.0004 0.0014 0.0031 -1.7515 0.0002 14.7101
#
#
#
# Elastic Compliance Matrix: (Units=1/GPa)
#
#
# Indices 1 2 3 4 5 6 
#
# 1 0.018204 0.003585 -0.005591 0.000000 -0.015192 0.000001
# 2 0.003585 0.016584 -0.003118 0.000003 -0.010381 -0.000001
# 3 -0.005591 -0.003118 0.010604 0.000002 0.002972 -0.000002
# 4 0.000000 0.000003 0.000002 0.034625 -0.000005 0.004123
# 5 -0.015192 -0.010381 0.002972 -0.000005 0.045585 -0.000001
# 6 0.000001 -0.000001 -0.000002 0.004123 -0.000001 0.068472
#
#
# Mechanical properties :
#
#
# Convention : Reuss Voigt Hill
#
# Bulk Modulus (GPa) = 28.45514 46.58406 37.51960
# Shear Modulus (GPa) = 23.14413 30.10227 26.62320
#
# Velocity S-wave (km/s) = 3.17074 3.61609 3.40071
# Velocity P-wave (km/s) = 5.07596 6.13763 5.63187
#
# Compressibility (1/GPa) = 0.03514304
#
# Stress axis : x y z
#
# Youngs Moduli (GPa) = 54.93421 60.29860 94.29963
#
# Poissons Ratio (x) = -0.21617 0.52725
# Poissons Ratio (y) = -0.19694 0.29405
# Poissons Ratio (z) = 0.30715 0.18803
#
# Static dielectric constant tensor:
#      x y z
#    x 1.851540 0.000000 0.032020 
#    y 0.000000 1.974200 0.000000 
#    z 0.032020 0.000000 1.909060 
# 
# From -- ./inp_files/372780.got.cif
#   From: 2010.05.17/outbox.cif.g08.bks.cpg/sg12_187_cif.got.tgz:372780.got - 2010.06.03 13:09:07.
