data_PCOD9188535
_publ_section_title
;
Structure prediction by ZEFSAII (Michael W. Deem and Ramdas Pophale) SiO2 
 PCOD9188535
Probable space group: C 2/M
;
_chemical_formula_sum "Si O2"
_cell_formula_units_Z 60
_cell_length_a 21.623509
_cell_length_b 14.472628
_cell_length_c 7.708603
_cell_angle_alpha 90.000000
_cell_angle_beta 68.198097
_cell_angle_gamma 90.000000
_cell_volume 2239.849094
_symmetry_space_group_name_H-M "C 2/M"
_symmetry_group_IT_number 12
_symmetry_cell_setting 'monoclinic'
loop_
_space_group_symop_operation_xyz
x,y,z
-x,y,-z
-x,-y,-z
x,-y,z
1/2+x,1/2+y,z
1/2-x,1/2+y,-z
1/2-x,1/2-y,-z
1/2+x,1/2-y,z
loop_
_atom_site_type_symbol
_atom_site_label
_atom_site_fract_x
_atom_site_fract_y
_atom_site_fract_z
Si Si1 0.910579 0.888684 0.706985
Si Si2 0.728789 0.603990 0.023676
Si Si3 0.691803 0.851669 0.608304
Si Si4 0.682447 0.365403 0.686997
Si Si5 0.542951 0.661642 0.720789
Si Si6 0.500000 0.869763 0.500000
Si Si7 0.858646 0.385735 0.731080
Si Si8 0.553071 0.123743 0.804379
O O1 0.935953 0.844153 0.502732
O O2 0.966529 0.870977 0.797231
O O3 0.909026 0.000000 0.686337
O O4 0.836015 0.853389 0.819776
O O5 0.736227 0.500000 0.083716
O O6 0.705971 0.598766 0.846692
O O7 0.803118 0.644056 0.930556
O O8 0.691761 0.746121 0.672960
O O9 0.765850 0.893042 0.520197
O O10 0.669194 0.856501 0.429149
O O11 0.629431 0.898031 0.768337
O O12 0.605391 0.389900 0.741672
O O13 0.546974 0.765499 0.785318
O O14 0.431152 0.838535 0.669958
O O15 0.464947 0.910860 0.368041
O O16 0.864273 0.500000 0.733116
O O17 0.500000 0.095350 0.000000
#
# Coordination Sequence:
#
# PCOD9188535 Si02
#       8
#     8   8   8   8   8   4   8   8
#     4  10  21  36  50  74 113 148 185 236 278 326
#     4   9  19  33  52  79 112 145 185 234 275 326
#     4   8  17  33  53  76 114 137 174 232 279 326
#     4   9  17  32  54  77 103 143 186 224 276 337
#     4  10  20  33  54  74 104 147 187 225 279 331
#     4  10  19  36  60  84 111 148 184 224 289 350
#     4   9  17  33  58  84 109 144 185 224 278 345
#     4  10  21  36  56  84 115 142 185 239 285 334
#
# _framework density 26.787519
#
# number of rings (size 3 to 8) (size 9 to 14) (size 15 to 20)
#    0.000    2.667    0.000    1.800    3.733    1.067 
#    2.400    1.333    0.000   15.600    0.000    0.000 
#    0.000    0.000    0.000    0.000    0.000    0.000 
#
# Total GULP energy -167387.920558 kJ/mol
# GULP energy per Si atom -5579.597352 kJ/mol
# Density = 2.672655 g / cm^3
# Si number density = 26.787519 Si / 1000 Ang^3
#
#
#
# Elastic Constant Matrix: (Units=GPa)
#
#
# Indices 1 2 3 4 5 6 
#
# 1 148.8060 6.3402 61.9812 0.0000 -36.5002 0.0000
# 2 6.3402 125.3132 11.2533 0.0000 -6.6504 0.0000
# 3 61.9812 11.2533 137.9691 0.0000 -55.2100 0.0000
# 4 0.0000 0.0000 0.0000 30.4838 0.0000 49.4761
# 5 -36.5002 -6.6504 -55.2100 0.0000 68.4256 0.0000
# 6 0.0000 0.0000 0.0000 49.4761 0.0000 112.9920
#
#
#
# Elastic Compliance Matrix: (Units=1/GPa)
#
#
# Indices 1 2 3 4 5 6 
#
# 1 0.008474 -0.000051 -0.002948 0.000000 0.002137 0.000000
# 2 -0.000051 0.008046 -0.000489 0.000000 0.000360 0.000000
# 3 -0.002948 -0.000489 0.011761 0.000000 0.007870 0.000000
# 4 0.000000 0.000000 0.000000 0.113384 0.000000 -0.049648
# 5 0.002137 0.000360 0.007870 0.000000 0.022139 0.000000
# 6 0.000000 0.000000 0.000000 -0.049648 0.000000 0.030590
#
#
# Mechanical properties :
#
#
# Convention : Reuss Voigt Hill
#
# Bulk Modulus (GPa) = 46.93531 63.47085 55.20308
# Shear Modulus (GPa) = 23.98411 64.54785 44.26598
#
# Velocity S-wave (km/s) = 2.99548 4.91412 4.06949
# Velocity P-wave (km/s) = 5.43353 7.47955 6.53708
#
# Compressibility (1/GPa) = 0.02130592
#
# Stress axis : x y z
#
# Youngs Moduli (GPa) = 118.00386 124.29119 85.02442
#
# Poissons Ratio (x) = 0.00629 0.25062
# Poissons Ratio (y) = 0.00597 0.04161
# Poissons Ratio (z) = 0.34783 0.06083
#
# Static dielectric constant tensor:
#      x y z
#    x 2.167110 0.000000 -0.093390 
#    y 0.000000 2.118930 0.000000 
#    z -0.093390 0.000000 2.108970 
# 
# From -- ./inp_files/98119.got.cif
#   From: 2010.05.17/outbox.cif.g08.bks.cpg/sg12_50_cif.got.tgz:98119.got - 2010.06.03 13:09:07.
