data_PCOD9188363
_publ_section_title
;
Structure prediction by ZEFSAII (Michael W. Deem and Ramdas Pophale) SiO2 
 PCOD9188363
Probable space group: C 2/M
;
_chemical_formula_sum "Si O2"
_cell_formula_units_Z 48
_cell_length_a 15.584205
_cell_length_b 7.721131
_cell_length_c 19.702025
_cell_angle_alpha 90.000000
_cell_angle_beta 90.809224
_cell_angle_gamma 90.000000
_cell_volume 2370.462678
_symmetry_space_group_name_H-M "C 2/M"
_symmetry_group_IT_number 12
_symmetry_cell_setting 'monoclinic'
loop_
_space_group_symop_operation_xyz
x,y,z
-x,y,-z
-x,-y,-z
x,-y,z
1/2+x,1/2+y,z
1/2-x,1/2+y,-z
1/2-x,1/2-y,-z
1/2+x,1/2-y,z
loop_
_atom_site_type_symbol
_atom_site_label
_atom_site_fract_x
_atom_site_fract_y
_atom_site_fract_z
Si Si1 0.778927 0.793899 0.423880
Si Si2 0.024476 0.705594 0.574637
Si Si3 0.221881 0.791413 0.923084
Si Si4 0.529005 0.290971 0.925620
Si Si5 0.876672 0.287185 0.672731
Si Si6 0.627991 0.792543 0.172765
O O1 0.750000 0.750000 0.500000
O O2 0.875041 0.730391 0.411574
O O3 0.707146 0.730596 0.370310
O O4 0.780824 0.000000 0.418511
O O5 0.008262 0.500000 0.571189
O O6 0.000000 0.778035 0.500000
O O7 0.960812 0.771517 0.632190
O O8 0.124954 0.727885 0.910905
O O9 0.292214 0.724047 0.870776
O O10 0.220469 0.000000 0.917177
O O11 0.250000 0.750000 0.000000
O O12 0.531888 0.500000 0.928727
O O13 0.458875 0.242391 0.869326
O O14 0.500000 0.228863 0.000000
O O15 0.876832 0.500000 0.673639
O O16 0.875184 0.227132 0.750313
O O17 0.638094 0.000000 0.176825
#
# Coordination Sequence:
#
# PCOD9188363 Si02
#       6
#     8   8   8   8   8   8
#     4  11  21  36  59  86 113 147 189 232 275 330
#     4  10  19  36  59  81 109 150 188 227 280 332
#     4  10  20  34  55  80 107 142 182 222 269 325
#     4  10  20  35  55  80 111 143 176 225 281 323
#     4   9  20  38  56  78 114 148 177 225 288 333
#     4  10  21  37  57  81 108 144 186 226 271 331
#
# _framework density 20.249210999999999
#
# number of rings (size 3 to 8) (size 9 to 14) (size 15 to 20)
#    0.000    2.000    3.333    0.500    0.000    2.667 
#    0.000    4.167    0.000    0.000    0.000    0.000 
#    0.000    0.000    0.000    0.000    0.000    0.000 
#
# Total GULP energy -134043.670202 kJ/mol
# GULP energy per Si atom -5585.152925 kJ/mol
# Density = 2.020312 g / cm^3
# Si number density = 20.249211 Si / 1000 Ang^3
#
#
#
# Elastic Constant Matrix: (Units=GPa)
#
#
# Indices 1 2 3 4 5 6 
#
# 1 218.8400 -4.7151 134.5617 0.0000 -13.4854 0.0000
# 2 -4.7151 26.5993 3.9346 0.0000 -6.4327 0.0000
# 3 134.5617 3.9346 219.0167 0.0000 -6.3258 0.0000
# 4 0.0000 0.0000 0.0000 13.7958 0.0000 6.0451
# 5 -13.4854 -6.4327 -6.3258 0.0000 34.8133 0.0000
# 6 0.0000 0.0000 0.0000 6.0451 0.0000 25.2519
#
#
#
# Elastic Compliance Matrix: (Units=1/GPa)
#
#
# Indices 1 2 3 4 5 6 
#
# 1 0.007669 0.002685 -0.004684 0.000000 0.002616 0.000000
# 2 0.002685 0.040348 -0.002140 0.000000 0.008106 0.000000
# 3 -0.004684 -0.002140 0.007458 0.000000 -0.000855 0.000000
# 4 0.000000 0.000000 0.000000 0.080980 0.000000 -0.019386
# 5 0.002616 0.008106 -0.000855 0.000000 0.031080 0.000000
# 6 0.000000 0.000000 0.000000 -0.019386 0.000000 0.044242
#
#
# Mechanical properties :
#
#
# Convention : Reuss Voigt Hill
#
# Bulk Modulus (GPa) = 21.18869 81.33536 51.26203
# Shear Modulus (GPa) = 21.20546 36.81721 29.01133
#
# Velocity S-wave (km/s) = 3.23959 4.26867 3.78923
# Velocity P-wave (km/s) = 4.94772 8.03428 6.67195
#
# Compressibility (1/GPa) = 0.04719500
#
# Stress axis : x y z
#
# Youngs Moduli (GPa) = 130.39579 24.78441 134.09001
#
# Poissons Ratio (x) = -0.06654 0.62813
# Poissons Ratio (y) = -0.35010 0.28699
# Poissons Ratio (z) = 0.61083 0.05305
#
# Static dielectric constant tensor:
#      x y z
#    x 1.694930 0.000000 -0.017570 
#    y 0.000000 1.761920 0.000000 
#    z -0.017570 0.000000 1.698000 
# 
# From -- ./inp_files/267594.got.cif
#   From: 2010.05.17/outbox.cif.g08.bks.cpg/sg12_134_cif.got.tgz:267594.got - 2010.06.03 13:09:07.
