data_PCOD9188760
_publ_section_title
;
Structure prediction by ZEFSAII (Michael W. Deem and Ramdas Pophale) SiO2 
 PCOD9188760
Probable space group: C 2/M
;
_chemical_formula_sum "Si O2"
_cell_formula_units_Z 64
_cell_length_a 19.151043
_cell_length_b 20.922278
_cell_length_c 18.974610
_cell_angle_alpha 90.000000
_cell_angle_beta 153.155821
_cell_angle_gamma 90.000000
_cell_volume 3433.168808
_symmetry_space_group_name_H-M "C 2/M"
_symmetry_group_IT_number 12
_symmetry_cell_setting 'monoclinic'
loop_
_space_group_symop_operation_xyz
x,y,z
-x,y,-z
-x,-y,-z
x,-y,z
1/2+x,1/2+y,z
1/2-x,1/2+y,-z
1/2-x,1/2-y,-z
1/2+x,1/2-y,z
loop_
_atom_site_type_symbol
_atom_site_label
_atom_site_fract_x
_atom_site_fract_y
_atom_site_fract_z
Si Si1 0.736405 0.427492 0.889908
Si Si2 0.484644 0.674382 0.261349
Si Si3 0.486265 0.926724 0.225211
Si Si4 0.266605 0.292007 0.628470
Si Si5 0.322279 0.633433 0.313450
Si Si6 0.314032 0.275351 0.828167
Si Si7 0.915079 0.309492 0.256229
Si Si8 0.248418 0.142767 0.600285
O O1 0.680518 0.500000 0.846458
O O2 0.642161 0.379876 0.855337
O O3 0.717625 0.406445 0.791910
O O4 0.906782 0.423953 0.076507
O O5 0.609714 0.675479 0.311706
O O6 0.410068 0.744354 0.205156
O O7 0.577775 0.654911 0.416336
O O8 0.409943 0.874486 0.207467
O O9 0.659076 0.901180 0.369797
O O10 0.477251 0.000000 0.241632
O O11 0.281120 0.308299 0.723441
O O12 0.307193 0.216119 0.656967
O O13 0.089207 0.304081 0.445942
O O14 0.500000 0.634389 0.500000
O O15 0.263608 0.705108 0.245422
O O16 0.240951 0.612925 0.312856
O O17 0.222218 0.307294 0.810178
O O18 0.500000 0.270423 0.000000
#
# Coordination Sequence:
#
# PCOD9188760 Si02
#       8
#     8   8   8   8   8   8   8   8
#     4  11  26  40  55  86 128 167 202 246 300 354
#     4  11  19  37  65  91 116 160 206 251 298 347
#     4  11  25  41  59  87 122 161 201 253 309 357
#     4  10  20  36  62  96 122 152 193 252 306 353
#     4  11  21  39  58  84 126 168 199 242 295 355
#     4  11  24  35  61  99 123 151 197 252 307 360
#     4  11  20  41  65  87 124 160 197 254 303 356
#     4  10  19  36  61  88 119 153 205 244 293 358
#
# _framework density 18.641670000000001
#
# number of rings (size 3 to 8) (size 9 to 14) (size 15 to 20)
#    0.000    1.250    5.000    2.625    5.250    1.750 
#    0.000    1.250    0.000    2.625    0.000    0.000 
#    0.000    0.000    0.000    0.000    0.000    0.000 
#
# Total GULP energy -178390.598811 kJ/mol
# GULP energy per Si atom -5574.706213 kJ/mol
# Density = 1.859924 g / cm^3
# Si number density = 18.641670 Si / 1000 Ang^3
#
#
#
# Elastic Constant Matrix: (Units=GPa)
#
#
# Indices 1 2 3 4 5 6 
#
# 1 105.1625 53.2235 19.0431 -0.0017 2.9326 0.0002
# 2 53.2235 106.0124 39.8680 0.0016 -0.9135 -0.0013
# 3 19.0431 39.8680 56.4408 -0.0050 -8.9185 -0.0023
# 4 -0.0017 0.0016 -0.0050 16.9922 -0.0029 -0.5362
# 5 2.9326 -0.9135 -8.9185 -0.0029 20.8143 -0.0013
# 6 0.0002 -0.0013 -0.0023 -0.5362 -0.0013 18.3913
#
#
#
# Elastic Compliance Matrix: (Units=1/GPa)
#
#
# Indices 1 2 3 4 5 6 
#
# 1 0.012840 -0.006411 -0.000144 0.000001 -0.002152 -0.000001
# 2 -0.006411 0.016297 -0.009754 -0.000006 -0.002561 0.000000
# 3 -0.000144 -0.009754 0.026377 0.000011 0.010894 0.000004
# 4 0.000001 -0.000006 0.000011 0.058905 0.000012 0.001717
# 5 -0.002152 -0.002561 0.010894 0.000012 0.052903 0.000005
# 6 -0.000001 0.000000 0.000004 0.001717 0.000005 0.054424
#
#
# Mechanical properties :
#
#
# Convention : Reuss Voigt Hill
#
# Bulk Modulus (GPa) = 43.67178 54.65389 49.16284
# Shear Modulus (GPa) = 19.08440 21.60496 20.34468
#
# Velocity S-wave (km/s) = 3.20308 3.40804 3.30715
# Velocity P-wave (km/s) = 6.09569 6.69837 6.40412
#
# Compressibility (1/GPa) = 0.02289808
#
# Stress axis : x y z
#
# Youngs Moduli (GPa) = 77.88419 61.36011 37.91129
#
# Poissons Ratio (x) = 0.39335 0.00546
# Poissons Ratio (y) = 0.49928 0.36977
# Poissons Ratio (z) = 0.01121 0.59848
#
# Static dielectric constant tensor:
#      x y z
#    x 1.682480 0.000000 -0.002020 
#    y 0.000000 1.634440 0.000000 
#    z -0.002020 0.000000 1.682590 
# 
# From -- ./inp_files/279133.got.cif
#   From: 2010.05.17/outbox.cif.g08.bks.cpg/sg12_140_cif.got.tgz:279133.got - 2010.06.03 13:09:07.
