data_PCOD9188748
_publ_section_title
;
Structure prediction by ZEFSAII (Michael W. Deem and Ramdas Pophale) SiO2 
 PCOD9188748
Probable space group: C 2/M
;
_chemical_formula_sum "Si O2"
_cell_formula_units_Z 64
_cell_length_a 15.068124
_cell_length_b 8.001473
_cell_length_c 28.433288
_cell_angle_alpha 90.000000
_cell_angle_beta 129.379855
_cell_angle_gamma 90.000000
_cell_volume 2649.789511
_symmetry_space_group_name_H-M "C 2/M"
_symmetry_group_IT_number 12
_symmetry_cell_setting 'monoclinic'
loop_
_space_group_symop_operation_xyz
x,y,z
-x,y,-z
-x,-y,-z
x,-y,z
1/2+x,1/2+y,z
1/2-x,1/2+y,-z
1/2-x,1/2-y,-z
1/2+x,1/2-y,z
loop_
_atom_site_type_symbol
_atom_site_label
_atom_site_fract_x
_atom_site_fract_y
_atom_site_fract_z
Si Si1 0.112571 0.190377 0.098710
Si Si2 0.301892 0.193433 0.773316
Si Si3 0.102966 0.304572 0.649376
Si Si4 0.879296 0.697219 0.053532
Si Si5 0.556656 0.202126 0.273567
Si Si6 0.370683 0.204602 0.446028
Si Si7 0.862994 0.193566 0.597860
Si Si8 0.652906 0.205000 0.855177
O O1 0.159228 0.205161 0.168111
O O2 0.217277 0.270709 0.104999
O O3 0.982714 0.252221 0.054596
O O4 0.107434 0.000000 0.081974
O O5 0.169490 0.214190 0.713660
O O6 0.369018 0.239614 0.748026
O O7 0.329097 0.000000 0.792929
O O8 0.129347 0.500000 0.662754
O O9 0.148608 0.242447 0.614422
O O10 0.965547 0.283718 0.605037
O O11 0.880918 0.500000 0.055573
O O12 0.902506 0.759973 0.114431
O O13 0.750000 0.750000 0.000000
O O14 0.600524 0.290414 0.334970
O O15 0.427957 0.251756 0.215201
O O16 0.560456 0.000000 0.282785
O O17 0.500000 0.258306 0.500000
O O18 0.267772 0.261035 0.445470
O O19 0.368621 0.000000 0.446277
O O20 0.862729 0.000000 0.583699
O O21 0.655017 0.000000 0.855617
#
# Coordination Sequence:
#
# PCOD9188748 Si02
#       8
#     8   8   8   8   8   8   8   8
#     4  11  22  38  63  92 119 156 199 239 291 357
#     4  11  21  36  61  91 123 156 192 243 297 350
#     4  11  22  38  60  87 119 157 197 240 298 360
#     4  11  23  43  63  85 118 157 202 250 299 348
#     4  10  19  36  61  87 119 158 192 234 297 357
#     4   9  20  39  60  82 114 156 201 249 298 349
#     4  11  22  37  59  89 119 152 196 245 295 351
#     4   9  20  39  61  84 116 156 192 231 288 353
#
# _framework density 24.152864000000001
#
# number of rings (size 3 to 8) (size 9 to 14) (size 15 to 20)
#    0.000    1.625    2.500    2.625    0.000    2.500 
#    0.000    5.625    0.000    5.250    0.000    0.000 
#    0.000    0.000    0.000    0.000    0.000    0.000 
#
# Total GULP energy -178924.369569 kJ/mol
# GULP energy per Si atom -5591.386549 kJ/mol
# Density = 2.409789 g / cm^3
# Si number density = 24.152864 Si / 1000 Ang^3
#
#
#
# Elastic Constant Matrix: (Units=GPa)
#
#
# Indices 1 2 3 4 5 6 
#
# 1 127.8129 1.5817 5.3762 0.0000 30.9889 0.0000
# 2 1.5817 25.8827 -8.1030 0.0000 1.8139 0.0000
# 3 5.3762 -8.1030 61.2549 0.0000 28.6619 0.0000
# 4 0.0000 0.0000 0.0000 17.8478 0.0000 4.6052
# 5 30.9889 1.8139 28.6619 0.0000 46.9662 0.0000
# 6 0.0000 0.0000 0.0000 4.6052 0.0000 20.9859
#
#
#
# Elastic Compliance Matrix: (Units=1/GPa)
#
#
# Indices 1 2 3 4 5 6 
#
# 1 0.009716 0.001003 0.003216 0.000000 -0.008412 0.000000
# 2 0.001003 0.041989 0.009147 0.000000 -0.007865 0.000000
# 3 0.003216 0.009147 0.025770 0.000000 -0.018202 0.000000
# 4 0.000000 0.000000 0.000000 0.059392 0.000000 -0.013033
# 5 -0.008412 -0.007865 -0.018202 0.000000 0.038254 0.000000
# 6 0.000000 0.000000 0.000000 -0.013033 0.000000 0.050511
#
#
# Mechanical properties :
#
#
# Convention : Reuss Voigt Hill
#
# Bulk Modulus (GPa) = 9.59646 23.62892 16.61269
# Shear Modulus (GPa) = 21.40075 31.56632 26.48353
#
# Velocity S-wave (km/s) = 2.97990 3.61908 3.31493
# Velocity P-wave (km/s) = 3.97763 5.22188 4.64163
#
# Compressibility (1/GPa) = 0.10420505
#
# Stress axis : x y z
#
# Youngs Moduli (GPa) = 102.92545 23.81562 38.80529
#
# Poissons Ratio (x) = -0.02388 -0.12479
# Poissons Ratio (y) = -0.10319 -0.35494
# Poissons Ratio (z) = -0.33100 -0.21783
#
# Static dielectric constant tensor:
#      x y z
#    x 1.944710 0.000000 0.023610 
#    y 0.000000 1.845950 0.000000 
#    z 0.023610 0.000000 1.948740 
# 
# From -- ./inp_files/359833.got.cif
#   From: 2010.05.17/outbox.cif.g08.bks.cpg/sg12_180_cif.got.tgz:359833.got - 2010.06.03 13:09:07.
