data_PCOD9188091
_publ_section_title
;
Structure prediction by ZEFSAII (Michael W. Deem and Ramdas Pophale) SiO2 
 PCOD9188091
Probable space group: C 2/M
;
_chemical_formula_sum "Si O2"
_cell_formula_units_Z 64
_cell_length_a 15.054856
_cell_length_b 7.776567
_cell_length_c 27.516815
_cell_angle_alpha 90.000000
_cell_angle_beta 106.119423
_cell_angle_gamma 90.000000
_cell_volume 3094.879459
_symmetry_space_group_name_H-M "C 2/M"
_symmetry_group_IT_number 12
_symmetry_cell_setting 'monoclinic'
loop_
_space_group_symop_operation_xyz
x,y,z
-x,y,-z
-x,-y,-z
x,-y,z
1/2+x,1/2+y,z
1/2-x,1/2+y,-z
1/2-x,1/2-y,-z
1/2+x,1/2-y,z
loop_
_atom_site_type_symbol
_atom_site_label
_atom_site_fract_x
_atom_site_fract_y
_atom_site_fract_z
Si Si1 0.282557 0.798899 0.776386
Si Si2 0.288642 0.208031 0.578240
Si Si3 0.895998 0.708982 0.887200
Si Si4 0.240185 0.706680 0.054625
Si Si5 0.622185 0.788412 0.307337
Si Si6 0.921997 0.201473 0.136661
Si Si7 0.926318 0.698197 0.245545
Si Si8 0.101457 0.294376 0.500068
O O1 0.328852 0.731315 0.832899
O O2 0.325607 0.727334 0.733354
O O3 0.172476 0.782863 0.760932
O O4 0.305920 0.000000 0.779855
O O5 0.327069 0.266435 0.635924
O O6 0.183293 0.260646 0.551081
O O7 0.355009 0.270681 0.544316
O O8 0.290721 0.000000 0.577841
O O9 0.899793 0.500000 0.887768
O O10 0.851813 0.765288 0.931414
O O11 0.996621 0.776129 0.889554
O O12 0.242154 0.500000 0.058231
O O13 0.327769 0.770147 0.099039
O O14 0.250000 0.750000 0.000000
O O15 0.515524 0.732057 0.287189
O O16 0.621975 0.000000 0.307133
O O17 0.947446 0.290206 0.191174
O O18 0.909583 0.000000 0.146318
O O19 0.915204 0.500000 0.257585
O O20 0.091995 0.500000 0.493366
O O21 0.000000 0.227429 0.500000
#
# Coordination Sequence:
#
# PCOD9188091 Si02
#       8
#     8   8   8   8   8   8   8   8
#     4  10  19  36  56  77 109 145 180 223 273 323
#     4   9  18  34  54  77 106 144 186 224 270 327
#     4  10  20  38  60  81 109 146 182 222 272 330
#     4  10  23  41  59  81 112 144 179 227 280 325
#     4   9  19  35  54  77 111 147 178 222 277 327
#     4  11  22  38  59  84 112 143 182 227 273 324
#     4  11  21  35  56  83 110 145 186 222 269 331
#     4   9  18  33  54  78 107 144 182 227 279 321
#
# _framework density 20.679317999999999
#
# number of rings (size 3 to 8) (size 9 to 14) (size 15 to 20)
#    0.000    2.125    2.500    0.750    0.000    3.750 
#    0.000    5.625    0.000    0.000    0.000    0.000 
#    0.000    0.000    0.000    0.000    0.000    0.000 
#
# Total GULP energy -178640.455365 kJ/mol
# GULP energy per Si atom -5582.514230 kJ/mol
# Density = 2.063225 g / cm^3
# Si number density = 20.679318 Si / 1000 Ang^3
#
#
#
# Elastic Constant Matrix: (Units=GPa)
#
#
# Indices 1 2 3 4 5 6 
#
# 1 85.2849 -1.4375 -15.0226 0.0000 -4.4866 0.0000
# 2 -1.4375 25.0312 1.7167 0.0000 -1.5380 0.0000
# 3 -15.0226 1.7167 37.9685 0.0000 -1.1718 0.0000
# 4 0.0000 0.0000 0.0000 17.5242 0.0000 2.1049
# 5 -4.4866 -1.5380 -1.1718 0.0000 20.5640 0.0000
# 6 0.0000 0.0000 0.0000 2.1049 0.0000 22.1344
#
#
#
# Elastic Compliance Matrix: (Units=1/GPa)
#
#
# Indices 1 2 3 4 5 6 
#
# 1 0.012805 0.000575 0.005137 0.000000 0.003129 0.000000
# 2 0.000575 0.040274 -0.001499 0.000000 0.003052 0.000000
# 3 0.005137 -0.001499 0.028519 0.000000 0.002634 0.000000
# 4 0.000000 0.000000 0.000000 0.057723 0.000000 -0.005489
# 5 0.003129 0.003052 0.002634 0.000000 0.049690 0.000000
# 6 0.000000 0.000000 0.000000 -0.005489 0.000000 0.045701
#
#
# Mechanical properties :
#
#
# Convention : Reuss Voigt Hill
#
# Bulk Modulus (GPa) = 11.10820 13.19974 12.15397
# Shear Modulus (GPa) = 19.50897 22.91307 21.21102
#
# Velocity S-wave (km/s) = 3.07482 3.33230 3.20615
# Velocity P-wave (km/s) = 4.24139 4.60463 4.42673
#
# Compressibility (1/GPa) = 0.09002355
#
# Stress axis : x y z
#
# Youngs Moduli (GPa) = 78.09717 24.83016 35.06421
#
# Poissons Ratio (x) = -0.01429 -0.18012
# Poissons Ratio (y) = -0.04493 0.05256
# Poissons Ratio (z) = -0.40117 0.03722
#
# Static dielectric constant tensor:
#      x y z
#    x 1.727770 0.000000 -0.009530 
#    y 0.000000 1.778090 0.000000 
#    z -0.009530 0.000000 1.722420 
# 
# From -- ./inp_files/359877.got.cif
#   From: 2010.05.17/outbox.cif.g08.bks.cpg/sg12_180_cif.got.tgz:359877.got - 2010.06.03 13:09:07.
