data_PCOD9188435
_publ_section_title
;
Structure prediction by ZEFSAII (Michael W. Deem and Ramdas Pophale) SiO2 
 PCOD9188435
Probable space group: C 2/M
;
_chemical_formula_sum "Si O2"
_cell_formula_units_Z 36
_cell_length_a 16.699246
_cell_length_b 9.675149
_cell_length_c 11.920788
_cell_angle_alpha 90.000000
_cell_angle_beta 134.854569
_cell_angle_gamma 90.000000
_cell_volume 1365.350160
_symmetry_space_group_name_H-M "C 2/M"
_symmetry_group_IT_number 12
_symmetry_cell_setting 'monoclinic'
loop_
_space_group_symop_operation_xyz
x,y,z
-x,y,-z
-x,-y,-z
x,-y,z
1/2+x,1/2+y,z
1/2-x,1/2+y,-z
1/2-x,1/2-y,-z
1/2+x,1/2-y,z
loop_
_atom_site_type_symbol
_atom_site_label
_atom_site_fract_x
_atom_site_fract_y
_atom_site_fract_z
Si Si1 0.736493 0.500000 0.826979
Si Si2 0.867629 0.500000 0.185550
Si Si3 0.547296 0.230139 0.423281
Si Si4 0.645935 0.500000 0.110900
Si Si5 0.152635 0.500000 0.420955
Si Si6 0.122552 0.697606 0.175020
Si Si7 0.491218 0.500000 0.259994
O O1 0.773678 0.633508 0.794006
O O2 0.611559 0.500000 0.751576
O O3 0.814463 0.500000 0.012242
O O4 0.947504 0.632521 0.275152
O O5 0.768907 0.500000 0.176834
O O6 0.500000 0.263623 0.500000
O O7 0.649730 0.123456 0.514658
O O8 0.562171 0.365947 0.363560
O O9 0.625417 0.361837 0.161453
O O10 0.565951 0.500000 0.918699
O O11 0.136727 0.621343 0.307475
O O12 0.000000 0.657006 0.000000
#
# Coordination Sequence:
#
# PCOD9188435 Si02
#       7
#     4   4   8   4   4   8   4
#     4  10  20  35  58  87 118 150 177 231 298 349
#     4  10  19  36  59  85 116 147 189 233 287 339
#     4  11  22  39  62  83 110 152 198 238 273 325
#     4  11  22  34  57  92 122 146 176 234 295 344
#     4  10  21  36  56  79 109 149 191 231 273 328
#     4  11  20  33  54  83 120 152 182 221 285 353
#     4  11  22  37  58  89 121 144 185 237 288 336
#
# _framework density 26.366862999999999
#
# number of rings (size 3 to 8) (size 9 to 14) (size 15 to 20)
#    0.000    1.333    0.000   10.000    0.000    4.444 
#    0.000    0.000    0.000   21.333    0.000    0.000 
#    0.000    0.000    0.000    0.000    0.000    0.000 
#
# Total GULP energy -100407.482680 kJ/mol
# GULP energy per Si atom -5578.193482 kJ/mol
# Density = 2.630685 g / cm^3
# Si number density = 26.366863 Si / 1000 Ang^3
#
#
#
# Elastic Constant Matrix: (Units=GPa)
#
#
# Indices 1 2 3 4 5 6 
#
# 1 114.9635 30.4791 24.5139 0.0000 -12.3978 0.0000
# 2 30.4791 279.2790 52.0707 0.0000 -25.1157 0.0000
# 3 24.5139 52.0707 127.2483 0.0000 -31.8980 0.0000
# 4 0.0000 0.0000 0.0000 40.1773 0.0000 -24.2867
# 5 -12.3978 -25.1157 -31.8980 0.0000 44.8344 0.0000
# 6 0.0000 0.0000 0.0000 -24.2867 0.0000 15.3253
#
#
#
# Elastic Compliance Matrix: (Units=1/GPa)
#
#
# Indices 1 2 3 4 5 6 
#
# 1 0.009272 -0.000672 -0.001172 0.000000 0.001354 0.000000
# 2 -0.000672 0.003985 -0.001203 0.000000 0.001191 0.000000
# 3 -0.001172 -0.001203 0.010134 0.000000 0.006212 0.000000
# 4 0.000000 0.000000 0.000000 0.592055 0.000000 0.938258
# 5 0.001354 0.001191 0.006212 0.000000 0.027765 0.000000
# 6 0.000000 0.000000 0.000000 0.938258 0.000000 1.552155
#
#
# Mechanical properties :
#
#
# Convention : Reuss Voigt Hill
#
# Bulk Modulus (GPa) = 57.80875 81.73535 69.77205
# Shear Modulus (GPa) = 2.26529 47.69588 24.98058
#
# Velocity S-wave (km/s) = 0.92790 4.25777 3.08136
# Velocity P-wave (km/s) = 4.80837 7.43223 6.25933
#
# Compressibility (1/GPa) = 0.01729842
#
# Stress axis : x y z
#
# Youngs Moduli (GPa) = 107.84681 250.92028 98.67929
#
# Poissons Ratio (x) = 0.16853 0.11566
# Poissons Ratio (y) = 0.07244 0.11870
# Poissons Ratio (z) = 0.12640 0.30182
#
# Static dielectric constant tensor:
#      x y z
#    x 2.166200 0.000000 0.074220 
#    y 0.000000 2.071190 0.000000 
#    z 0.074220 0.000000 2.118290 
# 
# From -- ./inp_files/162877.got.cif
#   From: 2010.05.17/outbox.cif.g08.bks.cpg/sg12_82_cif.got.tgz:162877.got - 2010.06.03 13:09:07.
