data_PCOD9188421
_publ_section_title
;
Structure prediction by ZEFSAII (Michael W. Deem and Ramdas Pophale) SiO2 
 PCOD9188421
Probable space group: C 2/M
;
_chemical_formula_sum "Si O2"
_cell_formula_units_Z 48
_cell_length_a 16.576953
_cell_length_b 15.701494
_cell_length_c 14.745850
_cell_angle_alpha 90.000000
_cell_angle_beta 141.713078
_cell_angle_gamma 90.000000
_cell_volume 2378.081999
_symmetry_space_group_name_H-M "C 2/M"
_symmetry_group_IT_number 12
_symmetry_cell_setting 'monoclinic'
loop_
_space_group_symop_operation_xyz
x,y,z
-x,y,-z
-x,-y,-z
x,-y,z
1/2+x,1/2+y,z
1/2-x,1/2+y,-z
1/2-x,1/2-y,-z
1/2+x,1/2-y,z
loop_
_atom_site_type_symbol
_atom_site_label
_atom_site_fract_x
_atom_site_fract_y
_atom_site_fract_z
Si Si1 0.390275 0.737281 0.581429
Si Si2 0.567841 0.138035 0.646352
Si Si3 0.309834 0.901335 0.944374
Si Si4 0.717582 0.299556 0.695075
Si Si5 0.680354 0.406974 0.024578
Si Si6 0.002137 0.756846 0.134751
O O1 0.250000 0.750000 0.500000
O O2 0.451024 0.827451 0.604989
O O3 0.365097 0.680976 0.469392
O O4 0.476245 0.711533 0.742757
O O5 0.500000 0.095420 0.500000
O O6 0.637851 0.224059 0.672256
O O7 0.681169 0.092966 0.801185
O O8 0.240937 0.872398 0.789974
O O9 0.353009 0.000000 0.976923
O O10 0.218924 0.893728 0.953061
O O11 0.423707 0.831906 0.060003
O O12 0.858348 0.262434 0.787468
O O13 0.618278 0.500000 0.979890
O O14 0.590170 0.331836 0.983416
#
# Coordination Sequence:
#
# PCOD9188421 Si02
#       6
#     8   8   8   8   8   8
#     4   9  19  35  60  86 115 162 204 243 299 366
#     4  10  19  36  59  84 116 154 202 251 306 358
#     4  11  22  36  60  92 123 157 200 250 307 367
#     4  10  21  35  59  91 119 159 199 244 305 367
#     4  11  23  38  60  90 121 163 208 254 310 366
#     4  11  20  38  61  86 124 160 203 251 301 360
#
# _framework density 20.184334
#
# number of rings (size 3 to 8) (size 9 to 14) (size 15 to 20)
#    0.000    1.667    3.333    2.000    0.000    1.667 
#    0.000    2.500    0.000   18.500    0.000    0.000 
#    0.000    0.000    0.000    0.000    0.000    0.000 
#
# Total GULP energy -133746.457388 kJ/mol
# GULP energy per Si atom -5572.769058 kJ/mol
# Density = 2.013839 g / cm^3
# Si number density = 20.184334 Si / 1000 Ang^3
#
#
#
# Elastic Constant Matrix: (Units=GPa)
#
#
# Indices 1 2 3 4 5 6 
#
# 1 56.3051 49.9096 23.2565 0.0000 -7.4782 0.0000
# 2 49.9096 112.9762 40.9184 0.0000 20.3891 0.0000
# 3 23.2565 40.9184 135.1474 0.0000 -19.7132 0.0000
# 4 0.0000 0.0000 0.0000 2.5634 0.0000 -4.1854
# 5 -7.4782 20.3891 -19.7132 0.0000 34.5472 0.0000
# 6 0.0000 0.0000 0.0000 -4.1854 0.0000 5.9427
#
#
#
# Elastic Compliance Matrix: (Units=1/GPa)
#
#
# Indices 1 2 3 4 5 6 
#
# 1 0.040720 -0.023955 0.003920 -0.000001 0.025189 -0.000001
# 2 -0.023955 0.026806 -0.007699 0.000001 -0.025399 0.000001
# 3 0.003920 -0.007699 0.010736 -0.000001 0.011518 0.000000
# 4 -0.000001 0.000001 -0.000001 -2.601294 -0.000002 -1.832096
# 5 0.025189 -0.025399 0.011518 -0.000002 0.055960 -0.000001
# 6 -0.000001 0.000001 0.000000 -1.832096 -0.000001 -1.122074
#
#
# Mechanical properties :
#
#
# Convention : Reuss Voigt Hill
#
# Bulk Modulus (GPa) = 43.86930 59.17750 51.52340
# Shear Modulus (GPa) = -1.41801 21.30028 9.94114
#
# Velocity S-wave (km/s) = -0.83908 3.25204 2.22168
# Velocity P-wave (km/s) = 4.56539 6.59418 5.67124
#
# Compressibility (1/GPa) = 0.02279499
#
# Stress axis : x y z
#
# Youngs Moduli (GPa) = 24.55768 37.30525 93.14622
#
# Poissons Ratio (x) = 0.89363 -0.36509
# Poissons Ratio (y) = 0.58827 0.71709
# Poissons Ratio (z) = -0.09625 0.28720
#
# Static dielectric constant tensor:
#      x y z
#    x 1.737440 0.000000 -0.039010 
#    y 0.000000 1.766320 0.000000 
#    z -0.039010 0.000000 1.811700 
# 
# From -- ./inp_files/225456.got.cif
#   From: 2010.05.17/outbox.cif.g08.bks.cpg/sg12_113_cif.got.tgz:225456.got - 2010.06.03 13:09:07.
