data_PCOD9188368
_publ_section_title
;
Structure prediction by ZEFSAII (Michael W. Deem and Ramdas Pophale) SiO2 
 PCOD9188368
Probable space group: C 2/M
;
_chemical_formula_sum "Si O2"
_cell_formula_units_Z 56
_cell_length_a 16.556040
_cell_length_b 9.222600
_cell_length_c 21.591570
_cell_angle_alpha 90.000000
_cell_angle_beta 127.356132
_cell_angle_gamma 90.000000
_cell_volume 2620.567286
_symmetry_space_group_name_H-M "C 2/M"
_symmetry_group_IT_number 12
_symmetry_cell_setting 'monoclinic'
loop_
_space_group_symop_operation_xyz
x,y,z
-x,y,-z
-x,-y,-z
x,-y,z
1/2+x,1/2+y,z
1/2-x,1/2+y,-z
1/2-x,1/2-y,-z
1/2+x,1/2-y,z
loop_
_atom_site_type_symbol
_atom_site_label
_atom_site_fract_x
_atom_site_fract_y
_atom_site_fract_z
Si Si1 0.763953 0.676098 0.178661
Si Si2 0.198608 0.337328 0.607985
Si Si3 0.954399 0.326434 0.910566
Si Si4 0.604239 0.843492 0.434667
Si Si5 0.376092 0.156917 0.698059
Si Si6 0.908785 0.168247 0.344886
Si Si7 0.910422 0.330957 0.141172
O O1 0.761473 0.500000 0.179023
O O2 0.653342 0.743916 0.140586
O O3 0.842078 0.737585 0.266070
O O4 0.812567 0.723579 0.134086
O O5 0.173465 0.500000 0.616041
O O6 0.183710 0.333402 0.527141
O O7 0.308347 0.292031 0.685338
O O8 0.125914 0.217845 0.603323
O O9 0.938108 0.500000 0.892230
O O10 0.037061 0.273374 0.897558
O O11 0.000000 0.308768 0.000000
O O12 0.644650 0.852867 0.384303
O O13 0.525641 0.713262 0.396280
O O14 0.549784 0.000000 0.420319
O O15 0.494280 0.175628 0.766935
O O16 0.346137 0.000000 0.712265
O O17 0.893046 0.000000 0.325803
O O18 0.888239 0.500000 0.117831
#
# Coordination Sequence:
#
# PCOD9188368 Si02
#       7
#     8   8   8   8   8   8   8
#     4  11  22  41  67  92 122 164 212 258 311 370
#     4  11  23  36  54  82 117 156 203 256 312 367
#     4  10  22  41  65  98 136 168 201 245 302 372
#     4  10  21  38  57  80 114 157 200 253 313 364
#     4  10  19  36  59  81 113 156 205 253 306 364
#     4  12  24  38  58  84 115 153 203 255 311 372
#     4   9  19  38  64  89 122 168 207 248 309 368
#
# _framework density 21.369416999999999
#
# number of rings (size 3 to 8) (size 9 to 14) (size 15 to 20)
#    0.000    1.571    1.429    3.857    0.000    5.429 
#    0.000    1.429    0.000    0.000    0.000    0.000 
#    0.000    0.000    0.000    0.000    0.000    0.000 
#
# Total GULP energy -156109.210553 kJ/mol
# GULP energy per Si atom -5575.328948 kJ/mol
# Density = 2.132078 g / cm^3
# Si number density = 21.369417 Si / 1000 Ang^3
#
#
#
# Elastic Constant Matrix: (Units=GPa)
#
#
# Indices 1 2 3 4 5 6 
#
# 1 42.1106 9.0945 12.3385 0.0000 -19.2997 0.0000
# 2 9.0945 73.7008 17.0489 0.0000 3.2491 0.0000
# 3 12.3385 17.0489 72.5959 0.0000 -16.9389 0.0000
# 4 0.0000 0.0000 0.0000 0.1249 0.0000 3.5822
# 5 -19.2997 3.2491 -16.9389 0.0000 32.2350 0.0000
# 6 0.0000 0.0000 0.0000 3.5822 0.0000 28.8083
#
#
#
# Elastic Compliance Matrix: (Units=1/GPa)
#
#
# Indices 1 2 3 4 5 6 
#
# 1 0.034617 -0.005302 0.000367 0.000000 0.021453 0.000000
# 2 -0.005302 0.015551 -0.004396 0.000000 -0.007052 0.000000
# 3 0.000367 -0.004396 0.016982 0.000000 0.009587 0.000000
# 4 0.000000 0.000000 0.000000 -3.119483 0.000000 0.387896
# 5 0.021453 -0.007052 0.009587 0.000000 0.049615 0.000000
# 6 0.000000 0.000000 0.000000 0.387896 0.000000 -0.013521
#
#
# Mechanical properties :
#
#
# Convention : Reuss Voigt Hill
#
# Bulk Modulus (GPa) = 20.62425 29.48566 25.05496
# Shear Modulus (GPa) = -1.67706 22.22867 10.27581
#
# Velocity S-wave (km/s) = -0.88685 3.22873 2.19524
# Velocity P-wave (km/s) = 2.93659 5.26570 4.26328
#
# Compressibility (1/GPa) = 0.04848660
#
# Stress axis : x y z
#
# Youngs Moduli (GPa) = 28.88777 64.30647 58.88670
#
# Poissons Ratio (x) = 0.34098 -0.02164
# Poissons Ratio (y) = 0.15317 0.25888
# Poissons Ratio (z) = -0.01061 0.28271
#
# Static dielectric constant tensor:
#      x y z
#    x 1.851240 0.000000 -0.052990 
#    y 0.000000 1.772080 0.000000 
#    z -0.052990 0.000000 1.765250 
# 
# From -- ./inp_files/314360.got.cif
#   From: 2010.05.17/outbox.cif.g08.bks.cpg/sg12_158_cif.got.tgz:314360.got - 2010.06.03 13:09:07.
