data_PCOD9188682
_publ_section_title
;
Structure prediction by ZEFSAII (Michael W. Deem and Ramdas Pophale) SiO2 
 PCOD9188682
Probable space group: C 2/M
;
_chemical_formula_sum "Si O2"
_cell_formula_units_Z 64
_cell_length_a 20.839023
_cell_length_b 9.019977
_cell_length_c 20.787391
_cell_angle_alpha 90.000000
_cell_angle_beta 107.487445
_cell_angle_gamma 90.000000
_cell_volume 3726.767202
_symmetry_space_group_name_H-M "C 2/M"
_symmetry_group_IT_number 12
_symmetry_cell_setting 'monoclinic'
loop_
_space_group_symop_operation_xyz
x,y,z
-x,y,-z
-x,-y,-z
x,-y,z
1/2+x,1/2+y,z
1/2-x,1/2+y,-z
1/2-x,1/2-y,-z
1/2+x,1/2-y,z
loop_
_atom_site_type_symbol
_atom_site_label
_atom_site_fract_x
_atom_site_fract_y
_atom_site_fract_z
Si Si1 0.663458 0.321680 0.646177
Si Si2 0.419907 0.828537 0.991763
Si Si3 0.949547 0.821898 0.129811
Si Si4 0.564835 0.679957 0.730599
Si Si5 0.105320 0.177527 0.145624
Si Si6 0.580523 0.678306 0.369448
Si Si7 0.421785 0.823289 0.493380
Si Si8 0.308173 0.678210 0.705458
O O1 0.663007 0.500000 0.642272
O O2 0.621989 0.275432 0.697584
O O3 0.624698 0.254767 0.573433
O O4 0.738592 0.260324 0.672749
O O5 0.384549 0.751889 0.920466
O O6 0.401390 0.000000 0.990311
O O7 0.500000 0.818834 0.000000
O O8 0.412123 0.749714 0.057998
O O9 0.926273 0.770176 0.193187
O O10 0.029390 0.787630 0.146959
O O11 0.943163 0.000000 0.123883
O O12 0.564042 0.500000 0.732438
O O13 0.491775 0.724390 0.681422
O O14 0.157633 0.221719 0.216505
O O15 0.108151 0.000000 0.139159
O O16 0.578413 0.500000 0.378982
O O17 0.592146 0.758843 0.440252
O O18 0.638350 0.709482 0.334959
O O19 0.500000 0.793056 0.500000
O O20 0.411430 0.000000 0.488854
O O21 0.297763 0.500000 0.703335
#
# Coordination Sequence:
#
# PCOD9188682 Si02
#       8
#     8   8   8   8   8   8   8   8
#     4  11  23  38  58  81 109 145 180 218 269 329
#     4   9  17  27  41  71 111 142 169 211 265 314
#     4   9  15  28  51  77 102 132 177 223 260 309
#     4   9  17  32  56  82 104 134 181 225 262 313
#     4   9  16  29  51  75 101 139 177 214 262 313
#     4  10  19  36  61  83 105 140 182 224 267 317
#     4  11  23  38  57  83 112 140 175 224 274 318
#     4  10  21  37  57  82 112 142 179 226 271 317
#
# _framework density 17.173061000000001
#
# number of rings (size 3 to 8) (size 9 to 14) (size 15 to 20)
#    0.000    2.250    2.500    1.125    0.000    3.500 
#    0.000    1.875    0.000    0.750    0.000    0.000 
#    0.000    0.000    0.000    0.000    0.000    0.000 
#
# Total GULP energy -178515.060590 kJ/mol
# GULP energy per Si atom -5578.595643 kJ/mol
# Density = 1.713397 g / cm^3
# Si number density = 17.173061 Si / 1000 Ang^3
#
#
#
# Elastic Constant Matrix: (Units=GPa)
#
#
# Indices 1 2 3 4 5 6 
#
# 1 89.4360 42.3156 65.6109 0.0000 -0.6116 0.0000
# 2 42.3156 40.1827 62.0975 0.0000 0.6777 0.0000
# 3 65.6109 62.0975 175.5984 0.0000 -16.4278 0.0000
# 4 0.0000 0.0000 0.0000 5.5219 0.0000 2.5694
# 5 -0.6116 0.6777 -16.4278 0.0000 25.1348 0.0000
# 6 0.0000 0.0000 0.0000 2.5694 0.0000 18.5942
#
#
#
# Elastic Compliance Matrix: (Units=1/GPa)
#
#
# Indices 1 2 3 4 5 6 
#
# 1 0.022323 -0.023891 0.000233 0.000000 0.001340 0.000000
# 2 -0.023891 0.086397 -0.023325 0.000000 -0.018156 0.000000
# 3 0.000233 -0.023325 0.014822 0.000000 0.010322 0.000000
# 4 0.000000 0.000000 0.000000 0.193542 0.000000 -0.026744
# 5 0.001340 -0.018156 0.010322 0.000000 0.047054 0.000000
# 6 0.000000 0.000000 0.000000 -0.026744 0.000000 0.057476
#
#
# Mechanical properties :
#
#
# Convention : Reuss Voigt Hill
#
# Bulk Modulus (GPa) = 33.81003 71.69614 52.75309
# Shear Modulus (GPa) = 9.51588 18.86304 14.18946
#
# Velocity S-wave (km/s) = 2.35652 3.31782 2.87760
# Velocity P-wave (km/s) = 5.20911 7.51778 6.46730
#
# Compressibility (1/GPa) = 0.02957702
#
# Stress axis : x y z
#
# Youngs Moduli (GPa) = 44.79708 11.57445 67.46783
#
# Poissons Ratio (x) = 0.27652 -0.01572
# Poissons Ratio (y) = 1.07023 1.57368
# Poissons Ratio (z) = -0.01044 0.26997
#
# Static dielectric constant tensor:
#      x y z
#    x 1.564270 0.000000 -0.009650 
#    y 0.000000 1.570400 0.000000 
#    z -0.009650 0.000000 1.570630 
# 
# From -- ./inp_files/320099.got.cif
#   From: 2010.05.17/outbox.cif.g08.bks.cpg/sg12_161_cif.got.tgz:320099.got - 2010.06.03 13:09:07.
