data_PCOD9188206
_publ_section_title
;
Structure prediction by ZEFSAII (Michael W. Deem and Ramdas Pophale) SiO2 
 PCOD9188206
Probable space group: C 2/M
;
_chemical_formula_sum "Si O2"
_cell_formula_units_Z 56
_cell_length_a 14.836156
_cell_length_b 22.923148
_cell_length_c 14.324756
_cell_angle_alpha 90.000000
_cell_angle_beta 28.915691
_cell_angle_gamma 90.000000
_cell_volume 2355.587435
_symmetry_space_group_name_H-M "C 2/M"
_symmetry_group_IT_number 12
_symmetry_cell_setting 'monoclinic'
loop_
_space_group_symop_operation_xyz
x,y,z
-x,y,-z
-x,-y,-z
x,-y,z
1/2+x,1/2+y,z
1/2-x,1/2+y,-z
1/2-x,1/2-y,-z
1/2+x,1/2-y,z
loop_
_atom_site_type_symbol
_atom_site_label
_atom_site_fract_x
_atom_site_fract_y
_atom_site_fract_z
Si Si1 0.754850 0.315074 0.330266
Si Si2 0.866271 0.569409 0.319445
Si Si3 0.178333 0.567716 0.286921
Si Si4 0.858853 0.776735 0.757291
Si Si5 0.152881 0.897536 0.687413
Si Si6 0.041587 0.781502 0.120768
Si Si7 0.764348 0.069433 0.003327
O O1 0.752183 0.381392 0.368208
O O2 0.574507 0.278503 0.530204
O O3 0.739814 0.315561 0.232108
O O4 0.933350 0.279919 0.207327
O O5 0.834102 0.500000 0.331505
O O6 0.822720 0.583358 0.467870
O O7 0.084209 0.584715 0.106716
O O8 0.130727 0.500000 0.312052
O O9 0.333220 0.569671 0.227172
O O10 0.237461 0.592149 0.133743
O O11 0.000000 0.596455 0.500000
O O12 0.874026 0.792413 0.852665
O O13 0.716948 0.721636 0.891161
O O14 0.116118 0.830620 0.747174
O O15 0.972930 0.914304 0.789087
O O16 0.761076 0.000000 0.009176
#
# Coordination Sequence:
#
# PCOD9188206 Si02
#       7
#     8   8   8   8   8   8   8
#     4  11  24  46  72  98 140 183 225 285 348 404
#     4  11  24  42  67  98 134 179 233 285 340 407
#     4  10  19  36  57  85 131 176 222 286 347 403
#     4  10  24  45  69 100 135 174 226 282 345 407
#     4  12  23  38  64  93 134 174 233 282 345 415
#     4  11  25  44  70 101 135 178 224 282 345 412
#     4  10  22  37  58  89 129 179 228 286 348 405
#
# _framework density 23.773261999999999
#
# number of rings (size 3 to 8) (size 9 to 14) (size 15 to 20)
#    0.000    1.286    2.857    2.571    4.000    3.429 
#    2.571    1.429    0.000    1.714    0.000    0.000 
#    0.000    0.000    0.000    0.000    0.000    0.000 
#
# Total GULP energy -156145.191223 kJ/mol
# GULP energy per Si atom -5576.613972 kJ/mol
# Density = 2.371915 g / cm^3
# Si number density = 23.773262 Si / 1000 Ang^3
#
#
#
# Elastic Constant Matrix: (Units=GPa)
#
#
# Indices 1 2 3 4 5 6 
#
# 1 91.3155 26.2369 16.3769 0.0019 7.4043 -0.0069
# 2 26.2369 114.2621 23.4619 -0.0259 -6.2188 0.0019
# 3 16.3769 23.4619 84.6366 -0.0005 -14.7211 -0.0235
# 4 0.0019 -0.0259 -0.0005 21.7356 0.0380 -1.2276
# 5 7.4043 -6.2188 -14.7211 0.0380 27.7458 -0.0175
# 6 -0.0069 0.0019 -0.0235 -1.2276 -0.0175 12.2274
#
#
#
# Elastic Compliance Matrix: (Units=1/GPa)
#
#
# Indices 1 2 3 4 5 6 
#
# 1 0.012620 -0.002647 -0.002641 0.000005 -0.005362 -0.000005
# 2 -0.002647 0.009851 -0.001886 0.000008 0.001914 -0.000003
# 3 -0.002641 -0.001886 0.014209 -0.000013 0.007821 0.000036
# 4 0.000005 0.000008 -0.000013 0.046270 -0.000067 0.004645
# 5 -0.005362 0.001914 0.007821 -0.000067 0.042051 0.000065
# 6 -0.000005 -0.000003 0.000036 0.004645 0.000065 0.082250
#
#
# Mechanical properties :
#
#
# Convention : Reuss Voigt Hill
#
# Bulk Modulus (GPa) = 44.77709 46.92950 45.85329
# Shear Modulus (GPa) = 21.82988 27.28432 24.55710
#
# Velocity S-wave (km/s) = 3.03356 3.39143 3.21747
# Velocity P-wave (km/s) = 5.58085 5.92613 5.75608
#
# Compressibility (1/GPa) = 0.02233285
#
# Stress axis : x y z
#
# Youngs Moduli (GPa) = 79.23857 101.51188 70.37661
#
# Poissons Ratio (x) = 0.26875 0.18585
# Poissons Ratio (y) = 0.20978 0.13270
# Poissons Ratio (z) = 0.20925 0.19141
#
# Static dielectric constant tensor:
#      x y z
#    x 1.929430 -0.000090 -0.062110 
#    y -0.000090 1.931260 0.000130 
#    z -0.062110 0.000130 1.982620 
# 
# From -- ./inp_files/218652.got.cif
#   From: 2010.05.17/outbox.cif.g08.bks.cpg/sg12_110_cif.got.tgz:218652.got - 2010.06.03 13:09:07.
