data_PCOD9188347
_publ_section_title
;
Structure prediction by ZEFSAII (Michael W. Deem and Ramdas Pophale) SiO2 
 PCOD9188347
Probable space group: C 2/M
;
_chemical_formula_sum "Si O2"
_cell_formula_units_Z 48
_cell_length_a 15.912945
_cell_length_b 12.801350
_cell_length_c 14.395472
_cell_angle_alpha 90.000000
_cell_angle_beta 58.544562
_cell_angle_gamma 90.000000
_cell_volume 2501.524938
_symmetry_space_group_name_H-M "C 2/M"
_symmetry_group_IT_number 12
_symmetry_cell_setting 'monoclinic'
loop_
_space_group_symop_operation_xyz
x,y,z
-x,y,-z
-x,-y,-z
x,-y,z
1/2+x,1/2+y,z
1/2-x,1/2+y,-z
1/2-x,1/2-y,-z
1/2+x,1/2-y,z
loop_
_atom_site_type_symbol
_atom_site_label
_atom_site_fract_x
_atom_site_fract_y
_atom_site_fract_z
Si Si1 0.602528 0.120686 0.235091
Si Si2 0.485065 0.619243 0.151996
Si Si3 0.660813 0.622114 0.405386
Si Si4 0.792495 0.242854 0.206630
Si Si5 0.146213 0.288206 0.019119
Si Si6 0.010093 0.816233 0.640309
O O1 0.702670 0.172501 0.218336
O O2 0.605718 0.133595 0.120900
O O3 0.516859 0.195362 0.324396
O O4 0.594158 0.000000 0.265123
O O5 0.494361 0.500000 0.117323
O O6 0.380996 0.668622 0.185032
O O7 0.571141 0.691138 0.060884
O O8 0.493701 0.628103 0.258442
O O9 0.682660 0.500000 0.403106
O O10 0.751732 0.688768 0.314809
O O11 0.575905 0.637279 0.375661
O O12 0.611449 0.665980 0.527568
O O13 0.831007 0.316938 0.100216
O O14 0.250000 0.250000 0.000000
#
# Coordination Sequence:
#
# PCOD9188347 Si02
#       6
#     8   8   8   8   8   8
#     4   9  18  35  56  77 108 145 179 224 273 313
#     4  11  21  35  57  81 110 144 176 220 275 320
#     4  10  19  36  59  78 107 145 181 224 267 312
#     4  10  21  34  51  84 114 138 179 223 267 327
#     4   9  20  35  52  77 106 136 179 221 254 315
#     4   9  19  35  56  83 105 136 191 230 256 315
#
# _framework density 19.188296999999999
#
# number of rings (size 3 to 8) (size 9 to 14) (size 15 to 20)
#    0.000    2.333    0.000    4.000    0.000    5.333 
#    0.000   10.833    0.000    5.000    0.000    0.000 
#    0.000    0.000    0.000    0.000    0.000    0.000 
#
# Total GULP energy -133898.838140 kJ/mol
# GULP energy per Si atom -5579.118256 kJ/mol
# Density = 1.914462 g / cm^3
# Si number density = 19.188297 Si / 1000 Ang^3
#
#
#
# Elastic Constant Matrix: (Units=GPa)
#
#
# Indices 1 2 3 4 5 6 
#
# 1 33.8229 20.2123 9.4327 0.0000 -14.5475 0.0000
# 2 20.2123 135.7177 37.5160 0.0000 -23.8643 0.0000
# 3 9.4327 37.5160 96.0057 0.0000 -13.8771 0.0000
# 4 0.0000 0.0000 0.0000 -2.8704 0.0000 -1.4458
# 5 -14.5475 -23.8643 -13.8771 0.0000 25.3012 0.0000
# 6 0.0000 0.0000 0.0000 -1.4458 0.0000 17.8437
#
#
#
# Elastic Compliance Matrix: (Units=1/GPa)
#
#
# Indices 1 2 3 4 5 6 
#
# 1 0.039862 -0.002280 -0.000026 0.000000 0.020755 0.000000
# 2 -0.002280 0.009524 -0.002594 0.000000 0.006249 0.000000
# 3 -0.000026 -0.002594 0.012030 0.000000 0.004137 0.000000
# 4 0.000000 0.000000 0.000000 -0.334725 0.000000 -0.027121
# 5 0.020755 0.006249 0.004137 0.000000 0.059621 0.000000
# 6 0.000000 0.000000 0.000000 -0.027121 0.000000 0.053845
#
#
# Mechanical properties :
#
#
# Convention : Reuss Voigt Hill
#
# Bulk Modulus (GPa) = 19.37357 44.42983 31.90170
# Shear Modulus (GPa) = -37.63999 21.28057 -8.17971
#
# Velocity S-wave (km/s) = -4.43381 3.33384 -2.06691
# Velocity P-wave (km/s) = 4.01162 6.16638 3.31142
#
# Compressibility (1/GPa) = 0.05161671
#
# Stress axis : x y z
#
# Youngs Moduli (GPa) = 25.08629 105.00063 83.12365
#
# Poissons Ratio (x) = 0.23941 0.00212
# Poissons Ratio (y) = 0.05720 0.21565
# Poissons Ratio (z) = 0.00064 0.27240
#
# Static dielectric constant tensor:
#      x y z
#    x 1.669750 0.000000 0.014050 
#    y 0.000000 1.631440 0.000000 
#    z 0.014050 0.000000 1.696460 
# 
# From -- ./inp_files/213252.got.cif
#   From: 2010.05.17/outbox.cif.g08.bks.cpg/sg12_107_cif.got.tgz:213252.got - 2010.06.03 13:09:07.
