data_PCOD9188786
_publ_section_title
;
Structure prediction by ZEFSAII (Michael W. Deem and Ramdas Pophale) SiO2 
 PCOD9188786
Probable space group: C 2/M
;
_chemical_formula_sum "Si O2"
_cell_formula_units_Z 48
_cell_length_a 14.432672
_cell_length_b 23.636313
_cell_length_c 15.066419
_cell_angle_alpha 90.000000
_cell_angle_beta 154.280790
_cell_angle_gamma 90.000000
_cell_volume 2230.423787
_symmetry_space_group_name_H-M "C 2/M"
_symmetry_group_IT_number 12
_symmetry_cell_setting 'monoclinic'
loop_
_space_group_symop_operation_xyz
x,y,z
-x,y,-z
-x,-y,-z
x,-y,z
1/2+x,1/2+y,z
1/2-x,1/2+y,-z
1/2-x,1/2-y,-z
1/2+x,1/2-y,z
loop_
_atom_site_type_symbol
_atom_site_label
_atom_site_fract_x
_atom_site_fract_y
_atom_site_fract_z
Si Si1 0.096788 0.187296 0.937433
Si Si2 0.253523 0.500000 0.268779
Si Si3 0.862145 0.377503 0.293759
Si Si4 0.716824 0.621767 0.458333
Si Si5 0.704330 0.000000 0.424868
Si Si6 0.026949 0.688975 0.188497
Si Si7 0.136424 0.500000 0.708765
Si Si8 0.000000 0.604027 0.000000
O O1 0.965786 0.245487 0.833067
O O2 0.945727 0.142914 0.756243
O O3 0.194717 0.167534 0.114981
O O4 0.308584 0.189959 0.057934
O O5 0.500000 0.500000 0.500000
O O6 0.133028 0.500000 0.260709
O O7 0.192155 0.558480 0.168149
O O8 0.752550 0.439321 0.200661
O O9 0.000000 0.364713 0.500000
O O10 0.049763 0.382510 0.383594
O O11 0.668345 0.558587 0.450531
O O12 0.764799 0.667818 0.576769
O O13 0.514028 0.000000 0.333404
O O14 0.000750 0.644632 0.085893
O O15 0.000000 0.500000 0.500000
#
# Coordination Sequence:
#
# PCOD9188786 Si02
#       8
#     8   4   8   8   4   8   4   4
#     4  10  22  38  60  85 114 159 204 246 309 368
#     4  11  25  42  61  98 128 163 217 265 312 384
#     4   9  19  35  56  85 118 150 196 246 298 371
#     4  10  20  37  58  83 120 155 197 251 306 366
#     4  10  19  36  61  90 122 162 204 251 319 371
#     4  10  22  40  57  85 117 157 205 250 304 372
#     4   8  16  34  59  85 123 163 190 246 320 373
#     4  11  24  42  66  86 128 169 206 264 322 365
#
# _framework density 21.520572999999999
#
# number of rings (size 3 to 8) (size 9 to 14) (size 15 to 20)
#    0.000    2.167    1.667    0.500    2.333    2.667 
#    0.000    1.667    0.000    6.000    0.000    0.000 
#    0.000    0.000    0.000    0.000    0.000    0.000 
#
# Total GULP energy -133745.399927 kJ/mol
# GULP energy per Si atom -5572.724997 kJ/mol
# Density = 2.147159 g / cm^3
# Si number density = 21.520573 Si / 1000 Ang^3
#
#
#
# Elastic Constant Matrix: (Units=GPa)
#
#
# Indices 1 2 3 4 5 6 
#
# 1 54.3127 7.5530 8.5831 0.0001 -15.7249 0.0000
# 2 7.5530 162.1326 63.1781 0.0001 -35.2416 0.0000
# 3 8.5831 63.1781 106.8949 0.0002 -22.7738 0.0000
# 4 0.0001 0.0001 0.0002 7.0189 0.0001 -18.9183
# 5 -15.7249 -35.2416 -22.7738 0.0001 35.5536 0.0000
# 6 0.0000 0.0000 0.0000 -18.9183 0.0000 15.2734
#
#
#
# Elastic Compliance Matrix: (Units=1/GPa)
#
#
# Indices 1 2 3 4 5 6 
#
# 1 0.021351 0.001441 -0.000289 0.000000 0.010686 0.000000
# 2 0.001441 0.009243 -0.004043 0.000000 0.007210 0.000000
# 3 -0.000289 -0.004043 0.012607 0.000000 0.003940 0.000000
# 4 0.000000 0.000000 0.000000 -0.060924 0.000001 -0.075463
# 5 0.010686 0.007210 0.003940 0.000001 0.042523 0.000001
# 6 0.000000 0.000000 0.000000 -0.075463 0.000001 -0.027998
#
#
# Mechanical properties :
#
#
# Convention : Reuss Voigt Hill
#
# Bulk Modulus (GPa) = 26.72425 53.55208 40.13816
# Shear Modulus (GPa) = 332.04463 27.83760 179.94112
#
# Velocity S-wave (km/s) = 12.43490 3.60048 9.15396
# Velocity P-wave (km/s) = 14.78560 6.49790 11.42008
#
# Compressibility (1/GPa) = 0.03741920
#
# Stress axis : x y z
#
# Youngs Moduli (GPa) = 46.83581 108.18902 79.32108
#
# Poissons Ratio (x) = -0.15589 0.02295
# Poissons Ratio (y) = -0.06749 0.32066
# Poissons Ratio (z) = 0.01355 0.43737
#
# Static dielectric constant tensor:
#      x y z
#    x 1.839840 0.000000 -0.020340 
#    y 0.000000 1.834820 0.000000 
#    z -0.020340 0.000000 1.736490 
# 
# From -- ./inp_files/218462.got.cif
#   From: 2010.05.17/outbox.cif.g08.bks.cpg/sg12_110_cif.got.tgz:218462.got - 2010.06.03 13:09:07.
