data_PCOD9188220
_publ_section_title
;
Structure prediction by ZEFSAII (Michael W. Deem and Ramdas Pophale) SiO2 
 PCOD9188220
Probable space group: C 2/M
;
_chemical_formula_sum "Si O2"
_cell_formula_units_Z 56
_cell_length_a 17.309083
_cell_length_b 20.187360
_cell_length_c 14.319967
_cell_angle_alpha 90.000000
_cell_angle_beta 153.739441
_cell_angle_gamma 90.000000
_cell_volume 2213.929048
_symmetry_space_group_name_H-M "C 2/M"
_symmetry_group_IT_number 12
_symmetry_cell_setting 'monoclinic'
loop_
_space_group_symop_operation_xyz
x,y,z
-x,y,-z
-x,-y,-z
x,-y,z
1/2+x,1/2+y,z
1/2-x,1/2+y,-z
1/2-x,1/2-y,-z
1/2+x,1/2-y,z
loop_
_atom_site_type_symbol
_atom_site_label
_atom_site_fract_x
_atom_site_fract_y
_atom_site_fract_z
Si Si1 0.798472 0.423040 0.463620
Si Si2 0.610082 0.429183 0.920632
Si Si3 0.168552 0.382078 0.211780
Si Si4 0.778470 0.786632 0.171698
Si Si5 0.201299 0.842004 0.181840
Si Si6 0.589584 0.201312 0.297200
Si Si7 0.518515 0.601708 0.626965
O O1 0.858571 0.500000 0.532088
O O2 0.595152 0.423126 0.276151
O O3 0.791465 0.391304 0.352227
O O4 0.898539 0.367008 0.631791
O O5 0.671059 0.500000 0.022300
O O6 0.633570 0.426097 0.834986
O O7 0.700880 0.373509 0.078659
O O8 0.237718 0.353392 0.188281
O O9 0.114499 0.319429 0.216154
O O10 0.316699 0.415630 0.432590
O O11 0.000000 0.422370 0.000000
O O12 0.789943 0.727931 0.257601
O O13 0.960683 0.817755 0.334049
O O14 0.613356 0.774395 0.924559
O O15 0.000000 0.832779 0.000000
O O16 0.750000 0.250000 0.500000
O O17 0.500000 0.577223 0.500000
#
# Coordination Sequence:
#
# PCOD9188220 Si02
#       7
#     8   8   8   8   8   8   8
#     4  10  20  35  61  93 126 166 215 266 314 375
#     4  10  20  36  59  86 121 165 211 257 305 370
#     4   9  18  35  57  84 122 154 194 257 313 368
#     4  10  21  34  57  91 125 163 206 255 323 375
#     4  10  19  36  57  91 125 165 211 262 314 373
#     4  11  19  33  58  89 122 164 213 264 317 366
#     4  10  21  38  58  89 124 158 203 258 308 379
#
# _framework density 25.294395000000002
#
# number of rings (size 3 to 8) (size 9 to 14) (size 15 to 20)
#    0.000    2.000    1.429    4.286    0.000    2.571 
#    0.000    0.714    0.000    9.429    0.000    2.000 
#    0.000    0.000    0.000    0.000    0.000    0.286 
#
# Total GULP energy -155957.116187 kJ/mol
# GULP energy per Si atom -5569.897007 kJ/mol
# Density = 2.523682 g / cm^3
# Si number density = 25.294395 Si / 1000 Ang^3
#
#
#
# Elastic Constant Matrix: (Units=GPa)
#
#
# Indices 1 2 3 4 5 6 
#
# 1 44.9992 22.4348 20.6512 0.0000 -22.1797 0.0000
# 2 22.4348 146.5659 44.0026 0.0000 -16.4384 0.0000
# 3 20.6512 44.0026 107.8600 0.0000 -16.1667 0.0000
# 4 0.0000 0.0000 0.0000 -7.1527 0.0000 -2.0033
# 5 -22.1797 -16.4384 -16.1667 0.0000 35.8596 0.0000
# 6 0.0000 0.0000 0.0000 -2.0033 0.0000 9.1877
#
#
#
# Elastic Compliance Matrix: (Units=1/GPa)
#
#
# Indices 1 2 3 4 5 6 
#
# 1 0.033792 -0.002256 -0.002758 0.000000 0.018624 0.000000
# 2 -0.002256 0.008105 -0.002710 0.000000 0.001098 0.000000
# 3 -0.002758 -0.002710 0.011221 0.000000 0.002111 0.000000
# 4 0.000000 0.000000 0.000000 -0.131762 0.000000 -0.028730
# 5 0.018624 0.001098 0.002111 0.000000 0.040861 0.000000
# 6 0.000000 0.000000 0.000000 -0.028730 0.000000 0.102576
#
#
# Mechanical properties :
#
#
# Convention : Reuss Voigt Hill
#
# Bulk Modulus (GPa) = 26.54589 52.62248 39.58419
# Shear Modulus (GPa) = 53.87997 21.73471 37.80734
#
# Velocity S-wave (km/s) = 4.62032 2.93451 3.87032
# Velocity P-wave (km/s) = 6.24346 5.68603 5.97125
#
# Compressibility (1/GPa) = 0.03767061
#
# Stress axis : x y z
#
# Youngs Moduli (GPa) = 29.59240 123.38144 89.11614
#
# Poissons Ratio (x) = 0.27831 0.24582
# Poissons Ratio (y) = 0.06675 0.24150
# Poissons Ratio (z) = 0.08163 0.33436
#
# Static dielectric constant tensor:
#      x y z
#    x 2.695930 0.000000 0.371290 
#    y 0.000000 1.990610 0.000000 
#    z 0.371290 0.000000 2.124980 
# 
# From -- ./inp_files/234727.got.cif
#   From: 2010.05.17/outbox.cif.g08.bks.cpg/sg12_118_cif.got.tgz:234727.got - 2010.06.03 13:09:07.
