data_PCOD9188410
_publ_section_title
;
Structure prediction by ZEFSAII (Michael W. Deem and Ramdas Pophale) SiO2 
 PCOD9188410
Probable space group: C 2/M
;
_chemical_formula_sum "Si O2"
_cell_formula_units_Z 56
_cell_length_a 25.111067
_cell_length_b 9.690242
_cell_length_c 11.977495
_cell_angle_alpha 90.000000
_cell_angle_beta 76.454203
_cell_angle_gamma 90.000000
_cell_volume 2833.438674
_symmetry_space_group_name_H-M "C 2/M"
_symmetry_group_IT_number 12
_symmetry_cell_setting 'monoclinic'
loop_
_space_group_symop_operation_xyz
x,y,z
-x,y,-z
-x,-y,-z
x,-y,z
1/2+x,1/2+y,z
1/2-x,1/2+y,-z
1/2-x,1/2-y,-z
1/2+x,1/2-y,z
loop_
_atom_site_type_symbol
_atom_site_label
_atom_site_fract_x
_atom_site_fract_y
_atom_site_fract_z
Si Si1 0.223673 0.836191 0.707483
Si Si2 0.557007 0.667006 0.532335
Si Si3 0.936105 0.155752 0.004324
Si Si4 0.217259 0.344343 0.931180
Si Si5 0.886885 0.651962 0.862277
Si Si6 0.152435 0.662673 0.368841
Si Si7 0.602581 0.665020 0.738127
O O1 0.218030 0.736588 0.815668
O O2 0.284233 0.808868 0.629326
O O3 0.166203 0.813082 0.671863
O O4 0.224214 0.000000 0.739274
O O5 0.500000 0.703829 0.500000
O O6 0.562567 0.500000 0.523808
O O7 0.607920 0.740865 0.448056
O O8 0.562070 0.710569 0.659816
O O9 0.927453 0.236270 0.893253
O O10 0.914053 0.000000 0.000155
O O11 0.909222 0.217665 0.130985
O O12 0.000000 0.149429 0.000000
O O13 0.239329 0.500000 0.909047
O O14 0.250000 0.250000 0.000000
O O15 0.158477 0.354417 0.018433
O O16 0.912442 0.500000 0.837598
O O17 0.856639 0.682716 0.760392
O O18 0.142158 0.500000 0.397080
O O19 0.594959 0.500000 0.751464
#
# Coordination Sequence:
#
# PCOD9188410 Si02
#       7
#     8   8   8   8   8   8   8
#     4  10  19  36  59  83 117 155 189 238 297 349
#     4  10  23  42  63  85 113 150 196 246 290 342
#     4  10  21  35  58  88 116 151 196 237 285 350
#     4  11  20  32  52  82 119 156 190 227 281 346
#     4  10  21  36  54  82 121 154 188 233 287 344
#     4  10  22  39  58  85 117 153 194 238 289 347
#     4   9  19  37  59  85 117 152 188 237 297 340
#
# _framework density 19.76397
#
# number of rings (size 3 to 8) (size 9 to 14) (size 15 to 20)
#    0.000    2.000    2.857    0.429    2.000    2.857 
#    0.000    1.429    0.000    0.000    0.000    0.000 
#    0.000    0.000    0.000    0.000    0.000    0.000 
#
# Total GULP energy -155977.928224 kJ/mol
# GULP energy per Si atom -5570.640294 kJ/mol
# Density = 1.971899 g / cm^3
# Si number density = 19.763970 Si / 1000 Ang^3
#
#
#
# Elastic Constant Matrix: (Units=GPa)
#
#
# Indices 1 2 3 4 5 6 
#
# 1 90.4524 28.0771 22.0294 0.0000 11.0867 0.0000
# 2 28.0771 35.2167 11.6883 0.0000 5.2280 0.0000
# 3 22.0294 11.6883 51.1643 0.0000 1.4217 0.0000
# 4 0.0000 0.0000 0.0000 19.8675 0.0000 -6.3797
# 5 11.0867 5.2280 1.4217 0.0000 32.9930 0.0000
# 6 0.0000 0.0000 0.0000 -6.3797 0.0000 17.5407
#
#
#
# Elastic Compliance Matrix: (Units=1/GPa)
#
#
# Indices 1 2 3 4 5 6 
#
# 1 0.015841 -0.010697 -0.004281 0.000000 -0.003443 0.000000
# 2 -0.010697 0.038654 -0.004159 0.000000 -0.002351 0.000000
# 3 -0.004281 -0.004159 0.022307 0.000000 0.001136 0.000000
# 4 0.000000 0.000000 0.000000 0.056989 0.000000 0.020727
# 5 -0.003443 -0.002351 0.001136 0.000000 0.031790 0.000000
# 6 0.000000 0.000000 0.000000 0.020727 0.000000 0.064549
#
#
# Mechanical properties :
#
#
# Convention : Reuss Voigt Hill
#
# Bulk Modulus (GPa) = 25.95629 33.38034 29.66832
# Shear Modulus (GPa) = 17.77801 21.74948 19.76375
#
# Velocity S-wave (km/s) = 3.00245 3.32092 3.16569
# Velocity P-wave (km/s) = 5.01809 5.62413 5.32973
#
# Compressibility (1/GPa) = 0.03852631
#
# Stress axis : x y z
#
# Youngs Moduli (GPa) = 63.12841 25.87081 44.82969
#
# Poissons Ratio (x) = 0.27675 0.19192
# Poissons Ratio (y) = 0.67530 0.18645
# Poissons Ratio (z) = 0.27025 0.10760
#
# Static dielectric constant tensor:
#      x y z
#    x 1.739750 0.000000 -0.000780 
#    y 0.000000 1.707630 0.000000 
#    z -0.000780 0.000000 1.717990 
# 
# From -- ./inp_files/180669.got.cif
#   From: 2010.05.17/outbox.cif.g08.bks.cpg/sg12_91_cif.got.tgz:180669.got - 2010.06.03 13:09:07.
