data_PCOD9188164
_publ_section_title
;
Structure prediction by ZEFSAII (Michael W. Deem and Ramdas Pophale) SiO2 
 PCOD9188164
Probable space group: C 2/M
;
_chemical_formula_sum "Si O2"
_cell_formula_units_Z 40
_cell_length_a 25.885698
_cell_length_b 12.422586
_cell_length_c 8.964357
_cell_angle_alpha 90.000000
_cell_angle_beta 49.689986
_cell_angle_gamma 90.000000
_cell_volume 2198.175509
_symmetry_space_group_name_H-M "C 2/M"
_symmetry_group_IT_number 12
_symmetry_cell_setting 'monoclinic'
loop_
_space_group_symop_operation_xyz
x,y,z
-x,y,-z
-x,-y,-z
x,-y,z
1/2+x,1/2+y,z
1/2-x,1/2+y,-z
1/2-x,1/2-y,-z
1/2+x,1/2-y,z
loop_
_atom_site_type_symbol
_atom_site_label
_atom_site_fract_x
_atom_site_fract_y
_atom_site_fract_z
Si Si1 0.211296 0.379804 0.416648
Si Si2 0.674835 0.222943 0.787689
Si Si3 0.425673 0.125635 0.786945
Si Si4 0.926876 0.298765 0.457138
Si Si5 0.425835 0.374176 0.213880
O O1 0.235578 0.500000 0.343077
O O2 0.263341 0.290745 0.259575
O O3 0.204461 0.356118 0.606062
O O4 0.136902 0.363045 0.488541
O O5 0.627051 0.308071 0.788948
O O6 0.630242 0.160420 0.990289
O O7 0.500910 0.145640 0.711109
O O8 0.420299 0.197607 0.647921
O O9 0.419388 0.000000 0.757466
O O10 0.926881 0.184614 0.372486
O O11 0.408271 0.500000 0.256717
O O12 0.500000 0.364998 0.000000
#
# Coordination Sequence:
#
# PCOD9188164 Si02
#       5
#     8   8   8   8   8
#     4  10  20  36  56  81 112 146 185 234 279 324
#     4  10  21  35  56  85 110 145 190 228 275 338
#     4  11  21  37  58  83 115 149 183 231 279 324
#     4  10  21  37  57  84 113 144 187 227 275 334
#     4  10  19  36  57  79 110 146 182 228 274 321
#
# _framework density 18.196909999999999
#
# number of rings (size 3 to 8) (size 9 to 14) (size 15 to 20)
#    0.000    1.800    2.000    3.600    0.000    0.800 
#    0.000    8.000    0.000    0.000    0.000    0.000 
#    0.000    0.000    0.000    0.000    0.000    0.000 
#
# Total GULP energy -111603.389980 kJ/mol
# GULP energy per Si atom -5580.169499 kJ/mol
# Density = 1.815549 g / cm^3
# Si number density = 18.196910 Si / 1000 Ang^3
#
#
#
# Elastic Constant Matrix: (Units=GPa)
#
#
# Indices 1 2 3 4 5 6 
#
# 1 55.9671 16.9168 12.0935 0.0000 -4.0328 0.0000
# 2 16.9168 67.8627 2.9586 0.0000 9.8927 0.0000
# 3 12.0935 2.9586 60.7125 0.0000 -7.9925 0.0000
# 4 0.0000 0.0000 0.0000 23.5202 0.0000 -0.8369
# 5 -4.0328 9.8927 -7.9925 0.0000 22.1154 0.0000
# 6 0.0000 0.0000 0.0000 -0.8369 0.0000 14.6490
#
#
#
# Elastic Compliance Matrix: (Units=1/GPa)
#
#
# Indices 1 2 3 4 5 6 
#
# 1 0.020670 -0.005775 -0.003149 0.000000 0.005214 0.000000
# 2 -0.005775 0.017563 -0.000922 0.000000 -0.009243 0.000000
# 3 -0.003149 -0.000922 0.017977 0.000000 0.006335 0.000000
# 4 0.000000 0.000000 0.000000 0.042603 0.000000 0.002434
# 5 0.005214 -0.009243 0.006335 0.000000 0.052592 0.000000
# 6 0.000000 0.000000 0.000000 0.002434 0.000000 0.068403
#
#
# Mechanical properties :
#
#
# Convention : Reuss Voigt Hill
#
# Bulk Modulus (GPa) = 27.38525 27.60890 27.49708
# Shear Modulus (GPa) = 19.86696 22.22848 21.04772
#
# Velocity S-wave (km/s) = 3.30779 3.49886 3.40467
# Velocity P-wave (km/s) = 5.44708 5.61498 5.53167
#
# Compressibility (1/GPa) = 0.03651600
#
# Stress axis : x y z
#
# Youngs Moduli (GPa) = 48.38028 56.93828 55.62555
#
# Poissons Ratio (x) = 0.32884 0.17518
# Poissons Ratio (y) = 0.27941 0.05130
# Poissons Ratio (z) = 0.15237 0.05251
#
# Static dielectric constant tensor:
#      x y z
#    x 1.643760 0.000000 -0.009940 
#    y 0.000000 1.599530 0.000000 
#    z -0.009940 0.000000 1.606390 
# 
# From -- ./inp_files/71231.got.cif
#   From: 2010.05.17/outbox.cif.g08.bks.cpg/sg12_36_cif.got.tgz:71231.got - 2010.06.03 13:09:07.
