data_PCOD9188707
_publ_section_title
;
Structure prediction by ZEFSAII (Michael W. Deem and Ramdas Pophale) SiO2 
 PCOD9188707
Probable space group: C 2/M
;
_chemical_formula_sum "Si O2"
_cell_formula_units_Z 44
_cell_length_a 12.458660
_cell_length_b 24.747496
_cell_length_c 9.004484
_cell_angle_alpha 90.000000
_cell_angle_beta 53.489260
_cell_angle_gamma 90.000000
_cell_volume 2231.412696
_symmetry_space_group_name_H-M "C 2/M"
_symmetry_group_IT_number 12
_symmetry_cell_setting 'monoclinic'
loop_
_space_group_symop_operation_xyz
x,y,z
-x,y,-z
-x,-y,-z
x,-y,z
1/2+x,1/2+y,z
1/2-x,1/2+y,-z
1/2-x,1/2-y,-z
1/2+x,1/2-y,z
loop_
_atom_site_type_symbol
_atom_site_label
_atom_site_fract_x
_atom_site_fract_y
_atom_site_fract_z
Si Si1 0.141494 0.907004 0.309620
Si Si2 0.250801 0.084805 0.912961
Si Si3 0.245029 0.500000 0.599924
Si Si4 0.539675 0.000000 0.142712
Si Si5 0.354296 0.700261 0.052720
Si Si6 0.637670 0.719108 0.298877
Si Si7 0.862932 0.000000 0.201602
O O1 0.172592 0.843641 0.302209
O O2 0.000000 0.916489 0.500000
O O3 0.240139 0.947151 0.311534
O O4 0.142056 0.920934 0.135002
O O5 0.377006 0.053448 0.879536
O O6 0.242223 0.148078 0.885233
O O7 0.212833 0.052517 0.797653
O O8 0.098166 0.500000 0.653533
O O9 0.357245 0.500000 0.381825
O O10 0.500000 0.000000 0.000000
O O11 0.266804 0.743213 0.217904
O O12 0.500000 0.686653 0.000000
O O13 0.383801 0.721920 0.861897
O O14 0.500000 0.732086 0.500000
O O15 0.000000 0.000000 0.000000
#
# Coordination Sequence:
#
# PCOD9188707 Si02
#       7
#     8   8   4   4   8   8   4
#     4  10  19  36  61  85 118 154 207 252 292 355
#     4  10  21  38  59  82 124 158 192 250 302 359
#     4  12  22  36  60  93 115 160 206 241 306 366
#     4  11  21  41  60  88 122 160 201 252 303 359
#     4  10  21  41  64  90 121 163 208 250 303 367
#     4   9  21  41  60  91 125 160 203 259 302 356
#     4  11  22  36  56  87 121 151 191 243 309 359
#
# _framework density 19.718450000000001
#
# number of rings (size 3 to 8) (size 9 to 14) (size 15 to 20)
#    0.000    1.818    1.818    2.455    0.000    5.091 
#   13.091    0.000    0.000    0.000    0.000    0.000 
#    0.000    0.000    0.000    0.000    0.000    0.000 
#
# Total GULP energy -122604.359719 kJ/mol
# GULP energy per Si atom -5572.925442 kJ/mol
# Density = 1.967357 g / cm^3
# Si number density = 19.718450 Si / 1000 Ang^3
#
#
#
# Elastic Constant Matrix: (Units=GPa)
#
#
# Indices 1 2 3 4 5 6 
#
# 1 69.4702 48.8921 6.8963 0.0000 -13.8353 0.0000
# 2 48.8921 89.1410 47.9756 0.0000 -19.3853 0.0000
# 3 6.8963 47.9756 85.0655 0.0000 -11.1887 0.0000
# 4 0.0000 0.0000 0.0000 29.7782 0.0000 -5.6956
# 5 -13.8353 -19.3853 -11.1887 0.0000 31.9615 0.0000
# 6 0.0000 0.0000 0.0000 -5.6956 0.0000 3.9227
#
#
#
# Elastic Compliance Matrix: (Units=1/GPa)
#
#
# Indices 1 2 3 4 5 6 
#
# 1 0.027886 -0.019483 0.009184 0.000000 0.003469 0.000000
# 2 -0.019483 0.031319 -0.015404 0.000000 0.005169 0.000000
# 3 0.009184 -0.015404 0.019909 0.000000 0.001602 0.000000
# 4 0.000000 0.000000 0.000000 0.046493 0.000000 0.067506
# 5 0.003469 0.005169 0.001602 0.000000 0.036486 0.000000
# 6 0.000000 0.000000 0.000000 0.067506 0.000000 0.352940
#
#
# Mechanical properties :
#
#
# Convention : Reuss Voigt Hill
#
# Bulk Modulus (GPa) = 36.09127 50.13383 43.11255
# Shear Modulus (GPa) = 8.68545 22.46001 15.57273
#
# Velocity S-wave (km/s) = 2.10102 3.37862 2.81331
# Velocity P-wave (km/s) = 4.92227 6.37967 5.69776
#
# Compressibility (1/GPa) = 0.02770753
#
# Stress axis : x y z
#
# Youngs Moduli (GPa) = 35.86065 31.92979 50.22759
#
# Poissons Ratio (x) = 0.62209 -0.46127
# Poissons Ratio (y) = 0.69867 0.77370
# Poissons Ratio (z) = -0.32933 0.49184
#
# Static dielectric constant tensor:
#      x y z
#    x 1.727070 0.000000 -0.024490 
#    y 0.000000 1.721220 0.000000 
#    z -0.024490 0.000000 1.705750 
# 
# From -- ./inp_files/51229.got.cif
#   From: 2010.05.17/outbox.cif.g08.bks.cpg/sg12_26_cif.got.tgz:51229.got - 2010.06.03 13:09:07.
