data_PCOD9188210
_publ_section_title
;
Structure prediction by ZEFSAII (Michael W. Deem and Ramdas Pophale) SiO2 
 PCOD9188210
Probable space group: C 2/M
;
_chemical_formula_sum "Si O2"
_cell_formula_units_Z 48
_cell_length_a 22.719577
_cell_length_b 11.827080
_cell_length_c 29.431055
_cell_angle_alpha 90.000000
_cell_angle_beta 17.802267
_cell_angle_gamma 90.000000
_cell_volume 2417.830722
_symmetry_space_group_name_H-M "C 2/M"
_symmetry_group_IT_number 12
_symmetry_cell_setting 'monoclinic'
loop_
_space_group_symop_operation_xyz
x,y,z
-x,y,-z
-x,-y,-z
x,-y,z
1/2+x,1/2+y,z
1/2-x,1/2+y,-z
1/2-x,1/2-y,-z
1/2+x,1/2-y,z
loop_
_atom_site_type_symbol
_atom_site_label
_atom_site_fract_x
_atom_site_fract_y
_atom_site_fract_z
Si Si1 0.951148 0.203873 0.107533
Si Si2 0.205876 0.630284 0.371723
Si Si3 0.185212 0.630086 0.991836
Si Si4 0.541908 0.786686 0.753745
Si Si5 0.336968 0.874900 0.428264
Si Si6 0.728812 0.876179 0.194842
O O1 0.865534 0.142757 0.214588
O O2 0.782456 0.213295 0.194198
O O3 0.051144 0.317699 0.051196
O O4 0.117740 0.137087 0.958476
O O5 0.196405 0.500000 0.394456
O O6 0.280769 0.714444 0.355726
O O7 0.000000 0.658583 0.500000
O O8 0.227226 0.500000 0.954035
O O9 0.065960 0.649588 0.125990
O O10 0.382000 0.700594 0.851349
O O11 0.603517 0.868678 0.668273
O O12 0.250000 0.750000 0.500000
O O13 0.522004 0.871757 0.324855
O O14 0.242208 0.000000 0.505946
O O15 0.751542 0.000000 0.200059
#
# Coordination Sequence:
#
# PCOD9188210 Si02
#       6
#     8   8   8   8   8   8
#     4  10  19  36  57  86 118 151 201 247 303 352
#     4  10  21  34  57  89 120 153 197 256 306 354
#     4  10  20  36  61  89 119 155 198 255 308 362
#     4  10  21  39  60  86 120 156 202 247 304 372
#     4  11  25  43  64  91 124 164 206 252 304 367
#     4  10  20  37  62  85 115 156 203 249 295 354
#
# _framework density 19.852506999999999
#
# number of rings (size 3 to 8) (size 9 to 14) (size 15 to 20)
#    0.000    1.833    1.667    3.000    2.333    1.333 
#    0.000    2.500    0.000    2.500    0.000    0.000 
#    0.000    0.000    0.000    0.000    0.000    0.000 
#
# Total GULP energy -133867.018190 kJ/mol
# GULP energy per Si atom -5577.792425 kJ/mol
# Density = 1.980732 g / cm^3
# Si number density = 19.852507 Si / 1000 Ang^3
#
#
#
# Elastic Constant Matrix: (Units=GPa)
#
#
# Indices 1 2 3 4 5 6 
#
# 1 93.1559 42.0866 8.4975 -0.0001 -12.4576 0.0034
# 2 42.0866 116.4827 25.4768 0.0002 -10.9210 -0.0017
# 3 8.4975 25.4768 31.1727 -0.0329 -8.1066 0.0036
# 4 -0.0001 0.0002 -0.0329 22.2412 -0.0182 -4.5404
# 5 -12.4576 -10.9210 -8.1066 -0.0182 26.6212 0.0059
# 6 0.0034 -0.0017 0.0036 -4.5404 0.0059 17.9428
#
#
#
# Elastic Compliance Matrix: (Units=1/GPa)
#
#
# Indices 1 2 3 4 5 6 
#
# 1 0.013362 -0.004695 0.001433 0.000005 0.004763 -0.000003
# 2 -0.004695 0.012186 -0.008635 -0.000013 0.000173 0.000001
# 3 0.001433 -0.008635 0.041267 0.000070 0.009695 0.000005
# 4 0.000005 -0.000013 0.000070 0.047411 0.000048 0.011997
# 5 0.004763 0.000173 0.009695 0.000048 0.042816 -0.000005
# 6 -0.000003 0.000001 0.000005 0.011997 -0.000005 0.058768
#
#
# Mechanical properties :
#
#
# Convention : Reuss Voigt Hill
#
# Bulk Modulus (GPa) = 23.24363 43.65924 33.45144
# Shear Modulus (GPa) = 19.68940 24.34441 22.01690
#
# Velocity S-wave (km/s) = 3.15268 3.50560 3.33381
# Velocity P-wave (km/s) = 4.99861 6.19881 5.63078
#
# Compressibility (1/GPa) = 0.04302253
#
# Stress axis : x y z
#
# Youngs Moduli (GPa) = 74.83928 82.06159 24.23248
#
# Poissons Ratio (x) = 0.38526 -0.03473
# Poissons Ratio (y) = 0.35135 0.20924
# Poissons Ratio (z) = -0.10726 0.70857
#
# Static dielectric constant tensor:
#      x y z
#    x 1.710360 0.000000 0.014340 
#    y 0.000000 1.705620 0.000030 
#    z 0.014340 0.000030 1.729520 
# 
# From -- ./inp_files/366146.got.cif
#   From: 2010.05.17/outbox.cif.g08.bks.cpg/sg12_184_cif.got.tgz:366146.got - 2010.06.03 13:09:07.
