data_PCOD9188051
_publ_section_title
;
Structure prediction by ZEFSAII (Michael W. Deem and Ramdas Pophale) SiO2 
 PCOD9188051
Probable space group: C 2/M
;
_chemical_formula_sum "Si O2"
_cell_formula_units_Z 44
_cell_length_a 17.628713
_cell_length_b 26.239424
_cell_length_c 8.264116
_cell_angle_alpha 90.000000
_cell_angle_beta 35.050287
_cell_angle_gamma 90.000000
_cell_volume 2195.363645
_symmetry_space_group_name_H-M "C 2/M"
_symmetry_group_IT_number 12
_symmetry_cell_setting 'monoclinic'
loop_
_space_group_symop_operation_xyz
x,y,z
-x,y,-z
-x,-y,-z
x,-y,z
1/2+x,1/2+y,z
1/2-x,1/2+y,-z
1/2-x,1/2-y,-z
1/2+x,1/2-y,z
loop_
_atom_site_type_symbol
_atom_site_label
_atom_site_fract_x
_atom_site_fract_y
_atom_site_fract_z
Si Si1 0.844446 0.134236 0.248109
Si Si2 0.855591 0.244105 0.171989
Si Si3 0.233554 0.345998 0.799824
Si Si4 0.112486 0.443194 0.168448
Si Si5 0.856775 0.943799 0.980700
Si Si6 0.500000 0.372495 0.500000
O O1 0.834792 0.185532 0.155619
O O2 0.778594 0.143004 0.536341
O O3 0.792853 0.085669 0.242323
O O4 0.000000 0.125504 0.000000
O O5 0.750000 0.250000 0.500000
O O6 0.834050 0.290314 0.086434
O O7 0.000000 0.247239 0.000000
O O8 0.365697 0.344073 0.681075
O O9 0.137260 0.392499 0.019362
O O10 0.089658 0.500000 0.132161
O O11 0.000000 0.435520 0.500000
O O12 0.248684 0.447306 0.029561
O O13 0.969244 0.908943 0.706082
O O14 0.903972 0.000000 0.941914
#
# Coordination Sequence:
#
# PCOD9188051 Si02
#       6
#     8   8   8   8   8   4
#     4  10  19  36  57  84 116 145 187 243 289 339
#     4   9  20  37  61  83 115 156 193 239 300 344
#     4  10  20  36  62  85 112 158 195 238 291 351
#     4   9  20  38  56  78 117 157 191 237 293 345
#     4  10  20  34  56  82 114 151 186 234 291 345
#     4  10  19  36  54  84 122 146 189 230 290 350
#
# _framework density 20.042238000000001
#
# number of rings (size 3 to 8) (size 9 to 14) (size 15 to 20)
#    0.000    2.364    1.818    0.273    0.000    4.727 
#    0.000    3.636    4.000    3.818    0.000    0.000 
#    0.000    0.000    0.000    0.000    0.000    0.000 
#
# Total GULP energy -122526.420170 kJ/mol
# GULP energy per Si atom -5569.382735 kJ/mol
# Density = 1.999662 g / cm^3
# Si number density = 20.042238 Si / 1000 Ang^3
#
#
#
# Elastic Constant Matrix: (Units=GPa)
#
#
# Indices 1 2 3 4 5 6 
#
# 1 29.9285 46.5308 4.7917 0.0000 9.8600 0.0000
# 2 46.5308 142.6573 20.4528 0.0000 10.8244 0.0000
# 3 4.7917 20.4528 64.2330 0.0000 -3.4144 0.0000
# 4 0.0000 0.0000 0.0000 25.3801 0.0000 9.0745
# 5 9.8600 10.8244 -3.4144 0.0000 27.2354 0.0000
# 6 0.0000 0.0000 0.0000 9.0745 0.0000 31.0125
#
#
#
# Elastic Compliance Matrix: (Units=1/GPa)
#
#
# Indices 1 2 3 4 5 6 
#
# 1 0.075603 -0.023421 0.000863 0.000000 -0.017954 0.000000
# 2 -0.023421 0.014895 -0.002879 0.000000 0.002198 0.000000
# 3 0.000863 -0.002879 0.016575 0.000000 0.002910 0.000000
# 4 0.000000 0.000000 0.000000 0.044005 0.000000 -0.012876
# 5 -0.017954 0.002198 0.002910 0.000000 0.042708 0.000000
# 6 0.000000 0.000000 0.000000 -0.012876 0.000000 0.036013
#
#
# Mechanical properties :
#
#
# Convention : Reuss Voigt Hill
#
# Bulk Modulus (GPa) = 17.79345 42.26329 30.02837
# Shear Modulus (GPa) = 16.69975 27.72850 22.21412
#
# Velocity S-wave (km/s) = 2.88970 3.72358 3.33282
# Velocity P-wave (km/s) = 4.47561 6.29441 5.46126
#
# Compressibility (1/GPa) = 0.05620046
#
# Stress axis : x y z
#
# Youngs Moduli (GPa) = 13.22692 67.13629 60.33103
#
# Poissons Ratio (x) = 1.57241 -0.05209
# Poissons Ratio (y) = 0.30979 0.17368
# Poissons Ratio (z) = -0.01142 0.19327
#
# Static dielectric constant tensor:
#      x y z
#    x 1.727980 0.000000 0.002210 
#    y 0.000000 1.799560 0.000000 
#    z 0.002210 0.000000 1.739940 
# 
# From -- ./inp_files/79004.got.cif
#   From: 2010.05.17/outbox.cif.g08.bks.cpg/sg12_40_cif.got.tgz:79004.got - 2010.06.03 13:09:07.
