data_PCOD9188470
_publ_section_title
;
Structure prediction by ZEFSAII (Michael W. Deem and Ramdas Pophale) SiO2 
 PCOD9188470
Probable space group: C 2/M
;
_chemical_formula_sum "Si O2"
_cell_formula_units_Z 40
_cell_length_a 25.722507
_cell_length_b 8.512204
_cell_length_c 8.039739
_cell_angle_alpha 90.000000
_cell_angle_beta 86.874500
_cell_angle_gamma 90.000000
_cell_volume 1757.724373
_symmetry_space_group_name_H-M "C 2/M"
_symmetry_group_IT_number 12
_symmetry_cell_setting 'monoclinic'
loop_
_space_group_symop_operation_xyz
x,y,z
-x,y,-z
-x,-y,-z
x,-y,z
1/2+x,1/2+y,z
1/2-x,1/2+y,-z
1/2-x,1/2-y,-z
1/2+x,1/2-y,z
loop_
_atom_site_type_symbol
_atom_site_label
_atom_site_fract_x
_atom_site_fract_y
_atom_site_fract_z
Si Si1 0.631373 0.188973 0.821748
Si Si2 0.199563 0.812790 0.105293
Si Si3 0.948632 0.320142 0.591965
Si Si4 0.515550 0.676148 0.810617
Si Si5 0.166244 0.309909 0.459430
O O1 0.573810 0.253857 0.788033
O O2 0.669066 0.231059 0.655966
O O3 0.629457 0.000000 0.829200
O O4 0.652466 0.252659 0.994216
O O5 0.198773 0.755643 0.298038
O O6 0.199168 0.000000 0.106593
O O7 0.250000 0.750000 0.000000
O O8 0.945150 0.500000 0.535782
O O9 0.892267 0.252872 0.576809
O O10 0.000000 0.246230 0.500000
O O11 0.970248 0.300591 0.770327
O O12 0.513390 0.500000 0.734556
O O13 0.500000 0.651569 0.000000
O O14 0.169734 0.500000 0.448971
#
# Coordination Sequence:
#
# PCOD9188470 Si02
#       5
#     8   8   8   8   8
#     4  11  23  43  69  96 128 170 218 268 323 387
#     4  12  27  47  70  97 129 166 213 270 333 392
#     4  10  19  36  59  88 124 167 212 253 306 371
#     4  11  23  36  54  88 130 172 215 262 315 374
#     4  10  22  42  69  98 131 172 219 268 322 384
#
# _framework density 22.756696999999999
#
# number of rings (size 3 to 8) (size 9 to 14) (size 15 to 20)
#    0.000    1.200    2.000    4.200    0.000    8.400 
#    0.000    0.000    0.000    0.000    0.000    0.000 
#    0.000    0.000    0.000    0.000    0.000    0.000 
#
# Total GULP energy -111412.402222 kJ/mol
# GULP energy per Si atom -5570.620111 kJ/mol
# Density = 2.270490 g / cm^3
# Si number density = 22.756697 Si / 1000 Ang^3
#
#
#
# Elastic Constant Matrix: (Units=GPa)
#
#
# Indices 1 2 3 4 5 6 
#
# 1 57.6224 3.2484 -8.9202 0.0000 -12.6770 0.0000
# 2 3.2484 96.7258 41.2230 0.0000 -9.4985 0.0000
# 3 -8.9202 41.2230 104.2782 0.0000 -25.8301 0.0000
# 4 0.0000 0.0000 0.0000 34.9883 0.0000 4.0913
# 5 -12.6770 -9.4985 -25.8301 0.0000 35.3903 0.0000
# 6 0.0000 0.0000 0.0000 4.0913 0.0000 22.9448
#
#
#
# Elastic Compliance Matrix: (Units=1/GPa)
#
#
# Indices 1 2 3 4 5 6 
#
# 1 0.020584 -0.001828 0.005113 0.000000 0.010614 0.000000
# 2 -0.001828 0.012598 -0.005446 0.000000 -0.001248 0.000000
# 3 0.005113 -0.005446 0.014980 0.000000 0.011303 0.000000
# 4 0.000000 0.000000 0.000000 0.029190 0.000000 -0.005205
# 5 0.010614 -0.001248 0.011303 0.000000 0.039973 0.000000
# 6 0.000000 0.000000 0.000000 -0.005205 0.000000 0.044511
#
#
# Mechanical properties :
#
#
# Convention : Reuss Voigt Hill
#
# Bulk Modulus (GPa) = 22.81044 36.63654 29.72349
# Shear Modulus (GPa) = 27.65934 33.53637 30.59785
#
# Velocity S-wave (km/s) = 3.49009 3.84303 3.67081
# Velocity P-wave (km/s) = 5.12703 5.98549 5.57281
#
# Compressibility (1/GPa) = 0.04383957
#
# Stress axis : x y z
#
# Youngs Moduli (GPa) = 48.58149 79.37611 66.75724
#
# Poissons Ratio (x) = 0.14509 -0.34130
# Poissons Ratio (y) = 0.08880 0.36355
# Poissons Ratio (z) = -0.24838 0.43227
#
# Static dielectric constant tensor:
#      x y z
#    x 1.878940 0.000000 0.052400 
#    y 0.000000 1.844840 0.000000 
#    z 0.052400 0.000000 2.174250 
# 
# From -- ./inp_files/101017.got.cif
#   From: 2010.05.17/outbox.cif.g08.bks.cpg/sg12_51_cif.got.tgz:101017.got - 2010.06.03 13:09:07.
