data_PCOD9188277
_publ_section_title
;
Structure prediction by ZEFSAII (Michael W. Deem and Ramdas Pophale) SiO2 
 PCOD9188277
Probable space group: C 2/M
;
_chemical_formula_sum "Si O2"
_cell_formula_units_Z 56
_cell_length_a 20.931202
_cell_length_b 8.985678
_cell_length_c 30.695647
_cell_angle_alpha 90.000000
_cell_angle_beta 146.327902
_cell_angle_gamma 90.000000
_cell_volume 3200.926873
_symmetry_space_group_name_H-M "C 2/M"
_symmetry_group_IT_number 12
_symmetry_cell_setting 'monoclinic'
loop_
_space_group_symop_operation_xyz
x,y,z
-x,y,-z
-x,-y,-z
x,-y,z
1/2+x,1/2+y,z
1/2-x,1/2+y,-z
1/2-x,1/2-y,-z
1/2+x,1/2-y,z
loop_
_atom_site_type_symbol
_atom_site_label
_atom_site_fract_x
_atom_site_fract_y
_atom_site_fract_z
Si Si1 0.320709 0.321322 0.919561
Si Si2 0.663116 0.679103 0.326952
Si Si3 0.919318 0.178877 0.229784
Si Si4 0.297411 0.177862 0.743779
Si Si5 0.818370 0.321606 0.498408
Si Si6 0.050007 0.179170 0.097100
Si Si7 0.057936 0.820899 0.655487
O O1 0.310434 0.500000 0.914977
O O2 0.197089 0.248128 0.855053
O O3 0.371751 0.282241 0.900730
O O4 0.419527 0.278302 0.010199
O O5 0.664349 0.500000 0.322183
O O6 0.535075 0.722770 0.270204
O O7 0.694818 0.756007 0.299917
O O8 0.751671 0.715984 0.416010
O O9 0.931284 0.221547 0.287485
O O10 0.910705 0.000000 0.223550
O O11 0.397631 0.243986 0.831098
O O12 0.175433 0.216887 0.697158
O O13 0.306017 0.000000 0.747535
O O14 0.817833 0.500000 0.502744
O O15 0.750000 0.250000 0.500000
O O16 0.947372 0.259025 0.572633
O O17 0.053708 0.000000 0.103976
O O18 0.041588 0.000000 0.644442
#
# Coordination Sequence:
#
# PCOD9188277 Si02
#       7
#     8   8   8   8   8   8   8
#     4   9  18  32  55  87 115 144 188 235 276 330
#     4  10  23  41  58  79 114 153 186 228 284 340
#     4  10  19  36  58  82 114 149 186 234 283 330
#     4  11  23  38  58  85 116 150 188 234 282 334
#     4  11  22  38  61  87 114 148 190 236 282 332
#     4   9  18  34  55  82 118 151 182 229 284 335
#     4  10  21  38  58  84 117 147 186 236 283 332
#
# _framework density 17.494933
#
# number of rings (size 3 to 8) (size 9 to 14) (size 15 to 20)
#    0.000    2.000    2.857    1.714    0.000    4.571 
#    0.000    5.000    0.000    0.000    0.000    0.000 
#    0.000    0.000    0.000    0.000    0.000    0.000 
#
# Total GULP energy -156325.096934 kJ/mol
# GULP energy per Si atom -5583.039176 kJ/mol
# Density = 1.745511 g / cm^3
# Si number density = 17.494933 Si / 1000 Ang^3
#
#
#
# Elastic Constant Matrix: (Units=GPa)
#
#
# Indices 1 2 3 4 5 6 
#
# 1 112.0202 39.4422 65.4552 0.0000 -8.1984 0.0000
# 2 39.4422 26.3945 48.3816 0.0000 -3.7531 0.0000
# 3 65.4552 48.3816 153.2501 0.0000 0.0059 0.0000
# 4 0.0000 0.0000 0.0000 36.2052 0.0000 2.3821
# 5 -8.1984 -3.7531 0.0059 0.0000 29.1822 0.0000
# 6 0.0000 0.0000 0.0000 2.3821 0.0000 28.4071
#
#
#
# Elastic Compliance Matrix: (Units=1/GPa)
#
#
# Indices 1 2 3 4 5 6 
#
# 1 0.019146 -0.031899 0.001893 0.000000 0.001276 0.000000
# 2 -0.031899 0.147157 -0.032834 0.000000 0.009971 0.000000
# 3 0.001893 -0.032834 0.016083 0.000000 -0.003694 0.000000
# 4 0.000000 0.000000 0.000000 0.027774 0.000000 -0.002329
# 5 0.001276 0.009971 -0.003694 0.000000 0.035909 0.000000
# 6 0.000000 0.000000 0.000000 -0.002329 0.000000 0.035398
#
#
# Mechanical properties :
#
#
# Convention : Reuss Voigt Hill
#
# Bulk Modulus (GPa) = 17.63476 66.46921 42.05198
# Shear Modulus (GPa) = 11.73579 27.98461 19.86020
#
# Velocity S-wave (km/s) = 2.59281 4.00382 3.37292
# Velocity P-wave (km/s) = 4.36639 7.71038 6.26559
#
# Compressibility (1/GPa) = 0.05670619
#
# Stress axis : x y z
#
# Youngs Moduli (GPa) = 52.23113 6.79546 62.17873
#
# Poissons Ratio (x) = 0.21677 -0.11771
# Poissons Ratio (y) = 1.66611 2.04158
# Poissons Ratio (z) = -0.09888 0.22312
#
# Static dielectric constant tensor:
#      x y z
#    x 1.574200 0.000000 0.005910 
#    y 0.000000 1.583540 0.000000 
#    z 0.005910 0.000000 1.580870 
# 
# From -- ./inp_files/380772.got.cif
#   From: 2010.05.17/outbox.cif.g08.bks.cpg/sg12_191_cif.got.tgz:380772.got - 2010.06.03 13:09:07.
