data_PCOD9188695
_publ_section_title
;
Structure prediction by ZEFSAII (Michael W. Deem and Ramdas Pophale) SiO2 
 PCOD9188695
Probable space group: C 2/M
;
_chemical_formula_sum "Si O2"
_cell_formula_units_Z 64
_cell_length_a 20.647329
_cell_length_b 8.593244
_cell_length_c 19.532770
_cell_angle_alpha 90.000000
_cell_angle_beta 92.517339
_cell_angle_gamma 90.000000
_cell_volume 3462.306815
_symmetry_space_group_name_H-M "C 2/M"
_symmetry_group_IT_number 12
_symmetry_cell_setting 'monoclinic'
loop_
_space_group_symop_operation_xyz
x,y,z
-x,y,-z
-x,-y,-z
x,-y,z
1/2+x,1/2+y,z
1/2-x,1/2+y,-z
1/2-x,1/2-y,-z
1/2+x,1/2-y,z
loop_
_atom_site_type_symbol
_atom_site_label
_atom_site_fract_x
_atom_site_fract_y
_atom_site_fract_z
Si Si1 0.054936 0.310320 0.554964
Si Si2 0.976952 0.687870 0.291175
Si Si3 0.359873 0.315760 0.195477
Si Si4 0.297663 0.811744 0.444121
Si Si5 0.384358 0.812021 0.764723
Si Si6 0.251519 0.814021 0.290706
Si Si7 0.583824 0.187891 0.935174
Si Si8 0.933451 0.689140 0.912962
O O1 0.054539 0.500000 0.553285
O O2 0.127966 0.260924 0.540752
O O3 0.000000 0.255609 0.500000
O O4 0.037990 0.265601 0.631761
O O5 0.970545 0.500000 0.285625
O O6 0.049682 0.728170 0.272276
O O7 0.924136 0.760882 0.238720
O O8 0.355840 0.500000 0.195039
O O9 0.299328 0.248763 0.234495
O O10 0.367860 0.254965 0.118579
O O11 0.250000 0.750000 0.500000
O O12 0.275382 0.761315 0.367072
O O13 0.296499 0.000000 0.445389
O O14 0.320977 0.740846 0.728121
O O15 0.395249 0.759932 0.843901
O O16 0.378342 0.000000 0.763851
O O17 0.254950 0.000000 0.290276
O O18 0.509445 0.234115 0.913429
O O19 0.586322 0.000000 0.932373
O O20 0.594049 0.237270 0.014455
O O21 0.933473 0.500000 0.912494
#
# Coordination Sequence:
#
# PCOD9188695 Si02
#       8
#     8   8   8   8   8   8   8   8
#     4   9  18  34  58  86 111 142 186 231 274 332
#     4  10  19  36  61  84 114 151 189 234 285 340
#     4  12  23  36  57  86 115 149 195 243 282 331
#     4  10  22  39  60  83 113 148 188 231 280 343
#     4  10  20  35  59  90 116 146 191 241 283 334
#     4  11  24  42  59  79 115 159 194 231 283 344
#     4   9  16  32  58  84 112 150 188 228 288 347
#     4   8  15  30  56  86 114 146 188 233 280 342
#
# _framework density 18.484786
#
# number of rings (size 3 to 8) (size 9 to 14) (size 15 to 20)
#    0.000    2.125    2.500    2.250    1.750    1.500 
#    0.000    2.500    0.000    0.750    0.000    0.000 
#    0.000    0.000    0.000    0.000    0.000    0.000 
#
# Total GULP energy -178622.290749 kJ/mol
# GULP energy per Si atom -5581.946586 kJ/mol
# Density = 1.844271 g / cm^3
# Si number density = 18.484786 Si / 1000 Ang^3
#
#
#
# Elastic Constant Matrix: (Units=GPa)
#
#
# Indices 1 2 3 4 5 6 
#
# 1 127.5382 28.8843 62.3116 0.0000 -9.7509 0.0000
# 2 28.8843 22.4024 20.7209 0.0000 -6.1432 0.0000
# 3 62.3116 20.7209 118.7373 0.0000 -17.3755 0.0000
# 4 0.0000 0.0000 0.0000 18.0468 0.0000 -0.5659
# 5 -9.7509 -6.1432 -17.3755 0.0000 32.9736 0.0000
# 6 0.0000 0.0000 0.0000 -0.5659 0.0000 26.7777
#
#
#
# Elastic Compliance Matrix: (Units=1/GPa)
#
#
# Indices 1 2 3 4 5 6 
#
# 1 0.012922 -0.012556 -0.004739 0.000000 -0.001015 0.000000
# 2 -0.012556 0.066347 -0.004035 0.000000 0.006522 0.000000
# 3 -0.004739 -0.004035 0.012242 0.000000 0.004298 0.000000
# 4 0.000000 0.000000 0.000000 0.055448 0.000000 0.001172
# 5 -0.001015 0.006522 0.004298 0.000000 0.033507 0.000000
# 6 0.000000 0.000000 0.000000 0.001172 0.000000 0.037369
#
#
# Mechanical properties :
#
#
# Convention : Reuss Voigt Hill
#
# Bulk Modulus (GPa) = 20.46993 54.72349 37.59671
# Shear Modulus (GPa) = 18.06499 26.01037 22.03768
#
# Velocity S-wave (km/s) = 3.12955 3.75523 3.45658
# Velocity P-wave (km/s) = 4.91496 6.96213 6.02611
#
# Compressibility (1/GPa) = 0.04885215
#
# Stress axis : x y z
#
# Youngs Moduli (GPa) = 77.38733 15.07219 81.68790
#
# Poissons Ratio (x) = 0.18925 0.38709
# Poissons Ratio (y) = 0.97169 0.32958
# Poissons Ratio (z) = 0.36671 0.06081
#
# Static dielectric constant tensor:
#      x y z
#    x 1.609710 0.000000 0.000300 
#    y 0.000000 1.634270 0.000000 
#    z 0.000300 0.000000 1.643750 
# 
# From -- ./inp_files/314065.got.cif
#   From: 2010.05.17/outbox.cif.g08.bks.cpg/sg12_158_cif.got.tgz:314065.got - 2010.06.03 13:09:07.
