data_PCOD9188911
_publ_section_title
;
Structure prediction by ZEFSAII (Michael W. Deem and Ramdas Pophale) SiO2 
 PCOD9188911
Probable space group: C 2/M
;
_chemical_formula_sum "Si O2"
_cell_formula_units_Z 56
_cell_length_a 15.818032
_cell_length_b 15.248711
_cell_length_c 18.535518
_cell_angle_alpha 90.000000
_cell_angle_beta 37.960007
_cell_angle_gamma 90.000000
_cell_volume 2750.071635
_symmetry_space_group_name_H-M "C 2/M"
_symmetry_group_IT_number 12
_symmetry_cell_setting 'monoclinic'
loop_
_space_group_symop_operation_xyz
x,y,z
-x,y,-z
-x,-y,-z
x,-y,z
1/2+x,1/2+y,z
1/2-x,1/2+y,-z
1/2-x,1/2-y,-z
1/2+x,1/2-y,z
loop_
_atom_site_type_symbol
_atom_site_label
_atom_site_fract_x
_atom_site_fract_y
_atom_site_fract_z
Si Si1 0.273353 0.834804 0.935182
Si Si2 0.638626 0.893447 0.861701
Si Si3 0.378498 0.395555 0.308550
Si Si4 0.097969 0.790246 0.262517
Si Si5 0.563084 0.900107 0.756648
Si Si6 0.363993 0.818235 0.447218
Si Si7 0.985433 0.898826 0.088965
O O1 0.320705 0.789909 0.829296
O O2 0.400037 0.891093 0.877956
O O3 0.250000 0.750000 0.000000
O O4 0.137841 0.891201 0.018721
O O5 0.782273 0.855459 0.793805
O O6 0.625857 0.860994 0.787373
O O7 0.642538 0.000000 0.860177
O O8 0.500000 0.868468 0.000000
O O9 0.409702 0.500000 0.290768
O O10 0.493461 0.342046 0.277943
O O11 0.223605 0.380307 0.441535
O O12 0.391138 0.363841 0.216950
O O13 0.993848 0.739268 0.386686
O O14 0.595141 0.861982 0.656582
O O15 0.607556 0.000000 0.724248
O O16 0.250000 0.750000 0.500000
O O17 0.942806 0.000000 0.106484
O O18 0.000000 0.856679 0.000000
#
# Coordination Sequence:
#
# PCOD9188911 Si02
#       7
#     8   8   8   8   8   8   8
#     4  11  20  34  56  85 121 155 195 236 299 358
#     4  10  21  36  57  92 129 159 196 239 292 356
#     4  10  19  36  63  85 114 156 199 246 293 353
#     4  10  20  36  56  87 122 159 193 238 294 354
#     4  10  21  37  60  84 117 160 199 241 288 352
#     4   9  20  38  59  81 114 153 204 244 289 346
#     4  10  22  38  59  87 116 152 198 248 301 357
#
# _framework density 20.363105000000001
#
# number of rings (size 3 to 8) (size 9 to 14) (size 15 to 20)
#    0.000    2.000    1.429    2.143    0.000    1.714 
#    0.000    2.857    3.143    7.714    0.000    7.000 
#    0.000    0.000    0.000    0.000    0.000    0.000 
#
# Total GULP energy -155895.193718 kJ/mol
# GULP energy per Si atom -5567.685490 kJ/mol
# Density = 2.031676 g / cm^3
# Si number density = 20.363105 Si / 1000 Ang^3
#
#
#
# Elastic Constant Matrix: (Units=GPa)
#
#
# Indices 1 2 3 4 5 6 
#
# 1 72.3048 5.6356 54.4189 0.0000 6.0592 0.0000
# 2 5.6356 55.7413 20.7347 0.0000 4.1004 0.0000
# 3 54.4189 20.7347 144.7673 -0.0001 3.0309 0.0000
# 4 0.0000 0.0000 -0.0001 27.3170 0.0000 -17.9289
# 5 6.0592 4.1004 3.0309 0.0000 27.3943 0.0000
# 6 0.0000 0.0000 0.0000 -17.9289 0.0000 16.7107
#
#
#
# Elastic Compliance Matrix: (Units=1/GPa)
#
#
# Indices 1 2 3 4 5 6 
#
# 1 0.019681 0.001061 -0.007473 0.000000 -0.003685 0.000000
# 2 0.001061 0.019185 -0.003089 0.000000 -0.002765 0.000000
# 3 -0.007473 -0.003089 0.010138 0.000000 0.000994 0.000000
# 4 0.000000 0.000000 0.000000 0.123744 0.000000 0.132765
# 5 -0.003685 -0.002765 0.000994 0.000000 0.037623 0.000000
# 6 0.000000 0.000000 0.000000 0.132765 0.000000 0.202285
#
#
# Mechanical properties :
#
#
# Convention : Reuss Voigt Hill
#
# Bulk Modulus (GPa) = 33.33013 48.26577 40.79795
# Shear Modulus (GPa) = 11.32094 27.08600 19.20347
#
# Velocity S-wave (km/s) = 2.36042 3.65108 3.07425
# Velocity P-wave (km/s) = 4.88183 6.44421 5.71665
#
# Compressibility (1/GPa) = 0.03000288
#
# Stress axis : x y z
#
# Youngs Moduli (GPa) = 50.81078 52.12381 98.63511
#
# Poissons Ratio (x) = -0.05531 0.73710
# Poissons Ratio (y) = -0.05391 0.30467
# Poissons Ratio (z) = 0.37971 0.16100
#
# Static dielectric constant tensor:
#      x y z
#    x 1.768450 0.000000 0.094880 
#    y 0.000000 1.743940 0.000000 
#    z 0.094880 0.000000 1.893210 
# 
# From -- ./inp_files/271376.got.cif
#   From: 2010.05.17/outbox.cif.g08.bks.cpg/sg12_136_cif.got.tgz:271376.got - 2010.06.03 13:09:07.
