data_PCOD9188334
_publ_section_title
;
Structure prediction by ZEFSAII (Michael W. Deem and Ramdas Pophale) SiO2 
 PCOD9188334
Probable space group: C 2/M
;
_chemical_formula_sum "Si O2"
_cell_formula_units_Z 44
_cell_length_a 10.532302
_cell_length_b 24.917618
_cell_length_c 8.799092
_cell_angle_alpha 90.000000
_cell_angle_beta 112.756234
_cell_angle_gamma 90.000000
_cell_volume 2129.479400
_symmetry_space_group_name_H-M "C 2/M"
_symmetry_group_IT_number 12
_symmetry_cell_setting 'monoclinic'
loop_
_space_group_symop_operation_xyz
x,y,z
-x,y,-z
-x,-y,-z
x,-y,z
1/2+x,1/2+y,z
1/2-x,1/2+y,-z
1/2-x,1/2-y,-z
1/2+x,1/2-y,z
loop_
_atom_site_type_symbol
_atom_site_label
_atom_site_fract_x
_atom_site_fract_y
_atom_site_fract_z
Si Si1 0.416896 0.842104 0.646919
Si Si2 0.193968 0.710267 0.685666
Si Si3 0.711493 0.669699 0.801346
Si Si4 0.744832 0.061489 0.576485
Si Si5 0.654868 0.626343 0.104474
Si Si6 0.000000 0.897973 0.500000
O O1 0.342379 0.795817 0.509175
O O2 0.575379 0.827666 0.704286
O O3 0.356608 0.840442 0.786004
O O4 0.365323 0.897746 0.549146
O O5 0.185712 0.767162 0.762531
O O6 0.336133 0.679567 0.784337
O O7 0.594122 0.638489 0.652591
O O8 0.711840 0.646794 0.970175
O O9 0.771953 0.080816 0.761658
O O10 0.889110 0.069831 0.550888
O O11 0.702415 0.000000 0.548228
O O12 0.500000 0.609352 0.000000
#
# Coordination Sequence:
#
# PCOD9188334 Si02
#       6
#     8   8   8   8   8   4
#     4   9  21  38  59  90 112 149 209 233 285 352
#     4  10  21  38  59  85 122 159 186 237 289 344
#     4  11  21  35  59  87 123 158 185 240 286 351
#     4  10  21  40  63  83 115 153 195 253 295 330
#     4  11  23  38  53  88 125 150 202 226 286 359
#     4  10  19  36  58  92 114 144 203 244 286 356
#
# _framework density 20.662327000000001
#
# number of rings (size 3 to 8) (size 9 to 14) (size 15 to 20)
#    0.000    1.818    1.818    2.455    2.545    1.091 
#    0.000    8.182    0.000    0.000    0.000   14.000 
#    0.000    0.000    0.000    0.000    0.000    0.000 
#
# Total GULP energy -122786.954420 kJ/mol
# GULP energy per Si atom -5581.225201 kJ/mol
# Density = 2.061530 g / cm^3
# Si number density = 20.662327 Si / 1000 Ang^3
#
#
#
# Elastic Constant Matrix: (Units=GPa)
#
#
# Indices 1 2 3 4 5 6 
#
# 1 52.2853 30.7052 7.1598 0.0000 -16.3242 0.0000
# 2 30.7052 145.5151 22.7875 0.0000 2.1370 0.0000
# 3 7.1598 22.7875 81.8901 0.0000 -10.1368 0.0000
# 4 0.0000 0.0000 0.0000 4.6473 0.0000 -6.0224
# 5 -16.3242 2.1370 -10.1368 0.0000 37.9695 0.0000
# 6 0.0000 0.0000 0.0000 -6.0224 0.0000 13.8377
#
#
#
# Elastic Compliance Matrix: (Units=1/GPa)
#
#
# Indices 1 2 3 4 5 6 
#
# 1 0.026096 -0.005803 0.000788 0.000000 0.011757 0.000000
# 2 -0.005803 0.008510 -0.002305 0.000000 -0.003589 0.000000
# 3 0.000788 -0.002305 0.013281 0.000000 0.004014 0.000000
# 4 0.000000 0.000000 0.000000 0.493525 0.000000 0.214789
# 5 0.011757 -0.003589 0.004014 0.000000 0.032665 0.000000
# 6 0.000000 0.000000 0.000000 0.214789 0.000000 0.165746
#
#
# Mechanical properties :
#
#
# Convention : Reuss Voigt Hill
#
# Bulk Modulus (GPa) = 30.07655 44.55507 37.31581
# Shear Modulus (GPa) = 6.53130 25.89344 16.21237
#
# Velocity S-wave (km/s) = 1.77984 3.54386 2.80417
# Velocity P-wave (km/s) = 4.33723 6.19318 5.34636
#
# Compressibility (1/GPa) = 0.03324849
#
# Stress axis : x y z
#
# Youngs Moduli (GPa) = 38.31982 117.50545 75.29608
#
# Poissons Ratio (x) = 0.68185 -0.05936
# Poissons Ratio (y) = 0.22236 0.17356
# Poissons Ratio (z) = -0.03021 0.27086
#
# Static dielectric constant tensor:
#      x y z
#    x 1.780090 0.000000 -0.031260 
#    y 0.000000 1.717460 0.000000 
#    z -0.031260 0.000000 1.745080 
# 
# From -- ./inp_files/50883.got.cif
#   From: 2010.05.17/outbox.cif.g08.bks.cpg/sg12_26_cif.got.tgz:50883.got - 2010.06.03 13:09:07.
