data_PCOD9188392
_publ_section_title
;
Structure prediction by ZEFSAII (Michael W. Deem and Ramdas Pophale) SiO2 
 PCOD9188392
Probable space group: C 2/M
;
_chemical_formula_sum "Si O2"
_cell_formula_units_Z 50
_cell_length_a 27.260990
_cell_length_b 7.891034
_cell_length_c 11.817715
_cell_angle_alpha 90.000000
_cell_angle_beta 83.926734
_cell_angle_gamma 90.000000
_cell_volume 2527.927829
_symmetry_space_group_name_H-M "C 2/M"
_symmetry_group_IT_number 12
_symmetry_cell_setting 'monoclinic'
loop_
_space_group_symop_operation_xyz
x,y,z
-x,y,-z
-x,-y,-z
x,-y,z
1/2+x,1/2+y,z
1/2-x,1/2+y,-z
1/2-x,1/2-y,-z
1/2+x,1/2-y,z
loop_
_atom_site_type_symbol
_atom_site_label
_atom_site_fract_x
_atom_site_fract_y
_atom_site_fract_z
Si Si1 0.455937 0.204222 0.359143
Si Si2 0.696126 0.701103 0.554942
Si Si3 0.943741 0.696101 0.783314
Si Si4 0.000000 0.500000 0.000000
Si Si5 0.893753 0.200052 0.579357
Si Si6 0.637170 0.800310 0.775944
Si Si7 0.429133 0.686719 0.032657
O O1 0.506369 0.260834 0.288310
O O2 0.440598 0.274175 0.484864
O O3 0.410034 0.248864 0.290058
O O4 0.459138 0.000000 0.369263
O O5 0.691402 0.500000 0.554312
O O6 0.750000 0.750000 0.500000
O O7 0.653513 0.766295 0.479561
O O8 0.683417 0.757316 0.685609
O O9 0.952824 0.500000 0.822535
O O10 0.903871 0.704507 0.693633
O O11 0.928099 0.797099 0.897366
O O12 0.963239 0.346542 0.058776
O O13 0.888170 0.000000 0.603775
O O14 0.624284 0.711845 0.896874
O O15 0.637279 0.000000 0.793870
O O16 0.447714 0.500000 0.060719
#
# Coordination Sequence:
#
# PCOD9188392 Si02
#       7
#     8   8   8   2   8   8   8
#     4   9  19  32  51  75 107 152 193 233 279 334
#     4  10  21  38  61  89 114 143 190 245 307 367
#     4  11  21  35  54  77 115 156 201 237 278 348
#     4  12  22  40  52  82 118 160 214 244 284 336
#     4  10  21  35  52  79 113 145 188 241 292 352
#     4  10  19  36  59  82 118 151 193 248 296 347
#     4  12  24  37  57  82 116 162 206 251 292 339
#
# _framework density 19.779046000000001
#
# number of rings (size 3 to 8) (size 9 to 14) (size 15 to 20)
#    0.000    1.600    1.600    3.600    2.240    5.760 
#    0.000    0.000    0.000    0.960    0.000    0.000 
#    0.000    0.000    0.000    0.000    0.000    0.000 
#
# Total GULP energy -139413.585727 kJ/mol
# GULP energy per Si atom -5576.543429 kJ/mol
# Density = 1.973403 g / cm^3
# Si number density = 19.779046 Si / 1000 Ang^3
#
#
#
# Elastic Constant Matrix: (Units=GPa)
#
#
# Indices 1 2 3 4 5 6 
#
# 1 70.4710 11.2713 47.5887 0.0000 -25.3754 0.0000
# 2 11.2713 96.1378 31.8575 0.0000 -7.1669 0.0000
# 3 47.5887 31.8575 126.5433 0.0000 -26.4408 0.0000
# 4 0.0000 0.0000 0.0000 28.7872 0.0000 -3.3968
# 5 -25.3754 -7.1669 -26.4408 0.0000 33.3494 0.0000
# 6 0.0000 0.0000 0.0000 -3.3968 0.0000 16.8407
#
#
#
# Elastic Compliance Matrix: (Units=1/GPa)
#
#
# Indices 1 2 3 4 5 6 
#
# 1 0.022725 0.000256 -0.005976 0.000000 0.012608 0.000000
# 2 0.000256 0.011353 -0.002881 0.000000 0.000350 0.000000
# 3 -0.005976 -0.002881 0.011741 0.000000 0.004142 0.000000
# 4 0.000000 0.000000 0.000000 0.035585 0.000000 0.007178
# 5 0.012608 0.000350 0.004142 0.000000 0.042938 0.000000
# 6 0.000000 0.000000 0.000000 0.007178 0.000000 0.060828
#
#
# Mechanical properties :
#
#
# Convention : Reuss Voigt Hill
#
# Bulk Modulus (GPa) = 34.94596 52.73193 43.83895
# Shear Modulus (GPa) = 23.59493 29.29109 26.44301
#
# Velocity S-wave (km/s) = 3.45762 3.85244 3.66036
# Velocity P-wave (km/s) = 5.80058 6.81959 6.33062
#
# Compressibility (1/GPa) = 0.02861561
#
# Stress axis : x y z
#
# Youngs Moduli (GPa) = 44.00459 88.08591 85.17412
#
# Poissons Ratio (x) = -0.02254 0.50901
# Poissons Ratio (y) = -0.01126 0.24540
# Poissons Ratio (z) = 0.26297 0.25378
#
# Static dielectric constant tensor:
#      x y z
#    x 3.686590 0.000000 -2.399780 
#    y 0.000000 1.716640 0.000000 
#    z -2.399780 0.000000 3.291760 
# 
# From -- ./inp_files/179781.got.cif
#   From: 2010.05.17/outbox.cif.g08.bks.cpg/sg12_90_cif.got.tgz:179781.got - 2010.06.03 13:09:07.
