data_PCOD9188324
_publ_section_title
;
Structure prediction by ZEFSAII (Michael W. Deem and Ramdas Pophale) SiO2 
 PCOD9188324
Probable space group: C 2/M
;
_chemical_formula_sum "Si O2"
_cell_formula_units_Z 60
_cell_length_a 18.912111
_cell_length_b 7.747373
_cell_length_c 21.050325
_cell_angle_alpha 90.000000
_cell_angle_beta 58.055186
_cell_angle_gamma 90.000000
_cell_volume 2617.187680
_symmetry_space_group_name_H-M "C 2/M"
_symmetry_group_IT_number 12
_symmetry_cell_setting 'monoclinic'
loop_
_space_group_symop_operation_xyz
x,y,z
-x,y,-z
-x,-y,-z
x,-y,z
1/2+x,1/2+y,z
1/2-x,1/2+y,-z
1/2-x,1/2-y,-z
1/2+x,1/2-y,z
loop_
_atom_site_type_symbol
_atom_site_label
_atom_site_fract_x
_atom_site_fract_y
_atom_site_fract_z
Si Si1 0.304853 0.201701 0.400328
Si Si2 0.224989 0.699040 0.082242
Si Si3 0.894539 0.202615 0.239816
Si Si4 0.407991 0.500000 0.427146
Si Si5 0.867029 0.201432 0.675195
Si Si6 0.613696 0.806544 0.476086
Si Si7 0.201801 0.704228 0.828065
Si Si8 0.063251 0.706728 0.230364
O O1 0.327328 0.200844 0.315233
O O2 0.366618 0.344212 0.401028
O O3 0.210369 0.268371 0.450373
O O4 0.309484 0.000000 0.419467
O O5 0.204211 0.500000 0.087913
O O6 0.295312 0.725236 0.102114
O O7 0.142466 0.779530 0.153484
O O8 0.250000 0.750000 0.000000
O O9 0.645054 0.500000 0.334472
O O10 0.878754 0.252758 0.174811
O O11 0.982676 0.251269 0.227710
O O12 0.433865 0.652450 0.466737
O O13 0.886383 0.293785 0.600305
O O14 0.782896 0.271244 0.750084
O O15 0.934643 0.213201 0.700068
O O16 0.118626 0.000000 0.748144
O O17 0.588304 0.000000 0.506514
O O18 0.211458 0.500000 0.827954
O O19 0.067802 0.500000 0.237208
#
# Coordination Sequence:
#
# PCOD9188324 Si02
#       8
#     8   8   8   4   8   8   8   8
#     4  12  23  37  56  83 121 161 202 261 320 375
#     4  10  21  39  64  94 129 164 202 248 301 364
#     4  12  23  39  60  90 124 162 208 259 310 368
#     4  12  24  38  52  87 122 157 207 255 327 381
#     4  10  19  36  58  88 118 156 206 260 311 364
#     4  12  22  34  56  84 120 157 203 263 316 376
#     4  10  20  35  60  90 123 160 204 255 306 355
#     4  10  22  39  62  90 122 163 207 251 305 370
#
# _framework density 22.925370000000001
#
# number of rings (size 3 to 8) (size 9 to 14) (size 15 to 20)
#    0.000    1.067    4.000    3.600    0.000    2.667 
#    0.000    0.667    0.000    5.600    0.000    2.800 
#    0.000    0.000    0.000    0.000    0.000    0.000 
#
# Total GULP energy -167339.975231 kJ/mol
# GULP energy per Si atom -5577.999174 kJ/mol
# Density = 2.287319 g / cm^3
# Si number density = 22.925370 Si / 1000 Ang^3
#
#
#
# Elastic Constant Matrix: (Units=GPa)
#
#
# Indices 1 2 3 4 5 6 
#
# 1 74.7469 -9.7182 27.3900 0.0000 22.0711 0.0000
# 2 -9.7182 147.1804 21.3322 -0.0003 -3.2959 -0.0003
# 3 27.3900 21.3322 126.0899 0.0000 32.3575 -0.0001
# 4 0.0000 -0.0003 0.0000 31.3486 0.0000 15.7796
# 5 22.0711 -3.2959 32.3575 0.0000 29.1207 -0.0002
# 6 0.0000 -0.0003 -0.0001 15.7796 -0.0002 21.8232
#
#
#
# Elastic Compliance Matrix: (Units=1/GPa)
#
#
# Indices 1 2 3 4 5 6 
#
# 1 0.017401 0.000997 -0.000830 0.000000 -0.012154 0.000000
# 2 0.000997 0.007206 -0.002030 0.000000 0.002316 0.000000
# 3 -0.000830 -0.002030 0.011684 0.000000 -0.012583 0.000000
# 4 0.000000 0.000000 0.000000 0.050153 0.000000 -0.036264
# 5 -0.012154 0.002316 -0.012583 0.000000 0.057795 0.000001
# 6 0.000000 0.000000 0.000000 -0.036264 0.000001 0.072044
#
#
# Mechanical properties :
#
#
# Convention : Reuss Voigt Hill
#
# Bulk Modulus (GPa) = 30.70726 47.33612 39.02169
# Shear Modulus (GPa) = 21.65779 37.05938 29.35858
#
# Velocity S-wave (km/s) = 3.07695 4.02496 3.58245
# Velocity P-wave (km/s) = 5.10362 6.50332 5.84552
#
# Compressibility (1/GPa) = 0.03256559
#
# Stress axis : x y z
#
# Youngs Moduli (GPa) = 57.46844 138.76754 85.58961
#
# Poissons Ratio (x) = -0.13836 0.07101
# Poissons Ratio (y) = -0.05730 0.17375
# Poissons Ratio (z) = 0.04768 0.28170
#
# Static dielectric constant tensor:
#      x y z
#    x 1.970010 0.000000 -0.036970 
#    y 0.000000 1.840740 0.000000 
#    z -0.036970 0.000000 1.948690 
# 
# From -- ./inp_files/313969.got.cif
#   From: 2010.05.17/outbox.cif.g08.bks.cpg/sg12_157_cif.got.tgz:313969.got - 2010.06.03 13:09:07.
