data_PCOD9188849
_publ_section_title
;
Structure prediction by ZEFSAII (Michael W. Deem and Ramdas Pophale) SiO2 
 PCOD9188849
Probable space group: C 2/M
;
_chemical_formula_sum "Si O2"
_cell_formula_units_Z 40
_cell_length_a 17.713688
_cell_length_b 25.882332
_cell_length_c 8.815848
_cell_angle_alpha 90.000000
_cell_angle_beta 146.314343
_cell_angle_gamma 90.000000
_cell_volume 2241.736984
_symmetry_space_group_name_H-M "C 2/M"
_symmetry_group_IT_number 12
_symmetry_cell_setting 'monoclinic'
loop_
_space_group_symop_operation_xyz
x,y,z
-x,y,-z
-x,-y,-z
x,-y,z
1/2+x,1/2+y,z
1/2-x,1/2+y,-z
1/2-x,1/2-y,-z
1/2+x,1/2-y,z
loop_
_atom_site_type_symbol
_atom_site_label
_atom_site_fract_x
_atom_site_fract_y
_atom_site_fract_z
Si Si1 0.346601 0.439560 0.292140
Si Si2 0.607569 0.844853 0.405579
Si Si3 0.349161 0.254327 0.310004
Si Si4 0.850559 0.557660 0.324450
Si Si5 0.796816 0.651084 0.778590
O O1 0.500000 0.425635 0.500000
O O2 0.344986 0.500000 0.336980
O O3 0.280312 0.401619 0.304612
O O4 0.255591 0.434984 0.988780
O O5 0.645789 0.797088 0.578044
O O6 0.656823 0.897264 0.566783
O O7 0.672530 0.842148 0.347637
O O8 0.443761 0.846978 0.108573
O O9 0.500000 0.263791 0.500000
O O10 0.294615 0.301835 0.316850
O O11 0.250000 0.250000 0.000000
O O12 0.831979 0.500000 0.358163
O O13 0.000000 0.560001 0.500000
#
# Coordination Sequence:
#
# PCOD9188849 Si02
#       5
#     8   8   8   8   8
#     4  10  21  39  62  89 121 157 198 241 288 351
#     4  11  23  39  59  90 125 149 195 253 297 348
#     4  12  23  41  63  84 115 157 201 243 289 352
#     4  10  19  36  62  88 116 154 199 239 286 348
#     4  11  23  39  60  89 122 156 193 245 304 352
#
# _framework density 17.843305999999998
#
# number of rings (size 3 to 8) (size 9 to 14) (size 15 to 20)
#    0.000    1.200    4.000    3.000    0.000    0.800 
#    0.000    5.000    0.000    3.600    0.000    0.000 
#    0.000    0.000    0.000    0.000    0.000    0.000 
#
# Total GULP energy -111727.594884 kJ/mol
# GULP energy per Si atom -5586.379744 kJ/mol
# Density = 1.780269 g / cm^3
# Si number density = 17.843306 Si / 1000 Ang^3
#
#
#
# Elastic Constant Matrix: (Units=GPa)
#
#
# Indices 1 2 3 4 5 6 
#
# 1 121.5239 89.8545 60.8673 0.0000 12.2811 0.0000
# 2 89.8545 139.1621 45.7917 0.0000 1.0309 0.0000
# 3 60.8673 45.7917 116.3251 0.0000 18.4830 0.0000
# 4 0.0000 0.0000 0.0000 30.7907 0.0000 9.8725
# 5 12.2811 1.0309 18.4830 0.0000 25.0327 0.0000
# 6 0.0000 0.0000 0.0000 9.8725 0.0000 -3.5140
#
#
#
# Elastic Compliance Matrix: (Units=1/GPa)
#
#
# Indices 1 2 3 4 5 6 
#
# 1 0.019167 -0.010699 -0.004977 0.000000 -0.005288 0.000000
# 2 -0.010699 0.014349 -0.000896 0.000000 0.005319 0.000000
# 3 -0.004977 -0.000896 0.012643 0.000000 -0.006856 0.000000
# 4 0.000000 0.000000 0.000000 0.017086 0.000000 0.048003
# 5 -0.005288 0.005319 -0.006856 0.000000 0.047385 0.000000
# 6 0.000000 0.000000 0.000000 0.048003 0.000000 -0.149714
#
#
# Mechanical properties :
#
#
# Convention : Reuss Voigt Hill
#
# Bulk Modulus (GPa) = 76.83109 85.55979 81.19544
# Shear Modulus (GPa) = -3119.34906 22.49507 -1548.42699
#
# Velocity S-wave (km/s) = -41.85672 3.55449 -29.49026
# Velocity P-wave (km/s) = 47.88349 8.05609 33.37610
#
# Compressibility (1/GPa) = 0.01301556
#
# Stress axis : x y z
#
# Youngs Moduli (GPa) = 52.17383 69.69077 79.09546
#
# Poissons Ratio (x) = 0.74560 0.39368
# Poissons Ratio (y) = 0.55819 0.07084
# Poissons Ratio (z) = 0.25968 0.06242
#
# Static dielectric constant tensor:
#      x y z
#    x 1.576660 0.000000 0.009600 
#    y 0.000000 1.613270 0.000000 
#    z 0.009600 0.000000 1.612410 
# 
# From -- ./inp_files/39343.got.cif
#   From: 2010.05.17/outbox.cif.g08.bks.cpg/sg12_20_cif.got.tgz:39343.got - 2010.06.03 13:09:07.
