data_PCOD9188054
_publ_section_title
;
Structure prediction by ZEFSAII (Michael W. Deem and Ramdas Pophale) SiO2 
 PCOD9188054
Probable space group: C 2/M
;
_chemical_formula_sum "Si O2"
_cell_formula_units_Z 40
_cell_length_a 24.726828
_cell_length_b 13.016193
_cell_length_c 5.602927
_cell_angle_alpha 90.000000
_cell_angle_beta 91.929428
_cell_angle_gamma 90.000000
_cell_volume 1802.275009
_symmetry_space_group_name_H-M "C 2/M"
_symmetry_group_IT_number 12
_symmetry_cell_setting 'monoclinic'
loop_
_space_group_symop_operation_xyz
x,y,z
-x,y,-z
-x,-y,-z
x,-y,z
1/2+x,1/2+y,z
1/2-x,1/2+y,-z
1/2-x,1/2-y,-z
1/2+x,1/2-y,z
loop_
_atom_site_type_symbol
_atom_site_label
_atom_site_fract_x
_atom_site_fract_y
_atom_site_fract_z
Si Si1 0.500000 0.307690 0.000000
Si Si2 0.392174 0.616045 0.200604
Si Si3 0.773738 0.380953 0.260037
Si Si4 0.385951 0.182796 0.514468
Si Si5 0.000000 0.679826 0.500000
Si Si6 0.683088 0.259739 0.126109
O O1 0.445678 0.372648 0.043554
O O2 0.505602 0.242725 0.248739
O O3 0.388406 0.500000 0.290122
O O4 0.395504 0.704445 0.400921
O O5 0.339267 0.650286 0.045528
O O6 0.761092 0.500000 0.255652
O O7 0.830896 0.364226 0.400156
O O8 0.720854 0.315420 0.327139
O O9 0.784792 0.330158 0.003223
O O10 0.441841 0.124749 0.477543
O O11 0.370060 0.203752 0.783170
#
# Coordination Sequence:
#
# PCOD9188054 Si02
#       6
#     4   8   8   8   4   8
#     4  10  19  36  54  88 125 168 207 248 304 366
#     4  10  20  33  53  85 121 158 201 244 298 366
#     4  10  22  38  60  87 116 153 202 255 307 367
#     4  10  21  38  58  86 118 160 200 248 308 367
#     4  10  20  38  64  86 128 168 206 254 310 368
#     4  10  20  39  59  84 120 155 197 250 311 365
#
# _framework density 22.194168999999999
#
# number of rings (size 3 to 8) (size 9 to 14) (size 15 to 20)
#    0.000    2.000    2.000    1.500    0.000    2.400 
#    0.000    3.000    0.000    1.200    0.000    0.000 
#    0.000    0.000    0.000    0.000    0.000    0.000 
#
# Total GULP energy -111381.674440 kJ/mol
# GULP energy per Si atom -5569.083722 kJ/mol
# Density = 2.214365 g / cm^3
# Si number density = 22.194169 Si / 1000 Ang^3
#
#
#
# Elastic Constant Matrix: (Units=GPa)
#
#
# Indices 1 2 3 4 5 6 
#
# 1 127.1562 2.2951 -5.1223 0.0000 2.3381 0.0000
# 2 2.2951 70.6469 7.5099 0.0000 3.3808 0.0000
# 3 -5.1223 7.5099 43.3532 0.0000 1.4828 0.0000
# 4 0.0000 0.0000 0.0000 -0.4332 0.0000 -1.8508
# 5 2.3381 3.3808 1.4828 0.0000 39.0317 0.0000
# 6 0.0000 0.0000 0.0000 -1.8508 0.0000 14.8570
#
#
#
# Elastic Compliance Matrix: (Units=1/GPa)
#
#
# Indices 1 2 3 4 5 6 
#
# 1 0.007920 -0.000342 0.001012 0.000000 -0.000483 0.000000
# 2 -0.000342 0.014487 -0.002511 0.000000 -0.001139 0.000000
# 3 0.001012 -0.002511 0.023646 0.000000 -0.000741 0.000000
# 4 0.000000 0.000000 0.000000 -1.506438 0.000000 -0.187666
# 5 -0.000483 -0.001139 -0.000741 0.000000 0.025776 0.000000
# 6 0.000000 0.000000 0.000000 -0.187666 0.000000 0.043929
#
#
# Mechanical properties :
#
#
# Convention : Reuss Voigt Hill
#
# Bulk Modulus (GPa) = 23.60086 27.83575 25.71831
# Shear Modulus (GPa) = -3.64200 26.45601 11.40700
#
# Velocity S-wave (km/s) = -1.28239 3.45632 2.26954
# Velocity P-wave (km/s) = 2.90933 5.33829 4.29892
#
# Compressibility (1/GPa) = 0.04237134
#
# Stress axis : x y z
#
# Youngs Moduli (GPa) = 126.26033 69.02533 42.29012
#
# Poissons Ratio (x) = 0.02359 -0.04278
# Poissons Ratio (y) = 0.04314 0.10619
# Poissons Ratio (z) = -0.12771 0.17332
#
# Static dielectric constant tensor:
#      x y z
#    x 1.946910 0.000000 0.031350 
#    y 0.000000 1.761960 0.000000 
#    z 0.031350 0.000000 1.862010 
# 
# From -- ./inp_files/24107.got.cif
#   From: 2010.05.17/outbox.cif.g08.bks.cpg/sg12_13_cif.got.tgz:24107.got - 2010.06.03 13:09:07.
