data_PCOD9188974
_publ_section_title
;
Structure prediction by ZEFSAII (Michael W. Deem and Ramdas Pophale) SiO2 
 PCOD9188974
Probable space group: C 2/M
;
_chemical_formula_sum "Si O2"
_cell_formula_units_Z 56
_cell_length_a 26.982769
_cell_length_b 7.708321
_cell_length_c 13.122526
_cell_angle_alpha 90.000000
_cell_angle_beta 68.442131
_cell_angle_gamma 90.000000
_cell_volume 2538.449983
_symmetry_space_group_name_H-M "C 2/M"
_symmetry_group_IT_number 12
_symmetry_cell_setting 'monoclinic'
loop_
_space_group_symop_operation_xyz
x,y,z
-x,y,-z
-x,-y,-z
x,-y,z
1/2+x,1/2+y,z
1/2-x,1/2+y,-z
1/2-x,1/2-y,-z
1/2+x,1/2-y,z
loop_
_atom_site_type_symbol
_atom_site_label
_atom_site_fract_x
_atom_site_fract_y
_atom_site_fract_z
Si Si1 0.696121 0.208193 0.599299
Si Si2 0.154314 0.288180 0.838880
Si Si3 0.465947 0.210020 0.124160
Si Si4 0.188007 0.290913 0.035889
Si Si5 0.122348 0.301403 0.276871
Si Si6 0.993523 0.197262 0.684367
Si Si7 0.106629 0.290002 0.511193
O O1 0.750000 0.250000 0.500000
O O2 0.693088 0.270071 0.718341
O O3 0.645503 0.271752 0.571859
O O4 0.691392 0.000000 0.606773
O O5 0.155751 0.500000 0.841846
O O6 0.094952 0.239246 0.849274
O O7 0.167773 0.225054 0.941607
O O8 0.489292 0.281095 0.211217
O O9 0.467586 0.000000 0.131467
O O10 0.500000 0.260762 0.000000
O O11 0.180900 0.500000 0.039668
O O12 0.154835 0.222519 0.158007
O O13 0.250000 0.250000 0.000000
O O14 0.141474 0.500000 0.271725
O O15 0.126369 0.223115 0.386707
O O16 0.059687 0.303316 0.297676
O O17 0.045523 0.243947 0.579602
O O18 0.978908 0.000000 0.674017
O O19 0.108763 0.500000 0.508049
#
# Coordination Sequence:
#
# PCOD9188974 Si02
#       7
#     8   8   8   8   8   8   8
#     4  10  21  37  59  86 116 150 193 243 292 345
#     4   9  18  36  59  84 114 148 189 235 283 344
#     4  10  19  36  64  88 113 156 202 240 282 347
#     4  10  22  40  62  88 116 152 196 240 292 348
#     4  10  22  40  62  85 114 158 206 246 286 350
#     4  12  24  37  57  90 127 155 188 244 306 358
#     4  10  21  40  63  85 115 156 203 246 288 350
#
# _framework density 22.060707000000001
#
# number of rings (size 3 to 8) (size 9 to 14) (size 15 to 20)
#    0.000    1.857    1.429    2.571    2.000    6.000 
#    0.000    0.714    0.000    0.000    0.000    0.000 
#    0.000    0.000    0.000    0.000    0.000    0.000 
#
# Total GULP energy -156500.429132 kJ/mol
# GULP energy per Si atom -5589.301040 kJ/mol
# Density = 2.201050 g / cm^3
# Si number density = 22.060707 Si / 1000 Ang^3
#
#
#
# Elastic Constant Matrix: (Units=GPa)
#
#
# Indices 1 2 3 4 5 6 
#
# 1 44.8834 -7.0579 30.5984 0.0000 -4.7366 0.0000
# 2 -7.0579 42.2927 10.2934 0.0000 2.9722 0.0000
# 3 30.5984 10.2934 198.8621 0.0000 -5.7302 0.0000
# 4 0.0000 0.0000 0.0000 9.7861 0.0000 -10.0837
# 5 -4.7366 2.9722 -5.7302 0.0000 42.9754 0.0000
# 6 0.0000 0.0000 0.0000 -10.0837 0.0000 12.5697
#
#
#
# Elastic Compliance Matrix: (Units=1/GPa)
#
#
# Indices 1 2 3 4 5 6 
#
# 1 0.026213 0.005271 -0.004250 0.000000 0.001958 0.000000
# 2 0.005271 0.025150 -0.002155 0.000000 -0.001446 0.000000
# 3 -0.004250 -0.002155 0.005807 0.000000 0.000455 0.000000
# 4 0.000000 0.000000 0.000000 0.589384 0.000000 0.472819
# 5 0.001958 -0.001446 0.000455 0.000000 0.023646 0.000000
# 6 0.000000 0.000000 0.000000 0.472819 0.000000 0.458864
#
#
# Mechanical properties :
#
#
# Convention : Reuss Voigt Hill
#
# Bulk Modulus (GPa) = 18.21364 39.30068 28.75716
# Shear Modulus (GPa) = 4.34922 29.87985 17.11454
#
# Velocity S-wave (km/s) = 1.40562 3.68426 2.78833
# Velocity P-wave (km/s) = 3.30279 5.99599 4.84047
#
# Compressibility (1/GPa) = 0.05490391
#
# Stress axis : x y z
#
# Youngs Moduli (GPa) = 38.14963 39.76079 172.20213
#
# Poissons Ratio (x) = -0.20958 0.73181
# Poissons Ratio (y) = -0.20109 0.37102
# Poissons Ratio (z) = 0.16212 0.08567
#
# Static dielectric constant tensor:
#      x y z
#    x 1.748640 0.000000 0.009430 
#    y 0.000000 1.820500 0.000000 
#    z 0.009430 0.000000 1.820960 
# 
# From -- ./inp_files/180855.got.cif
#   From: 2010.05.17/outbox.cif.g08.bks.cpg/sg12_91_cif.got.tgz:180855.got - 2010.06.03 13:09:07.
