data_PCOD9188452
_publ_section_title
;
Structure prediction by ZEFSAII (Michael W. Deem and Ramdas Pophale) SiO2 
 PCOD9188452
Probable space group: C 2/M
;
_chemical_formula_sum "Si O2"
_cell_formula_units_Z 64
_cell_length_a 30.945751
_cell_length_b 8.549554
_cell_length_c 14.765670
_cell_angle_alpha 90.000000
_cell_angle_beta 52.895049
_cell_angle_gamma 90.000000
_cell_volume 3115.628402
_symmetry_space_group_name_H-M "C 2/M"
_symmetry_group_IT_number 12
_symmetry_cell_setting 'monoclinic'
loop_
_space_group_symop_operation_xyz
x,y,z
-x,y,-z
-x,-y,-z
x,-y,z
1/2+x,1/2+y,z
1/2-x,1/2+y,-z
1/2-x,1/2-y,-z
1/2+x,1/2-y,z
loop_
_atom_site_type_symbol
_atom_site_label
_atom_site_fract_x
_atom_site_fract_y
_atom_site_fract_z
Si Si1 0.057284 0.183960 0.875863
Si Si2 0.256479 0.686839 0.593314
Si Si3 0.833694 0.686557 0.640453
Si Si4 0.453522 0.311116 0.487856
Si Si5 0.299183 0.186636 0.877882
Si Si6 0.496411 0.310028 0.235938
Si Si7 0.840423 0.315085 0.152150
Si Si8 0.879369 0.813196 0.918034
O O1 0.043625 0.242739 0.792641
O O2 0.103427 0.279095 0.867723
O O3 0.073595 0.000000 0.853929
O O4 0.000000 0.191352 0.000000
O O5 0.255073 0.500000 0.590522
O O6 0.250000 0.750000 0.500000
O O7 0.310262 0.739730 0.578353
O O8 0.207431 0.740513 0.721061
O O9 0.828645 0.500000 0.640668
O O10 0.895807 0.733451 0.577255
O O11 0.801140 0.742449 0.771317
O O12 0.500000 0.266644 0.500000
O O13 0.447068 0.500000 0.500475
O O14 0.474556 0.268517 0.361632
O O15 0.353303 0.238821 0.862010
O O16 0.296002 0.000000 0.880513
O O17 0.250000 0.250000 0.000000
O O18 0.497561 0.500000 0.227489
O O19 0.558676 0.259060 0.145141
O O20 0.834047 0.500000 0.144836
O O21 0.844369 0.231477 0.050275
O O22 0.879543 0.000000 0.907399
#
# Coordination Sequence:
#
# PCOD9188452 Si02
#       8
#     8   8   8   8   8   8   8   8
#     4  10  19  36  59  86 121 163 207 250 302 370
#     4  11  26  46  67  91 123 164 214 265 316 374
#     4  11  25  44  65  93 130 167 209 259 317 376
#     4  10  21  39  64  93 126 167 213 258 307 367
#     4  11  24  41  63  92 124 160 202 251 308 368
#     4   9  19  35  57  87 119 157 205 249 300 363
#     4  11  24  40  60  91 127 160 204 260 316 372
#     4  11  21  38  64  92 123 161 202 250 304 366
#
# _framework density 20.541602999999999
#
# number of rings (size 3 to 8) (size 9 to 14) (size 15 to 20)
#    0.000    1.500    1.250    3.375    1.750    7.500 
#    0.000    1.250    0.000    0.000    0.000    0.000 
#    0.000    0.000    0.000    0.000    0.000    0.000 
#
# Total GULP energy -178923.849389 kJ/mol
# GULP energy per Si atom -5591.370293 kJ/mol
# Density = 2.049485 g / cm^3
# Si number density = 20.541603 Si / 1000 Ang^3
#
#
#
# Elastic Constant Matrix: (Units=GPa)
#
#
# Indices 1 2 3 4 5 6 
#
# 1 103.9076 9.3168 27.4580 0.0000 22.4469 0.0000
# 2 9.3168 29.0551 16.4654 0.0000 5.4721 0.0000
# 3 27.4580 16.4654 92.8970 0.0000 17.4031 0.0000
# 4 0.0000 0.0000 0.0000 21.5928 0.0000 -0.5840
# 5 22.4469 5.4721 17.4031 0.0000 42.7996 0.0000
# 6 0.0000 0.0000 0.0000 -0.5840 0.0000 29.6834
#
#
#
# Elastic Compliance Matrix: (Units=1/GPa)
#
#
# Indices 1 2 3 4 5 6 
#
# 1 0.011393 -0.001493 -0.002186 0.000000 -0.004896 0.000000
# 2 -0.001493 0.038668 -0.006097 0.000000 -0.001682 0.000000
# 3 -0.002186 -0.006097 0.013131 0.000000 -0.003413 0.000000
# 4 0.000000 0.000000 0.000000 0.046336 0.000000 0.000912
# 5 -0.004896 -0.001682 -0.003413 0.000000 0.027535 0.000000
# 6 0.000000 0.000000 0.000000 0.000912 0.000000 0.033707
#
#
# Mechanical properties :
#
#
# Convention : Reuss Voigt Hill
#
# Bulk Modulus (GPa) = 22.91465 36.92668 29.92066
# Shear Modulus (GPa) = 24.40589 30.32314 27.36452
#
# Velocity S-wave (km/s) = 3.45065 3.84628 3.65382
# Velocity P-wave (km/s) = 5.20149 6.14335 5.69193
#
# Compressibility (1/GPa) = 0.04364021
#
# Stress axis : x y z
#
# Youngs Moduli (GPa) = 87.77357 25.86113 76.15660
#
# Poissons Ratio (x) = 0.03860 0.16646
# Poissons Ratio (y) = 0.13101 0.46436
# Poissons Ratio (z) = 0.19185 0.15769
#
# Static dielectric constant tensor:
#      x y z
#    x 1.733450 0.000000 0.005250 
#    y 0.000000 1.704290 0.000000 
#    z 0.005250 0.000000 1.751130 
# 
# From -- ./inp_files/249656.got.cif
#   From: 2010.05.17/outbox.cif.g08.bks.cpg/sg12_125_cif.got.tgz:249656.got - 2010.06.03 13:09:07.
