data_PCOD9188387
_publ_section_title
;
Structure prediction by ZEFSAII (Michael W. Deem and Ramdas Pophale) SiO2 
 PCOD9188387
Probable space group: C 2/M
;
_chemical_formula_sum "Si O2"
_cell_formula_units_Z 58
_cell_length_a 26.625455
_cell_length_b 12.618658
_cell_length_c 14.579809
_cell_angle_alpha 90.000000
_cell_angle_beta 29.582643
_cell_angle_gamma 90.000000
_cell_volume 2418.277891
_symmetry_space_group_name_H-M "C 2/M"
_symmetry_group_IT_number 12
_symmetry_cell_setting 'monoclinic'
loop_
_space_group_symop_operation_xyz
x,y,z
-x,y,-z
-x,-y,-z
x,-y,z
1/2+x,1/2+y,z
1/2-x,1/2+y,-z
1/2-x,1/2-y,-z
1/2+x,1/2-y,z
loop_
_atom_site_type_symbol
_atom_site_label
_atom_site_fract_x
_atom_site_fract_y
_atom_site_fract_z
Si Si1 0.970643 0.620124 0.854490
Si Si2 0.657410 0.115172 0.202204
Si Si3 0.867980 0.662260 0.563861
Si Si4 0.346951 0.881402 0.298293
Si Si5 0.191318 0.156591 0.714394
Si Si6 0.445231 0.616876 0.487276
Si Si7 0.500000 0.500000 0.000000
Si Si8 0.876028 0.791060 0.896391
O O1 0.929232 0.500000 0.918962
O O2 0.050576 0.633072 0.642931
O O3 0.043213 0.631603 0.827426
O O4 0.895180 0.717778 0.954438
O O5 0.601719 0.112717 0.387843
O O6 0.622611 0.206008 0.189239
O O7 0.656084 0.000000 0.159875
O O8 0.771560 0.147052 0.051707
O O9 0.760397 0.630417 0.692507
O O10 0.870091 0.787498 0.584437
O O11 0.261595 0.873398 0.514360
O O12 0.326435 0.782578 0.265856
O O13 0.341261 0.000000 0.267509
O O14 0.088239 0.091813 0.874463
O O15 0.500000 0.628638 0.500000
O O16 0.399218 0.500000 0.558194
O O17 0.531635 0.630083 0.272103
#
# Coordination Sequence:
#
# PCOD9188387 Si02
#       8
#     8   8   8   8   8   8   2   8
#     4   9  18  34  60  83 111 148 194 242 289 348
#     4  11  22  35  54  78 116 157 190 238 300 351
#     4  10  21  37  56  87 116 153 195 241 298 359
#     4   9  18  39  65  88 118 162 205 248 309 374
#     4  10  22  38  62  92 126 160 204 257 315 382
#     4  10  19  36  59  82 114 152 197 244 289 344
#     4  12  24  40  62  96 126 162 204 260 332 364
#     4  10  21  36  52  84 114 149 200 239 289 357
#
# _framework density 23.984009
#
# number of rings (size 3 to 8) (size 9 to 14) (size 15 to 20)
#    0.000    2.069    2.069    1.241    1.931    1.655 
#    0.000    3.103    4.552    0.000    0.000    0.000 
#    0.000    0.000    0.000    0.000    0.000    0.000 
#
# Total GULP energy -161971.975497 kJ/mol
# GULP energy per Si atom -5585.240534 kJ/mol
# Density = 2.392942 g / cm^3
# Si number density = 23.984009 Si / 1000 Ang^3
#
#
#
# Elastic Constant Matrix: (Units=GPa)
#
#
# Indices 1 2 3 4 5 6 
#
# 1 90.6772 22.9348 33.9986 0.0000 -1.7273 0.0000
# 2 22.9348 163.0921 6.8969 0.0000 -1.7429 0.0000
# 3 33.9986 6.8969 55.4651 0.0000 -12.1097 0.0000
# 4 0.0000 0.0000 0.0000 21.3977 0.0000 -9.8219
# 5 -1.7273 -1.7429 -12.1097 0.0000 42.7224 0.0000
# 6 0.0000 0.0000 0.0000 -9.8219 0.0000 14.1395
#
#
#
# Elastic Compliance Matrix: (Units=1/GPa)
#
#
# Indices 1 2 3 4 5 6 
#
# 1 0.014956 -0.001728 -0.009419 0.000000 -0.002136 0.000000
# 2 -0.001728 0.006364 0.000330 0.000000 0.000283 0.000000
# 3 -0.009419 0.000330 0.025244 0.000000 0.006788 0.000000
# 4 0.000000 0.000000 0.000000 0.068611 0.000000 0.047660
# 5 -0.002136 0.000283 0.006788 0.000000 0.025256 0.000000
# 6 0.000000 0.000000 0.000000 0.047660 0.000000 0.103831
#
#
# Mechanical properties :
#
#
# Convention : Reuss Voigt Hill
#
# Bulk Modulus (GPa) = 40.11359 48.54390 44.32875
# Shear Modulus (GPa) = 18.23448 32.01219 25.12333
#
# Velocity S-wave (km/s) = 2.76030 3.65736 3.24003
# Velocity P-wave (km/s) = 5.18849 6.17407 5.70261
#
# Compressibility (1/GPa) = 0.02492920
#
# Stress axis : x y z
#
# Youngs Moduli (GPa) = 66.86260 157.14495 39.61327
#
# Poissons Ratio (x) = 0.27150 0.37312
# Poissons Ratio (y) = 0.11552 -0.01306
# Poissons Ratio (z) = 0.62979 -0.05179
#
# Static dielectric constant tensor:
#      x y z
#    x 1.882570 0.000000 0.054950 
#    y 0.000000 1.896320 0.000000 
#    z 0.054950 0.000000 1.974250 
# 
# From -- ./inp_files/296258.got.cif
#   From: 2010.05.17/outbox.cif.g08.bks.cpg/sg12_149_cif.got.tgz:296258.got - 2010.06.03 13:09:07.
