data_PCOD9188319
_publ_section_title
;
Structure prediction by ZEFSAII (Michael W. Deem and Ramdas Pophale) SiO2 
 PCOD9188319
Probable space group: C 2/M
;
_chemical_formula_sum "Si O2"
_cell_formula_units_Z 44
_cell_length_a 10.101754
_cell_length_b 23.867902
_cell_length_c 15.985912
_cell_angle_alpha 90.000000
_cell_angle_beta 140.093367
_cell_angle_gamma 90.000000
_cell_volume 2472.698333
_symmetry_space_group_name_H-M "C 2/M"
_symmetry_group_IT_number 12
_symmetry_cell_setting 'monoclinic'
loop_
_space_group_symop_operation_xyz
x,y,z
-x,y,-z
-x,-y,-z
x,-y,z
1/2+x,1/2+y,z
1/2-x,1/2+y,-z
1/2-x,1/2-y,-z
1/2+x,1/2-y,z
loop_
_atom_site_type_symbol
_atom_site_label
_atom_site_fract_x
_atom_site_fract_y
_atom_site_fract_z
Si Si1 0.388638 0.221186 0.789443
Si Si2 0.249464 0.000000 0.134495
Si Si3 0.000000 0.206858 0.000000
Si Si4 0.864959 0.620038 0.520188
Si Si5 0.930996 0.782575 0.635188
Si Si6 0.604614 0.126768 0.809231
Si Si7 0.942561 0.500000 0.568230
O O1 0.496055 0.252409 0.918420
O O2 0.443404 0.256465 0.733206
O O3 0.458645 0.157413 0.805996
O O4 0.145172 0.222522 0.690667
O O5 0.338633 0.938939 0.147238
O O6 0.345639 0.000000 0.275413
O O7 0.000000 0.000000 0.000000
O O8 0.192735 0.165058 0.092607
O O9 0.659161 0.655004 0.406901
O O10 0.000000 0.624254 0.500000
O O11 0.000637 0.636513 0.667212
O O12 0.816916 0.556113 0.520112
O O13 0.750000 0.750000 0.500000
O O14 0.000000 0.500000 0.500000
#
# Coordination Sequence:
#
# PCOD9188319 Si02
#       7
#     8   4   4   8   8   8   4
#     4  12  25  39  58  91 123 161 195 251 301 367
#     4  10  20  38  63  86 116 165 205 252 293 362
#     4  12  22  41  58  89 122 156 204 244 306 352
#     4  10  19  36  58  87 119 152 195 250 299 356
#     4  12  22  37  60  86 121 156 196 240 307 360
#     4  11  22  38  62  87 122 156 205 250 298 357
#     4   8  18  34  55  87 118 147 200 248 294 345
#
# _framework density 17.794326000000002
#
# number of rings (size 3 to 8) (size 9 to 14) (size 15 to 20)
#    0.000    1.091    4.545    3.273    0.000    0.000 
#    0.000    0.909    0.000    3.818    0.000    0.000 
#    0.000    0.000    0.000    0.000    0.000    0.000 
#
# Total GULP energy -122599.640260 kJ/mol
# GULP energy per Si atom -5572.710921 kJ/mol
# Density = 1.775382 g / cm^3
# Si number density = 17.794326 Si / 1000 Ang^3
#
#
#
# Elastic Constant Matrix: (Units=GPa)
#
#
# Indices 1 2 3 4 5 6 
#
# 1 89.0330 48.6839 27.3410 0.0000 8.8686 0.0000
# 2 48.6839 144.0412 63.0053 0.0000 4.4149 0.0000
# 3 27.3410 63.0053 69.8966 0.0000 -9.9047 0.0000
# 4 0.0000 0.0000 0.0000 32.3220 0.0000 3.4480
# 5 8.8686 4.4149 -9.9047 0.0000 27.3264 0.0000
# 6 0.0000 0.0000 0.0000 3.4480 0.0000 27.5915
#
#
#
# Elastic Compliance Matrix: (Units=1/GPa)
#
#
# Indices 1 2 3 4 5 6 
#
# 1 0.014647 -0.003185 -0.003646 0.000000 -0.005561 0.000000
# 2 -0.003185 0.013134 -0.011329 0.000000 -0.005194 0.000000
# 3 -0.003646 -0.011329 0.027800 0.000000 0.013090 0.000000
# 4 0.000000 0.000000 0.000000 0.031357 0.000000 -0.003918
# 5 -0.005561 -0.005194 0.013090 0.000000 0.043983 0.000000
# 6 0.000000 0.000000 0.000000 -0.003918 0.000000 0.036733
#
#
# Mechanical properties :
#
#
# Convention : Reuss Voigt Hill
#
# Bulk Modulus (GPa) = 51.92080 64.55900 58.23990
# Shear Modulus (GPa) = 23.76497 28.37736 26.07116
#
# Velocity S-wave (km/s) = 3.65846 3.99775 3.83187
# Velocity P-wave (km/s) = 6.86203 7.59400 7.23727
#
# Compressibility (1/GPa) = 0.01926011
#
# Stress axis : x y z
#
# Youngs Moduli (GPa) = 68.27303 76.14073 35.97128
#
# Poissons Ratio (x) = 0.24252 0.13116
# Poissons Ratio (y) = 0.21746 0.40751
# Poissons Ratio (z) = 0.24894 0.86259
#
# Static dielectric constant tensor:
#      x y z
#    x 1.584540 0.000000 -0.006840 
#    y 0.000000 1.736610 0.000000 
#    z -0.006840 0.000000 1.617650 
# 
# From -- ./inp_files/198632.got.cif
#   From: 2010.05.17/outbox.cif.g08.bks.cpg/sg12_100_cif.got.tgz:198632.got - 2010.06.03 13:09:07.
