data_PCOD9188481
_publ_section_title
;
Structure prediction by ZEFSAII (Michael W. Deem and Ramdas Pophale) SiO2 
 PCOD9188481
Probable space group: C 2/M
;
_chemical_formula_sum "Si O2"
_cell_formula_units_Z 56
_cell_length_a 8.825783
_cell_length_b 16.987829
_cell_length_c 30.587700
_cell_angle_alpha 90.000000
_cell_angle_beta 140.037408
_cell_angle_gamma 90.000000
_cell_volume 2945.556120
_symmetry_space_group_name_H-M "C 2/M"
_symmetry_group_IT_number 12
_symmetry_cell_setting 'monoclinic'
loop_
_space_group_symop_operation_xyz
x,y,z
-x,y,-z
-x,-y,-z
x,-y,z
1/2+x,1/2+y,z
1/2-x,1/2+y,-z
1/2-x,1/2-y,-z
1/2+x,1/2-y,z
loop_
_atom_site_type_symbol
_atom_site_label
_atom_site_fract_x
_atom_site_fract_y
_atom_site_fract_z
Si Si1 0.236379 0.315947 0.362803
Si Si2 0.038030 0.213768 0.770097
Si Si3 0.565600 0.912371 0.143590
Si Si4 0.300590 0.913425 0.261224
Si Si5 0.731879 0.372903 0.147382
Si Si6 0.752933 0.790606 0.548255
Si Si7 0.815603 0.162905 0.999668
O O1 0.245169 0.273056 0.411908
O O2 0.492746 0.332821 0.398214
O O3 0.099383 0.256394 0.299668
O O4 0.072256 0.392012 0.330380
O O5 0.238192 0.151736 0.801210
O O6 0.168592 0.283077 0.825976
O O7 0.852384 0.159562 0.754763
O O8 0.387327 0.913023 0.144726
O O9 0.412650 0.882882 0.068294
O O10 0.659527 0.000000 0.156646
O O11 0.263414 0.911240 0.201157
O O12 0.239697 0.000000 0.265135
O O13 0.462941 0.374458 0.071809
O O14 0.500000 0.833625 0.500000
O O15 0.750000 0.750000 0.500000
O O16 0.750000 0.250000 0.000000
O O17 0.000000 0.166935 0.000000
#
# Coordination Sequence:
#
# PCOD9188481 Si02
#       7
#     8   8   8   8   8   8   8
#     4  10  19  36  59  90 115 153 191 227 273 333
#     4  11  21  36  58  82 117 150 195 235 277 343
#     4  11  23  37  55  83 112 146 191 248 298 337
#     4  11  23  36  55  85 121 153 187 235 289 334
#     4  10  21  37  59  78 108 151 198 241 287 347
#     4   9  18  34  62  95 116 141 189 238 264 314
#     4  10  21  36  58  77 106 147 195 239 295 350
#
# _framework density 19.011689000000001
#
# number of rings (size 3 to 8) (size 9 to 14) (size 15 to 20)
#    0.000    1.714    2.857    2.571    4.000    3.143 
#    0.000    0.000    0.000    6.429    0.000    0.000 
#    0.000    0.000    0.000    0.000    0.000    0.000 
#
# Total GULP energy -156108.124221 kJ/mol
# GULP energy per Si atom -5575.290151 kJ/mol
# Density = 1.896842 g / cm^3
# Si number density = 19.011689 Si / 1000 Ang^3
#
#
#
# Elastic Constant Matrix: (Units=GPa)
#
#
# Indices 1 2 3 4 5 6 
#
# 1 58.9663 7.5743 21.8087 0.0001 8.4782 0.0000
# 2 7.5743 94.5649 10.9562 0.0000 0.2956 0.0000
# 3 21.8087 10.9562 87.5339 0.0000 -0.2684 0.0001
# 4 0.0001 0.0000 0.0000 -1.5385 0.0000 -4.6202
# 5 8.4782 0.2956 -0.2684 0.0000 34.3098 0.0000
# 6 0.0000 0.0000 0.0001 -4.6202 0.0000 7.7299
#
#
#
# Elastic Compliance Matrix: (Units=1/GPa)
#
#
# Indices 1 2 3 4 5 6 
#
# 1 0.019546 -0.000999 -0.004760 0.000000 -0.004859 0.000000
# 2 -0.000999 0.010782 -0.001100 0.000000 0.000145 0.000000
# 3 -0.004760 -0.001100 0.012752 0.000000 0.001285 0.000000
# 4 0.000000 0.000000 0.000000 -0.232556 0.000000 -0.139001
# 5 -0.004859 0.000145 0.001285 0.000000 0.030356 0.000000
# 6 0.000000 0.000000 0.000000 -0.139001 0.000000 0.046287
#
#
# Mechanical properties :
#
#
# Convention : Reuss Voigt Hill
#
# Bulk Modulus (GPa) = 34.05775 35.74930 34.90353
# Shear Modulus (GPa) = -55.97271 21.48194 -17.24538
#
# Velocity S-wave (km/s) = -5.43186 3.36510 -3.01507
# Velocity P-wave (km/s) = 4.62463 5.82608 2.50559
#
# Compressibility (1/GPa) = 0.02936190
#
# Stress axis : x y z
#
# Youngs Moduli (GPa) = 51.16109 92.74916 78.42117
#
# Poissons Ratio (x) = 0.09265 0.37326
# Poissons Ratio (y) = 0.05111 0.08628
# Poissons Ratio (z) = 0.24351 0.10204
#
# Static dielectric constant tensor:
#      x y z
#    x 1.689290 0.000000 0.039940 
#    y 0.000000 1.648000 0.000000 
#    z 0.039940 0.000000 1.699550 
# 
# From -- ./inp_files/300422.got.cif
#   From: 2010.05.17/outbox.cif.g08.bks.cpg/sg12_151_cif.got.tgz:300422.got - 2010.06.03 13:09:07.
