data_PCOD9188272
_publ_section_title
;
Structure prediction by ZEFSAII (Michael W. Deem and Ramdas Pophale) SiO2 
 PCOD9188272
Probable space group: C 2/M
;
_chemical_formula_sum "Si O2"
_cell_formula_units_Z 44
_cell_length_a 9.155130
_cell_length_b 19.380609
_cell_length_c 11.391281
_cell_angle_alpha 90.000000
_cell_angle_beta 80.987383
_cell_angle_gamma 90.000000
_cell_volume 1996.223986
_symmetry_space_group_name_H-M "C 2/M"
_symmetry_group_IT_number 12
_symmetry_cell_setting 'monoclinic'
loop_
_space_group_symop_operation_xyz
x,y,z
-x,y,-z
-x,-y,-z
x,-y,z
1/2+x,1/2+y,z
1/2-x,1/2+y,-z
1/2-x,1/2-y,-z
1/2+x,1/2-y,z
loop_
_atom_site_type_symbol
_atom_site_label
_atom_site_fract_x
_atom_site_fract_y
_atom_site_fract_z
Si Si1 0.826080 0.850041 0.040639
Si Si2 0.655460 0.000000 0.811485
Si Si3 0.598124 0.145025 0.875834
Si Si4 0.050738 0.000000 0.357640
Si Si5 0.324910 0.500000 0.040033
Si Si6 0.241473 0.755158 0.738876
Si Si7 0.483864 0.344067 0.362448
O O1 0.754221 0.794677 0.136261
O O2 0.793693 0.925760 0.098806
O O3 0.757968 0.853426 0.919438
O O4 0.000000 0.837805 0.000000
O O5 0.564044 0.070011 0.829946
O O6 0.773386 0.000000 0.691778
O O7 0.744903 0.000000 0.923680
O O8 0.608744 0.199872 0.773230
O O9 0.500000 0.161892 0.000000
O O10 0.000617 0.075931 0.315304
O O11 0.000000 0.000000 0.500000
O O12 0.500000 0.500000 0.000000
O O13 0.383511 0.708806 0.690289
O O14 0.172573 0.810901 0.657639
O O15 0.500000 0.348564 0.500000
#
# Coordination Sequence:
#
# PCOD9188272 Si02
#       7
#     8   4   8   4   4   8   8
#     4  10  20  34  54  88 123 164 203 237 291 367
#     4  10  19  36  58  81 118 162 203 239 297 355
#     4  11  21  35  54  88 127 159 196 237 300 372
#     4  10  22  43  67  87 112 160 220 258 292 363
#     4   8  18  29  51  80 121 152 193 243 277 345
#     4  12  22  37  63  89 126 162 196 257 311 363
#     4  11  25  43  65  91 117 157 212 263 310 358
#
# _framework density 22.041616000000001
#
# number of rings (size 3 to 8) (size 9 to 14) (size 15 to 20)
#    0.000    1.455    1.818    4.091    5.091    0.000 
#    0.000    0.000    0.000    2.182    0.000    7.636 
#    0.000    0.000    0.000    0.000    0.000    0.000 
#
# Total GULP energy -122667.542093 kJ/mol
# GULP energy per Si atom -5575.797368 kJ/mol
# Density = 2.199145 g / cm^3
# Si number density = 22.041616 Si / 1000 Ang^3
#
#
#
# Elastic Constant Matrix: (Units=GPa)
#
#
# Indices 1 2 3 4 5 6 
#
# 1 69.0306 25.7768 12.6785 0.0000 -15.0040 0.0000
# 2 25.7768 195.3695 20.9225 0.0000 2.5401 0.0000
# 3 12.6785 20.9225 58.5864 0.0000 -2.0688 0.0000
# 4 0.0000 0.0000 0.0000 27.0958 0.0000 -9.5392
# 5 -15.0040 2.5401 -2.0688 0.0000 25.0620 0.0000
# 6 0.0000 0.0000 0.0000 -9.5392 0.0000 19.8978
#
#
#
# Elastic Compliance Matrix: (Units=1/GPa)
#
#
# Indices 1 2 3 4 5 6 
#
# 1 0.018199 -0.002248 -0.002751 0.000000 0.010896 0.000000
# 2 -0.002248 0.005612 -0.001590 0.000000 -0.002046 0.000000
# 3 -0.002751 -0.001590 0.018233 0.000000 0.000019 0.000000
# 4 0.000000 0.000000 0.000000 0.044400 0.000000 0.021286
# 5 0.010896 -0.002046 0.000019 0.000000 0.046633 0.000000
# 6 0.000000 0.000000 0.000000 0.021286 0.000000 0.060461
#
#
# Mechanical properties :
#
#
# Convention : Reuss Voigt Hill
#
# Bulk Modulus (GPa) = 34.64273 49.08245 41.86259
# Shear Modulus (GPa) = 23.11194 31.98504 27.54849
#
# Velocity S-wave (km/s) = 3.24166 3.81349 3.53914
# Velocity P-wave (km/s) = 5.45548 6.45807 5.97783
#
# Compressibility (1/GPa) = 0.02886609
#
# Stress axis : x y z
#
# Youngs Moduli (GPa) = 54.94678 178.18943 54.84697
#
# Poissons Ratio (x) = 0.40062 0.15087
# Poissons Ratio (y) = 0.12354 0.08720
# Poissons Ratio (z) = 0.15115 0.28330
#
# Static dielectric constant tensor:
#      x y z
#    x 1.900420 0.000000 0.005230 
#    y 0.000000 2.009120 0.000000 
#    z 0.005230 0.000000 1.855400 
# 
# From -- ./inp_files/120775.got.cif
#   From: 2010.05.17/outbox.cif.g08.bks.cpg/sg12_61_cif.got.tgz:120775.got - 2010.06.03 13:09:07.
