data_PCOD9188376
_publ_section_title
;
Structure prediction by ZEFSAII (Michael W. Deem and Ramdas Pophale) SiO2 
 PCOD9188376
Probable space group: C 2/M
;
_chemical_formula_sum "Si O2"
_cell_formula_units_Z 64
_cell_length_a 19.590333
_cell_length_b 22.342483
_cell_length_c 8.449729
_cell_angle_alpha 90.000000
_cell_angle_beta 62.800626
_cell_angle_gamma 90.000000
_cell_volume 3289.452304
_symmetry_space_group_name_H-M "C 2/M"
_symmetry_group_IT_number 12
_symmetry_cell_setting 'monoclinic'
loop_
_space_group_symop_operation_xyz
x,y,z
-x,y,-z
-x,-y,-z
x,-y,z
1/2+x,1/2+y,z
1/2-x,1/2+y,-z
1/2-x,1/2-y,-z
1/2+x,1/2-y,z
loop_
_atom_site_type_symbol
_atom_site_label
_atom_site_fract_x
_atom_site_fract_y
_atom_site_fract_z
Si Si1 0.770949 0.224609 0.304369
Si Si2 0.551068 0.719777 0.606787
Si Si3 0.574068 0.069975 0.733107
Si Si4 0.701015 0.929265 0.869508
Si Si5 0.577073 0.854848 0.143625
Si Si6 0.091744 0.219480 0.043034
Si Si7 0.118718 0.341146 0.446444
Si Si8 0.319264 0.328418 0.739745
O O1 0.750000 0.250000 0.500000
O O2 0.708343 0.173634 0.335268
O O3 0.747701 0.279733 0.215568
O O4 0.856638 0.204901 0.166321
O O5 0.500000 0.719944 0.500000
O O6 0.495443 0.702338 0.811381
O O7 0.584840 0.787089 0.591053
O O8 0.622346 0.679816 0.470239
O O9 0.643491 0.081696 0.781466
O O10 0.496040 0.107540 0.835327
O O11 0.604869 0.094519 0.534630
O O12 0.555939 0.000000 0.757517
O O13 0.779964 0.892940 0.777240
O O14 0.710929 0.000000 0.877222
O O15 0.650687 0.897858 0.057508
O O16 0.586563 0.791909 0.046146
O O17 0.574947 0.836494 0.328458
O O18 0.140098 0.191735 0.140118
#
# Coordination Sequence:
#
# PCOD9188376 Si02
#       8
#     8   8   8   8   8   8   8   8
#     4  11  21  33  52  84 117 147 188 235 288 348
#     4   9  16  32  55  84 110 139 184 230 293 342
#     4  11  24  39  54  78 118 163 196 232 280 337
#     4  11  24  39  54  79 116 160 203 236 280 341
#     4  12  20  35  59  81 115 151 196 235 281 343
#     4  11  19  35  60  86 112 152 181 237 301 346
#     4  11  20  34  55  83 112 149 196 238 280 341
#     4  10  19  36  59  82 110 151 193 238 291 339
#
# _framework density 19.456128
#
# number of rings (size 3 to 8) (size 9 to 14) (size 15 to 20)
#    0.000    1.250    6.250    3.000    0.000    2.500 
#    0.000    2.500    0.000    3.375    0.000    0.000 
#    0.000    3.000    0.000    0.000    0.000    0.875 
#
# Total GULP energy -178458.276882 kJ/mol
# GULP energy per Si atom -5576.821153 kJ/mol
# Density = 1.941184 g / cm^3
# Si number density = 19.456128 Si / 1000 Ang^3
#
#
#
# Elastic Constant Matrix: (Units=GPa)
#
#
# Indices 1 2 3 4 5 6 
#
# 1 92.7692 52.6594 32.2614 0.0000 -26.6655 0.0000
# 2 52.6594 83.7811 29.5213 0.0000 -20.1319 0.0000
# 3 32.2614 29.5213 112.1457 0.0000 -31.3433 0.0000
# 4 0.0000 0.0000 0.0000 6.2025 0.0000 -8.3322
# 5 -26.6655 -20.1319 -31.3433 0.0000 35.7289 0.0000
# 6 0.0000 0.0000 0.0000 -8.3322 0.0000 36.4225
#
#
#
# Elastic Compliance Matrix: (Units=1/GPa)
#
#
# Indices 1 2 3 4 5 6 
#
# 1 0.018788 -0.009660 -0.000615 0.000000 0.008039 0.000000
# 2 -0.009660 0.019096 -0.001663 0.000000 0.002091 0.000000
# 3 -0.000615 -0.001663 0.012111 0.000000 0.009228 0.000000
# 4 0.000000 0.000000 0.000000 0.232754 0.000000 0.053246
# 5 0.008039 0.002091 0.009228 0.000000 0.043262 0.000000
# 6 0.000000 0.000000 0.000000 0.053246 0.000000 0.039636
#
#
# Mechanical properties :
#
#
# Convention : Reuss Voigt Hill
#
# Bulk Modulus (GPa) = 38.28862 57.50893 47.89878
# Shear Modulus (GPa) = 12.55555 27.28771 19.92163
#
# Velocity S-wave (km/s) = 2.54308 3.74909 3.20336
# Velocity P-wave (km/s) = 5.32402 6.95438 6.19308
#
# Compressibility (1/GPa) = 0.02611742
#
# Stress axis : x y z
#
# Youngs Moduli (GPa) = 53.22679 52.36625 82.57028
#
# Poissons Ratio (x) = 0.50587 0.05077
# Poissons Ratio (y) = 0.51418 0.13736
# Poissons Ratio (z) = 0.03273 0.08711
#
# Static dielectric constant tensor:
#      x y z
#    x 1.751230 0.000000 0.002340 
#    y 0.000000 1.637510 0.000000 
#    z 0.002340 0.000000 1.796350 
# 
# From -- ./inp_files/90376.got.cif
#   From: 2010.05.17/outbox.cif.g08.bks.cpg/sg12_46_cif.got.tgz:90376.got - 2010.06.03 13:09:07.
