data_PCOD9188868
_publ_section_title
;
Structure prediction by ZEFSAII (Michael W. Deem and Ramdas Pophale) SiO2 
 PCOD9188868
Probable space group: C 2/M
;
_chemical_formula_sum "Si O2"
_cell_formula_units_Z 64
_cell_length_a 14.970000
_cell_length_b 27.555395
_cell_length_c 9.010728
_cell_angle_alpha 90.000000
_cell_angle_beta 57.208602
_cell_angle_gamma 90.000000
_cell_volume 3124.657824
_symmetry_space_group_name_H-M "C 2/M"
_symmetry_group_IT_number 12
_symmetry_cell_setting 'monoclinic'
loop_
_space_group_symop_operation_xyz
x,y,z
-x,y,-z
-x,-y,-z
x,-y,z
1/2+x,1/2+y,z
1/2-x,1/2+y,-z
1/2-x,1/2-y,-z
1/2+x,1/2-y,z
loop_
_atom_site_type_symbol
_atom_site_label
_atom_site_fract_x
_atom_site_fract_y
_atom_site_fract_z
Si Si1 0.302852 0.289052 0.278864
Si Si2 0.094282 0.129735 0.023051
Si Si3 0.276348 0.612271 0.630859
Si Si4 0.040938 0.815081 0.612615
Si Si5 0.873207 0.691594 0.078045
Si Si6 0.754923 0.056652 0.937970
Si Si7 0.591750 0.125002 0.206222
Si Si8 0.853049 0.634801 0.506626
O O1 0.384158 0.284996 0.343940
O O2 0.312407 0.240639 0.175177
O O3 0.193575 0.310388 0.442566
O O4 0.343854 0.332780 0.138000
O O5 0.048025 0.161459 0.201511
O O6 0.166252 0.087964 0.028790
O O7 0.000000 0.111171 0.000000
O O8 0.385919 0.640964 0.513857
O O9 0.189200 0.650059 0.775131
O O10 0.232324 0.602757 0.505866
O O11 0.283206 0.569373 0.742080
O O12 0.000000 0.789400 0.500000
O O13 0.865489 0.673203 0.915315
O O14 0.000000 0.695676 0.000000
O O15 0.638713 0.079503 0.074780
O O16 0.759758 0.000000 0.962711
O O17 0.465600 0.129754 0.325407
O O18 0.629151 0.119901 0.340556
#
# Coordination Sequence:
#
# PCOD9188868 Si02
#       8
#     8   8   8   8   8   8   8   8
#     4  10  22  38  63  90 127 170 213 252 306 387
#     4  10  20  40  63  89 130 168 200 259 319 372
#     4  10  22  40  62  86 132 164 207 271 312 368
#     4  10  19  36  62  89 124 165 205 258 310 362
#     4  11  21  40  60  91 128 174 210 251 311 376
#     4  11  23  42  68  96 120 164 217 257 323 395
#     4  10  22  41  66  89 131 164 206 269 317 373
#     4  10  20  41  65  89 125 168 205 261 327 356
#
# _framework density 20.482241999999999
#
# number of rings (size 3 to 8) (size 9 to 14) (size 15 to 20)
#    0.000    1.750    3.750    1.125    0.000    2.750 
#    2.250    6.875    0.000    0.000    0.000    0.000 
#    0.000    0.000    0.000    0.000    0.000    0.000 
#
# Total GULP energy -178633.532353 kJ/mol
# GULP energy per Si atom -5582.297886 kJ/mol
# Density = 2.043562 g / cm^3
# Si number density = 20.482242 Si / 1000 Ang^3
#
#
#
# Elastic Constant Matrix: (Units=GPa)
#
#
# Indices 1 2 3 4 5 6 
#
# 1 64.2608 13.3507 14.9222 0.0000 18.6937 0.0000
# 2 13.3507 90.4746 14.5727 0.0000 10.3869 0.0000
# 3 14.9222 14.5727 78.4861 0.0000 14.8366 0.0000
# 4 0.0000 0.0000 0.0000 12.3533 0.0000 4.4009
# 5 18.6937 10.3869 14.8366 0.0000 43.2926 0.0000
# 6 0.0000 0.0000 0.0000 4.4009 0.0000 3.7086
#
#
#
# Elastic Compliance Matrix: (Units=1/GPa)
#
#
# Indices 1 2 3 4 5 6 
#
# 1 0.018337 -0.001612 -0.001886 0.000000 -0.006885 0.000000
# 2 -0.001612 0.011725 -0.001572 0.000000 -0.001578 0.000000
# 3 -0.001886 -0.001572 0.014078 0.000000 -0.003633 0.000000
# 4 0.000000 0.000000 0.000000 0.140234 0.000000 -0.166410
# 5 -0.006885 -0.001578 -0.003633 0.000000 0.027695 0.000000
# 6 0.000000 0.000000 0.000000 -0.166410 0.000000 0.467114
#
#
# Mechanical properties :
#
#
# Convention : Reuss Voigt Hill
#
# Bulk Modulus (GPa) = 29.41042 35.43473 32.42257
# Shear Modulus (GPa) = 7.13616 24.56264 15.84940
#
# Velocity S-wave (km/s) = 1.86859 3.46673 2.78477
# Velocity P-wave (km/s) = 4.36413 5.77599 5.11897
#
# Compressibility (1/GPa) = 0.03400156
#
# Stress axis : x y z
#
# Youngs Moduli (GPa) = 54.53391 85.28712 71.03105
#
# Poissons Ratio (x) = 0.13746 0.13394
# Poissons Ratio (y) = 0.08789 0.11168
# Poissons Ratio (z) = 0.10283 0.13409
#
# Static dielectric constant tensor:
#      x y z
#    x 1.796070 0.000000 -0.001780 
#    y 0.000000 1.663150 0.000000 
#    z -0.001780 0.000000 1.784920 
# 
# From -- ./inp_files/68246.got.cif
#   From: 2010.05.17/outbox.cif.g08.bks.cpg/sg12_35_cif.got.tgz:68246.got - 2010.06.03 13:09:07.
