data_PCOD9188430
_publ_section_title
;
Structure prediction by ZEFSAII (Michael W. Deem and Ramdas Pophale) SiO2 
 PCOD9188430
Probable space group: C 2/M
;
_chemical_formula_sum "Si O2"
_cell_formula_units_Z 56
_cell_length_a 10.157310
_cell_length_b 19.697092
_cell_length_c 17.411565
_cell_angle_alpha 90.000000
_cell_angle_beta 55.951820
_cell_angle_gamma 90.000000
_cell_volume 2886.332038
_symmetry_space_group_name_H-M "C 2/M"
_symmetry_group_IT_number 12
_symmetry_cell_setting 'monoclinic'
loop_
_space_group_symop_operation_xyz
x,y,z
-x,y,-z
-x,-y,-z
x,-y,z
1/2+x,1/2+y,z
1/2-x,1/2+y,-z
1/2-x,1/2-y,-z
1/2+x,1/2-y,z
loop_
_atom_site_type_symbol
_atom_site_label
_atom_site_fract_x
_atom_site_fract_y
_atom_site_fract_z
Si Si1 0.876488 0.426980 0.212627
Si Si2 0.826636 0.777503 0.583150
Si Si3 0.409461 0.423245 0.804849
Si Si4 0.908845 0.162858 0.957590
Si Si5 0.075472 0.290745 0.136732
Si Si6 0.310058 0.427509 0.566250
Si Si7 0.489285 0.294082 0.693049
O O1 0.965055 0.500000 0.183523
O O2 0.766477 0.424632 0.173678
O O3 0.762881 0.429089 0.324369
O O4 0.975977 0.358623 0.181970
O O5 0.784571 0.848552 0.552874
O O6 0.669114 0.733100 0.624134
O O7 0.000000 0.750714 0.500000
O O8 0.872546 0.790681 0.657833
O O9 0.471543 0.500000 0.784313
O O10 0.403062 0.389927 0.890342
O O11 0.500941 0.371009 0.719708
O O12 0.990815 0.232106 0.898518
O O13 0.737912 0.184997 0.044854
O O14 0.000000 0.133811 0.000000
O O15 0.087545 0.251588 0.213928
O O16 0.500000 0.430996 0.500000
O O17 0.253368 0.500000 0.548269
#
# Coordination Sequence:
#
# PCOD9188430 Si02
#       7
#     8   8   8   8   8   8   8
#     4  10  19  36  59  85 114 143 188 239 284 330
#     4  11  22  36  58  90 121 153 192 236 284 337
#     4  10  22  38  58  83 110 148 191 236 289 342
#     4  10  24  37  57  78 112 150 186 233 284 347
#     4  10  22  36  57  85 111 145 191 232 287 336
#     4   9  17  31  53  83 116 146 180 227 277 329
#     4  11  21  37  62  84 117 154 190 239 282 343
#
# _framework density 19.401788
#
# number of rings (size 3 to 8) (size 9 to 14) (size 15 to 20)
#    0.000    1.857    2.857    0.429   10.000    0.857 
#    0.000    1.429    0.000    1.286    0.000    0.000 
#    0.000    0.000    0.000    0.000    0.000    0.000 
#
# Total GULP energy -155879.074432 kJ/mol
# GULP energy per Si atom -5567.109801 kJ/mol
# Density = 1.935763 g / cm^3
# Si number density = 19.401788 Si / 1000 Ang^3
#
#
#
# Elastic Constant Matrix: (Units=GPa)
#
#
# Indices 1 2 3 4 5 6 
#
# 1 40.2534 29.1850 13.9777 0.0000 -2.8116 0.0000
# 2 29.1850 164.9408 43.7663 0.0000 -20.3708 0.0000
# 3 13.9777 43.7663 59.8686 0.0000 -3.7354 0.0000
# 4 0.0000 0.0000 0.0000 -46.1195 0.0000 47.9638
# 5 -2.8116 -20.3708 -3.7354 0.0000 16.6003 0.0000
# 6 0.0000 0.0000 0.0000 47.9638 0.0000 -26.4205
#
#
#
# Elastic Compliance Matrix: (Units=1/GPa)
#
#
# Indices 1 2 3 4 5 6 
#
# 1 0.029188 -0.004324 -0.003729 0.000000 -0.001201 0.000000
# 2 -0.004324 0.009417 -0.005274 0.000000 0.009637 0.000000
# 3 -0.003729 -0.005274 0.021285 0.000000 -0.002314 0.000000
# 4 0.000000 0.000000 0.000000 0.024418 0.000000 0.044328
# 5 -0.001201 0.009637 -0.002314 0.000000 0.071342 0.000000
# 6 0.000000 0.000000 0.000000 0.044328 0.000000 0.042623
#
#
# Mechanical properties :
#
#
# Convention : Reuss Voigt Hill
#
# Bulk Modulus (GPa) = 30.08596 48.76898 39.42747
# Shear Modulus (GPa) = 21.18592 0.68763 10.93677
#
# Velocity S-wave (km/s) = 3.30806 0.59597 2.37681
# Velocity P-wave (km/s) = 5.48922 5.06601 5.28185
#
# Compressibility (1/GPa) = 0.03323810
#
# Stress axis : x y z
#
# Youngs Moduli (GPa) = 34.26030 106.18601 46.98178
#
# Poissons Ratio (x) = 0.45910 0.17519
# Poissons Ratio (y) = 0.14813 0.24777
# Poissons Ratio (z) = 0.12775 0.56000
#
# Static dielectric constant tensor:
#      x y z
#    x 1.655320 0.000000 0.010850 
#    y 0.000000 1.746090 0.000000 
#    z 0.010850 0.000000 1.727850 
# 
# From -- ./inp_files/264207.got.cif
#   From: 2010.05.17/outbox.cif.g08.bks.cpg/sg12_133_cif.got.tgz:264207.got - 2010.06.03 13:09:07.
