data_PCOD9188425
_publ_section_title
;
Structure prediction by ZEFSAII (Michael W. Deem and Ramdas Pophale) SiO2 
 PCOD9188425
Probable space group: C 2/M
;
_chemical_formula_sum "Si O2"
_cell_formula_units_Z 64
_cell_length_a 15.391116
_cell_length_b 8.855016
_cell_length_c 26.320205
_cell_angle_alpha 90.000000
_cell_angle_beta 72.825118
_cell_angle_gamma 90.000000
_cell_volume 3427.185092
_symmetry_space_group_name_H-M "C 2/M"
_symmetry_group_IT_number 12
_symmetry_cell_setting 'monoclinic'
loop_
_space_group_symop_operation_xyz
x,y,z
-x,y,-z
-x,-y,-z
x,-y,z
1/2+x,1/2+y,z
1/2-x,1/2+y,-z
1/2-x,1/2-y,-z
1/2+x,1/2-y,z
loop_
_atom_site_type_symbol
_atom_site_label
_atom_site_fract_x
_atom_site_fract_y
_atom_site_fract_z
Si Si1 0.814853 0.319043 0.833586
Si Si2 0.003168 0.816940 0.243265
Si Si3 0.112935 0.818922 0.833011
Si Si4 0.949086 0.671408 0.057313
Si Si5 0.249487 0.318571 0.443629
Si Si6 0.557190 0.316432 0.634536
Si Si7 0.258445 0.670766 0.944349
Si Si8 0.436456 0.681846 0.559616
O O1 0.819978 0.500000 0.832160
O O2 0.899666 0.248486 0.789668
O O3 0.717770 0.272761 0.825092
O O4 0.813542 0.261089 0.892031
O O5 0.929277 0.771412 0.213363
O O6 0.973209 0.766355 0.304488
O O7 0.008355 0.000000 0.242142
O O8 0.050895 0.757244 0.889617
O O9 0.111606 0.000000 0.835496
O O10 0.984622 0.500000 0.058042
O O11 0.843994 0.663569 0.059367
O O12 0.000000 0.741209 0.000000
O O13 0.249297 0.500000 0.447344
O O14 0.250000 0.250000 0.500000
O O15 0.341238 0.270354 0.398767
O O16 0.159800 0.260852 0.431014
O O17 0.557021 0.500000 0.634967
O O18 0.488248 0.270553 0.601809
O O19 0.293749 0.500000 0.943530
O O20 0.250000 0.750000 0.000000
O O21 0.500000 0.716196 0.500000
O O22 0.424176 0.500000 0.562541
#
# Coordination Sequence:
#
# PCOD9188425 Si02
#       8
#     8   8   8   8   8   8   8   8
#     4  10  21  38  57  80 112 148 186 237 292 336
#     4  10  21  39  61  83 109 151 198 232 278 344
#     4   9  20  37  56  79 108 144 184 230 280 334
#     4   9  19  34  52  77 107 139 174 221 279 334
#     4  11  21  36  59  88 119 157 195 239 291 344
#     4   9  20  38  58  82 117 156 191 231 288 348
#     4  10  20  34  53  80 112 144 180 227 283 345
#     4  10  19  36  59  84 118 159 195 236 291 344
#
# _framework density 18.674218
#
# number of rings (size 3 to 8) (size 9 to 14) (size 15 to 20)
#    0.000    2.250    1.250    1.125    1.750    3.000 
#    0.000    3.125    0.000    0.000    0.000    0.000 
#    0.000    0.000    0.000    0.000    0.000    0.000 
#
# Total GULP energy -178592.958147 kJ/mol
# GULP energy per Si atom -5581.029942 kJ/mol
# Density = 1.863171 g / cm^3
# Si number density = 18.674218 Si / 1000 Ang^3
#
#
#
# Elastic Constant Matrix: (Units=GPa)
#
#
# Indices 1 2 3 4 5 6 
#
# 1 129.7623 38.8457 97.0020 0.0000 -1.8313 0.0000
# 2 38.8457 33.4012 43.8082 0.0000 0.6566 0.0000
# 3 97.0020 43.8082 205.7324 0.0000 -0.5119 0.0000
# 4 0.0000 0.0000 0.0000 19.8256 0.0000 -6.5907
# 5 -1.8313 0.6566 -0.5119 0.0000 34.4495 0.0000
# 6 0.0000 0.0000 0.0000 -6.5907 0.0000 25.1024
#
#
#
# Elastic Compliance Matrix: (Units=1/GPa)
#
#
# Indices 1 2 3 4 5 6 
#
# 1 0.014256 -0.010801 -0.004420 0.000000 0.000898 0.000000
# 2 -0.010801 0.049753 -0.005506 0.000000 -0.001604 0.000000
# 3 -0.004420 -0.005506 0.008117 0.000000 -0.000009 0.000000
# 4 0.000000 0.000000 0.000000 0.055264 0.000000 0.014510
# 5 0.000898 -0.001604 -0.000009 0.000000 0.029106 0.000000
# 6 0.000000 0.000000 0.000000 0.014510 0.000000 0.043646
#
#
# Mechanical properties :
#
#
# Convention : Reuss Voigt Hill
#
# Bulk Modulus (GPa) = 32.60116 80.91197 56.75657
# Shear Modulus (GPa) = 19.85543 28.49148 24.17346
#
# Velocity S-wave (km/s) = 3.26429 3.91027 3.60180
# Velocity P-wave (km/s) = 5.63056 7.98807 6.91059
#
# Compressibility (1/GPa) = 0.03067375
#
# Stress axis : x y z
#
# Youngs Moduli (GPa) = 70.14425 20.09910 123.20061
#
# Poissons Ratio (x) = 0.21709 0.54450
# Poissons Ratio (y) = 0.75764 0.67830
# Poissons Ratio (z) = 0.31001 0.11066
#
# Static dielectric constant tensor:
#      x y z
#    x 1.645890 0.000000 0.008100 
#    y 0.000000 1.646850 0.000000 
#    z 0.008100 0.000000 1.626020 
# 
# From -- ./inp_files/359800.got.cif
#   From: 2010.05.17/outbox.cif.g08.bks.cpg/sg12_180_cif.got.tgz:359800.got - 2010.06.03 13:09:07.
