data_PCOD9188391
_publ_section_title
;
Structure prediction by ZEFSAII (Michael W. Deem and Ramdas Pophale) SiO2 
 PCOD9188391
Probable space group: C 2/M
;
_chemical_formula_sum "Si O2"
_cell_formula_units_Z 56
_cell_length_a 8.563292
_cell_length_b 19.152153
_cell_length_c 25.785943
_cell_angle_alpha 90.000000
_cell_angle_beta 40.525568
_cell_angle_gamma 90.000000
_cell_volume 2747.973882
_symmetry_space_group_name_H-M "C 2/M"
_symmetry_group_IT_number 12
_symmetry_cell_setting 'monoclinic'
loop_
_space_group_symop_operation_xyz
x,y,z
-x,y,-z
-x,-y,-z
x,-y,z
1/2+x,1/2+y,z
1/2-x,1/2+y,-z
1/2-x,1/2-y,-z
1/2+x,1/2-y,z
loop_
_atom_site_type_symbol
_atom_site_label
_atom_site_fract_x
_atom_site_fract_y
_atom_site_fract_z
Si Si1 0.681088 0.176753 0.906924
Si Si2 0.243944 0.919676 0.536014
Si Si3 0.057947 0.078813 0.770319
Si Si4 0.558372 0.198652 0.326870
Si Si5 0.060369 0.296291 0.822124
Si Si6 0.969995 0.794588 0.563962
Si Si7 0.790656 0.923987 0.727081
O O1 0.554591 0.178717 0.882903
O O2 0.877550 0.114761 0.856639
O O3 0.832508 0.248254 0.870259
O O4 0.500000 0.171531 0.000000
O O5 0.500000 0.909180 0.500000
O O6 0.163878 0.857334 0.518262
O O7 0.022367 0.914792 0.632264
O O8 0.248346 0.000000 0.514159
O O9 0.278844 0.130946 0.705567
O O10 0.907539 0.076933 0.754849
O O11 0.129019 0.000000 0.765467
O O12 0.703300 0.249517 0.250842
O O13 0.302187 0.178114 0.368642
O O14 0.522808 0.243125 0.388819
O O15 0.096029 0.363016 0.776291
O O16 0.000000 0.758745 0.500000
O O17 0.684963 0.000000 0.742988
#
# Coordination Sequence:
#
# PCOD9188391 Si02
#       7
#     8   8   8   8   8   8   8
#     4  10  20  34  59  91 121 152 186 239 299 358
#     4  10  23  41  62  87 121 161 203 251 307 363
#     4   9  20  37  61  87 114 154 196 244 297 354
#     4  11  23  41  59  86 120 157 207 257 297 361
#     4  10  19  36  59  82 117 153 198 238 288 356
#     4  12  26  39  60  87 122 162 204 262 310 354
#     4   9  17  34  60  82 108 155 205 241 283 353
#
# _framework density 20.378651999999999
#
# number of rings (size 3 to 8) (size 9 to 14) (size 15 to 20)
#    0.000    1.857    1.429    3.429    2.000    1.714 
#    0.000    0.000    0.000    0.857    0.000    0.000 
#    0.000    0.000    0.000    0.000    0.000    0.000 
#
# Total GULP energy -156331.416524 kJ/mol
# GULP energy per Si atom -5583.264876 kJ/mol
# Density = 2.033227 g / cm^3
# Si number density = 20.378652 Si / 1000 Ang^3
#
#
#
# Elastic Constant Matrix: (Units=GPa)
#
#
# Indices 1 2 3 4 5 6 
#
# 1 51.9971 28.8832 29.3832 -0.0012 1.6873 0.0015
# 2 28.8832 141.3338 40.3435 0.0048 -2.7913 -0.0008
# 3 29.3832 40.3435 88.4891 0.0148 14.3355 -0.0074
# 4 -0.0012 0.0048 0.0148 14.9328 -0.0015 -1.3347
# 5 1.6873 -2.7913 14.3355 -0.0015 30.7668 -0.0009
# 6 0.0015 -0.0008 -0.0074 -1.3347 -0.0009 26.4557
#
#
#
# Elastic Compliance Matrix: (Units=1/GPa)
#
#
# Indices 1 2 3 4 5 6 
#
# 1 0.024901 -0.003008 -0.007173 0.000010 0.001704 -0.000003
# 2 -0.003008 0.008705 -0.003380 0.000001 0.002529 0.000000
# 3 -0.007173 -0.003380 0.016451 -0.000016 -0.007579 0.000004
# 4 0.000010 0.000001 -0.000016 0.067270 0.000011 0.003394
# 5 0.001704 0.002529 -0.007579 0.000011 0.036170 0.000000
# 6 -0.000003 0.000000 0.000004 0.003394 0.000000 0.037970
#
#
# Mechanical properties :
#
#
# Convention : Reuss Voigt Hill
#
# Bulk Modulus (GPa) = 43.59992 53.22665 48.41328
# Shear Modulus (GPa) = 22.10108 26.64506 24.37307
#
# Velocity S-wave (km/s) = 3.29678 3.61986 3.46209
# Velocity P-wave (km/s) = 5.99442 6.60656 6.30792
#
# Compressibility (1/GPa) = 0.02293582
#
# Stress axis : x y z
#
# Youngs Moduli (GPa) = 40.15952 114.87954 60.78516
#
# Poissons Ratio (x) = 0.34550 0.43603
# Poissons Ratio (y) = 0.12078 0.20544
# Poissons Ratio (z) = 0.28807 0.38827
#
# Static dielectric constant tensor:
#      x y z
#    x 1.725580 0.000000 0.018680 
#    y 0.000000 1.770100 0.000000 
#    z 0.018680 0.000000 1.719980 
# 
# From -- ./inp_files/356681.got.cif
#   From: 2010.05.17/outbox.cif.g08.bks.cpg/sg12_179_cif.got.tgz:356681.got - 2010.06.03 13:09:07.
