data_PCOD9188646
_publ_section_title
;
Structure prediction by ZEFSAII (Michael W. Deem and Ramdas Pophale) SiO2 
 PCOD9188646
Probable space group: C 2/M
;
_chemical_formula_sum "Si O2"
_cell_formula_units_Z 42
_cell_length_a 22.386491
_cell_length_b 9.992347
_cell_length_c 9.147733
_cell_angle_alpha 90.000000
_cell_angle_beta 112.080276
_cell_angle_gamma 90.000000
_cell_volume 1896.210443
_symmetry_space_group_name_H-M "C 2/M"
_symmetry_group_IT_number 12
_symmetry_cell_setting 'monoclinic'
loop_
_space_group_symop_operation_xyz
x,y,z
-x,y,-z
-x,-y,-z
x,-y,z
1/2+x,1/2+y,z
1/2-x,1/2+y,-z
1/2-x,1/2-y,-z
1/2+x,1/2-y,z
loop_
_atom_site_type_symbol
_atom_site_label
_atom_site_fract_x
_atom_site_fract_y
_atom_site_fract_z
Si Si1 0.000000 0.500000 0.500000
Si Si2 0.934048 0.791955 0.027834
Si Si3 0.437334 0.653737 0.366865
Si Si4 0.804027 0.847840 0.363725
Si Si5 0.670316 0.730263 0.289800
Si Si6 0.904123 0.500000 0.682293
Si Si7 0.547438 0.000000 0.868453
O O1 0.066105 0.500000 0.452576
O O2 0.044267 0.500000 0.689735
O O3 0.943325 0.849244 0.198575
O O4 0.921291 0.635674 0.048422
O O5 0.876514 0.837716 0.870586
O O6 0.000000 0.809210 0.000000
O O7 0.500000 0.723984 0.500000
O O8 0.436178 0.500000 0.422566
O O9 0.368357 0.710068 0.348632
O O10 0.739101 0.765055 0.283082
O O11 0.817470 0.849387 0.549908
O O12 0.794179 0.000000 0.301991
O O13 0.636332 0.868015 0.315126
O O14 0.970867 0.500000 0.835512
#
# Coordination Sequence:
#
# PCOD9188646 Si02
#       7
#     2   8   8   8   8   4   4
#     4   8  20  32  54  92 126 146 186 230 286 350
#     4  12  22  36  62  90 120 150 191 243 297 354
#     4  10  24  42  61  83 117 158 201 245 289 338
#     4  10  23  42  61  83 117 157 199 241 290 348
#     4  11  22  38  64  87 118 157 193 239 293 351
#     4  10  19  36  60  89 125 150 188 239 292 351
#     4  10  22  33  58  95 124 149 177 246 291 359
#
# _framework density 22.149439999999998
#
# number of rings (size 3 to 8) (size 9 to 14) (size 15 to 20)
#    0.571    0.952    2.857    2.000    4.000    1.905 
#    0.000    0.000    0.000    0.000    0.000    0.000 
#    0.000    0.000    0.000    0.000    0.000    0.000 
#
# Total GULP energy -117099.631173 kJ/mol
# GULP energy per Si atom -5576.172913 kJ/mol
# Density = 2.209903 g / cm^3
# Si number density = 22.149440 Si / 1000 Ang^3
#
#
#
# Elastic Constant Matrix: (Units=GPa)
#
#
# Indices 1 2 3 4 5 6 
#
# 1 184.8780 6.4494 71.4937 0.0000 -3.2196 0.0000
# 2 6.4494 54.8329 -10.6615 0.0000 1.5186 0.0000
# 3 71.4937 -10.6615 124.1301 0.0000 12.0707 0.0000
# 4 0.0000 0.0000 0.0000 7.0127 0.0000 -1.4234
# 5 -3.2196 1.5186 12.0707 0.0000 37.7664 0.0000
# 6 0.0000 0.0000 0.0000 -1.4234 0.0000 -10.7274
#
#
#
# Elastic Compliance Matrix: (Units=1/GPa)
#
#
# Indices 1 2 3 4 5 6 
#
# 1 0.007268 -0.001799 -0.004550 0.000000 0.002146 0.000000
# 2 -0.001799 0.019054 0.002851 0.000000 -0.001831 0.000000
# 3 -0.004550 0.002851 0.011322 0.000000 -0.004121 0.000000
# 4 0.000000 0.000000 0.000000 0.138858 0.000000 -0.018425
# 5 0.002146 -0.001831 -0.004121 0.000000 0.028052 0.000000
# 6 0.000000 0.000000 0.000000 -0.018425 0.000000 -0.090774
#
#
# Mechanical properties :
#
#
# Convention : Reuss Voigt Hill
#
# Bulk Modulus (GPa) = 32.62786 55.37823 44.00305
# Shear Modulus (GPa) = 38.17022 26.58096 32.37559
#
# Velocity S-wave (km/s) = 4.15577 3.46797 3.82735
# Velocity P-wave (km/s) = 6.14736 6.41031 6.28021
#
# Compressibility (1/GPa) = 0.03064865
#
# Stress axis : x y z
#
# Youngs Moduli (GPa) = 137.58125 52.48296 88.32372
#
# Poissons Ratio (x) = 0.09441 0.40183
# Poissons Ratio (y) = 0.24750 -0.25178
# Poissons Ratio (z) = 0.62593 -0.14961
#
# Static dielectric constant tensor:
#      x y z
#    x 1.795280 0.000000 0.010980 
#    y 0.000000 1.517130 0.000000 
#    z 0.010980 0.000000 1.805840 
# 
# From -- ./inp_files/84279.got.cif
#   From: 2010.05.17/outbox.cif.g08.bks.cpg/sg12_43_cif.got.tgz:84279.got - 2010.06.03 13:09:07.
