data_PCOD9188017
_publ_section_title
;
Structure prediction by ZEFSAII (Michael W. Deem and Ramdas Pophale) SiO2 
 PCOD9188017
Probable space group: C 2/M
;
_chemical_formula_sum "Si O2"
_cell_formula_units_Z 56
_cell_length_a 13.232071
_cell_length_b 15.471168
_cell_length_c 16.527915
_cell_angle_alpha 90.000000
_cell_angle_beta 120.935462
_cell_angle_gamma 90.000000
_cell_volume 2902.205431
_symmetry_space_group_name_H-M "C 2/M"
_symmetry_group_IT_number 12
_symmetry_cell_setting 'monoclinic'
loop_
_space_group_symop_operation_xyz
x,y,z
-x,y,-z
-x,-y,-z
x,-y,z
1/2+x,1/2+y,z
1/2-x,1/2+y,-z
1/2-x,1/2-y,-z
1/2+x,1/2-y,z
loop_
_atom_site_type_symbol
_atom_site_label
_atom_site_fract_x
_atom_site_fract_y
_atom_site_fract_z
Si Si1 0.849824 0.398893 0.130239
Si Si2 0.915196 0.899319 0.043201
Si Si3 0.976818 0.754881 0.809420
Si Si4 0.199753 0.500000 0.621132
Si Si5 0.879306 0.320455 0.614701
Si Si6 0.124115 0.777536 0.553482
Si Si7 0.557518 0.000000 0.403029
Si Si8 0.765684 0.333510 0.269019
O O1 0.883279 0.500000 0.139215
O O2 0.816942 0.372362 0.208534
O O3 0.949670 0.332089 0.140634
O O4 0.722788 0.389273 0.034088
O O5 0.947753 0.835717 0.129380
O O6 0.938065 0.000000 0.071961
O O7 0.000000 0.879682 0.000000
O O8 0.943078 0.746190 0.700834
O O9 0.848516 0.774556 0.795195
O O10 0.166253 0.500000 0.512538
O O11 0.261815 0.414164 0.681843
O O12 0.068232 0.500000 0.605086
O O13 0.743629 0.327771 0.586099
O O14 0.934381 0.413947 0.644838
O O15 0.882239 0.290772 0.523168
O O16 0.142877 0.724972 0.643706
O O17 0.000000 0.825753 0.500000
#
# Coordination Sequence:
#
# PCOD9188017 Si02
#       8
#     8   8   8   4   8   8   4   8
#     4  11  22  38  64  95 121 159 203 243 302 367
#     4  10  21  40  65  92 121 150 195 256 309 362
#     4  11  23  37  58  92 126 157 192 255 310 358
#     4  11  20  30  58  87 120 158 195 257 302 337
#     4  10  22  33  54  86 115 158 200 247 295 359
#     4  10  19  36  52  78 121 160 198 242 300 350
#     4  11  20  36  53  84 121 156 207 250 292 341
#     4  11  21  34  58  92 122 156 202 251 301 346
#
# _framework density 19.295670000000001
#
# number of rings (size 3 to 8) (size 9 to 14) (size 15 to 20)
#    0.000    1.429    3.571    3.000    2.000    0.000 
#    0.000    0.357    0.000    1.286    7.429    0.000 
#    0.000    0.000    0.000    0.000    0.000    0.000 
#
# Total GULP energy -156184.488624 kJ/mol
# GULP energy per Si atom -5578.017451 kJ/mol
# Density = 1.925175 g / cm^3
# Si number density = 19.295670 Si / 1000 Ang^3
#
#
#
# Elastic Constant Matrix: (Units=GPa)
#
#
# Indices 1 2 3 4 5 6 
#
# 1 68.1528 45.7935 37.0158 0.0000 26.1577 0.0000
# 2 45.7935 102.5449 56.4237 0.0000 11.9459 0.0000
# 3 37.0158 56.4237 101.3499 0.0000 17.7175 0.0000
# 4 0.0000 0.0000 0.0000 30.8223 0.0000 4.3130
# 5 26.1577 11.9459 17.7175 0.0000 27.2115 0.0000
# 6 0.0000 0.0000 0.0000 4.3130 0.0000 25.9545
#
#
#
# Elastic Compliance Matrix: (Units=1/GPa)
#
#
# Indices 1 2 3 4 5 6 
#
# 1 0.032481 -0.010751 -0.001404 0.000000 -0.025589 0.000000
# 2 -0.010751 0.017653 -0.007169 0.000000 0.007253 0.000000
# 3 -0.001404 -0.007169 0.015329 0.000000 -0.005484 0.000000
# 4 0.000000 0.000000 0.000000 0.033216 0.000000 -0.005520
# 5 -0.025589 0.007253 -0.005484 0.000000 0.061734 0.000000
# 6 0.000000 0.000000 0.000000 -0.005520 0.000000 0.039446
#
#
# Mechanical properties :
#
#
# Convention : Reuss Voigt Hill
#
# Bulk Modulus (GPa) = 37.29362 61.16818 49.23090
# Shear Modulus (GPa) = 20.20641 25.65198 22.92920
#
# Velocity S-wave (km/s) = 3.23956 3.65007 3.45092
# Velocity P-wave (km/s) = 5.77602 7.03799 6.43800
#
# Compressibility (1/GPa) = 0.02681424
#
# Stress axis : x y z
#
# Youngs Moduli (GPa) = 30.78728 56.64853 65.23419
#
# Poissons Ratio (x) = 0.60906 0.09159
# Poissons Ratio (y) = 0.33101 0.46765
# Poissons Ratio (z) = 0.04323 0.40611
#
# Static dielectric constant tensor:
#      x y z
#    x 1.700030 0.000000 0.030720 
#    y 0.000000 1.659720 0.000000 
#    z 0.030720 0.000000 1.726880 
# 
# From -- ./inp_files/263467.got.cif
#   From: 2010.05.17/outbox.cif.g08.bks.cpg/sg12_132_cif.got.tgz:263467.got - 2010.06.03 13:09:07.
