data_PCOD9188593
_publ_section_title
;
Structure prediction by ZEFSAII (Michael W. Deem and Ramdas Pophale) SiO2 
 PCOD9188593
Probable space group: C 2/M
;
_chemical_formula_sum "Si O2"
_cell_formula_units_Z 64
_cell_length_a 10.158932
_cell_length_b 17.227743
_cell_length_c 32.643874
_cell_angle_alpha 90.000000
_cell_angle_beta 33.855418
_cell_angle_gamma 90.000000
_cell_volume 3182.809105
_symmetry_space_group_name_H-M "C 2/M"
_symmetry_group_IT_number 12
_symmetry_cell_setting 'monoclinic'
loop_
_space_group_symop_operation_xyz
x,y,z
-x,y,-z
-x,-y,-z
x,-y,z
1/2+x,1/2+y,z
1/2-x,1/2+y,-z
1/2-x,1/2-y,-z
1/2+x,1/2-y,z
loop_
_atom_site_type_symbol
_atom_site_label
_atom_site_fract_x
_atom_site_fract_y
_atom_site_fract_z
Si Si1 0.276297 0.410386 0.937766
Si Si2 0.528425 0.916099 0.279151
Si Si3 0.500684 0.750353 0.588723
Si Si4 0.234478 0.344544 0.724216
Si Si5 0.753762 0.161323 0.586394
Si Si6 0.455618 0.318645 0.198979
Si Si7 0.762063 0.092476 0.804367
Si Si8 0.726723 0.593917 0.966243
O O1 0.363640 0.500000 0.908400
O O2 0.383368 0.345441 0.880590
O O3 0.310082 0.389647 0.976401
O O4 0.000000 0.413558 0.000000
O O5 0.437681 0.899879 0.257196
O O6 0.312492 0.907711 0.366397
O O7 0.703592 0.850142 0.249056
O O8 0.639530 0.000000 0.253891
O O9 0.750000 0.750000 0.500000
O O10 0.430322 0.685131 0.640792
O O11 0.547237 0.823181 0.606674
O O12 0.306066 0.735372 0.603515
O O13 0.084829 0.269720 0.777674
O O14 0.324279 0.386043 0.741696
O O15 0.000000 0.147705 0.500000
O O16 0.564607 0.363769 0.209485
O O17 0.489048 0.118007 0.883808
O O18 0.775724 0.000000 0.807656
O O19 0.728084 0.500000 0.961700
O O20 0.500000 0.624244 0.000000
#
# Coordination Sequence:
#
# PCOD9188593 Si02
#       8
#     8   8   8   8   8   8   8   8
#     4  10  19  36  60  86 117 160 208 249 297 363
#     4  11  23  38  59  89 120 158 200 245 304 364
#     4   9  18  35  59  85 115 158 202 239 294 365
#     4  11  24  40  60  89 126 156 197 253 306 361
#     4   9  18  34  57  86 117 153 196 246 295 355
#     4  12  23  39  62  91 122 157 203 256 302 354
#     4  11  23  41  63  89 121 162 203 248 306 365
#     4   9  19  36  59  86 115 155 204 245 291 360
#
# _framework density 20.108024
#
# number of rings (size 3 to 8) (size 9 to 14) (size 15 to 20)
#    0.000    1.750    2.500    2.250    3.500    0.250 
#    0.000    1.250    0.000    0.000    0.000    0.875 
#    0.000    0.000    0.000    0.000    0.000    0.000 
#
# Total GULP energy -178302.810718 kJ/mol
# GULP energy per Si atom -5571.962835 kJ/mol
# Density = 2.006226 g / cm^3
# Si number density = 20.108024 Si / 1000 Ang^3
#
#
#
# Elastic Constant Matrix: (Units=GPa)
#
#
# Indices 1 2 3 4 5 6 
#
# 1 114.0571 3.3872 19.9506 0.0757 10.2677 -0.0315
# 2 3.3872 44.9384 7.7724 -0.0106 4.1744 0.0022
# 3 19.9506 7.7724 71.3737 0.3202 12.3507 -0.1313
# 4 0.0757 -0.0106 0.3202 -4.9386 -0.0359 14.5782
# 5 10.2677 4.1744 12.3507 -0.0359 27.1444 0.0028
# 6 -0.0315 0.0022 -0.1313 14.5782 0.0028 9.6327
#
#
#
# Elastic Compliance Matrix: (Units=1/GPa)
#
#
# Indices 1 2 3 4 5 6 
#
# 1 0.009379 -0.000095 -0.002171 0.000005 -0.002545 -0.000006
# 2 -0.000095 0.022847 -0.002018 -0.000047 -0.002559 0.000039
# 3 -0.002171 -0.002018 0.015891 0.000306 -0.006098 -0.000251
# 4 0.000005 -0.000047 0.000306 -0.037029 -0.000188 0.056044
# 5 -0.002545 -0.002559 -0.006098 -0.000188 0.040971 0.000182
# 6 -0.000006 0.000039 -0.000251 0.056044 0.000182 0.018992
#
#
# Mechanical properties :
#
#
# Convention : Reuss Voigt Hill
#
# Bulk Modulus (GPa) = 25.28552 32.50993 28.89773
# Shear Modulus (GPa) = 53.87835 19.65163 36.76499
#
# Velocity S-wave (km/s) = 5.18195 3.12958 4.28059
# Velocity P-wave (km/s) = 6.95742 5.40941 6.23167
#
# Compressibility (1/GPa) = 0.03954833
#
# Stress axis : x y z
#
# Youngs Moduli (GPa) = 106.61847 43.77015 62.92951
#
# Poissons Ratio (x) = 0.00416 0.13662
# Poissons Ratio (y) = 0.01013 0.12701
# Poissons Ratio (z) = 0.23146 0.08834
#
# Static dielectric constant tensor:
#      x y z
#    x 1.704540 -0.000010 -0.012700 
#    y -0.000010 1.715800 0.000000 
#    z -0.012700 0.000000 1.771430 
# 
# From -- ./inp_files/372961.got.cif
#   From: 2010.05.17/outbox.cif.g08.bks.cpg/sg12_187_cif.got.tgz:372961.got - 2010.06.03 13:09:07.
