data_PCOD9188672
_publ_section_title
;
Structure prediction by ZEFSAII (Michael W. Deem and Ramdas Pophale) SiO2 
 PCOD9188672
Probable space group: C 2/M
;
_chemical_formula_sum "Si O2"
_cell_formula_units_Z 48
_cell_length_a 13.829719
_cell_length_b 23.679407
_cell_length_c 14.160327
_cell_angle_alpha 90.000000
_cell_angle_beta 29.588917
_cell_angle_gamma 90.000000
_cell_volume 2289.735860
_symmetry_space_group_name_H-M "C 2/M"
_symmetry_group_IT_number 12
_symmetry_cell_setting 'monoclinic'
loop_
_space_group_symop_operation_xyz
x,y,z
-x,y,-z
-x,-y,-z
x,-y,z
1/2+x,1/2+y,z
1/2-x,1/2+y,-z
1/2-x,1/2-y,-z
1/2+x,1/2-y,z
loop_
_atom_site_type_symbol
_atom_site_label
_atom_site_fract_x
_atom_site_fract_y
_atom_site_fract_z
Si Si1 0.238544 0.563142 0.199701
Si Si2 0.770604 0.438806 0.568401
Si Si3 0.598587 0.336307 0.598929
Si Si4 0.801945 0.697537 0.130160
Si Si5 0.031938 0.722423 0.753393
Si Si6 0.153013 0.316968 0.284207
O O1 0.305965 0.500000 0.107769
O O2 0.276609 0.562369 0.279978
O O3 0.286147 0.629308 0.140182
O O4 0.007580 0.564337 0.368660
O O5 0.713720 0.500000 0.579162
O O6 0.666082 0.391853 0.595475
O O7 0.397914 0.337088 0.710195
O O8 0.773468 0.312413 0.385464
O O9 0.576409 0.287735 0.697611
O O10 0.764741 0.758409 0.211720
O O11 0.000000 0.669549 0.000000
O O12 0.863754 0.713083 0.970974
O O13 0.971306 0.698620 0.702680
O O14 0.000000 0.330023 0.500000
#
# Coordination Sequence:
#
# PCOD9188672 Si02
#       6
#     8   8   8   8   8   8
#     4   9  16  27  50  89 123 148 188 225 271 355
#     4   9  16  29  54  88 117 150 188 228 279 348
#     4  10  19  36  61  77 116 150 193 235 286 344
#     4  11  27  37  54  84 115 154 202 248 292 330
#     4  10  22  38  55  84 116 152 196 239 289 341
#     4  11  19  34  58  83 120 161 184 226 290 348
#
# _framework density 20.963118000000001
#
# number of rings (size 3 to 8) (size 9 to 14) (size 15 to 20)
#    0.000    2.000    3.333    3.000    9.333    0.000 
#    0.000    0.000    0.000    6.000    0.000    1.167 
#    0.000    0.000    0.000    0.000    0.000    0.000 
#
# Total GULP energy -133781.431262 kJ/mol
# GULP energy per Si atom -5574.226303 kJ/mol
# Density = 2.091540 g / cm^3
# Si number density = 20.963118 Si / 1000 Ang^3
#
#
#
# Elastic Constant Matrix: (Units=GPa)
#
#
# Indices 1 2 3 4 5 6 
#
# 1 87.4447 55.6770 25.0024 0.0644 -30.2768 -0.0115
# 2 55.6770 165.5581 22.1856 0.0686 -19.6313 -0.0356
# 3 25.0024 22.1856 62.9537 0.2321 -17.5708 -0.0990
# 4 0.0644 0.0686 0.2321 2.7077 -0.0825 -1.4857
# 5 -30.2768 -19.6313 -17.5708 -0.0825 44.0462 0.0146
# 6 -0.0115 -0.0356 -0.0990 -1.4857 0.0146 34.6182
#
#
#
# Elastic Compliance Matrix: (Units=1/GPa)
#
#
# Indices 1 2 3 4 5 6 
#
# 1 0.018594 -0.004719 -0.003085 0.000229 0.009447 -0.000002
# 2 -0.004719 0.007728 -0.000893 -0.000010 -0.000156 0.000003
# 3 -0.003085 -0.000893 0.018822 -0.001371 0.004987 -0.000009
# 4 0.000229 -0.000010 -0.001371 0.378343 0.000309 0.016233
# 5 0.009447 -0.000156 0.004987 0.000309 0.031118 0.000017
# 6 -0.000002 0.000003 -0.000009 0.016233 0.000017 0.029583
#
#
# Mechanical properties :
#
#
# Convention : Reuss Voigt Hill
#
# Bulk Modulus (GPa) = 36.03774 57.96521 47.00147
# Shear Modulus (GPa) = 9.78793 30.48051 20.13422
#
# Velocity S-wave (km/s) = 2.16316 3.81728 3.10249
# Velocity P-wave (km/s) = 4.84431 6.86585 5.94169
#
# Compressibility (1/GPa) = 0.02774869
#
# Stress axis : x y z
#
# Youngs Moduli (GPa) = 53.78136 129.39124 53.13042
#
# Poissons Ratio (x) = 0.61066 0.16393
# Poissons Ratio (y) = 0.25382 0.04743
# Poissons Ratio (z) = 0.16594 0.11550
#
# Static dielectric constant tensor:
#      x y z
#    x 1.790890 0.000010 -0.039280 
#    y 0.000010 1.816140 0.000050 
#    z -0.039280 0.000050 1.832210 
# 
# From -- ./inp_files/218442.got.cif
#   From: 2010.05.17/outbox.cif.g08.bks.cpg/sg12_110_cif.got.tgz:218442.got - 2010.06.03 13:09:07.
