data_PCOD9188349
_publ_section_title
;
Structure prediction by ZEFSAII (Michael W. Deem and Ramdas Pophale) SiO2 
 PCOD9188349
Probable space group: C 2/M
;
_chemical_formula_sum "Si O2"
_cell_formula_units_Z 56
_cell_length_a 21.768155
_cell_length_b 9.675524
_cell_length_c 28.142571
_cell_angle_alpha 90.000000
_cell_angle_beta 30.572657
_cell_angle_gamma 90.000000
_cell_volume 3014.826763
_symmetry_space_group_name_H-M "C 2/M"
_symmetry_group_IT_number 12
_symmetry_cell_setting 'monoclinic'
loop_
_space_group_symop_operation_xyz
x,y,z
-x,y,-z
-x,-y,-z
x,-y,z
1/2+x,1/2+y,z
1/2-x,1/2+y,-z
1/2-x,1/2-y,-z
1/2+x,1/2-y,z
loop_
_atom_site_type_symbol
_atom_site_label
_atom_site_fract_x
_atom_site_fract_y
_atom_site_fract_z
Si Si1 0.115210 0.344629 0.388985
Si Si2 0.870893 0.665732 0.777407
Si Si3 0.488976 0.660599 0.620232
Si Si4 0.260456 0.839341 0.445680
Si Si5 0.013162 0.335682 0.772452
Si Si6 0.614068 0.662251 0.786876
Si Si7 0.379220 0.332361 0.106785
O O1 0.118002 0.500000 0.364920
O O2 0.094778 0.228626 0.363529
O O3 0.246957 0.326037 0.323772
O O4 0.000000 0.341070 0.500000
O O5 0.886553 0.500000 0.760675
O O6 0.966669 0.749429 0.682046
O O7 0.740490 0.706401 0.843110
O O8 0.899626 0.694511 0.813499
O O9 0.462713 0.500000 0.646280
O O10 0.627650 0.671831 0.511067
O O11 0.250000 0.750000 0.500000
O O12 0.368711 0.802168 0.338461
O O13 0.278921 0.000000 0.446717
O O14 0.015159 0.500000 0.780799
O O15 0.027180 0.250012 0.811190
O O16 0.581109 0.500000 0.807441
O O17 0.618799 0.707638 0.839007
O O18 0.379688 0.500000 0.106491
O O19 0.500000 0.284148 0.000000
#
# Coordination Sequence:
#
# PCOD9188349 Si02
#       7
#     8   8   8   8   8   8   8
#     4  10  20  34  52  75 106 147 190 227 268 323
#     4  10  19  36  59  79 106 144 186 225 271 333
#     4  11  21  31  49  78 109 143 185 232 275 317
#     4  10  20  32  47  72 108 150 192 227 266 316
#     4  10  21  35  53  78 112 152 184 222 275 327
#     4  10  20  35  56  82 110 143 183 229 277 326
#     4   9  18  36  63  88 106 134 185 238 279 330
#
# _framework density 18.574864999999999
#
# number of rings (size 3 to 8) (size 9 to 14) (size 15 to 20)
#    0.000    2.000    2.857    1.286    0.000    2.571 
#    0.000    0.714    0.000    1.714    0.000    0.000 
#    0.000    0.000    0.000    0.000    0.000    0.000 
#
# Total GULP energy -156107.377887 kJ/mol
# GULP energy per Si atom -5575.263496 kJ/mol
# Density = 1.853259 g / cm^3
# Si number density = 18.574865 Si / 1000 Ang^3
#
#
#
# Elastic Constant Matrix: (Units=GPa)
#
#
# Indices 1 2 3 4 5 6 
#
# 1 148.0535 54.7427 39.3374 0.0000 -9.9564 -0.0002
# 2 54.7427 42.7140 17.0942 0.0001 -4.0313 -0.0004
# 3 39.3374 17.0942 70.7409 -0.0001 -2.5361 0.0000
# 4 0.0000 0.0001 -0.0001 10.8412 0.0000 0.1968
# 5 -9.9564 -4.0313 -2.5361 0.0000 16.8532 0.0001
# 6 -0.0002 -0.0004 0.0000 0.1968 0.0001 35.4174
#
#
#
# Elastic Compliance Matrix: (Units=1/GPa)
#
#
# Indices 1 2 3 4 5 6 
#
# 1 0.013910 -0.015969 -0.003739 0.000000 0.003835 0.000000
# 2 -0.015969 0.044728 -0.001893 0.000000 0.000980 0.000000
# 3 -0.003739 -0.001893 0.016667 0.000000 -0.000153 0.000000
# 4 0.000000 0.000000 0.000000 0.092250 0.000000 -0.000513
# 5 0.003835 0.000980 -0.000153 0.000000 0.061813 0.000000
# 6 0.000000 0.000000 0.000000 -0.000513 0.000000 0.028238
#
#
# Mechanical properties :
#
#
# Convention : Reuss Voigt Hill
#
# Bulk Modulus (GPa) = 31.14964 53.76190 42.45577
# Shear Modulus (GPa) = 16.05093 22.64465 19.34779
#
# Velocity S-wave (km/s) = 2.94278 3.49535 3.23090
# Velocity P-wave (km/s) = 5.32474 6.73024 6.06832
#
# Compressibility (1/GPa) = 0.03210310
#
# Stress axis : x y z
#
# Youngs Moduli (GPa) = 71.88958 22.35739 59.99857
#
# Poissons Ratio (x) = 0.35703 0.22432
# Poissons Ratio (y) = 1.14802 0.11358
# Poissons Ratio (z) = 0.26878 0.04232
#
# Static dielectric constant tensor:
#      x y z
#    x 1.669790 0.000000 -0.017340 
#    y 0.000000 1.625020 0.000000 
#    z -0.017340 0.000000 1.658980 
# 
# From -- ./inp_files/231022.got.cif
#   From: 2010.05.17/outbox.cif.g08.bks.cpg/sg12_116_cif.got.tgz:231022.got - 2010.06.03 13:09:07.
