data_PCOD9188462
_publ_section_title
;
Structure prediction by ZEFSAII (Michael W. Deem and Ramdas Pophale) SiO2 
 PCOD9188462
Probable space group: C 2/M
;
_chemical_formula_sum "Si O2"
_cell_formula_units_Z 52
_cell_length_a 13.155352
_cell_length_b 17.805330
_cell_length_c 12.639047
_cell_angle_alpha 90.000000
_cell_angle_beta 50.986586
_cell_angle_gamma 90.000000
_cell_volume 2300.313711
_symmetry_space_group_name_H-M "C 2/M"
_symmetry_group_IT_number 12
_symmetry_cell_setting 'monoclinic'
loop_
_space_group_symop_operation_xyz
x,y,z
-x,y,-z
-x,-y,-z
x,-y,z
1/2+x,1/2+y,z
1/2-x,1/2+y,-z
1/2-x,1/2-y,-z
1/2+x,1/2-y,z
loop_
_atom_site_type_symbol
_atom_site_label
_atom_site_fract_x
_atom_site_fract_y
_atom_site_fract_z
Si Si1 0.981404 0.352653 0.395960
Si Si2 0.857296 0.584866 0.114064
Si Si3 0.583481 0.697269 0.834697
Si Si4 0.000000 0.792124 0.500000
Si Si5 0.114430 0.086884 0.140293
Si Si6 0.269111 0.082699 0.819751
Si Si7 0.284053 0.155952 0.358519
O O1 0.082826 0.393597 0.253570
O O2 0.000000 0.388211 0.500000
O O3 0.024650 0.266712 0.388192
O O4 0.837959 0.351895 0.441279
O O5 0.862433 0.500000 0.068149
O O6 0.727045 0.617627 0.145073
O O7 0.830931 0.587814 0.255294
O O8 0.000000 0.618902 0.000000
O O9 0.498369 0.647259 0.808511
O O10 0.704843 0.644991 0.788297
O O11 0.641542 0.772047 0.743009
O O12 0.500000 0.709103 0.000000
O O13 0.129501 0.835859 0.446508
O O14 0.074529 0.000000 0.195839
O O15 0.185984 0.080807 0.980550
O O16 0.263506 0.000000 0.774873
#
# Coordination Sequence:
#
# PCOD9188462 Si02
#       7
#     8   8   8   4   8   8   8
#     4  10  23  40  57  85 113 157 208 244 297 339
#     4  10  22  41  63  91 122 154 194 239 299 365
#     4  10  20  34  58  94 125 152 195 242 296 359
#     4  10  24  42  58  84 118 156 204 246 298 340
#     4   9  19  34  58  90 124 161 191 234 298 359
#     4  10  19  36  59  87 126 160 194 241 295 356
#     4  12  23  41  65  87 119 159 196 252 298 351
#
# _framework density 22.605611
#
# number of rings (size 3 to 8) (size 9 to 14) (size 15 to 20)
#    0.462    1.385    1.538    2.308    2.154    4.000 
#    0.000    4.231    0.000    0.000    0.000    0.000 
#    0.000    0.000    0.000    0.000    0.000    0.000 
#
# Total GULP energy -145049.855516 kJ/mol
# GULP energy per Si atom -5578.840597 kJ/mol
# Density = 2.255416 g / cm^3
# Si number density = 22.605611 Si / 1000 Ang^3
#
#
#
# Elastic Constant Matrix: (Units=GPa)
#
#
# Indices 1 2 3 4 5 6 
#
# 1 174.4372 19.9127 21.8075 0.0000 -11.6364 0.0000
# 2 19.9127 64.7521 17.4469 0.0000 -7.9101 0.0000
# 3 21.8075 17.4469 41.5031 0.0000 -11.8991 0.0000
# 4 0.0000 0.0000 0.0000 6.1077 0.0000 9.3740
# 5 -11.6364 -7.9101 -11.8991 0.0000 35.5475 0.0000
# 6 0.0000 0.0000 0.0000 9.3740 0.0000 6.9108
#
#
#
# Elastic Compliance Matrix: (Units=1/GPa)
#
#
# Indices 1 2 3 4 5 6 
#
# 1 0.006241 -0.001120 -0.002538 0.000000 0.000944 0.000000
# 2 -0.001120 0.017697 -0.006446 0.000000 0.001414 0.000000
# 3 -0.002538 -0.006446 0.030406 0.000000 0.007913 0.000000
# 4 0.000000 0.000000 0.000000 -0.151343 0.000000 0.205285
# 5 0.000944 0.001414 0.007913 0.000000 0.031404 0.000000
# 6 0.000000 0.000000 0.000000 0.205285 0.000000 -0.133754
#
#
# Mechanical properties :
#
#
# Convention : Reuss Voigt Hill
#
# Bulk Modulus (GPa) = 29.29308 44.33627 36.81467
# Shear Modulus (GPa) = -29.80417 24.48154 -2.66132
#
# Velocity S-wave (km/s) = -3.63497 3.29444 -1.08620
# Velocity P-wave (km/s) = 2.15196 5.84180 3.84030
#
# Compressibility (1/GPa) = 0.03413776
#
# Stress axis : x y z
#
# Youngs Moduli (GPa) = 160.23543 56.50538 32.88788
#
# Poissons Ratio (x) = 0.06329 0.08346
# Poissons Ratio (y) = 0.17948 0.21199
# Poissons Ratio (z) = 0.40662 0.36422
#
# Static dielectric constant tensor:
#      x y z
#    x 1.865910 0.000000 0.008590 
#    y 0.000000 1.834730 0.000000 
#    z 0.008590 0.000000 1.871660 
# 
# From -- ./inp_files/206019.got.cif
#   From: 2010.05.17/outbox.cif.g08.bks.cpg/sg12_104_cif.got.tgz:206019.got - 2010.06.03 13:09:07.
