data_PCOD9188156
_publ_section_title
;
Structure prediction by ZEFSAII (Michael W. Deem and Ramdas Pophale) SiO2 
 PCOD9188156
Probable space group: C 2/M
;
_chemical_formula_sum "Si O2"
_cell_formula_units_Z 56
_cell_length_a 7.117104
_cell_length_b 13.766527
_cell_length_c 27.273790
_cell_angle_alpha 90.000000
_cell_angle_beta 117.013133
_cell_angle_gamma 90.000000
_cell_volume 2380.692718
_symmetry_space_group_name_H-M "C 2/M"
_symmetry_group_IT_number 12
_symmetry_cell_setting 'monoclinic'
loop_
_space_group_symop_operation_xyz
x,y,z
-x,y,-z
-x,-y,-z
x,-y,z
1/2+x,1/2+y,z
1/2-x,1/2+y,-z
1/2-x,1/2-y,-z
1/2+x,1/2-y,z
loop_
_atom_site_type_symbol
_atom_site_label
_atom_site_fract_x
_atom_site_fract_y
_atom_site_fract_z
Si Si1 0.493884 0.831663 0.718375
Si Si2 0.370728 0.853557 0.160123
Si Si3 0.309347 0.000000 0.074374
Si Si4 0.875870 0.111004 0.395483
Si Si5 0.198433 0.698240 0.544990
Si Si6 0.403490 0.367201 0.142893
Si Si7 0.953844 0.107575 0.733521
Si Si8 0.311859 0.500000 0.048203
O O1 0.481742 0.857300 0.774761
O O2 0.294550 0.875639 0.667206
O O3 0.708783 0.875713 0.721152
O O4 0.504603 0.713358 0.715684
O O5 0.354002 0.744438 0.141054
O O6 0.145657 0.884154 0.155278
O O7 0.414942 0.912090 0.116369
O O8 0.057757 0.000000 0.058434
O O9 0.319112 0.000000 0.017237
O O10 0.832022 0.206836 0.424079
O O11 0.120282 0.130960 0.411558
O O12 0.856503 0.000000 0.413148
O O13 0.250000 0.750000 0.500000
O O14 0.000000 0.638310 0.500000
O O15 0.406517 0.398578 0.200026
O O16 0.280668 0.412420 0.082719
O O17 0.970607 0.000000 0.711302
#
# Coordination Sequence:
#
# PCOD9188156 Si02
#       8
#     8   8   4   8   8   8   8   4
#     4  10  21  34  58  87 117 148 196 238 278 356
#     4   9  19  32  52  74 105 141 177 225 285 333
#     4   9  18  30  49  75 101 139 179 226 276 336
#     4  11  22  38  62  89 119 158 195 236 289 332
#     4   9  21  41  62  88 121 151 194 240 272 336
#     4   9  17  32  52  72  98 136 183 227 278 342
#     4  10  19  36  57  78 113 157 186 237 301 343
#     4   9  16  30  51  73  97 133 191 224 266 346
#
# _framework density 23.522565
#
# number of rings (size 3 to 8) (size 9 to 14) (size 15 to 20)
#    0.000    2.429    0.714    1.286    4.000    3.429 
#    0.000    6.429   11.000    0.857    0.000    0.000 
#    0.000    0.000    0.000    0.000    0.000    0.000 
#
# Total GULP energy -156066.767412 kJ/mol
# GULP energy per Si atom -5573.813122 kJ/mol
# Density = 2.346903 g / cm^3
# Si number density = 23.522565 Si / 1000 Ang^3
#
#
#
# Elastic Constant Matrix: (Units=GPa)
#
#
# Indices 1 2 3 4 5 6 
#
# 1 47.4479 -2.7546 18.9035 0.0000 7.1698 0.0000
# 2 -2.7546 146.5331 35.2054 0.0000 6.4225 0.0000
# 3 18.9035 35.2054 140.0132 0.0000 22.2190 0.0000
# 4 0.0000 0.0000 0.0000 80.9482 0.0000 -26.3782
# 5 7.1698 6.4225 22.2190 0.0000 30.2931 0.0000
# 6 0.0000 0.0000 0.0000 -26.3782 0.0000 38.0920
#
#
#
# Elastic Compliance Matrix: (Units=1/GPa)
#
#
# Indices 1 2 3 4 5 6 
#
# 1 0.022819 0.001266 -0.002829 0.000000 -0.003595 0.000000
# 2 0.001266 0.007335 -0.001948 0.000000 -0.000426 0.000000
# 3 -0.002829 -0.001948 0.008875 0.000000 -0.005427 0.000000
# 4 0.000000 0.000000 0.000000 0.015954 0.000000 0.011048
# 5 -0.003595 -0.000426 -0.005427 0.000000 0.037933 0.000000
# 6 0.000000 0.000000 0.000000 0.011048 0.000000 0.033903
#
#
# Mechanical properties :
#
#
# Convention : Reuss Voigt Hill
#
# Bulk Modulus (GPa) = 31.24146 48.52253 39.88200
# Shear Modulus (GPa) = 34.60008 48.70931 41.65470
#
# Velocity S-wave (km/s) = 3.83943 4.55548 4.21270
# Velocity P-wave (km/s) = 5.74154 6.95290 6.37605
#
# Compressibility (1/GPa) = 0.03200875
#
# Stress axis : x y z
#
# Youngs Moduli (GPa) = 43.82229 136.33629 112.67523
#
# Poissons Ratio (x) = -0.17262 0.31874
# Poissons Ratio (y) = -0.05549 0.21945
# Poissons Ratio (z) = 0.12397 0.26553
#
# Static dielectric constant tensor:
#      x y z
#    x 1.996350 0.000000 -0.017180 
#    y 0.000000 1.927180 0.000000 
#    z -0.017180 0.000000 1.806200 
# 
# From -- ./inp_files/372406.got.cif
#   From: 2010.05.17/outbox.cif.g08.bks.cpg/sg12_187_cif.got.tgz:372406.got - 2010.06.03 13:09:07.
