data_PCOD9188877
_publ_section_title
;
Structure prediction by ZEFSAII (Michael W. Deem and Ramdas Pophale) SiO2 
 PCOD9188877
Probable space group: C 2/M
;
_chemical_formula_sum "Si O2"
_cell_formula_units_Z 64
_cell_length_a 21.856963
_cell_length_b 13.837771
_cell_length_c 31.293660
_cell_angle_alpha 90.000000
_cell_angle_beta 18.108646
_cell_angle_gamma 90.000000
_cell_volume 2941.853736
_symmetry_space_group_name_H-M "C 2/M"
_symmetry_group_IT_number 12
_symmetry_cell_setting 'monoclinic'
loop_
_space_group_symop_operation_xyz
x,y,z
-x,y,-z
-x,-y,-z
x,-y,z
1/2+x,1/2+y,z
1/2-x,1/2+y,-z
1/2-x,1/2-y,-z
1/2+x,1/2-y,z
loop_
_atom_site_type_symbol
_atom_site_label
_atom_site_fract_x
_atom_site_fract_y
_atom_site_fract_z
Si Si1 0.859092 0.114122 0.634456
Si Si2 0.603841 0.692814 0.973938
Si Si3 0.435265 0.616782 0.413936
Si Si4 0.499808 0.117162 0.677823
Si Si5 0.729074 0.388442 0.141482
Si Si6 0.434150 0.386776 0.258218
Si Si7 0.122129 0.204786 0.791097
Si Si8 0.998211 0.616494 0.422530
O O1 0.667639 0.181189 0.759580
O O2 0.000000 0.128269 0.500000
O O3 0.978870 0.144684 0.597327
O O4 0.812546 0.000000 0.668241
O O5 0.827878 0.657946 0.821590
O O6 0.602563 0.809347 0.972992
O O7 0.500000 0.654065 0.000000
O O8 0.499125 0.668431 0.087513
O O9 0.422001 0.500000 0.423036
O O10 0.588204 0.638713 0.274740
O O11 0.215244 0.650696 0.549821
O O12 0.467189 0.146057 0.649878
O O13 0.494526 0.000000 0.682617
O O14 0.791822 0.500000 0.104279
O O15 0.597069 0.379100 0.186631
O O16 0.417970 0.500000 0.257534
O O17 0.473753 0.327927 0.189236
O O18 0.222492 0.356327 0.417571
O O19 0.338343 0.157863 0.654258
O O20 0.009373 0.500000 0.416181
#
# Coordination Sequence:
#
# PCOD9188877 Si02
#       8
#     8   8   8   8   8   8   8   8
#     4  10  22  40  63  91 123 159 203 254 306 354
#     4  12  26  40  56  88 126 166 208 240 293 372
#     4   9  18  38  66  92 116 150 201 258 308 351
#     4  10  21  38  62  91 124 157 196 251 307 357
#     4  10  22  42  66  89 117 154 204 262 307 349
#     4  10  21  40  66  95 119 151 201 257 313 359
#     4  12  24  38  58  88 130 165 203 239 296 367
#     4  10  19  36  62  91 121 153 195 252 308 356
#
# _framework density 21.754988999999998
#
# number of rings (size 3 to 8) (size 9 to 14) (size 15 to 20)
#    0.000    1.625    2.500    2.250    0.000    6.000 
#    0.000    0.000    0.000    3.000    0.000    0.000 
#    0.000    0.000    0.000    0.000    0.000    0.000 
#
# Total GULP energy -179055.447841 kJ/mol
# GULP energy per Si atom -5595.482745 kJ/mol
# Density = 2.170547 g / cm^3
# Si number density = 21.754989 Si / 1000 Ang^3
#
#
#
# Elastic Constant Matrix: (Units=GPa)
#
#
# Indices 1 2 3 4 5 6 
#
# 1 116.4054 27.5305 13.1320 -0.0102 22.6461 -0.0001
# 2 27.5305 56.5455 1.1671 -0.0188 8.9389 -0.0049
# 3 13.1320 1.1671 30.4500 -0.1012 20.0846 -0.0381
# 4 -0.0102 -0.0188 -0.1012 25.1469 -0.0293 -2.1340
# 5 22.6461 8.9389 20.0846 -0.0293 26.8054 -0.0149
# 6 -0.0001 -0.0049 -0.0381 -2.1340 -0.0149 32.3977
#
#
#
# Elastic Compliance Matrix: (Units=1/GPa)
#
#
# Indices 1 2 3 4 5 6 
#
# 1 0.011160 -0.004025 0.001334 -0.000004 -0.009086 -0.000003
# 2 -0.004025 0.020839 0.006481 0.000031 -0.008405 0.000009
# 3 0.001334 0.006481 0.067591 0.000220 -0.053933 0.000070
# 4 -0.000004 0.000031 0.000220 0.039991 -0.000127 0.002634
# 5 -0.009086 -0.008405 -0.053933 -0.000127 0.088195 -0.000033
# 6 -0.000003 0.000009 0.000070 0.002634 -0.000033 0.031040
#
#
# Mechanical properties :
#
#
# Convention : Reuss Voigt Hill
#
# Bulk Modulus (GPa) = 9.33080 31.89558 20.61319
# Shear Modulus (GPa) = 17.42418 27.64142 22.53280
#
# Velocity S-wave (km/s) = 2.83314 3.56838 3.22180
# Velocity P-wave (km/s) = 3.87306 5.62769 4.83071
#
# Compressibility (1/GPa) = 0.10717190
#
# Stress axis : x y z
#
# Youngs Moduli (GPa) = 89.60946 47.98630 14.79484
#
# Poissons Ratio (x) = 0.19312 -0.01974
# Poissons Ratio (y) = 0.36064 -0.09589
# Poissons Ratio (z) = -0.11958 -0.31100
#
# Static dielectric constant tensor:
#      x y z
#    x 1.775010 0.000020 0.000960 
#    y 0.000020 1.842200 0.000040 
#    z 0.000960 0.000040 1.750950 
# 
# From -- ./inp_files/381480.got.cif
#   From: 2010.05.17/outbox.cif.g08.bks.cpg/sg12_191_cif.got.tgz:381480.got - 2010.06.03 13:09:07.
