data_PCOD9188139
_publ_section_title
;
Structure prediction by ZEFSAII (Michael W. Deem and Ramdas Pophale) SiO2 
 PCOD9188139
Probable space group: C 2/M
;
_chemical_formula_sum "Si O2"
_cell_formula_units_Z 56
_cell_length_a 21.003389
_cell_length_b 17.087163
_cell_length_c 9.165683
_cell_angle_alpha 90.000000
_cell_angle_beta 115.575165
_cell_angle_gamma 90.000000
_cell_volume 2967.154826
_symmetry_space_group_name_H-M "C 2/M"
_symmetry_group_IT_number 12
_symmetry_cell_setting 'monoclinic'
loop_
_space_group_symop_operation_xyz
x,y,z
-x,y,-z
-x,-y,-z
x,-y,z
1/2+x,1/2+y,z
1/2-x,1/2+y,-z
1/2-x,1/2-y,-z
1/2+x,1/2-y,z
loop_
_atom_site_type_symbol
_atom_site_label
_atom_site_fract_x
_atom_site_fract_y
_atom_site_fract_z
Si Si1 0.963961 0.318552 0.821637
Si Si2 0.060276 0.635838 0.666000
Si Si3 0.228617 0.194298 0.265126
Si Si4 0.175108 0.632077 0.196786
Si Si5 0.208150 0.414221 0.899808
Si Si6 0.618473 0.737737 0.519778
Si Si7 0.813234 0.909665 0.509120
O O1 0.903196 0.377912 0.816878
O O2 0.926160 0.262551 0.666129
O O3 0.026065 0.358429 0.790488
O O4 0.000000 0.281521 0.000000
O O5 0.133172 0.590048 0.742273
O O6 0.080744 0.721754 0.620666
O O7 0.000000 0.603496 0.500000
O O8 0.185544 0.273754 0.202195
O O9 0.244529 0.152118 0.127959
O O10 0.303962 0.221767 0.408009
O O11 0.193374 0.133694 0.341629
O O12 0.235698 0.597076 0.359752
O O13 0.190166 0.601197 0.050127
O O14 0.239967 0.500000 0.913432
O O15 0.634817 0.645762 0.534453
O O16 0.833712 0.000000 0.539215
#
# Coordination Sequence:
#
# PCOD9188139 Si02
#       7
#     8   8   8   8   8   8   8
#     4  11  18  33  58  81 101 140 192 216 255 308
#     4   9  20  34  54  74 105 147 185 214 255 315
#     4  10  19  36  57  77 105 145 183 222 261 320
#     4  11  20  36  55  81 110 138 183 220 264 325
#     4  11  22  35  50  80 115 139 172 225 276 318
#     4   9  18  36  55  79 106 136 187 226 254 320
#     4  11  20  34  58  85 110 138 172 228 283 316
#
# _framework density 18.873297999999998
#
# number of rings (size 3 to 8) (size 9 to 14) (size 15 to 20)
#    0.000    1.714    4.286    2.143    0.000    0.286 
#    0.000    2.143    0.000    4.286    0.000    0.000 
#    0.000    0.000    0.000    0.000    0.000    0.000 
#
# Total GULP energy -156158.194415 kJ/mol
# GULP energy per Si atom -5577.078372 kJ/mol
# Density = 1.883034 g / cm^3
# Si number density = 18.873298 Si / 1000 Ang^3
#
#
#
# Elastic Constant Matrix: (Units=GPa)
#
#
# Indices 1 2 3 4 5 6 
#
# 1 47.3600 -5.1503 -2.6987 0.0000 -15.9089 0.0000
# 2 -5.1503 85.6816 -2.0126 0.0000 -12.9910 0.0000
# 3 -2.6987 -2.0126 48.1738 0.0000 -12.6551 0.0000
# 4 0.0000 0.0000 0.0000 10.0661 0.0000 -1.5500
# 5 -15.9089 -12.9910 -12.6551 0.0000 26.7290 0.0000
# 6 0.0000 0.0000 0.0000 -1.5500 0.0000 11.6875
#
#
#
# Elastic Compliance Matrix: (Units=1/GPa)
#
#
# Indices 1 2 3 4 5 6 
#
# 1 0.030703 0.005866 0.008582 0.000000 0.025189 0.000000
# 2 0.005866 0.013976 0.004128 0.000000 0.012239 0.000000
# 3 0.008582 0.004128 0.026587 0.000000 0.019702 0.000000
# 4 0.000000 0.000000 0.000000 0.101414 0.000000 0.013450
# 5 0.025189 0.012239 0.019702 0.000000 0.067681 0.000000
# 6 0.000000 0.000000 0.000000 0.013450 0.000000 0.087345
#
#
# Mechanical properties :
#
#
# Convention : Reuss Voigt Hill
#
# Bulk Modulus (GPa) = 9.22350 17.94356 13.58353
# Shear Modulus (GPa) = 15.30480 22.43499 18.86989
#
# Velocity S-wave (km/s) = 2.85076 3.45152 3.16542
# Velocity P-wave (km/s) = 3.96654 5.04103 4.53572
#
# Compressibility (1/GPa) = 0.10841875
#
# Stress axis : x y z
#
# Youngs Moduli (GPa) = 32.56991 71.54955 37.61220
#
# Poissons Ratio (x) = -0.41973 -0.32279
# Poissons Ratio (y) = -0.19106 -0.15525
# Poissons Ratio (z) = -0.27952 -0.29533
#
# Static dielectric constant tensor:
#      x y z
#    x 1.678420 0.000000 -0.007920 
#    y 0.000000 1.652490 0.000000 
#    z -0.007920 0.000000 1.679870 
# 
# From -- ./inp_files/97846.got.cif
#   From: 2010.05.17/outbox.cif.g08.bks.cpg/sg12_49_cif.got.tgz:97846.got - 2010.06.03 13:09:07.
