data_PCOD9188240
_publ_section_title
;
Structure prediction by ZEFSAII (Michael W. Deem and Ramdas Pophale) SiO2 
 PCOD9188240
Probable space group: C 2/M
;
_chemical_formula_sum "Si O2"
_cell_formula_units_Z 64
_cell_length_a 14.828421
_cell_length_b 8.686414
_cell_length_c 27.143239
_cell_angle_alpha 90.000000
_cell_angle_beta 108.269038
_cell_angle_gamma 90.000000
_cell_volume 3319.980476
_symmetry_space_group_name_H-M "C 2/M"
_symmetry_group_IT_number 12
_symmetry_cell_setting 'monoclinic'
loop_
_space_group_symop_operation_xyz
x,y,z
-x,y,-z
-x,-y,-z
x,-y,z
1/2+x,1/2+y,z
1/2-x,1/2+y,-z
1/2-x,1/2-y,-z
1/2+x,1/2-y,z
loop_
_atom_site_type_symbol
_atom_site_label
_atom_site_fract_x
_atom_site_fract_y
_atom_site_fract_z
Si Si1 0.348020 0.186290 0.763421
Si Si2 0.958264 0.679785 0.042894
Si Si3 0.451838 0.814458 0.417459
Si Si4 0.340762 0.822178 0.874424
Si Si5 0.146626 0.814605 0.695612
Si Si6 0.648341 0.185850 0.498432
Si Si7 0.944543 0.815636 0.215870
Si Si8 0.328015 0.183726 0.103242
O O1 0.324900 0.231451 0.815977
O O2 0.257826 0.229479 0.714898
O O3 0.446850 0.261188 0.765796
O O4 0.358174 0.000000 0.765012
O O5 0.934836 0.500000 0.026991
O O6 0.870523 0.745082 0.058870
O O7 0.047877 0.682178 0.095101
O O8 0.000000 0.750950 0.000000
O O9 0.411097 0.751634 0.359807
O O10 0.385379 0.767724 0.452343
O O11 0.560157 0.766420 0.448240
O O12 0.451546 0.000000 0.416178
O O13 0.279284 0.730436 0.903306
O O14 0.309501 0.000000 0.872122
O O15 0.103279 0.766908 0.740857
O O16 0.142535 0.000000 0.693075
O O17 0.750000 0.250000 0.500000
O O18 0.652811 0.000000 0.498265
O O19 0.889644 0.746844 0.159555
O O20 0.939298 0.000000 0.211672
O O21 0.337872 0.000000 0.104135
#
# Coordination Sequence:
#
# PCOD9188240 Si02
#       8
#     8   8   8   8   8   8   8   8
#     4  10  20  37  56  79 109 147 187 224 273 333
#     4   9  19  36  57  80 109 145 182 225 280 336
#     4   9  20  38  57  81 115 149 185 228 275 323
#     4  10  19  36  58  79 109 146 180 223 278 329
#     4  10  22  38  55  79 116 149 183 229 278 329
#     4   9  19  37  60  84 112 148 187 229 273 326
#     4  11  22  37  56  81 111 146 186 229 277 329
#     4  11  21  35  57  83 108 141 185 226 272 334
#
# _framework density 19.277221000000001
#
# number of rings (size 3 to 8) (size 9 to 14) (size 15 to 20)
#    0.000    2.125    2.500    1.500    0.000    4.500 
#    0.000    6.250    0.000    2.625    0.000    0.000 
#    0.000    0.000    0.000    0.000    0.000    0.000 
#
# Total GULP energy -178567.849487 kJ/mol
# GULP energy per Si atom -5580.245296 kJ/mol
# Density = 1.923335 g / cm^3
# Si number density = 19.277221 Si / 1000 Ang^3
#
#
#
# Elastic Constant Matrix: (Units=GPa)
#
#
# Indices 1 2 3 4 5 6 
#
# 1 84.6505 8.2561 -22.4047 0.0000 0.6415 0.0000
# 2 8.2561 12.7286 -7.3960 0.0000 -3.3818 0.0000
# 3 -22.4047 -7.3960 21.5618 0.0000 -7.6777 0.0000
# 4 0.0000 0.0000 0.0000 14.8120 0.0000 -0.4015
# 5 0.6415 -3.3818 -7.6777 0.0000 17.2374 0.0000
# 6 0.0000 0.0000 0.0000 -0.4015 0.0000 32.1762
#
#
#
# Elastic Compliance Matrix: (Units=1/GPa)
#
#
# Indices 1 2 3 4 5 6 
#
# 1 0.017585 0.005648 0.024212 0.000000 0.011238 0.000000
# 2 0.005648 0.131739 0.071529 0.000000 0.057496 0.000000
# 3 0.024212 0.071529 0.119739 0.000000 0.066465 0.000000
# 4 0.000000 0.000000 0.000000 0.067536 0.000000 0.000843
# 5 0.011238 0.057496 0.066465 0.000000 0.098480 0.000000
# 6 0.000000 0.000000 0.000000 0.000843 0.000000 0.031089
#
#
# Mechanical properties :
#
#
# Convention : Reuss Voigt Hill
#
# Bulk Modulus (GPa) = 2.11936 8.42796 5.27366
# Shear Modulus (GPa) = 11.88579 22.21081 17.04830
#
# Velocity S-wave (km/s) = 2.48578 3.39806 2.97707
# Velocity P-wave (km/s) = 3.05624 4.44716 3.81561
#
# Compressibility (1/GPa) = 0.47183952
#
# Stress axis : x y z
#
# Youngs Moduli (GPa) = 56.86516 7.59078 8.35153
#
# Poissons Ratio (x) = -0.04287 -0.20220
# Poissons Ratio (y) = -0.32115 -0.59738
# Poissons Ratio (z) = -1.37679 -0.54296
#
# Static dielectric constant tensor:
#      x y z
#    x 1.682710 0.000000 -0.007050 
#    y 0.000000 1.663170 0.000000 
#    z -0.007050 0.000000 1.666500 
# 
# From -- ./inp_files/359979.got.cif
#   From: 2010.05.17/outbox.cif.g08.bks.cpg/sg12_180_cif.got.tgz:359979.got - 2010.06.03 13:09:07.
