data_PCOD9188508
_publ_section_title
;
Structure prediction by ZEFSAII (Michael W. Deem and Ramdas Pophale) SiO2 
 PCOD9188508
Probable space group: C 2/M
;
_chemical_formula_sum "Si O2"
_cell_formula_units_Z 32
_cell_length_a 8.158195
_cell_length_b 16.065043
_cell_length_c 14.641470
_cell_angle_alpha 90.000000
_cell_angle_beta 139.435352
_cell_angle_gamma 90.000000
_cell_volume 1247.895334
_symmetry_space_group_name_H-M "C 2/M"
_symmetry_group_IT_number 12
_symmetry_cell_setting 'monoclinic'
loop_
_space_group_symop_operation_xyz
x,y,z
-x,y,-z
-x,-y,-z
x,-y,z
1/2+x,1/2+y,z
1/2-x,1/2+y,-z
1/2-x,1/2-y,-z
1/2+x,1/2-y,z
loop_
_atom_site_type_symbol
_atom_site_label
_atom_site_fract_x
_atom_site_fract_y
_atom_site_fract_z
Si Si1 0.798736 0.096718 0.100161
Si Si2 0.595561 0.095717 0.832910
Si Si3 0.535264 0.867673 0.412260
Si Si4 0.430863 0.326115 0.338607
O O1 0.932892 0.155679 0.230357
O O2 0.878079 0.000000 0.145118
O O3 0.500000 0.100154 0.000000
O O4 0.800565 0.123512 0.994579
O O5 0.633258 0.096607 0.740403
O O6 0.341226 0.146824 0.741998
O O7 0.547234 0.000000 0.838524
O O8 0.500000 0.898564 0.500000
O O9 0.478198 0.769202 0.383406
O O10 0.834442 0.877375 0.521506
#
# Coordination Sequence:
#
# PCOD9188508 Si02
#       4
#     8   8   8   8
#     4   8  16  33  59  88 110 136 189 247 282 325
#     4  10  21  39  63  87 111 147 195 238 280 338
#     4  11  23  36  52  83 123 154 186 231 281 336
#     4  10  19  36  60  82 112 152 192 234 281 335
#
# _framework density 25.643177999999999
#
# number of rings (size 3 to 8) (size 9 to 14) (size 15 to 20)
#    0.000    2.250    0.000    6.000    0.000    4.500 
#    0.000    3.750    0.000    3.000    0.000    0.000 
#    0.000    0.000    0.000    0.000    0.000    0.000 
#
# Total GULP energy -89509.424738 kJ/mol
# GULP energy per Si atom -5594.339046 kJ/mol
# Density = 2.558481 g / cm^3
# Si number density = 25.643178 Si / 1000 Ang^3
#
#
#
# Elastic Constant Matrix: (Units=GPa)
#
#
# Indices 1 2 3 4 5 6 
#
# 1 94.8719 13.5785 60.9360 0.0001 -34.1016 0.0001
# 2 13.5785 44.4000 19.1389 0.0000 -5.2833 0.0000
# 3 60.9360 19.1389 192.3100 0.0000 -46.7197 0.0003
# 4 0.0001 0.0000 0.0000 36.3106 0.0001 -17.3916
# 5 -34.1016 -5.2833 -46.7197 0.0001 75.7488 0.0002
# 6 0.0001 0.0000 0.0003 -17.3916 0.0002 12.5034
#
#
#
# Elastic Compliance Matrix: (Units=1/GPa)
#
#
# Indices 1 2 3 4 5 6 
#
# 1 0.014595 -0.002516 -0.003318 0.000000 0.004349 -0.000001
# 2 -0.002516 0.023969 -0.001714 0.000000 -0.000518 0.000000
# 3 -0.003318 -0.001714 0.007093 0.000000 0.002761 -0.000001
# 4 0.000000 0.000000 0.000000 0.082510 -0.000001 0.114767
# 5 0.004349 -0.000518 0.002761 -0.000001 0.016826 -0.000001
# 6 -0.000001 0.000000 -0.000001 0.114767 -0.000001 0.239614
#
#
# Mechanical properties :
#
#
# Convention : Reuss Voigt Hill
#
# Bulk Modulus (GPa) = 32.72114 57.65427 45.18770
# Shear Modulus (GPa) = 12.19842 40.77446 26.48644
#
# Velocity S-wave (km/s) = 2.18342 3.99189 3.21734
# Velocity P-wave (km/s) = 4.37542 6.61657 5.60907
#
# Compressibility (1/GPa) = 0.03056128
#
# Stress axis : x y z
#
# Youngs Moduli (GPa) = 68.51814 41.72027 140.99164
#
# Poissons Ratio (x) = 0.10496 0.46776
# Poissons Ratio (y) = 0.17238 0.24168
# Poissons Ratio (z) = 0.22732 0.07151
#
# Static dielectric constant tensor:
#      x y z
#    x 2.168420 0.000000 -0.089560 
#    y 0.000000 1.913050 0.000000 
#    z -0.089560 0.000000 2.018800 
# 
# From -- ./inp_files/196671.got.cif
#   From: 2010.05.17/outbox.cif.g08.bks.cpg/sg12_99_cif.got.tgz:196671.got - 2010.06.03 13:09:07.
