data_PCOD9188928
_publ_section_title
;
Structure prediction by ZEFSAII (Michael W. Deem and Ramdas Pophale) SiO2 
 PCOD9188928
Probable space group: C 2/M
;
_chemical_formula_sum "Si O2"
_cell_formula_units_Z 40
_cell_length_a 18.062966
_cell_length_b 14.314028
_cell_length_c 19.750451
_cell_angle_alpha 90.000000
_cell_angle_beta 21.916695
_cell_angle_gamma 90.000000
_cell_volume 1906.062824
_symmetry_space_group_name_H-M "C 2/M"
_symmetry_group_IT_number 12
_symmetry_cell_setting 'monoclinic'
loop_
_space_group_symop_operation_xyz
x,y,z
-x,y,-z
-x,-y,-z
x,-y,z
1/2+x,1/2+y,z
1/2-x,1/2+y,-z
1/2-x,1/2-y,-z
1/2+x,1/2-y,z
loop_
_atom_site_type_symbol
_atom_site_label
_atom_site_fract_x
_atom_site_fract_y
_atom_site_fract_z
Si Si1 0.138495 0.392951 0.660148
Si Si2 0.536950 0.608141 0.863070
Si Si3 0.954135 0.896161 0.772245
Si Si4 0.856362 0.293369 0.796041
Si Si5 0.650131 0.253498 0.425878
O O1 0.104910 0.500000 0.707928
O O2 0.333717 0.389753 0.446098
O O3 0.193738 0.326015 0.675274
O O4 0.957411 0.353484 0.770106
O O5 0.555158 0.500000 0.866792
O O6 0.497667 0.612908 0.814913
O O7 0.732510 0.668818 0.708215
O O8 0.344184 0.657658 0.057389
O O9 0.826916 0.810638 0.851310
O O10 0.872152 0.000000 0.828981
O O11 0.017174 0.284848 0.600232
O O12 0.500000 0.298974 0.500000
#
# Coordination Sequence:
#
# PCOD9188928 Si02
#       5
#     8   8   8   8   8
#     4  10  19  36  63  90 115 148 193 241 288 340
#     4  11  22  36  60  89 114 146 195 243 288 342
#     4   9  17  32  57  88 118 144 181 238 291 335
#     4  11  20  38  61  88 115 148 194 243 289 337
#     4  11  24  41  58  82 122 161 189 232 288 344
#
# _framework density 20.985668
#
# number of rings (size 3 to 8) (size 9 to 14) (size 15 to 20)
#    0.000    1.600    4.000    2.400    0.000    2.400 
#    0.000    1.000    0.000    0.000    0.000    7.000 
#    0.000    0.000    0.000    0.000    0.000    0.000 
#
# Total GULP energy -111846.904881 kJ/mol
# GULP energy per Si atom -5592.345244 kJ/mol
# Density = 2.093790 g / cm^3
# Si number density = 20.985668 Si / 1000 Ang^3
#
#
#
# Elastic Constant Matrix: (Units=GPa)
#
#
# Indices 1 2 3 4 5 6 
#
# 1 52.4159 13.0404 9.3254 -0.0025 -9.0690 -0.0019
# 2 13.0404 127.5149 29.0189 0.0132 4.4941 -0.0036
# 3 9.3254 29.0189 68.8633 0.0033 -2.1788 -0.0001
# 4 -0.0025 0.0132 0.0033 20.3042 0.0030 1.9271
# 5 -9.0690 4.4941 -2.1788 0.0030 14.0009 -0.0010
# 6 -0.0019 -0.0036 -0.0001 1.9271 -0.0010 2.8255
#
#
#
# Elastic Compliance Matrix: (Units=1/GPa)
#
#
# Indices 1 2 3 4 5 6 
#
# 1 0.022603 -0.002500 -0.001526 0.000001 0.015206 0.000016
# 2 -0.002500 0.009112 -0.003663 -0.000006 -0.005114 0.000012
# 3 -0.001526 -0.003663 0.016358 -0.000001 0.002733 -0.000004
# 4 0.000001 -0.000006 -0.000001 0.052660 -0.000011 -0.035916
# 5 0.015206 -0.005114 0.002733 -0.000011 0.083340 0.000040
# 6 0.000016 0.000012 -0.000004 -0.035916 0.000040 0.378417
#
#
# Mechanical properties :
#
#
# Convention : Reuss Voigt Hill
#
# Bulk Modulus (GPa) = 30.58648 39.06262 34.82455
# Shear Modulus (GPa) = 8.49234 20.58674 14.53954
#
# Velocity S-wave (km/s) = 2.01383 3.13547 2.63503
# Velocity P-wave (km/s) = 4.47369 5.63583 5.08805
#
# Compressibility (1/GPa) = 0.03269419
#
# Stress axis : x y z
#
# Youngs Moduli (GPa) = 44.24274 109.74874 61.13138
#
# Poissons Ratio (x) = 0.27438 0.09330
# Poissons Ratio (y) = 0.11061 0.22392
# Poissons Ratio (z) = 0.06752 0.40200
#
# Static dielectric constant tensor:
#      x y z
#    x 1.726640 0.000000 0.030990 
#    y 0.000000 1.742710 0.000000 
#    z 0.030990 0.000000 1.751700 
# 
# From -- ./inp_files/72408.got.cif
#   From: 2010.05.17/outbox.cif.g08.bks.cpg/sg12_37_cif.got.tgz:72408.got - 2010.06.03 13:09:07.
