data_PCOD9188301
_publ_section_title
;
Structure prediction by ZEFSAII (Michael W. Deem and Ramdas Pophale) SiO2 
 PCOD9188301
Probable space group: C 2/M
;
_chemical_formula_sum "Si O2"
_cell_formula_units_Z 56
_cell_length_a 23.849561
_cell_length_b 8.609645
_cell_length_c 15.116625
_cell_angle_alpha 90.000000
_cell_angle_beta 115.111664
_cell_angle_gamma 90.000000
_cell_volume 2810.609425
_symmetry_space_group_name_H-M "C 2/M"
_symmetry_group_IT_number 12
_symmetry_cell_setting 'monoclinic'
loop_
_space_group_symop_operation_xyz
x,y,z
-x,y,-z
-x,-y,-z
x,-y,z
1/2+x,1/2+y,z
1/2-x,1/2+y,-z
1/2-x,1/2-y,-z
1/2+x,1/2-y,z
loop_
_atom_site_type_symbol
_atom_site_label
_atom_site_fract_x
_atom_site_fract_y
_atom_site_fract_z
Si Si1 0.966815 0.812581 0.717240
Si Si2 0.346200 0.184328 0.556336
Si Si3 0.108100 0.816363 0.811818
Si Si4 0.652009 0.820175 0.021934
Si Si5 0.230951 0.680288 0.821648
Si Si6 0.437744 0.316356 0.900616
Si Si7 0.751754 0.183009 0.356642
O O1 0.915978 0.736190 0.620581
O O2 0.951003 0.771126 0.808543
O O3 0.037642 0.767656 0.745659
O O4 0.962748 0.000000 0.708250
O O5 0.306371 0.218887 0.618568
O O6 0.312109 0.274790 0.454905
O O7 0.341608 0.000000 0.537233
O O8 0.160396 0.727465 0.792376
O O9 0.113496 0.000000 0.799103
O O10 0.122632 0.781911 0.924386
O O11 0.723355 0.778587 0.085634
O O12 0.615736 0.780214 0.087755
O O13 0.644914 0.000000 0.994210
O O14 0.240708 0.500000 0.847107
O O15 0.247985 0.719520 0.732364
O O16 0.421631 0.500000 0.892000
O O17 0.500000 0.296286 0.000000
O O18 0.750843 0.000000 0.334717
#
# Coordination Sequence:
#
# PCOD9188301 Si02
#       7
#     8   8   8   8   8   8   8
#     4  10  21  37  60  86 118 158 196 237 293 352
#     4  10  21  37  62  93 123 152 188 238 292 347
#     4  11  23  42  61  82 116 159 202 245 292 349
#     4  12  24  38  58  87 119 157 200 245 295 348
#     4  12  25  41  61  86 116 154 198 247 297 347
#     4  10  19  36  58  84 117 155 195 239 290 345
#     4  10  21  40  64  91 120 152 192 239 292 349
#
# _framework density 19.924505
#
# number of rings (size 3 to 8) (size 9 to 14) (size 15 to 20)
#    0.000    1.286    1.429    5.143    0.000    6.000 
#    0.000    0.714    0.000    4.286    0.000    0.000 
#    0.000    0.000    0.000    0.000    0.000    0.000 
#
# Total GULP energy -156643.412289 kJ/mol
# GULP energy per Si atom -5594.407582 kJ/mol
# Density = 1.987916 g / cm^3
# Si number density = 19.924505 Si / 1000 Ang^3
#
#
#
# Elastic Constant Matrix: (Units=GPa)
#
#
# Indices 1 2 3 4 5 6 
#
# 1 61.5775 11.5372 14.9147 0.0000 19.4849 0.0000
# 2 11.5372 22.3946 -9.3877 0.0000 1.8062 0.0000
# 3 14.9147 -9.3877 31.9063 0.0000 24.7668 0.0000
# 4 0.0000 0.0000 0.0000 24.2019 0.0000 4.3310
# 5 19.4849 1.8062 24.7668 0.0000 30.8357 0.0000
# 6 0.0000 0.0000 0.0000 4.3310 0.0000 22.1556
#
#
#
# Elastic Compliance Matrix: (Units=1/GPa)
#
#
# Indices 1 2 3 4 5 6 
#
# 1 0.024010 -0.018678 -0.015381 0.000000 -0.001724 0.000000
# 2 -0.018678 0.094460 0.084073 0.000000 -0.061257 0.000000
# 3 -0.015381 0.084073 0.158141 0.000000 -0.122222 0.000000
# 4 0.000000 0.000000 0.000000 0.042817 0.000000 -0.008370
# 5 -0.001724 -0.061257 -0.122222 0.000000 0.135275 0.000000
# 6 0.000000 0.000000 0.000000 -0.008370 0.000000 0.046771
#
#
# Mechanical properties :
#
#
# Convention : Reuss Voigt Hill
#
# Bulk Modulus (GPa) = 2.65506 16.66743 9.66124
# Shear Modulus (GPa) = 9.48780 22.02625 15.75702
#
# Velocity S-wave (km/s) = 2.18454 3.32849 2.81523
# Velocity P-wave (km/s) = 2.77460 4.81199 3.92770
#
# Compressibility (1/GPa) = 0.37664001
#
# Stress axis : x y z
#
# Youngs Moduli (GPa) = 41.64885 10.58653 6.32345
#
# Poissons Ratio (x) = 0.19774 0.09726
# Poissons Ratio (y) = 0.77792 -0.53163
# Poissons Ratio (z) = 0.64060 -0.89005
#
# Static dielectric constant tensor:
#      x y z
#    x 1.707060 0.000000 -0.003780 
#    y 0.000000 1.667870 0.000000 
#    z -0.003780 0.000000 1.676220 
# 
# From -- ./inp_files/238946.got.cif
#   From: 2010.05.17/outbox.cif.g08.bks.cpg/sg12_120_cif.got.tgz:238946.got - 2010.06.03 13:09:07.
