data_PCOD9188663
_publ_section_title
;
Structure prediction by ZEFSAII (Michael W. Deem and Ramdas Pophale) SiO2 
 PCOD9188663
Probable space group: C 2/M
;
_chemical_formula_sum "Si O2"
_cell_formula_units_Z 44
_cell_length_a 14.428642
_cell_length_b 15.945742
_cell_length_c 8.973413
_cell_angle_alpha 90.000000
_cell_angle_beta 72.350160
_cell_angle_gamma 90.000000
_cell_volume 1967.377088
_symmetry_space_group_name_H-M "C 2/M"
_symmetry_group_IT_number 12
_symmetry_cell_setting 'monoclinic'
loop_
_space_group_symop_operation_xyz
x,y,z
-x,y,-z
-x,-y,-z
x,-y,z
1/2+x,1/2+y,z
1/2-x,1/2+y,-z
1/2-x,1/2-y,-z
1/2+x,1/2-y,z
loop_
_atom_site_type_symbol
_atom_site_label
_atom_site_fract_x
_atom_site_fract_y
_atom_site_fract_z
Si Si1 0.538584 0.681119 0.782372
Si Si2 0.744632 0.403721 0.206627
Si Si3 0.534850 0.121980 0.817849
Si Si4 0.357294 0.403039 0.022484
Si Si5 0.000000 0.628858 0.500000
Si Si6 0.152448 0.772238 0.456904
O O1 0.512232 0.778239 0.822213
O O2 0.450620 0.621342 0.874168
O O3 0.578448 0.676349 0.597889
O O4 0.629088 0.657057 0.844756
O O5 0.711475 0.500000 0.249269
O O6 0.850099 0.392677 0.225168
O O7 0.737989 0.391708 0.031532
O O8 0.679846 0.331200 0.308218
O O9 0.503879 0.090075 0.666787
O O10 0.500000 0.092449 0.000000
O O11 0.363913 0.500000 0.064518
O O12 0.095694 0.687547 0.446955
O O13 0.250000 0.750000 0.500000
#
# Coordination Sequence:
#
# PCOD9188663 Si02
#       6
#     8   8   8   8   4   8
#     4  10  19  36  60  92 116 158 208 246 308 371
#     4  11  24  40  57  89 127 160 204 256 316 374
#     4  11  22  40  64  89 120 166 211 260 306 360
#     4  10  21  37  59  91 127 154 194 257 313 382
#     4  10  22  40  64 100 124 148 218 264 304 368
#     4  11  21  38  62  89 121 158 202 261 299 364
#
# _framework density 22.364801
#
# number of rings (size 3 to 8) (size 9 to 14) (size 15 to 20)
#    0.000    1.455    5.455    3.273    0.000    4.000 
#    0.000    2.727    0.000    0.000    0.000    0.000 
#    0.000    0.000    0.000    0.000    0.000    0.000 
#
# Total GULP energy -122689.845735 kJ/mol
# GULP energy per Si atom -5576.811170 kJ/mol
# Density = 2.231390 g / cm^3
# Si number density = 22.364801 Si / 1000 Ang^3
#
#
#
# Elastic Constant Matrix: (Units=GPa)
#
#
# Indices 1 2 3 4 5 6 
#
# 1 82.9957 4.3422 24.4778 0.0000 36.5064 0.0000
# 2 4.3422 82.4016 21.7312 0.0000 6.6619 0.0000
# 3 24.4778 21.7312 137.0198 0.0000 29.5999 0.0000
# 4 0.0000 0.0000 0.0000 -145.8005 0.0000 -29.3559
# 5 36.5064 6.6619 29.5999 0.0000 44.1659 0.0000
# 6 0.0000 0.0000 0.0000 -29.3559 0.0000 -3.0241
#
#
#
# Elastic Compliance Matrix: (Units=1/GPa)
#
#
# Indices 1 2 3 4 5 6 
#
# 1 0.018938 0.000280 -0.000043 0.000000 -0.015667 0.000000
# 2 0.000280 0.012686 -0.001869 0.000000 -0.000892 0.000000
# 3 -0.000043 -0.001869 0.008809 0.000000 -0.005586 0.000000
# 4 0.000000 0.000000 0.000000 0.007186 0.000000 -0.069753
# 5 -0.015667 -0.000892 -0.005586 0.000000 0.039471 0.000000
# 6 0.000000 0.000000 0.000000 -0.069753 0.000000 0.346439
#
#
# Mechanical properties :
#
#
# Convention : Reuss Voigt Hill
#
# Bulk Modulus (GPa) = 26.90427 44.83550 35.86989
# Shear Modulus (GPa) = 11.13131 -4.14068 3.49532
#
# Velocity S-wave (km/s) = 2.23337 -1.36215 1.25150
# Velocity P-wave (km/s) = 4.32510 4.19725 4.26166
#
# Compressibility (1/GPa) = 0.03716882
#
# Stress axis : x y z
#
# Youngs Moduli (GPa) = 52.80323 78.82682 113.51805
#
# Poissons Ratio (x) = -0.02207 0.00489
# Poissons Ratio (y) = -0.01479 0.21220
# Poissons Ratio (z) = 0.00227 0.14735
#
# Static dielectric constant tensor:
#      x y z
#    x 1.863920 0.000000 0.037860 
#    y 0.000000 1.794090 0.000000 
#    z 0.037860 0.000000 1.860050 
# 
# From -- ./inp_files/61088.got.cif
#   From: 2010.05.17/outbox.cif.g08.bks.cpg/sg12_31_cif.got.tgz:61088.got - 2010.06.03 13:09:07.
