data_PCOD9188643
_publ_section_title
;
Structure prediction by ZEFSAII (Michael W. Deem and Ramdas Pophale) SiO2 
 PCOD9188643
Probable space group: C 2/M
;
_chemical_formula_sum "Si O2"
_cell_formula_units_Z 56
_cell_length_a 23.041712
_cell_length_b 17.418256
_cell_length_c 14.723944
_cell_angle_alpha 90.000000
_cell_angle_beta 29.607645
_cell_angle_gamma 90.000000
_cell_volume 2919.586858
_symmetry_space_group_name_H-M "C 2/M"
_symmetry_group_IT_number 12
_symmetry_cell_setting 'monoclinic'
loop_
_space_group_symop_operation_xyz
x,y,z
-x,y,-z
-x,-y,-z
x,-y,z
1/2+x,1/2+y,z
1/2-x,1/2+y,-z
1/2-x,1/2-y,-z
1/2+x,1/2-y,z
loop_
_atom_site_type_symbol
_atom_site_label
_atom_site_fract_x
_atom_site_fract_y
_atom_site_fract_z
Si Si1 0.893581 0.375946 0.085953
Si Si2 0.747301 0.171749 0.559711
Si Si3 0.539157 0.092093 0.348738
Si Si4 0.445403 0.091483 0.286070
Si Si5 0.476072 0.407771 0.329467
Si Si6 0.836029 0.083202 0.697025
Si Si7 0.283052 0.338591 0.953080
O O1 0.833273 0.317501 0.239444
O O2 0.779816 0.421332 0.208596
O O3 0.000000 0.412487 0.000000
O O4 0.960449 0.359373 0.900755
O O5 0.750000 0.250000 0.500000
O O6 0.678276 0.109991 0.591655
O O7 0.873572 0.137036 0.414837
O O8 0.500000 0.123417 0.500000
O O9 0.456350 0.114048 0.376344
O O10 0.535408 0.000000 0.358802
O O11 0.669758 0.116314 0.143577
O O12 0.473221 0.000000 0.239930
O O13 0.478136 0.500000 0.307226
O O14 0.438635 0.399776 0.486616
O O15 0.601881 0.367014 0.148968
O O16 0.809279 0.141526 0.812628
O O17 0.853908 0.000000 0.716374
O O18 0.250000 0.250000 0.000000
#
# Coordination Sequence:
#
# PCOD9188643 Si02
#       7
#     8   8   8   8   8   8   8
#     4   9  18  31  56  90 121 152 194 243 301 362
#     4  10  22  36  58  90 130 162 192 244 313 380
#     4  10  22  41  63  87 117 161 212 259 308 366
#     4  10  19  36  64  90 119 155 206 261 305 361
#     4  10  22  40  64  92 125 165 209 255 313 381
#     4  10  19  36  60  89 122 160 203 254 314 374
#     4  12  25  37  58  89 127 163 206 253 315 376
#
# _framework density 19.180796000000001
#
# number of rings (size 3 to 8) (size 9 to 14) (size 15 to 20)
#    0.000    1.857    1.429    2.571    2.000    9.143 
#    2.571    0.000    0.000    0.000    0.000    4.000 
#    0.000    0.000    0.000    0.000    0.000    0.000 
#
# Total GULP energy -155980.547020 kJ/mol
# GULP energy per Si atom -5570.733822 kJ/mol
# Density = 1.913714 g / cm^3
# Si number density = 19.180796 Si / 1000 Ang^3
#
#
#
# Elastic Constant Matrix: (Units=GPa)
#
#
# Indices 1 2 3 4 5 6 
#
# 1 114.9179 41.2919 51.7857 0.0000 -2.7594 0.0000
# 2 41.2919 78.3535 34.5393 0.0000 10.6295 0.0000
# 3 51.7857 34.5393 67.6569 0.0000 -5.6096 0.0000
# 4 0.0000 0.0000 0.0000 18.2996 0.0000 5.6408
# 5 -2.7594 10.6295 -5.6096 0.0000 44.0301 0.0000
# 6 0.0000 0.0000 0.0000 5.6408 0.0000 22.7779
#
#
#
# Elastic Compliance Matrix: (Units=1/GPa)
#
#
# Indices 1 2 3 4 5 6 
#
# 1 0.013972 -0.003553 -0.008830 0.000000 0.000609 0.000000
# 2 -0.003553 0.018590 -0.007237 0.000000 -0.005633 0.000000
# 3 -0.008830 -0.007237 0.025603 0.000000 0.004456 0.000000
# 4 0.000000 0.000000 0.000000 0.059162 0.000000 -0.014651
# 5 0.000609 -0.005633 0.004456 0.000000 0.024677 0.000000
# 6 0.000000 0.000000 0.000000 -0.014651 0.000000 0.047530
#
#
# Mechanical properties :
#
#
# Convention : Reuss Voigt Hill
#
# Bulk Modulus (GPa) = 52.84414 57.35134 55.09774
# Shear Modulus (GPa) = 21.26887 25.90896 23.58892
#
# Velocity S-wave (km/s) = 3.33357 3.67928 3.51068
# Velocity P-wave (km/s) = 6.51362 6.92927 6.72466
#
# Compressibility (1/GPa) = 0.01892357
#
# Stress axis : x y z
#
# Youngs Moduli (GPa) = 71.56921 53.79303 39.05734
#
# Poissons Ratio (x) = 0.19115 0.34489
# Poissons Ratio (y) = 0.25432 0.28267
# Poissons Ratio (z) = 0.63197 0.38932
#
# Static dielectric constant tensor:
#      x y z
#    x 1.725640 0.000000 -0.012320 
#    y 0.000000 1.563190 0.000000 
#    z -0.012320 0.000000 1.696530 
# 
# From -- ./inp_files/240873.got.cif
#   From: 2010.05.17/outbox.cif.g08.bks.cpg/sg12_121_cif.got.tgz:240873.got - 2010.06.03 13:09:07.
