data_PCOD9188531
_publ_section_title
;
Structure prediction by ZEFSAII (Michael W. Deem and Ramdas Pophale) SiO2 
 PCOD9188531
Probable space group: C 2/M
;
_chemical_formula_sum "Si O2"
_cell_formula_units_Z 64
_cell_length_a 20.713430
_cell_length_b 8.673212
_cell_length_c 34.875198
_cell_angle_alpha 90.000000
_cell_angle_beta 144.754446
_cell_angle_gamma 90.000000
_cell_volume 3615.647282
_symmetry_space_group_name_H-M "C 2/M"
_symmetry_group_IT_number 12
_symmetry_cell_setting 'monoclinic'
loop_
_space_group_symop_operation_xyz
x,y,z
-x,y,-z
-x,-y,-z
x,-y,z
1/2+x,1/2+y,z
1/2-x,1/2+y,-z
1/2-x,1/2-y,-z
1/2+x,1/2-y,z
loop_
_atom_site_type_symbol
_atom_site_label
_atom_site_fract_x
_atom_site_fract_y
_atom_site_fract_z
Si Si1 0.465300 0.685976 0.421455
Si Si2 0.571973 0.816268 0.680820
Si Si3 0.225047 0.314932 0.174034
Si Si4 0.076941 0.185275 0.323486
Si Si5 0.125113 0.186616 0.826192
Si Si6 0.737387 0.184541 0.036121
Si Si7 0.009574 0.184030 0.959511
Si Si8 0.680058 0.685630 0.576462
O O1 0.462048 0.500000 0.415571
O O2 0.451082 0.763417 0.373586
O O3 0.583487 0.725480 0.498870
O O4 0.369411 0.729180 0.405803
O O5 0.689449 0.746411 0.752602
O O6 0.477430 0.752746 0.664124
O O7 0.575461 0.000000 0.685196
O O8 0.218759 0.500000 0.172927
O O9 0.282959 0.271702 0.161437
O O10 0.102646 0.242632 0.115496
O O11 0.202169 0.239675 0.376532
O O12 0.994094 0.236421 0.248645
O O13 0.072423 0.000000 0.323816
O O14 0.166889 0.241270 0.887729
O O15 0.122508 0.000000 0.826244
O O16 0.742545 0.000000 0.037253
O O17 0.750000 0.250000 0.000000
O O18 0.618891 0.236145 0.995717
O O19 0.019252 0.000000 0.960345
O O20 0.000000 0.222107 0.000000
O O21 0.691456 0.500000 0.581589
#
# Coordination Sequence:
#
# PCOD9188531 Si02
#       8
#     8   8   8   8   8   8   8   8
#     4   9  19  38  60  81 113 151 186 228 281 333
#     4  11  22  36  56  85 117 148 185 233 281 327
#     4  10  19  36  60  84 110 147 190 230 281 335
#     4  10  20  36  58  84 111 147 188 230 281 335
#     4   8  17  34  56  78 106 145 184 225 277 334
#     4  11  22  39  58  80 112 151 192 234 285 338
#     4  11  22  36  58  88 115 144 188 236 280 332
#     4   9  19  37  60  84 110 147 190 232 276 329
#
# _framework density 17.700842000000002
#
# number of rings (size 3 to 8) (size 9 to 14) (size 15 to 20)
#    0.000    2.125    1.250    4.125    0.000    2.000 
#    2.250    3.125    0.000    0.000    0.000    0.000 
#    0.000    0.000    0.000    0.000    0.000    0.000 
#
# Total GULP energy -178605.361251 kJ/mol
# GULP energy per Si atom -5581.417539 kJ/mol
# Density = 1.766055 g / cm^3
# Si number density = 17.700842 Si / 1000 Ang^3
#
#
#
# Elastic Constant Matrix: (Units=GPa)
#
#
# Indices 1 2 3 4 5 6 
#
# 1 99.9688 43.3596 83.9288 0.0000 -13.6882 0.0001
# 2 43.3596 55.6176 40.3900 0.0000 -6.7752 0.0003
# 3 83.9288 40.3900 127.2625 0.0000 -14.4076 0.0001
# 4 0.0000 0.0000 0.0000 28.2931 0.0000 2.7806
# 5 -13.6882 -6.7752 -14.4076 0.0000 32.3082 0.0000
# 6 0.0001 0.0003 0.0001 2.7806 0.0000 31.0851
#
#
#
# Elastic Compliance Matrix: (Units=1/GPa)
#
#
# Indices 1 2 3 4 5 6 
#
# 1 0.026509 -0.010209 -0.013916 0.000000 0.002885 0.000000
# 2 -0.010209 0.027384 -0.001893 0.000000 0.000573 0.000000
# 3 -0.013916 -0.001893 0.017823 0.000000 0.001655 0.000000
# 4 0.000000 0.000000 0.000000 0.035658 0.000000 -0.003190
# 5 0.002885 0.000573 0.001655 0.000000 0.033032 0.000000
# 6 0.000000 0.000000 0.000000 -0.003190 0.000000 0.032455
#
#
# Mechanical properties :
#
#
# Convention : Reuss Voigt Hill
#
# Bulk Modulus (GPa) = 50.81366 68.68954 59.75160
# Shear Modulus (GPa) = 21.60212 26.01532 23.80872
#
# Velocity S-wave (km/s) = 3.49721 3.83785 3.67149
# Velocity P-wave (km/s) = 6.71391 7.65042 7.19741
#
# Compressibility (1/GPa) = 0.01967975
#
# Stress axis : x y z
#
# Youngs Moduli (GPa) = 37.72241 36.51801 56.10573
#
# Poissons Ratio (x) = 0.37283 0.78077
# Poissons Ratio (y) = 0.38513 0.10621
# Poissons Ratio (z) = 0.52494 0.06913
#
# Static dielectric constant tensor:
#      x y z
#    x 1.574320 0.000000 -0.004750 
#    y 0.000000 1.595150 0.000000 
#    z -0.004750 0.000000 1.606550 
# 
# From -- ./inp_files/378419.got.cif
#   From: 2010.05.17/outbox.cif.g08.bks.cpg/sg12_190_cif.got.tgz:378419.got - 2010.06.03 13:09:07.
