data_PCOD9188690
_publ_section_title
;
Structure prediction by ZEFSAII (Michael W. Deem and Ramdas Pophale) SiO2 
 PCOD9188690
Probable space group: C 2/M
;
_chemical_formula_sum "Si O2"
_cell_formula_units_Z 48
_cell_length_a 25.438627
_cell_length_b 7.385116
_cell_length_c 9.713662
_cell_angle_alpha 90.000000
_cell_angle_beta 78.448304
_cell_angle_gamma 90.000000
_cell_volume 1787.914622
_symmetry_space_group_name_H-M "C 2/M"
_symmetry_group_IT_number 12
_symmetry_cell_setting 'monoclinic'
loop_
_space_group_symop_operation_xyz
x,y,z
-x,y,-z
-x,-y,-z
x,-y,z
1/2+x,1/2+y,z
1/2-x,1/2+y,-z
1/2-x,1/2-y,-z
1/2+x,1/2-y,z
loop_
_atom_site_type_symbol
_atom_site_label
_atom_site_fract_x
_atom_site_fract_y
_atom_site_fract_z
Si Si1 0.835260 0.220971 0.011321
Si Si2 0.389618 0.281774 0.717784
Si Si3 0.734323 0.720938 0.714700
Si Si4 0.492016 0.789375 0.351129
Si Si5 0.945333 0.789235 0.094198
Si Si6 0.661267 0.704577 0.512491
O O1 0.783273 0.278410 0.124282
O O2 0.888898 0.280037 0.066282
O O3 0.833913 0.000000 0.011906
O O4 0.845406 0.282198 0.850243
O O5 0.386399 0.500000 0.712115
O O6 0.448114 0.234285 0.741498
O O7 0.382206 0.209825 0.566326
O O8 0.737829 0.500000 0.704748
O O9 0.685779 0.780918 0.638490
O O10 0.787584 0.797719 0.618574
O O11 0.500000 0.706980 0.500000
O O12 0.451516 0.719345 0.256464
O O13 0.480646 0.000000 0.372285
O O14 0.944908 0.000000 0.053907
O O15 0.000000 0.709337 0.000000
O O16 0.644729 0.500000 0.553676
#
# Coordination Sequence:
#
# PCOD9188690 Si02
#       6
#     8   8   8   8   8   8
#     4   9  18  33  55  83 108 136 179 227 268 315
#     4  10  20  37  58  80 107 140 183 231 270 316
#     4   9  18  34  54  77 107 141 175 218 273 325
#     4  11  25  40  53  79 117 150 182 223 276 330
#     4  10  19  36  61  84 108 143 186 227 271 323
#     4   9  19  34  54  79 106 138 179 223 266 318
#
# _framework density 26.846919
#
# number of rings (size 3 to 8) (size 9 to 14) (size 15 to 20)
#    0.000    2.333    1.667    0.500    2.333    3.000 
#    0.000    1.667    0.000    0.000    0.000    0.000 
#    0.000    0.000    0.000    0.000    0.000    0.000 
#
# Total GULP energy -134222.148112 kJ/mol
# GULP energy per Si atom -5592.589505 kJ/mol
# Density = 2.678581 g / cm^3
# Si number density = 26.846919 Si / 1000 Ang^3
#
#
#
# Elastic Constant Matrix: (Units=GPa)
#
#
# Indices 1 2 3 4 5 6 
#
# 1 61.0865 4.1054 12.1561 0.0000 4.5767 0.0000
# 2 4.1054 111.6931 -3.5794 0.0000 -6.9457 0.0000
# 3 12.1561 -3.5794 126.8706 0.0000 -5.4318 0.0000
# 4 0.0000 0.0000 0.0000 6.7552 0.0000 -7.0982
# 5 4.5767 -6.9457 -5.4318 0.0000 58.8856 0.0000
# 6 0.0000 0.0000 0.0000 -7.0982 0.0000 -5.9028
#
#
#
# Elastic Compliance Matrix: (Units=1/GPa)
#
#
# Indices 1 2 3 4 5 6 
#
# 1 0.016878 -0.000772 -0.001706 0.000000 -0.001560 0.000000
# 2 -0.000772 0.009066 0.000380 0.000000 0.001164 0.000000
# 3 -0.001706 0.000380 0.008096 0.000000 0.000924 0.000000
# 4 0.000000 0.000000 0.000000 0.065398 0.000000 -0.078643
# 5 -0.001560 0.001164 0.000924 0.000000 0.017326 0.000000
# 6 0.000000 0.000000 0.000000 -0.078643 0.000000 -0.074843
#
#
# Mechanical properties :
#
#
# Convention : Reuss Voigt Hill
#
# Bulk Modulus (GPa) = 33.50783 36.11270 34.81027
# Shear Modulus (GPa) = 89.18041 31.07882 60.12961
#
# Velocity S-wave (km/s) = 5.76977 3.40609 4.73770
# Velocity P-wave (km/s) = 7.54289 5.38044 6.55150
#
# Compressibility (1/GPa) = 0.02984377
#
# Stress axis : x y z
#
# Youngs Moduli (GPa) = 59.24716 110.30158 123.52141
#
# Poissons Ratio (x) = 0.08516 0.21070
# Poissons Ratio (y) = 0.04574 -0.04689
# Poissons Ratio (z) = 0.10106 -0.04187
#
# Static dielectric constant tensor:
#      x y z
#    x 2.121160 0.000000 -0.017710 
#    y 0.000000 2.001170 0.000000 
#    z -0.017710 0.000000 2.114550 
# 
# From -- ./inp_files/108634.got.cif
#   From: 2010.05.17/outbox.cif.g08.bks.cpg/sg12_55_cif.got.tgz:108634.got - 2010.06.03 13:09:07.
