data_PCOD9188343
_publ_section_title
;
Structure prediction by ZEFSAII (Michael W. Deem and Ramdas Pophale) SiO2 
 PCOD9188343
Probable space group: C 2/M
;
_chemical_formula_sum "Si O2"
_cell_formula_units_Z 44
_cell_length_a 21.097714
_cell_length_b 17.713626
_cell_length_c 16.873071
_cell_angle_alpha 90.000000
_cell_angle_beta 161.255343
_cell_angle_gamma 90.000000
_cell_volume 2026.361276
_symmetry_space_group_name_H-M "C 2/M"
_symmetry_group_IT_number 12
_symmetry_cell_setting 'monoclinic'
loop_
_space_group_symop_operation_xyz
x,y,z
-x,y,-z
-x,-y,-z
x,-y,z
1/2+x,1/2+y,z
1/2-x,1/2+y,-z
1/2-x,1/2-y,-z
1/2+x,1/2-y,z
loop_
_atom_site_type_symbol
_atom_site_label
_atom_site_fract_x
_atom_site_fract_y
_atom_site_fract_z
Si Si1 0.324903 0.081562 0.139812
Si Si2 0.115550 0.361219 0.367373
Si Si3 0.522330 0.697242 0.805582
Si Si4 0.500000 0.859713 0.500000
Si Si5 0.194847 0.745464 0.175721
Si Si6 0.636107 0.915866 0.083294
O O1 0.529542 0.088804 0.335514
O O2 0.369501 0.091664 0.285617
O O3 0.235240 0.000000 0.017384
O O4 0.180929 0.149826 0.944081
O O5 0.345674 0.359096 0.619864
O O6 0.069426 0.273873 0.337158
O O7 0.997916 0.389720 0.150063
O O8 0.626054 0.727742 0.007558
O O9 0.367685 0.804199 0.397976
O O10 0.265434 0.658588 0.255051
O O11 0.000000 0.749924 0.000000
O O12 0.720391 0.000000 0.168364
O O13 0.500000 0.921872 0.000000
#
# Coordination Sequence:
#
# PCOD9188343 Si02
#       6
#     8   8   8   4   8   8
#     4  11  22  35  54  81 112 141 174 218 266 314
#     4  10  19  36  59  78 104 144 180 215 263 316
#     4   9  20  35  55  81 106 138 182 221 255 311
#     4  10  21  36  53  76 106 142 180 216 255 306
#     4   9  17  33  55  76 102 138 177 214 257 312
#     4   9  18  33  53  78 106 133 168 219 271 314
#
# _framework density 21.713799000000002
#
# number of rings (size 3 to 8) (size 9 to 14) (size 15 to 20)
#    0.000    2.364    0.000    2.455    0.000    2.909 
#    0.000    0.455    0.000   10.364    0.000    0.000 
#    0.000    0.000    0.000    0.000    0.000    0.000 
#
# Total GULP energy -122615.915334 kJ/mol
# GULP energy per Si atom -5573.450697 kJ/mol
# Density = 2.166438 g / cm^3
# Si number density = 21.713799 Si / 1000 Ang^3
#
#
#
# Elastic Constant Matrix: (Units=GPa)
#
#
# Indices 1 2 3 4 5 6 
#
# 1 58.3564 22.0099 -0.8956 0.0000 5.2703 0.0001
# 2 22.0099 118.8519 9.3002 -0.0002 17.5512 0.0001
# 3 -0.8956 9.3002 29.6793 0.0001 22.8812 0.0002
# 4 0.0000 -0.0002 0.0001 5.3168 0.0000 2.9724
# 5 5.2703 17.5512 22.8812 0.0000 30.2697 0.0001
# 6 0.0001 0.0001 0.0002 2.9724 0.0001 43.2868
#
#
#
# Elastic Compliance Matrix: (Units=1/GPa)
#
#
# Indices 1 2 3 4 5 6 
#
# 1 0.018975 -0.003072 0.006493 0.000000 -0.006430 0.000000
# 2 -0.003072 0.009808 0.001931 0.000000 -0.006612 0.000000
# 3 0.006493 0.001931 0.083932 -0.000002 -0.065695 0.000000
# 4 0.000000 0.000000 -0.000002 0.195593 0.000001 -0.013431
# 5 -0.006430 -0.006612 -0.065695 0.000001 0.087650 0.000000
# 6 0.000000 0.000000 0.000000 -0.013431 0.000000 0.024024
#
#
# Mechanical properties :
#
#
# Convention : Reuss Voigt Hill
#
# Bulk Modulus (GPa) = 8.10250 29.74629 18.92439
# Shear Modulus (GPa) = 11.10080 27.53954 19.32017
#
# Velocity S-wave (km/s) = 2.26350 3.56518 2.98613
# Velocity P-wave (km/s) = 3.25128 5.53862 4.54132
#
# Compressibility (1/GPa) = 0.12341875
#
# Stress axis : x y z
#
# Youngs Moduli (GPa) = 52.70010 101.95660 11.91442
#
# Poissons Ratio (x) = 0.31326 -0.07736
# Poissons Ratio (y) = 0.16192 -0.02301
# Poissons Ratio (z) = -0.34217 -0.19691
#
# Static dielectric constant tensor:
#      x y z
#    x 1.795780 0.000000 -0.014000 
#    y 0.000000 1.837020 0.000000 
#    z -0.014000 0.000000 1.801830 
# 
# From -- ./inp_files/285444.got.cif
#   From: 2010.05.17/outbox.cif.g08.bks.cpg/sg12_143_cif.got.tgz:285444.got - 2010.06.03 13:09:07.
