data_PCOD9188072
_publ_section_title
;
Structure prediction by ZEFSAII (Michael W. Deem and Ramdas Pophale) SiO2 
 PCOD9188072
Probable space group: C 2/M
;
_chemical_formula_sum "Si O2"
_cell_formula_units_Z 40
_cell_length_a 10.701185
_cell_length_b 16.649924
_cell_length_c 9.793270
_cell_angle_alpha 90.000000
_cell_angle_beta 106.356533
_cell_angle_gamma 90.000000
_cell_volume 1674.285286
_symmetry_space_group_name_H-M "C 2/M"
_symmetry_group_IT_number 12
_symmetry_cell_setting 'monoclinic'
loop_
_space_group_symop_operation_xyz
x,y,z
-x,y,-z
-x,-y,-z
x,-y,z
1/2+x,1/2+y,z
1/2-x,1/2+y,-z
1/2-x,1/2-y,-z
1/2+x,1/2-y,z
loop_
_atom_site_type_symbol
_atom_site_label
_atom_site_fract_x
_atom_site_fract_y
_atom_site_fract_z
Si Si1 0.161349 0.908403 0.621581
Si Si2 0.854583 0.200730 0.621922
Si Si3 0.735579 0.911655 0.809910
Si Si4 0.259081 0.334333 0.084965
Si Si5 0.941881 0.638695 0.756411
O O1 0.105609 0.870656 0.465967
O O2 0.450082 0.771164 0.699074
O O3 0.320445 0.906174 0.646816
O O4 0.124254 0.000000 0.636993
O O5 0.750000 0.250000 0.500000
O O6 0.788825 0.158744 0.730898
O O7 0.651381 0.647893 0.754411
O O8 0.579878 0.902110 0.780374
O O9 0.766561 0.000000 0.765740
O O10 0.792000 0.898140 0.978521
O O11 0.118817 0.351424 0.110922
O O12 0.250000 0.250000 0.000000
#
# Coordination Sequence:
#
# PCOD9188072 Si02
#       5
#     8   8   8   8   8
#     4   9  18  32  52  79 113 147 188 242 288 333
#     4  10  20  38  53  79 122 161 194 228 293 354
#     4  12  22  35  62  95 119 148 195 250 296 342
#     4  10  19  36  55  81 123 159 191 230 300 359
#     4   9  21  34  55  83 123 153 191 238 292 353
#
# _framework density 23.890789999999999
#
# number of rings (size 3 to 8) (size 9 to 14) (size 15 to 20)
#    1.200    0.800    2.000    2.400    0.000    4.000 
#    0.000    5.000    0.000    0.000    0.000   57.400 
#    0.000    0.000    0.000    0.000    0.000    0.000 
#
# Total GULP energy -111563.511252 kJ/mol
# GULP energy per Si atom -5578.175563 kJ/mol
# Density = 2.383641 g / cm^3
# Si number density = 23.890790 Si / 1000 Ang^3
#
#
#
# Elastic Constant Matrix: (Units=GPa)
#
#
# Indices 1 2 3 4 5 6 
#
# 1 25.2641 -0.2519 14.3822 0.0000 -2.8072 0.0000
# 2 -0.2519 156.2546 36.9542 0.0000 -4.3451 0.0000
# 3 14.3822 36.9542 135.0627 0.0000 2.8739 0.0000
# 4 0.0000 0.0000 0.0000 35.3236 0.0000 -2.7144
# 5 -2.8072 -4.3451 2.8739 0.0000 8.9536 0.0000
# 6 0.0000 0.0000 0.0000 -2.7144 0.0000 29.2749
#
#
#
# Elastic Compliance Matrix: (Units=1/GPa)
#
#
# Indices 1 2 3 4 5 6 
#
# 1 0.044658 0.001866 -0.005622 0.000000 0.016711 0.000000
# 2 0.001866 0.007062 -0.002232 0.000000 0.004729 0.000000
# 3 -0.005622 -0.002232 0.008733 0.000000 -0.005649 0.000000
# 4 0.000000 0.000000 0.000000 0.028513 0.000000 0.002644
# 5 0.016711 0.004729 -0.005649 0.000000 0.121035 0.000000
# 6 0.000000 0.000000 0.000000 0.002644 0.000000 0.034404
#
#
# Mechanical properties :
#
#
# Convention : Reuss Voigt Hill
#
# Bulk Modulus (GPa) = 20.62745 46.52782 33.57763
# Shear Modulus (GPa) = 18.34607 32.41021 25.37814
#
# Velocity S-wave (km/s) = 2.77413 3.68720 3.26276
# Velocity P-wave (km/s) = 4.34901 6.13553 5.31783
#
# Compressibility (1/GPa) = 0.04847908
#
# Stress axis : x y z
#
# Youngs Moduli (GPa) = 22.39263 141.60142 114.50359
#
# Poissons Ratio (x) = -0.26425 0.64369
# Poissons Ratio (y) = -0.04179 0.25552
# Poissons Ratio (z) = 0.12588 0.31599
#
# Static dielectric constant tensor:
#      x y z
#    x 2.102100 0.000000 0.023110 
#    y 0.000000 1.945230 0.000000 
#    z 0.023110 0.000000 1.899560 
# 
# From -- ./inp_files/129155.got.cif
#   From: 2010.05.17/outbox.cif.g08.bks.cpg/sg12_65_cif.got.tgz:129155.got - 2010.06.03 13:09:07.
