data_PCOD9188956
_publ_section_title
;
Structure prediction by ZEFSAII (Michael W. Deem and Ramdas Pophale) SiO2 
 PCOD9188956
Probable space group: C 2/M
;
_chemical_formula_sum "Si O2"
_cell_formula_units_Z 64
_cell_length_a 8.516898
_cell_length_b 29.538353
_cell_length_c 21.021120
_cell_angle_alpha 90.000000
_cell_angle_beta 32.300285
_cell_angle_gamma 90.000000
_cell_volume 2825.886496
_symmetry_space_group_name_H-M "C 2/M"
_symmetry_group_IT_number 12
_symmetry_cell_setting 'monoclinic'
loop_
_space_group_symop_operation_xyz
x,y,z
-x,y,-z
-x,-y,-z
x,-y,z
1/2+x,1/2+y,z
1/2-x,1/2+y,-z
1/2-x,1/2-y,-z
1/2+x,1/2-y,z
loop_
_atom_site_type_symbol
_atom_site_label
_atom_site_fract_x
_atom_site_fract_y
_atom_site_fract_z
Si Si1 0.229378 0.051011 0.044744
Si Si2 0.718222 0.891844 0.694012
Si Si3 0.203856 0.593827 0.280171
Si Si4 0.767114 0.275714 0.210228
Si Si5 0.332362 0.550603 0.488239
Si Si6 0.709370 0.854405 0.057073
Si Si7 0.732922 0.694572 0.714438
Si Si8 0.425229 0.305309 0.455752
O O1 0.938331 0.055515 0.187036
O O2 0.228633 0.000000 0.013334
O O3 0.500000 0.052331 0.000000
O O4 0.230515 0.099818 0.006173
O O5 0.476102 0.900358 0.723734
O O6 0.555256 0.871920 0.808843
O O7 0.909825 0.934950 0.646849
O O8 0.954513 0.856488 0.585394
O O9 0.337512 0.642006 0.251413
O O10 0.956656 0.580488 0.415094
O O11 0.509137 0.286008 0.249680
O O12 0.805347 0.221749 0.206079
O O13 0.616731 0.285944 0.331603
O O14 0.053691 0.305651 0.092567
O O15 0.500000 0.553975 0.500000
O O16 0.237726 0.500000 0.512367
O O17 0.000000 0.846161 0.000000
O O18 0.071367 0.696737 0.572801
O O19 0.500000 0.285533 0.500000
#
# Coordination Sequence:
#
# PCOD9188956 Si02
#       8
#     8   8   8   8   8   8   8   8
#     4  11  25  45  69  98 133 177 225 273 330 398
#     4  10  19  36  63  94 128 172 211 269 331 385
#     4  11  20  38  67  92 129 177 214 272 333 390
#     4  11  27  40  64  98 129 178 223 274 330 398
#     4   9  17  31  55  95 131 161 208 262 325 391
#     4  11  24  46  68  94 133 171 224 280 328 393
#     4  12  23  41  63  95 135 171 222 268 337 399
#     4  11  19  38  63  92 133 172 216 266 323 391
#
# _framework density 22.647760999999999
#
# number of rings (size 3 to 8) (size 9 to 14) (size 15 to 20)
#    0.000    1.250    3.750    3.000    1.750    1.250 
#    0.000    3.125    0.000    0.000    0.000    4.375 
#    0.000    0.000    0.000    0.000    0.000    0.000 
#
# Total GULP energy -178359.259119 kJ/mol
# GULP energy per Si atom -5573.726847 kJ/mol
# Density = 2.259621 g / cm^3
# Si number density = 22.647761 Si / 1000 Ang^3
#
#
#
# Elastic Constant Matrix: (Units=GPa)
#
#
# Indices 1 2 3 4 5 6 
#
# 1 59.4603 25.5705 17.2088 0.0001 -27.3581 0.0001
# 2 25.5705 106.2789 29.6787 0.0011 -22.7928 -0.0006
# 3 17.2088 29.6787 91.5513 -0.0031 -19.0055 -0.0012
# 4 0.0001 0.0011 -0.0031 60.3492 0.0008 -27.5015
# 5 -27.3581 -22.7928 -19.0055 0.0008 29.7839 -0.0001
# 6 0.0001 -0.0006 -0.0012 -27.5015 -0.0001 32.0645
#
#
#
# Elastic Compliance Matrix: (Units=1/GPa)
#
#
# Indices 1 2 3 4 5 6 
#
# 1 0.029347 -0.001598 0.000396 -0.000001 0.025987 -0.000001
# 2 -0.001598 0.011721 -0.002239 -0.000001 0.006073 0.000000
# 3 0.000396 -0.002239 0.013019 0.000001 0.006958 0.000002
# 4 -0.000001 -0.000001 0.000001 0.027202 -0.000001 0.023331
# 5 0.025987 0.006073 0.006958 -0.000001 0.066534 0.000000
# 6 -0.000001 0.000000 0.000002 0.023331 0.000000 0.051198
#
#
# Mechanical properties :
#
#
# Convention : Reuss Voigt Hill
#
# Bulk Modulus (GPa) = 21.18362 44.68962 32.93662
# Shear Modulus (GPa) = 22.55931 36.76168 29.66050
#
# Velocity S-wave (km/s) = 3.15952 4.03326 3.62283
# Velocity P-wave (km/s) = 4.76276 6.43932 5.66343
#
# Compressibility (1/GPa) = 0.04720629
#
# Stress axis : x y z
#
# Youngs Moduli (GPa) = 34.07462 85.31397 76.81374
#
# Poissons Ratio (x) = 0.13637 -0.03046
# Poissons Ratio (y) = 0.05447 0.17195
# Poissons Ratio (z) = -0.01351 0.19098
#
# Static dielectric constant tensor:
#      x y z
#    x 1.690810 0.000000 -0.053740 
#    y 0.000000 2.011920 0.000000 
#    z -0.053740 0.000000 1.823110 
# 
# From -- ./inp_files/334337.got.cif
#   From: 2010.05.17/outbox.cif.g08.bks.cpg/sg12_168_cif.got.tgz:334337.got - 2010.06.03 13:09:07.
