data_PCOD9188128
_publ_section_title
;
Structure prediction by ZEFSAII (Michael W. Deem and Ramdas Pophale) SiO2 
 PCOD9188128
Probable space group: C 2/M
;
_chemical_formula_sum "Si O2"
_cell_formula_units_Z 60
_cell_length_a 11.969988
_cell_length_b 21.409335
_cell_length_c 21.150471
_cell_angle_alpha 90.000000
_cell_angle_beta 150.263651
_cell_angle_gamma 90.000000
_cell_volume 2688.481488
_symmetry_space_group_name_H-M "C 2/M"
_symmetry_group_IT_number 12
_symmetry_cell_setting 'monoclinic'
loop_
_space_group_symop_operation_xyz
x,y,z
-x,y,-z
-x,-y,-z
x,-y,z
1/2+x,1/2+y,z
1/2-x,1/2+y,-z
1/2-x,1/2-y,-z
1/2+x,1/2-y,z
loop_
_atom_site_type_symbol
_atom_site_label
_atom_site_fract_x
_atom_site_fract_y
_atom_site_fract_z
Si Si1 0.767401 0.925956 0.737996
Si Si2 0.603933 0.250444 0.621464
Si Si3 0.731916 0.928493 0.861891
Si Si4 0.532422 0.394694 0.590229
Si Si5 0.494124 0.070503 0.869379
Si Si6 0.000000 0.651063 0.000000
Si Si7 0.332530 0.864799 0.502123
Si Si8 0.001260 0.170721 0.776571
O O1 0.703933 0.902969 0.777572
O O2 0.550773 0.905185 0.591146
O O3 0.977740 0.888833 0.812083
O O4 0.804280 0.000000 0.757127
O O5 0.500000 0.247480 0.500000
O O6 0.589827 0.321858 0.633080
O O7 0.446469 0.200800 0.580629
O O8 0.857724 0.224940 0.740415
O O9 0.624057 0.900382 0.872252
O O10 0.644012 0.000000 0.817244
O O11 0.000000 0.930500 0.000000
O O12 0.500000 0.403745 0.500000
O O13 0.736552 0.432327 0.719428
O O14 0.297430 0.404070 0.509232
O O15 0.495725 0.109376 0.934467
O O16 0.581644 0.000000 0.923477
O O17 0.758230 0.685870 0.885520
O O18 0.147214 0.848653 0.357755
#
# Coordination Sequence:
#
# PCOD9188128 Si02
#       8
#     8   8   8   8   8   4   8   8
#     4  10  20  34  57  88 120 156 202 256 307 359
#     4   8  18  36  62  87 115 152 202 254 307 360
#     4   9  18  35  56  78 110 152 201 249 291 343
#     4  11  21  37  61  90 120 156 200 244 311 373
#     4  11  24  39  58  87 124 164 204 245 297 365
#     4  12  23  42  62  84 126 172 211 244 302 372
#     4  10  19  36  56  88 121 155 197 254 308 358
#     4  10  21  38  60  87 122 160 207 256 303 357
#
# _framework density 22.317430999999999
#
# number of rings (size 3 to 8) (size 9 to 14) (size 15 to 20)
#    0.000    2.000    1.333    3.400    0.000    4.000 
#    0.000    0.667    1.467    0.000    0.000    0.000 
#    0.000    0.000    0.000    0.000    0.000    0.000 
#
# Total GULP energy -167368.140105 kJ/mol
# GULP energy per Si atom -5578.938003 kJ/mol
# Density = 2.226664 g / cm^3
# Si number density = 22.317431 Si / 1000 Ang^3
#
#
#
# Elastic Constant Matrix: (Units=GPa)
#
#
# Indices 1 2 3 4 5 6 
#
# 1 112.9729 -7.6287 41.8487 0.0020 10.1247 -0.0003
# 2 -7.6287 42.9405 5.4948 -0.0023 1.4164 0.0005
# 3 41.8487 5.4948 101.0087 -0.0039 12.7216 0.0067
# 4 0.0020 -0.0023 -0.0039 50.3021 -0.0064 -24.6653
# 5 10.1247 1.4164 12.7216 -0.0064 52.6479 0.0034
# 6 -0.0003 0.0005 0.0067 -24.6653 0.0034 37.2752
#
#
#
# Elastic Compliance Matrix: (Units=1/GPa)
#
#
# Indices 1 2 3 4 5 6 
#
# 1 0.010771 0.002520 -0.004466 0.000000 -0.001060 0.000001
# 2 0.002520 0.024047 -0.002279 0.000001 -0.000581 0.000001
# 3 -0.004466 -0.002279 0.012128 0.000000 -0.002010 -0.000002
# 4 0.000000 0.000001 0.000000 0.029428 0.000002 0.019473
# 5 -0.001060 -0.000581 -0.002010 0.000002 0.019699 0.000000
# 6 0.000001 0.000001 -0.000002 0.019473 0.000000 0.039713
#
#
# Mechanical properties :
#
#
# Convention : Reuss Voigt Hill
#
# Bulk Modulus (GPa) = 25.97734 37.37244 31.67489
# Shear Modulus (GPa) = 31.83330 42.52553 37.17941
#
# Velocity S-wave (km/s) = 3.78085 4.36992 4.08602
# Velocity P-wave (km/s) = 5.54301 6.49953 6.04023
#
# Compressibility (1/GPa) = 0.03849509
#
# Stress axis : x y z
#
# Youngs Moduli (GPa) = 92.83954 41.58606 82.45597
#
# Poissons Ratio (x) = -0.10480 0.36827
# Poissons Ratio (y) = -0.23396 0.18792
# Poissons Ratio (z) = 0.41464 0.09478
#
# Static dielectric constant tensor:
#      x y z
#    x 1.915350 0.000000 0.014630 
#    y 0.000000 1.836900 0.000000 
#    z 0.014630 0.000000 1.856580 
# 
# From -- ./inp_files/307318.got.cif
#   From: 2010.05.17/outbox.cif.g08.bks.cpg/sg12_154_cif.got.tgz:307318.got - 2010.06.03 13:09:07.
