data_PCOD9188318
_publ_section_title
;
Structure prediction by ZEFSAII (Michael W. Deem and Ramdas Pophale) SiO2 
 PCOD9188318
Probable space group: C 2/M
;
_chemical_formula_sum "Si O2"
_cell_formula_units_Z 56
_cell_length_a 20.352885
_cell_length_b 18.615668
_cell_length_c 11.796800
_cell_angle_alpha 90.000000
_cell_angle_beta 37.336035
_cell_angle_gamma 90.000000
_cell_volume 2710.762354
_symmetry_space_group_name_H-M "C 2/M"
_symmetry_group_IT_number 12
_symmetry_cell_setting 'monoclinic'
loop_
_space_group_symop_operation_xyz
x,y,z
-x,y,-z
-x,-y,-z
x,-y,z
1/2+x,1/2+y,z
1/2-x,1/2+y,-z
1/2-x,1/2-y,-z
1/2+x,1/2-y,z
loop_
_atom_site_type_symbol
_atom_site_label
_atom_site_fract_x
_atom_site_fract_y
_atom_site_fract_z
Si Si1 0.293932 0.085200 0.493850
Si Si2 0.549856 0.084024 0.126942
Si Si3 0.276780 0.307836 0.222768
Si Si4 0.776783 0.355908 0.268156
Si Si5 0.132475 0.216255 0.124438
Si Si6 0.907088 0.648750 0.704116
Si Si7 0.377662 0.579598 0.711183
O O1 0.423726 0.100570 0.324866
O O2 0.225591 0.133617 0.675151
O O3 0.266074 0.107572 0.404169
O O4 0.278367 0.000000 0.533596
O O5 0.613929 0.101953 0.155462
O O6 0.557646 0.000000 0.087918
O O7 0.605533 0.128206 0.949481
O O8 0.252390 0.228933 0.305370
O O9 0.187844 0.336516 0.254700
O O10 0.375595 0.291822 0.999569
O O11 0.695818 0.392596 0.290540
O O12 0.056050 0.274398 0.291181
O O13 0.125205 0.138723 0.187891
O O14 0.250000 0.250000 0.000000
O O15 0.000000 0.615038 0.500000
O O16 0.500000 0.576477 0.500000
O O17 0.343634 0.500000 0.793924
#
# Coordination Sequence:
#
# PCOD9188318 Si02
#       7
#     8   8   8   8   8   8   8
#     4  11  25  41  61  91 127 165 203 248 305 366
#     4  11  23  39  63  94 125 162 203 246 309 370
#     4  11  22  37  60  90 121 159 205 245 301 368
#     4  12  22  42  62  87 124 165 208 251 295 360
#     4  10  19  36  58  87 117 153 194 246 307 353
#     4  11  19  35  61  86 125 157 192 255 303 353
#     4  11  23  38  62  92 117 154 207 255 305 356
#
# _framework density 20.658396
#
# number of rings (size 3 to 8) (size 9 to 14) (size 15 to 20)
#    0.000    1.000    5.714    3.429    0.000    2.571 
#    0.000    0.000    0.000    0.000    0.000    3.000 
#    0.000    0.000    0.000    0.000    0.000    0.000 
#
# Total GULP energy -156264.506092 kJ/mol
# GULP energy per Si atom -5580.875218 kJ/mol
# Density = 2.061138 g / cm^3
# Si number density = 20.658396 Si / 1000 Ang^3
#
#
#
# Elastic Constant Matrix: (Units=GPa)
#
#
# Indices 1 2 3 4 5 6 
#
# 1 33.3699 17.8356 14.8072 0.0000 14.9237 0.0000
# 2 17.8356 131.9217 30.4311 0.0000 16.2593 0.0000
# 3 14.8072 30.4311 81.1837 0.0000 33.9809 0.0000
# 4 0.0000 0.0000 0.0000 22.2786 0.0000 12.7252
# 5 14.9237 16.2593 33.9809 0.0000 34.3245 0.0000
# 6 0.0000 0.0000 0.0000 12.7252 0.0000 23.2955
#
#
#
# Elastic Compliance Matrix: (Units=1/GPa)
#
#
# Indices 1 2 3 4 5 6 
#
# 1 0.038586 -0.003462 0.001017 0.000000 -0.016144 0.000000
# 2 -0.003462 0.008651 -0.002606 0.000000 -0.000013 0.000000
# 3 0.001017 -0.002606 0.021819 0.000000 -0.020808 0.000000
# 4 0.000000 0.000000 0.000000 0.065243 0.000000 -0.035639
# 5 -0.016144 -0.000013 -0.020808 0.000000 0.056758 0.000000
# 6 0.000000 0.000000 0.000000 -0.035639 0.000000 0.062395
#
#
# Mechanical properties :
#
#
# Convention : Reuss Voigt Hill
#
# Bulk Modulus (GPa) = 16.96230 41.40256 29.18243
# Shear Modulus (GPa) = 17.65514 28.20648 22.93081
#
# Velocity S-wave (km/s) = 2.92657 3.69911 3.33528
# Velocity P-wave (km/s) = 4.43265 6.19109 5.38414
#
# Compressibility (1/GPa) = 0.05895426
#
# Stress axis : x y z
#
# Youngs Moduli (GPa) = 25.91629 115.59363 45.83248
#
# Poissons Ratio (x) = 0.40014 -0.04661
# Poissons Ratio (y) = 0.08971 0.11944
# Poissons Ratio (z) = -0.02636 0.30123
#
# Static dielectric constant tensor:
#      x y z
#    x 1.748810 0.000000 -0.046620 
#    y 0.000000 1.745000 0.000000 
#    z -0.046620 0.000000 1.847580 
# 
# From -- ./inp_files/177059.got.cif
#   From: 2010.05.17/outbox.cif.g08.bks.cpg/sg12_89_cif.got.tgz:177059.got - 2010.06.03 13:09:07.
