data_PCOD9188772
_publ_section_title
;
Structure prediction by ZEFSAII (Michael W. Deem and Ramdas Pophale) SiO2 
 PCOD9188772
Probable space group: C 2/M
;
_chemical_formula_sum "Si O2"
_cell_formula_units_Z 48
_cell_length_a 23.967973
_cell_length_b 8.554966
_cell_length_c 17.515183
_cell_angle_alpha 90.000000
_cell_angle_beta 47.319819
_cell_angle_gamma 90.000000
_cell_volume 2640.217603
_symmetry_space_group_name_H-M "C 2/M"
_symmetry_group_IT_number 12
_symmetry_cell_setting 'monoclinic'
loop_
_space_group_symop_operation_xyz
x,y,z
-x,y,-z
-x,-y,-z
x,-y,z
1/2+x,1/2+y,z
1/2-x,1/2+y,-z
1/2-x,1/2-y,-z
1/2+x,1/2-y,z
loop_
_atom_site_type_symbol
_atom_site_label
_atom_site_fract_x
_atom_site_fract_y
_atom_site_fract_z
Si Si1 0.028756 0.810076 0.179992
Si Si2 0.987820 0.187440 0.630121
Si Si3 0.225278 0.314529 0.785755
Si Si4 0.199568 0.811855 0.977436
Si Si5 0.434959 0.688939 0.122531
Si Si6 0.116844 0.685329 0.404472
O O1 0.015923 0.759057 0.278772
O O2 0.966432 0.760736 0.175922
O O3 0.027535 0.000000 0.181519
O O4 0.112263 0.764646 0.073546
O O5 0.066429 0.234101 0.516745
O O6 0.921980 0.262093 0.639266
O O7 0.978902 0.000000 0.635830
O O8 0.233328 0.500000 0.776192
O O9 0.226343 0.256468 0.872248
O O10 0.144805 0.263253 0.825630
O O11 0.296285 0.237583 0.676902
O O12 0.203039 0.000000 0.971058
O O13 0.250000 0.750000 0.000000
O O14 0.426494 0.500000 0.129155
O O15 0.500000 0.727274 0.000000
O O16 0.110124 0.500000 0.418135
#
# Coordination Sequence:
#
# PCOD9188772 Si02
#       6
#     8   8   8   8   8   8
#     4   9  19  35  58  84 113 149 188 227 283 348
#     4  10  19  36  61  89 119 149 185 236 292 347
#     4  12  24  38  56  84 116 151 195 244 290 338
#     4  11  21  36  56  85 118 153 188 232 287 348
#     4  10  19  38  62  82 111 154 194 233 285 349
#     4  11  22  38  59  84 114 154 197 236 287 349
#
# _framework density 18.180319999999998
#
# number of rings (size 3 to 8) (size 9 to 14) (size 15 to 20)
#    0.000    1.500    1.667    6.000    0.000    1.667 
#    0.000    5.000    0.000    0.000    0.000    0.000 
#    0.000    0.000    0.000    0.000    0.000    0.000 
#
# Total GULP energy -134126.442564 kJ/mol
# GULP energy per Si atom -5588.601774 kJ/mol
# Density = 1.813894 g / cm^3
# Si number density = 18.180320 Si / 1000 Ang^3
#
#
#
# Elastic Constant Matrix: (Units=GPa)
#
#
# Indices 1 2 3 4 5 6 
#
# 1 42.5287 -8.8884 -0.5124 0.0002 -14.1679 -0.0003
# 2 -8.8884 38.4353 -9.5447 -0.0006 -1.7947 0.0006
# 3 -0.5124 -9.5447 52.2159 0.0002 -9.1586 -0.0003
# 4 0.0002 -0.0006 0.0002 20.8859 0.0000 -5.2689
# 5 -14.1679 -1.7947 -9.1586 0.0000 32.3067 -0.0001
# 6 -0.0003 0.0006 -0.0003 -5.2689 -0.0001 30.6892
#
#
#
# Elastic Compliance Matrix: (Units=1/GPa)
#
#
# Indices 1 2 3 4 5 6 
#
# 1 0.030478 0.008894 0.004584 0.000000 0.015159 0.000000
# 2 0.008894 0.030145 0.006919 0.000001 0.007537 0.000000
# 3 0.004584 0.006919 0.021974 0.000000 0.008624 0.000000
# 4 0.000000 0.000001 0.000000 0.050047 0.000000 0.008592
# 5 0.015159 0.007537 0.008624 0.000000 0.040465 0.000000
# 6 0.000000 0.000000 0.000000 0.008592 0.000000 0.034060
#
#
# Mechanical properties :
#
#
# Convention : Reuss Voigt Hill
#
# Bulk Modulus (GPa) = 8.10427 10.58767 9.34597
# Shear Modulus (GPa) = 24.09601 26.91807 25.50704
#
# Velocity S-wave (km/s) = 3.64454 3.85205 3.74973
# Velocity P-wave (km/s) = 4.70931 5.06169 4.88868
#
# Compressibility (1/GPa) = 0.12339169
#
# Stress axis : x y z
#
# Youngs Moduli (GPa) = 32.81069 33.17318 45.50904
#
# Poissons Ratio (x) = -0.29505 -0.20861
# Poissons Ratio (y) = -0.29183 -0.31490
# Poissons Ratio (z) = -0.15040 -0.22954
#
# Static dielectric constant tensor:
#      x y z
#    x 1.612300 0.000000 0.004760 
#    y 0.000000 1.619180 0.000000 
#    z 0.004760 0.000000 1.608230 
# 
# From -- ./inp_files/280758.got.cif
#   From: 2010.05.17/outbox.cif.g08.bks.cpg/sg12_141_cif.got.tgz:280758.got - 2010.06.03 13:09:07.
