data_PCOD9188121
_publ_section_title
;
Structure prediction by ZEFSAII (Michael W. Deem and Ramdas Pophale) SiO2 
 PCOD9188121
Probable space group: C 2/M
;
_chemical_formula_sum "Si O2"
_cell_formula_units_Z 48
_cell_length_a 25.535911
_cell_length_b 15.036727
_cell_length_c 5.406938
_cell_angle_alpha 90.000000
_cell_angle_beta 75.141548
_cell_angle_gamma 90.000000
_cell_volume 2006.715964
_symmetry_space_group_name_H-M "C 2/M"
_symmetry_group_IT_number 12
_symmetry_cell_setting 'monoclinic'
loop_
_space_group_symop_operation_xyz
x,y,z
-x,y,-z
-x,-y,-z
x,-y,z
1/2+x,1/2+y,z
1/2-x,1/2+y,-z
1/2-x,1/2-y,-z
1/2+x,1/2-y,z
loop_
_atom_site_type_symbol
_atom_site_label
_atom_site_fract_x
_atom_site_fract_y
_atom_site_fract_z
Si Si1 0.917563 0.000000 0.195332
Si Si2 0.950638 0.817291 0.370977
Si Si3 0.845417 0.190023 0.848845
Si Si4 0.713327 0.815972 0.391865
Si Si5 0.704993 0.000000 0.437131
Si Si6 0.894500 0.683006 0.166256
Si Si7 0.365081 0.000000 0.981947
Si Si8 0.151525 0.000000 0.221581
O O1 0.949248 0.091897 0.213222
O O2 0.871940 0.000000 0.470154
O O3 0.894542 0.000000 0.942948
O O4 0.894874 0.816015 0.595572
O O5 0.947666 0.722472 0.232422
O O6 0.000000 0.820633 0.500000
O O7 0.803398 0.267201 0.835999
O O8 0.819404 0.093377 0.860352
O O9 0.873315 0.227039 0.058452
O O10 0.750000 0.750000 0.500000
O O11 0.739538 0.911698 0.357862
O O12 0.654563 0.835575 0.585286
O O13 0.680894 0.000000 0.746009
O O14 0.661265 0.000000 0.260245
O O15 0.897170 0.593458 0.996505
#
# Coordination Sequence:
#
# PCOD9188121 Si02
#       8
#     4   8   8   8   4   8   4   4
#     4  10  19  36  56  85 118 164 196 238 285 357
#     4  10  21  36  57  86 118 154 198 242 293 352
#     4  10  20  37  57  82 117 158 192 243 294 348
#     4  10  22  38  61  87 120 152 198 242 294 350
#     4  10  20  39  61  89 116 157 199 239 287 356
#     4  10  20  38  61  84 114 156 194 245 294 345
#     4  10  20  38  65  85 113 156 204 240 290 356
#     4  10  20  35  58  84 122 154 200 239 298 347
#
# _framework density 23.919677
#
# number of rings (size 3 to 8) (size 9 to 14) (size 15 to 20)
#    0.000    2.000    3.333    0.250    0.000    2.000 
#    0.000    3.750    0.000    1.000    0.000    0.000 
#    0.000    0.000    0.000    0.000    0.000    0.000 
#
# Total GULP energy -133865.412400 kJ/mol
# GULP energy per Si atom -5577.725517 kJ/mol
# Density = 2.386523 g / cm^3
# Si number density = 23.919677 Si / 1000 Ang^3
#
#
#
# Elastic Constant Matrix: (Units=GPa)
#
#
# Indices 1 2 3 4 5 6 
#
# 1 32.4940 1.9994 15.3646 0.0000 1.7024 0.0000
# 2 1.9994 174.6693 1.5855 0.0000 7.5881 0.0000
# 3 15.3646 1.5855 80.5535 0.0000 -4.4510 0.0000
# 4 0.0000 0.0000 0.0000 33.5423 0.0000 21.8245
# 5 1.7024 7.5881 -4.4510 0.0000 49.8618 0.0000
# 6 0.0000 0.0000 0.0000 21.8245 0.0000 10.8655
#
#
#
# Elastic Compliance Matrix: (Units=1/GPa)
#
#
# Indices 1 2 3 4 5 6 
#
# 1 0.033988 -0.000255 -0.006572 0.000000 -0.001708 0.000000
# 2 -0.000255 0.005767 -0.000113 0.000000 -0.000879 0.000000
# 3 -0.006572 -0.000113 0.013751 0.000000 0.001469 0.000000
# 4 0.000000 0.000000 0.000000 -0.097140 0.000000 0.195116
# 5 -0.001708 -0.000879 0.001469 0.000000 0.020379 0.000000
# 6 0.000000 0.000000 0.000000 0.195116 0.000000 -0.299876
#
#
# Mechanical properties :
#
#
# Convention : Reuss Voigt Hill
#
# Bulk Modulus (GPa) = 25.23686 36.17953 30.70820
# Shear Modulus (GPa) = -16.88949 36.77172 9.94112
#
# Velocity S-wave (km/s) = -2.66012 3.92510 2.04085
# Velocity P-wave (km/s) = 1.06704 5.97496 4.29178
#
# Compressibility (1/GPa) = 0.03962458
#
# Stress axis : x y z
#
# Youngs Moduli (GPa) = 29.42242 173.39298 72.72160
#
# Poissons Ratio (x) = 0.04425 0.47794
# Poissons Ratio (y) = 0.00751 0.00825
# Poissons Ratio (z) = 0.19337 0.01966
#
# Static dielectric constant tensor:
#      x y z
#    x 2.010030 0.000000 0.037540 
#    y 0.000000 2.047700 0.000000 
#    z 0.037540 0.000000 1.958830 
# 
# From -- ./inp_files/28202.got.cif
#   From: 2010.05.17/outbox.cif.g08.bks.cpg/sg12_15_cif.got.tgz:28202.got - 2010.06.03 13:09:07.
