data_PCOD9188337
_publ_section_title
;
Structure prediction by ZEFSAII (Michael W. Deem and Ramdas Pophale) SiO2 
 PCOD9188337
Probable space group: C 2/M
;
_chemical_formula_sum "Si O2"
_cell_formula_units_Z 58
_cell_length_a 19.537811
_cell_length_b 18.235625
_cell_length_c 8.135300
_cell_angle_alpha 90.000000
_cell_angle_beta 121.123203
_cell_angle_gamma 90.000000
_cell_volume 2481.265493
_symmetry_space_group_name_H-M "C 2/M"
_symmetry_group_IT_number 12
_symmetry_cell_setting 'monoclinic'
loop_
_space_group_symop_operation_xyz
x,y,z
-x,y,-z
-x,-y,-z
x,-y,z
1/2+x,1/2+y,z
1/2-x,1/2+y,-z
1/2-x,1/2-y,-z
1/2+x,1/2-y,z
loop_
_atom_site_type_symbol
_atom_site_label
_atom_site_fract_x
_atom_site_fract_y
_atom_site_fract_z
Si Si1 0.541402 0.589233 0.380728
Si Si2 0.019192 0.359304 0.251813
Si Si3 0.248967 0.337778 0.033715
Si Si4 0.842571 0.588861 0.379103
Si Si5 0.196362 0.081725 0.411994
Si Si6 0.889119 0.129136 0.004410
Si Si7 0.000000 0.500000 0.000000
Si Si8 0.378262 0.204767 0.914011
O O1 0.500000 0.611494 0.500000
O O2 0.543755 0.500000 0.379519
O O3 0.631291 0.616658 0.454282
O O4 0.480015 0.615998 0.164761
O O5 0.071877 0.376262 0.475456
O O6 0.997853 0.436171 0.139817
O O7 0.938634 0.312304 0.141655
O O8 0.078282 0.319618 0.196000
O O9 0.195102 0.379801 0.833050
O O10 0.202815 0.339867 0.149343
O O11 0.250000 0.250000 0.000000
O O12 0.335522 0.371968 0.104560
O O13 0.846788 0.500000 0.380707
O O14 0.780701 0.611001 0.449229
O O15 0.214305 0.000000 0.498658
O O16 0.145747 0.076660 0.178056
O O17 0.870087 0.208530 0.904326
#
# Coordination Sequence:
#
# PCOD9188337 Si02
#       8
#     8   8   8   8   8   8   2   8
#     4  10  21  35  53  82 115 141 184 238 291 339
#     4  10  20  36  60  83 116 148 193 242 279 349
#     4   9  20  41  56  81 120 153 188 241 294 342
#     4  10  20  38  61  90 114 151 199 241 286 346
#     4   9  19  34  58  84 111 144 190 235 281 342
#     4  10  19  36  59  76 109 152 190 231 280 349
#     4   8  16  36  56  78 116 152 174 242 300 320
#     4   9  21  37  55  83 114 152 194 229 295 350
#
# _framework density 23.375167999999999
#
# number of rings (size 3 to 8) (size 9 to 14) (size 15 to 20)
#    0.000    2.621    0.690    0.828    3.862    3.310 
#    9.931    6.897    0.000    0.000    0.000    0.000 
#    0.000    0.000    0.000    0.000    0.000    0.000 
#
# Total GULP energy -161475.809846 kJ/mol
# GULP energy per Si atom -5568.131374 kJ/mol
# Density = 2.332196 g / cm^3
# Si number density = 23.375168 Si / 1000 Ang^3
#
#
#
# Elastic Constant Matrix: (Units=GPa)
#
#
# Indices 1 2 3 4 5 6 
#
# 1 145.0099 5.0829 -2.8940 0.0000 -6.1161 0.0000
# 2 5.0829 65.8076 13.4117 0.0000 0.1723 0.0000
# 3 -2.8940 13.4117 51.0719 0.0000 12.4093 0.0000
# 4 0.0000 0.0000 0.0000 -373.8663 0.0000 402.8574
# 5 -6.1161 0.1723 12.4093 0.0000 37.7468 0.0000
# 6 0.0000 0.0000 0.0000 402.8574 0.0000 -404.8478
#
#
#
# Elastic Compliance Matrix: (Units=1/GPa)
#
#
# Indices 1 2 3 4 5 6 
#
# 1 0.006967 -0.000602 0.000302 0.000000 0.001032 0.000000
# 2 -0.000602 0.016178 -0.004609 0.000000 0.001344 0.000000
# 3 0.000302 -0.004609 0.022596 0.000000 -0.007358 0.000000
# 4 0.000000 0.000000 0.000000 0.037023 0.000000 0.036841
# 5 0.001032 0.001344 -0.007358 0.000000 0.029072 0.000000
# 6 0.000000 0.000000 0.000000 0.036841 0.000000 0.034189
#
#
# Mechanical properties :
#
#
# Convention : Reuss Voigt Hill
#
# Bulk Modulus (GPa) = 27.83819 32.56562 30.20190
# Shear Modulus (GPa) = 29.79427 -131.77419 -50.98996
#
# Velocity S-wave (km/s) = 3.57404 -7.51638 -4.67558
# Velocity P-wave (km/s) = 5.38209 7.83364 4.02487
#
# Compressibility (1/GPa) = 0.03592188
#
# Stress axis : x y z
#
# Youngs Moduli (GPa) = 143.53872 61.81169 44.25633
#
# Poissons Ratio (x) = 0.03723 -0.01337
# Poissons Ratio (y) = 0.08646 0.20398
# Poissons Ratio (z) = -0.04337 0.28490
#
# Static dielectric constant tensor:
#      x y z
#    x 2.002730 0.000000 -0.075630 
#    y 0.000000 1.829660 0.000000 
#    z -0.075630 0.000000 1.973920 
# 
# From -- ./inp_files/88469.got.cif
#   From: 2010.05.17/outbox.cif.g08.bks.cpg/sg12_45_cif.got.tgz:88469.got - 2010.06.03 13:09:07.
