data_PCOD9188455
_publ_section_title
;
Structure prediction by ZEFSAII (Michael W. Deem and Ramdas Pophale) SiO2 
 PCOD9188455
Probable space group: C 2/M
;
_chemical_formula_sum "Si O2"
_cell_formula_units_Z 64
_cell_length_a 14.184195
_cell_length_b 30.533588
_cell_length_c 9.720968
_cell_angle_alpha 90.000000
_cell_angle_beta 121.483525
_cell_angle_gamma 90.000000
_cell_volume 3590.329730
_symmetry_space_group_name_H-M "C 2/M"
_symmetry_group_IT_number 12
_symmetry_cell_setting 'monoclinic'
loop_
_space_group_symop_operation_xyz
x,y,z
-x,y,-z
-x,-y,-z
x,-y,z
1/2+x,1/2+y,z
1/2-x,1/2+y,-z
1/2-x,1/2-y,-z
1/2+x,1/2-y,z
loop_
_atom_site_type_symbol
_atom_site_label
_atom_site_fract_x
_atom_site_fract_y
_atom_site_fract_z
Si Si1 0.783946 0.135377 0.313145
Si Si2 0.884952 0.708165 0.831723
Si Si3 0.952925 0.949918 0.811568
Si Si4 0.937520 0.181688 0.217008
Si Si5 0.392527 0.449029 0.322182
Si Si6 0.016491 0.721470 0.670299
Si Si7 0.233609 0.203565 0.156212
Si Si8 0.160831 0.136592 0.325554
O O1 0.679030 0.163446 0.183844
O O2 0.884644 0.155726 0.302769
O O3 0.795398 0.084053 0.288205
O O4 0.798968 0.142379 0.487362
O O5 0.807864 0.750346 0.807285
O O6 0.922732 0.705142 0.701877
O O7 0.000000 0.714253 0.000000
O O8 0.855972 0.914833 0.716505
O O9 0.056310 0.940974 0.789131
O O10 0.917110 0.000000 0.755211
O O11 0.000000 0.947085 0.000000
O O12 0.986274 0.226395 0.313488
O O13 0.036499 0.155432 0.223625
O O14 0.847321 0.192728 0.031842
O O15 0.500000 0.440747 0.500000
O O16 0.362039 0.500000 0.312723
O O17 0.141690 0.708073 0.803195
O O18 0.000000 0.709077 0.500000
O O19 0.226764 0.165195 0.264741
#
# Coordination Sequence:
#
# PCOD9188455 Si02
#       8
#     8   8   8   8   8   8   8   8
#     4  12  23  35  57  85 112 148 188 224 288 337
#     4  12  24  41  56  77 111 150 193 238 277 330
#     4  10  20  34  54  83 121 150 174 219 277 337
#     4  12  21  35  55  79 113 144 188 230 270 336
#     4  10  19  36  59  87 119 143 175 227 283 338
#     4  12  24  38  54  77 108 145 190 239 278 321
#     4  12  24  39  56  77 108 156 194 229 284 333
#     4  12  22  35  55  85 113 147 186 229 274 339
#
# _framework density 17.825661
#
# number of rings (size 3 to 8) (size 9 to 14) (size 15 to 20)
#    0.000    0.500    6.250    4.125    0.000    1.000 
#    0.000    0.000    0.000    0.375    0.000    0.875 
#    0.000    3.000    0.000    0.000    0.000    0.000 
#
# Total GULP energy -178796.309963 kJ/mol
# GULP energy per Si atom -5587.384686 kJ/mol
# Density = 1.778509 g / cm^3
# Si number density = 17.825661 Si / 1000 Ang^3
#
#
#
# Elastic Constant Matrix: (Units=GPa)
#
#
# Indices 1 2 3 4 5 6 
#
# 1 54.2662 32.5306 2.9958 0.0000 -7.4253 0.0000
# 2 32.5306 107.2989 6.2344 0.0000 -0.4687 0.0000
# 3 2.9958 6.2344 59.6549 0.0000 -16.2813 0.0000
# 4 0.0000 0.0000 0.0000 21.3456 0.0000 0.4572
# 5 -7.4253 -0.4687 -16.2813 0.0000 30.1232 0.0000
# 6 0.0000 0.0000 0.0000 0.4572 0.0000 24.8374
#
#
#
# Elastic Compliance Matrix: (Units=1/GPa)
#
#
# Indices 1 2 3 4 5 6 
#
# 1 0.023538 -0.007185 0.001316 0.000000 0.006401 0.000000
# 2 -0.007185 0.011575 -0.001505 0.000000 -0.002404 0.000000
# 3 0.001316 -0.001505 0.019867 0.000000 0.011039 0.000000
# 4 0.000000 0.000000 0.000000 0.046866 0.000000 -0.000863
# 5 0.006401 -0.002404 0.011039 0.000000 0.040704 0.000000
# 6 0.000000 0.000000 0.000000 -0.000863 0.000000 0.040278
#
#
# Mechanical properties :
#
#
# Convention : Reuss Voigt Hill
#
# Bulk Modulus (GPa) = 24.85568 33.86019 29.35793
# Shear Modulus (GPa) = 23.69822 27.22521 25.46172
#
# Velocity S-wave (km/s) = 3.65011 3.91231 3.78348
# Velocity P-wave (km/s) = 5.63369 6.28050 5.96587
#
# Compressibility (1/GPa) = 0.04023226
#
# Stress axis : x y z
#
# Youngs Moduli (GPa) = 42.48473 86.39365 50.33459
#
# Poissons Ratio (x) = 0.62071 -0.06624
# Poissons Ratio (y) = 0.30524 0.07576
# Poissons Ratio (z) = -0.05591 0.13003
#
# Static dielectric constant tensor:
#      x y z
#    x 1.615300 0.000000 -0.032760 
#    y 0.000000 1.640810 0.000000 
#    z -0.032760 0.000000 1.659370 
# 
# From -- ./inp_files/68270.got.cif
#   From: 2010.05.17/outbox.cif.g08.bks.cpg/sg12_35_cif.got.tgz:68270.got - 2010.06.03 13:09:07.
