data_PCOD9188261
_publ_section_title
;
Structure prediction by ZEFSAII (Michael W. Deem and Ramdas Pophale) SiO2 
 PCOD9188261
Probable space group: C 2/M
;
_chemical_formula_sum "Si O2"
_cell_formula_units_Z 40
_cell_length_a 21.014565
_cell_length_b 7.632048
_cell_length_c 15.758167
_cell_angle_alpha 90.000000
_cell_angle_beta 48.602511
_cell_angle_gamma 90.000000
_cell_volume 1895.874346
_symmetry_space_group_name_H-M "C 2/M"
_symmetry_group_IT_number 12
_symmetry_cell_setting 'monoclinic'
loop_
_space_group_symop_operation_xyz
x,y,z
-x,y,-z
-x,-y,-z
x,-y,z
1/2+x,1/2+y,z
1/2-x,1/2+y,-z
1/2-x,1/2-y,-z
1/2+x,1/2-y,z
loop_
_atom_site_type_symbol
_atom_site_label
_atom_site_fract_x
_atom_site_fract_y
_atom_site_fract_z
Si Si1 0.059932 0.714842 0.869152
Si Si2 0.493825 0.201687 0.268952
Si Si3 0.249304 0.786156 0.260667
Si Si4 0.814137 0.208464 0.868213
Si Si5 0.423649 0.296100 0.509722
O O1 0.057538 0.500000 0.871706
O O2 0.156915 0.772551 0.796814
O O3 0.027175 0.773405 0.805795
O O4 0.000000 0.771040 0.000000
O O5 0.594303 0.210780 0.195549
O O6 0.448872 0.286926 0.389467
O O7 0.466092 0.000000 0.294295
O O8 0.225701 0.734038 0.185757
O O9 0.169950 0.724989 0.387695
O O10 0.253331 0.000000 0.259930
O O11 0.827098 0.000000 0.851483
O O12 0.750000 0.250000 0.000000
O O13 0.500000 0.218301 0.500000
O O14 0.418584 0.500000 0.539924
#
# Coordination Sequence:
#
# PCOD9188261 Si02
#       5
#     8   8   8   8   8
#     4   9  18  34  55  80 111 147 189 232 277 338
#     4  11  22  35  56  86 115 145 184 235 288 333
#     4   9  18  34  57  79 106 149 194 229 273 338
#     4  11  21  36  58  84 111 146 192 236 279 331
#     4  10  19  36  58  81 110 150 192 232 280 337
#
# _framework density 21.098444000000001
#
# number of rings (size 3 to 8) (size 9 to 14) (size 15 to 20)
#    0.000    2.000    2.000    2.400    0.000    4.400 
#    0.000    0.000    0.000   14.400    0.000    0.000 
#    0.000    0.000    0.000    0.000    0.000    0.000 
#
# Total GULP energy -111715.141088 kJ/mol
# GULP energy per Si atom -5585.757054 kJ/mol
# Density = 2.105042 g / cm^3
# Si number density = 21.098444 Si / 1000 Ang^3
#
#
#
# Elastic Constant Matrix: (Units=GPa)
#
#
# Indices 1 2 3 4 5 6 
#
# 1 120.3173 -3.1679 31.4148 0.0011 3.3497 -0.0010
# 2 -3.1679 39.2550 -11.5377 0.0003 -1.3071 -0.0008
# 3 31.4148 -11.5377 124.7549 0.0008 -4.3126 -0.0008
# 4 0.0011 0.0003 0.0008 20.1315 -0.0002 8.0399
# 5 3.3497 -1.3071 -4.3126 -0.0002 39.8480 0.0002
# 6 -0.0010 -0.0008 -0.0008 8.0399 0.0002 2.9313
#
#
#
# Elastic Compliance Matrix: (Units=1/GPa)
#
#
# Indices 1 2 3 4 5 6 
#
# 1 0.008936 0.000017 -0.002283 0.000014 -0.000998 -0.000036
# 2 0.000017 0.026237 0.002461 0.000040 0.001126 -0.000102
# 3 -0.002283 0.002461 0.008861 0.000013 0.001232 -0.000033
# 4 0.000014 0.000040 0.000013 -0.520942 -0.000008 1.428801
# 5 -0.000998 0.001126 0.001232 -0.000008 0.025349 0.000021
# 6 -0.000036 -0.000102 -0.000033 1.428801 0.000021 -3.577671
#
#
# Mechanical properties :
#
#
# Convention : Reuss Voigt Hill
#
# Bulk Modulus (GPa) = 22.51085 35.30507 28.90796
# Shear Modulus (GPa) = -1.24539 30.42337 14.58899
#
# Velocity S-wave (km/s) = -0.76913 3.80145 2.63244
# Velocity P-wave (km/s) = 3.14704 6.00315 4.79279
#
# Compressibility (1/GPa) = 0.04442302
#
# Stress axis : x y z
#
# Youngs Moduli (GPa) = 111.91101 38.11458 112.85666
#
# Poissons Ratio (x) = -0.00064 0.25766
# Poissons Ratio (y) = -0.00189 -0.27775
# Poissons Ratio (z) = 0.25550 -0.09380
#
# Static dielectric constant tensor:
#      x y z
#    x 1.727330 0.000000 -0.000020 
#    y 0.000000 1.787150 0.000000 
#    z -0.000020 0.000000 1.713730 
# 
# From -- ./inp_files/220593.got.cif
#   From: 2010.05.17/outbox.cif.g08.bks.cpg/sg12_111_cif.got.tgz:220593.got - 2010.06.03 13:09:07.
