data_PCOD9188984
_publ_section_title
;
Structure prediction by ZEFSAII (Michael W. Deem and Ramdas Pophale) SiO2 
 PCOD9188984
Probable space group: C 2/M
;
_chemical_formula_sum "Si O2"
_cell_formula_units_Z 64
_cell_length_a 15.186929
_cell_length_b 16.965895
_cell_length_c 14.052449
_cell_angle_alpha 90.000000
_cell_angle_beta 127.936166
_cell_angle_gamma 90.000000
_cell_volume 2855.673118
_symmetry_space_group_name_H-M "C 2/M"
_symmetry_group_IT_number 12
_symmetry_cell_setting 'monoclinic'
loop_
_space_group_symop_operation_xyz
x,y,z
-x,y,-z
-x,-y,-z
x,-y,z
1/2+x,1/2+y,z
1/2-x,1/2+y,-z
1/2-x,1/2-y,-z
1/2+x,1/2-y,z
loop_
_atom_site_type_symbol
_atom_site_label
_atom_site_fract_x
_atom_site_fract_y
_atom_site_fract_z
Si Si1 0.971341 0.584001 0.762265
Si Si2 0.302833 0.667066 0.567177
Si Si3 0.711190 0.714865 0.797260
Si Si4 0.384987 0.663926 0.964006
Si Si5 0.134495 0.091364 0.588109
Si Si6 0.005366 0.248807 0.788164
Si Si7 0.095095 0.588698 0.502209
Si Si8 0.226411 0.413666 0.002314
O O1 0.925010 0.500000 0.768892
O O2 0.935620 0.671999 0.765247
O O3 0.100384 0.586007 0.879626
O O4 0.950067 0.583520 0.635438
O O5 0.250000 0.750000 0.500000
O O6 0.320182 0.611490 0.487117
O O7 0.420466 0.683538 0.694213
O O8 0.213077 0.629925 0.577830
O O9 0.680889 0.658536 0.689456
O O10 0.600302 0.756090 0.768965
O O11 0.805389 0.781780 0.845347
O O12 0.753498 0.654418 0.907525
O O13 0.430872 0.722518 0.075984
O O14 0.500000 0.629648 0.000000
O O15 0.307295 0.602583 0.967228
O O16 0.000000 0.098047 0.500000
O O17 0.161270 0.000000 0.630557
O O18 0.110310 0.500000 0.550053
O O19 0.000000 0.630608 0.500000
O O20 0.249837 0.500000 0.059580
#
# Coordination Sequence:
#
# PCOD9188984 Si02
#       8
#     8   8   8   8   8   8   8   8
#     4  10  19  36  64  90 124 169 217 273 329 393
#     4  12  25  39  65  96 128 172 220 269 326 396
#     4  11  21  42  68  92 130 174 214 275 333 396
#     4  11  24  38  61  94 132 169 219 280 326 390
#     4  11  25  45  68 100 136 172 218 275 336 401
#     4  11  21  42  61  95 126 169 227 271 327 391
#     4  10  23  42  62  90 130 173 216 270 329 393
#     4  10  20  39  66  91 121 172 222 268 331 399
#
# _framework density 22.411528000000001
#
# number of rings (size 3 to 8) (size 9 to 14) (size 15 to 20)
#    0.000    1.250    5.000    1.500    1.750    2.750 
#    0.000    0.625    0.000    1.125    0.000    0.000 
#    0.000    0.000    0.000    0.000    0.000    0.000 
#
# Total GULP energy -178769.492407 kJ/mol
# GULP energy per Si atom -5586.546638 kJ/mol
# Density = 2.236052 g / cm^3
# Si number density = 22.411528 Si / 1000 Ang^3
#
#
#
# Elastic Constant Matrix: (Units=GPa)
#
#
# Indices 1 2 3 4 5 6 
#
# 1 89.2569 -7.9888 16.0253 0.0000 25.8770 0.0000
# 2 -7.9888 63.0509 13.1329 0.0000 3.6942 0.0000
# 3 16.0253 13.1329 83.5822 0.0000 16.1724 0.0000
# 4 0.0000 0.0000 0.0000 -18.6989 0.0000 -32.0488
# 5 25.8770 3.6942 16.1724 0.0000 27.8206 0.0000
# 6 0.0000 0.0000 0.0000 -32.0488 0.0000 -0.4291
#
#
#
# Elastic Compliance Matrix: (Units=1/GPa)
#
#
# Indices 1 2 3 4 5 6 
#
# 1 0.015879 0.003015 -0.000657 0.000000 -0.014788 0.000000
# 2 0.003015 0.016984 -0.002555 0.000000 -0.003574 0.000000
# 3 -0.000657 -0.002555 0.013868 0.000000 -0.007111 0.000000
# 4 0.000000 0.000000 0.000000 0.000421 0.000000 -0.031448
# 5 -0.014788 -0.003574 -0.007111 0.000000 0.054308 0.000000
# 6 0.000000 0.000000 0.000000 -0.031448 0.000000 0.018348
#
#
# Mechanical properties :
#
#
# Convention : Reuss Voigt Hill
#
# Bulk Modulus (GPa) = 21.58122 30.91431 26.24777
# Shear Modulus (GPa) = 36.86046 16.05321 26.45684
#
# Velocity S-wave (km/s) = 4.05990 2.67927 3.43957
# Velocity P-wave (km/s) = 5.62383 4.83686 5.24513
#
# Compressibility (1/GPa) = 0.04633658
#
# Stress axis : x y z
#
# Youngs Moduli (GPa) = 62.97758 58.87943 72.11035
#
# Poissons Ratio (x) = -0.17753 0.04737
# Poissons Ratio (y) = -0.18989 0.18425
# Poissons Ratio (z) = 0.04137 0.15044
#
# Static dielectric constant tensor:
#      x y z
#    x 1.889390 0.000000 0.014980 
#    y 0.000000 1.872570 0.000000 
#    z 0.014980 0.000000 1.806530 
# 
# From -- ./inp_files/216861.got.cif
#   From: 2010.05.17/outbox.cif.g08.bks.cpg/sg12_109_cif.got.tgz:216861.got - 2010.06.03 13:09:07.
