data_PCOD9188711
_publ_section_title
;
Structure prediction by ZEFSAII (Michael W. Deem and Ramdas Pophale) SiO2 
 PCOD9188711
Probable space group: C 2/M
;
_chemical_formula_sum "Si O2"
_cell_formula_units_Z 64
_cell_length_a 17.445384
_cell_length_b 15.834880
_cell_length_c 23.169903
_cell_angle_alpha 90.000000
_cell_angle_beta 148.177000
_cell_angle_gamma 90.000000
_cell_volume 3375.007651
_symmetry_space_group_name_H-M "C 2/M"
_symmetry_group_IT_number 12
_symmetry_cell_setting 'monoclinic'
loop_
_space_group_symop_operation_xyz
x,y,z
-x,y,-z
-x,-y,-z
x,-y,z
1/2+x,1/2+y,z
1/2-x,1/2+y,-z
1/2-x,1/2-y,-z
1/2+x,1/2-y,z
loop_
_atom_site_type_symbol
_atom_site_label
_atom_site_fract_x
_atom_site_fract_y
_atom_site_fract_z
Si Si1 0.328674 0.260412 0.378755
Si Si2 0.909098 0.176279 0.189381
Si Si3 0.159823 0.903463 0.074529
Si Si4 0.649303 0.233938 0.736983
Si Si5 0.295814 0.593737 0.640452
Si Si6 0.932903 0.354050 0.735645
Si Si7 0.582137 0.093324 0.403939
Si Si8 0.775975 0.596126 0.021749
O O1 0.500000 0.273187 0.500000
O O2 0.296590 0.261554 0.290309
O O3 0.279490 0.168542 0.371675
O O4 0.223945 0.330203 0.340057
O O5 0.873020 0.188387 0.233578
O O6 0.032643 0.108486 0.253690
O O7 0.986571 0.264985 0.224799
O O8 0.774024 0.157768 0.061300
O O9 0.248970 0.833161 0.165371
O O10 0.182861 0.886206 0.020953
O O11 0.215069 0.000000 0.117688
O O12 0.000000 0.901580 0.000000
O O13 0.507227 0.176072 0.634674
O O14 0.262767 0.500000 0.642416
O O15 0.231986 0.599069 0.534733
O O16 0.912184 0.400222 0.661372
O O17 0.053780 0.398299 0.852644
O O18 0.520771 0.000000 0.380189
O O19 0.744300 0.500000 0.984226
#
# Coordination Sequence:
#
# PCOD9188711 Si02
#       8
#     8   8   8   8   8   8   8   8
#     4  11  24  38  56  87 123 157 192 243 303 351
#     4  10  22  36  59  85 118 157 199 242 283 346
#     4  10  22  35  54  87 125 157 188 239 301 358
#     4  11  22  36  57  83 120 155 194 240 294 353
#     4  10  22  37  58  88 122 159 196 235 294 354
#     4  10  22  36  62  85 116 157 202 242 287 352
#     4  10  19  36  61  86 113 152 200 242 285 347
#     4  11  21  39  62  85 115 156 203 243 290 350
#
# _framework density 18.962918999999999
#
# number of rings (size 3 to 8) (size 9 to 14) (size 15 to 20)
#    0.000    1.625    3.750    1.500    5.250    2.750 
#    0.000    0.000    0.000    5.250    0.000    0.000 
#    0.000    0.000    0.000    0.000    0.000    0.000 
#
# Total GULP energy -178412.766995 kJ/mol
# GULP energy per Si atom -5575.398969 kJ/mol
# Density = 1.891976 g / cm^3
# Si number density = 18.962919 Si / 1000 Ang^3
#
#
#
# Elastic Constant Matrix: (Units=GPa)
#
#
# Indices 1 2 3 4 5 6 
#
# 1 69.9485 19.3997 27.3775 -0.0005 -0.3024 -0.0007
# 2 19.3997 34.6722 5.6653 -0.0010 2.4137 -0.0013
# 3 27.3775 5.6653 66.7110 -0.0015 1.9994 -0.0016
# 4 -0.0005 -0.0010 -0.0015 27.5098 0.0001 -4.3476
# 5 -0.3024 2.4137 1.9994 0.0001 28.4400 0.0002
# 6 -0.0007 -0.0013 -0.0016 -4.3476 0.0002 27.9294
#
#
#
# Elastic Compliance Matrix: (Units=1/GPa)
#
#
# Indices 1 2 3 4 5 6 
#
# 1 0.019997 -0.010091 -0.007397 0.000000 0.001589 0.000000
# 2 -0.010091 0.034492 0.001306 0.000001 -0.003126 0.000002
# 3 -0.007397 0.001306 0.017958 0.000001 -0.001452 0.000001
# 4 0.000000 0.000001 0.000001 0.037267 0.000000 0.005801
# 5 0.001589 -0.003126 -0.001452 0.000000 0.035546 0.000000
# 6 0.000000 0.000002 0.000001 0.005801 0.000000 0.036708
#
#
# Mechanical properties :
#
#
# Convention : Reuss Voigt Hill
#
# Bulk Modulus (GPa) = 24.94844 30.69074 27.81959
# Shear Modulus (GPa) = 21.95937 24.70180 23.33059
#
# Velocity S-wave (km/s) = 3.40666 3.61312 3.51141
# Velocity P-wave (km/s) = 5.35339 5.79879 5.58053
#
# Compressibility (1/GPa) = 0.04008267
#
# Stress axis : x y z
#
# Youngs Moduli (GPa) = 50.00783 28.99251 55.68421
#
# Poissons Ratio (x) = 0.29255 0.41191
# Poissons Ratio (y) = 0.50461 -0.07270
# Poissons Ratio (z) = 0.36992 -0.03785
#
# Static dielectric constant tensor:
#      x y z
#    x 1.659960 0.000000 0.018940 
#    y 0.000000 1.676280 0.000000 
#    z 0.018940 0.000000 1.684440 
# 
# From -- ./inp_files/183789.got.cif
#   From: 2010.05.17/outbox.cif.g08.bks.cpg/sg12_92_cif.got.tgz:183789.got - 2010.06.03 13:09:07.
