data_PCOD9188621
_publ_section_title
;
Structure prediction by ZEFSAII (Michael W. Deem and Ramdas Pophale) SiO2 
 PCOD9188621
Probable space group: C 2/M
;
_chemical_formula_sum "Si O2"
_cell_formula_units_Z 52
_cell_length_a 17.922252
_cell_length_b 13.520243
_cell_length_c 19.760705
_cell_angle_alpha 90.000000
_cell_angle_beta 151.002766
_cell_angle_gamma 90.000000
_cell_volume 2321.201887
_symmetry_space_group_name_H-M "C 2/M"
_symmetry_group_IT_number 12
_symmetry_cell_setting 'monoclinic'
loop_
_space_group_symop_operation_xyz
x,y,z
-x,y,-z
-x,-y,-z
x,-y,z
1/2+x,1/2+y,z
1/2-x,1/2+y,-z
1/2-x,1/2-y,-z
1/2+x,1/2-y,z
loop_
_atom_site_type_symbol
_atom_site_label
_atom_site_fract_x
_atom_site_fract_y
_atom_site_fract_z
Si Si1 0.295092 0.835609 0.685286
Si Si2 0.093459 0.109351 0.243427
Si Si3 0.133542 0.827480 0.046922
Si Si4 0.754429 0.133333 0.503030
Si Si5 0.588650 0.893502 0.998716
Si Si6 0.041897 0.393358 0.642968
Si Si7 0.500000 0.724447 0.500000
O O1 0.322354 0.714752 0.704836
O O2 0.243426 0.886092 0.574585
O O3 0.453223 0.880987 0.836231
O O4 0.151670 0.842048 0.621401
O O5 0.108805 0.104635 0.337151
O O6 0.154521 0.000000 0.269350
O O7 0.937067 0.125558 0.077446
O O8 0.287950 0.880034 0.192551
O O9 0.173768 0.711756 0.066173
O O10 0.000000 0.833283 0.000000
O O11 0.750000 0.250000 0.500000
O O12 0.592792 0.103188 0.408179
O O13 0.668385 0.000000 0.052696
O O14 0.500000 0.896021 0.000000
O O15 0.036833 0.500000 0.603629
O O16 0.008332 0.298980 0.569874
#
# Coordination Sequence:
#
# PCOD9188621 Si02
#       7
#     8   8   8   8   8   8   4
#     4  10  22  38  62  91 125 167 214 269 323 380
#     4  10  19  36  60  87 128 171 207 252 317 387
#     4  10  22  38  59  96 135 170 206 273 332 383
#     4  10  21  41  59  84 129 175 220 258 308 378
#     4   9  18  37  63  85 115 165 219 263 314 374
#     4  12  24  37  65 101 134 174 217 258 323 402
#     4  12  21  36  63  94 136 164 209 264 335 386
#
# _framework density 22.402187999999999
#
# number of rings (size 3 to 8) (size 9 to 14) (size 15 to 20)
#    0.000    1.692    3.077    3.923    0.000    4.308 
#    0.000    7.308    0.000    9.231    0.000    0.000 
#    0.000    0.000    0.000    0.000    0.000    0.000 
#
# Total GULP energy -144839.376360 kJ/mol
# GULP energy per Si atom -5570.745245 kJ/mol
# Density = 2.235120 g / cm^3
# Si number density = 22.402188 Si / 1000 Ang^3
#
#
#
# Elastic Constant Matrix: (Units=GPa)
#
#
# Indices 1 2 3 4 5 6 
#
# 1 44.8654 18.0253 17.0935 -0.0007 -9.2609 -0.0002
# 2 18.0253 136.6558 16.0987 -0.0009 0.3162 -0.0002
# 3 17.0935 16.0987 97.1303 -0.0016 -16.6735 0.0001
# 4 -0.0007 -0.0009 -0.0016 -22.8548 -0.0007 -15.5194
# 5 -9.2609 0.3162 -16.6735 -0.0007 27.9720 0.0001
# 6 -0.0002 -0.0002 0.0001 -15.5194 0.0001 -58.7621
#
#
#
# Elastic Compliance Matrix: (Units=1/GPa)
#
#
# Indices 1 2 3 4 5 6 
#
# 1 0.026072 -0.003116 -0.002879 -0.000001 0.006951 0.000000
# 2 -0.003116 0.007857 -0.001054 0.000000 -0.001749 0.000000
# 3 -0.002879 -0.001054 0.012048 -0.000001 0.006240 0.000000
# 4 -0.000001 0.000000 -0.000001 -0.053316 -0.000002 0.014081
# 5 0.006951 -0.001749 0.006240 -0.000002 0.041791 0.000001
# 6 0.000000 0.000000 0.000000 0.014081 0.000001 -0.020737
#
#
# Mechanical properties :
#
#
# Convention : Reuss Voigt Hill
#
# Bulk Modulus (GPa) = 31.36769 42.34292 36.85531
# Shear Modulus (GPa) = 130.07474 4.43329 67.25401
#
# Velocity S-wave (km/s) = 7.62820 1.40828 5.48510
# Velocity P-wave (km/s) = 9.57175 4.64614 7.52346
#
# Compressibility (1/GPa) = 0.03187993
#
# Stress axis : x y z
#
# Youngs Moduli (GPa) = 38.35470 127.27693 83.00147
#
# Poissons Ratio (x) = 0.39659 0.23893
# Poissons Ratio (y) = 0.11951 0.08749
# Poissons Ratio (z) = 0.11041 0.13416
#
# Static dielectric constant tensor:
#      x y z
#    x 1.856030 0.000000 -0.029610 
#    y 0.000000 1.850020 0.000000 
#    z -0.029610 0.000000 1.819520 
# 
# From -- ./inp_files/316544.got.cif
#   From: 2010.05.17/outbox.cif.g08.bks.cpg/sg12_159_cif.got.tgz:316544.got - 2010.06.03 13:09:07.
