data_PCOD9188404
_publ_section_title
;
Structure prediction by ZEFSAII (Michael W. Deem and Ramdas Pophale) SiO2 
 PCOD9188404
Probable space group: C 2/M
;
_chemical_formula_sum "Si O2"
_cell_formula_units_Z 42
_cell_length_a 31.202489
_cell_length_b 7.348520
_cell_length_c 8.021841
_cell_angle_alpha 90.000000
_cell_angle_beta 69.092070
_cell_angle_gamma 90.000000
_cell_volume 1718.233389
_symmetry_space_group_name_H-M "C 2/M"
_symmetry_group_IT_number 12
_symmetry_cell_setting 'monoclinic'
loop_
_space_group_symop_operation_xyz
x,y,z
-x,y,-z
-x,-y,-z
x,-y,z
1/2+x,1/2+y,z
1/2-x,1/2+y,-z
1/2-x,1/2-y,-z
1/2+x,1/2-y,z
loop_
_atom_site_type_symbol
_atom_site_label
_atom_site_fract_x
_atom_site_fract_y
_atom_site_fract_z
Si Si1 0.238341 0.716484 0.826100
Si Si2 0.500000 0.500000 0.500000
Si Si3 0.333935 0.281496 0.550419
Si Si4 0.070672 0.287939 0.457295
Si Si5 0.549309 0.777986 0.870400
Si Si6 0.358159 0.204501 0.143241
O O1 0.235460 0.500000 0.796006
O O2 0.282786 0.783040 0.664341
O O3 0.187899 0.793408 0.861581
O O4 0.250000 0.750000 0.000000
O O5 0.538083 0.659431 0.397890
O O6 0.333257 0.500000 0.534351
O O7 0.374138 0.236886 0.627135
O O8 0.348501 0.196967 0.355105
O O9 0.060415 0.500000 0.448426
O O10 0.058028 0.226779 0.665803
O O11 0.591152 0.713598 0.928629
O O12 0.550532 0.000000 0.871990
O O13 0.500000 0.717405 0.000000
O O14 0.361485 0.000000 0.067546
#
# Coordination Sequence:
#
# PCOD9188404 Si02
#       6
#     8   2   8   8   8   8
#     4  10  22  37  54  82 120 155 194 248 306 363
#     4  12  22  40  58  86 128 152 206 250 286 346
#     4  10  19  36  59  83 114 151 199 251 298 352
#     4  10  21  38  61  87 116 161 200 242 299 354
#     4   8  15  32  57  84 114 148 195 247 293 349
#     4   9  18  34  57  83 109 152 202 243 296 358
#
# _framework density 24.443712000000001
#
# number of rings (size 3 to 8) (size 9 to 14) (size 15 to 20)
#    0.000    2.476    0.952    2.571    0.000    2.286 
#    3.429    0.476    0.000    0.000    0.000    0.000 
#    0.000    0.000    0.000    0.000    0.000    0.000 
#
# Total GULP energy -117069.069606 kJ/mol
# GULP energy per Si atom -5574.717600 kJ/mol
# Density = 2.438808 g / cm^3
# Si number density = 24.443712 Si / 1000 Ang^3
#
#
#
# Elastic Constant Matrix: (Units=GPa)
#
#
# Indices 1 2 3 4 5 6 
#
# 1 221.5792 18.9526 35.8206 0.0000 -41.5613 0.0000
# 2 18.9526 143.2543 -8.8461 0.0000 -3.6611 0.0000
# 3 35.8206 -8.8461 36.3733 0.0000 -26.1150 0.0000
# 4 0.0000 0.0000 0.0000 4.3261 0.0000 4.3961
# 5 -41.5613 -3.6611 -26.1150 0.0000 35.3210 0.0000
# 6 0.0000 0.0000 0.0000 4.3961 0.0000 -7.9574
#
#
#
# Elastic Compliance Matrix: (Units=1/GPa)
#
#
# Indices 1 2 3 4 5 6 
#
# 1 0.005927 -0.000794 -0.002306 0.000000 0.005186 0.000000
# 2 -0.000794 0.007511 0.005322 0.000000 0.003779 0.000000
# 3 -0.002306 0.005322 0.062891 0.000000 0.044338 0.000000
# 4 0.000000 0.000000 0.000000 0.148042 0.000000 0.081787
# 5 0.005186 0.003779 0.044338 0.000000 0.067588 0.000000
# 6 0.000000 0.000000 0.000000 0.081787 0.000000 -0.080486
#
#
# Mechanical properties :
#
#
# Convention : Reuss Voigt Hill
#
# Bulk Modulus (GPa) = 12.38048 54.78455 33.58251
# Shear Modulus (GPa) = 21.37181 30.02328 25.69754
#
# Velocity S-wave (km/s) = 2.96011 3.50846 3.24588
# Velocity P-wave (km/s) = 4.09376 6.23487 5.27411
#
# Compressibility (1/GPa) = 0.08077232
#
# Stress axis : x y z
#
# Youngs Moduli (GPa) = 168.73234 133.14097 15.90055
#
# Poissons Ratio (x) = 0.10570 0.03666
# Poissons Ratio (y) = 0.13396 -0.08462
# Poissons Ratio (z) = 0.38907 -0.70855
#
# Static dielectric constant tensor:
#      x y z
#    x 2.046550 0.000000 0.001070 
#    y 0.000000 1.933230 0.000000 
#    z 0.001070 0.000000 1.922780 
# 
# From -- ./inp_files/107851.got.cif
#   From: 2010.05.17/outbox.cif.g08.bks.cpg/sg12_54_cif.got.tgz:107851.got - 2010.06.03 13:09:07.
