data_PCOD9188798
_publ_section_title
;
Structure prediction by ZEFSAII (Michael W. Deem and Ramdas Pophale) SiO2 
 PCOD9188798
Probable space group: C 2/M
;
_chemical_formula_sum "Si O2"
_cell_formula_units_Z 56
_cell_length_a 19.918481
_cell_length_b 27.163111
_cell_length_c 9.842770
_cell_angle_alpha 90.000000
_cell_angle_beta 151.840675
_cell_angle_gamma 90.000000
_cell_volume 2513.194167
_symmetry_space_group_name_H-M "C 2/M"
_symmetry_group_IT_number 12
_symmetry_cell_setting 'monoclinic'
loop_
_space_group_symop_operation_xyz
x,y,z
-x,y,-z
-x,-y,-z
x,-y,z
1/2+x,1/2+y,z
1/2-x,1/2+y,-z
1/2-x,1/2-y,-z
1/2+x,1/2-y,z
loop_
_atom_site_type_symbol
_atom_site_label
_atom_site_fract_x
_atom_site_fract_y
_atom_site_fract_z
Si Si1 0.393651 0.442872 0.987369
Si Si2 0.769583 0.057319 0.335603
Si Si3 0.951014 0.309186 0.635567
Si Si4 0.782216 0.307787 0.056059
Si Si5 0.229061 0.625529 0.481162
Si Si6 0.620335 0.718895 0.328428
Si Si7 0.657555 0.591870 0.817293
O O1 0.374395 0.500000 0.910178
O O2 0.330122 0.404086 0.766835
O O3 0.562687 0.435977 0.319726
O O4 0.311552 0.432200 0.982396
O O5 0.676251 0.086682 0.277310
O O6 0.750741 0.075588 0.147929
O O7 0.740607 0.000000 0.289668
O O8 0.862433 0.318210 0.340894
O O9 0.885864 0.342976 0.638268
O O10 0.934311 0.251350 0.644453
O O11 0.113412 0.317360 0.884814
O O12 0.750000 0.250000 0.000000
O O13 0.661403 0.348948 0.835440
O O14 0.320566 0.664296 0.554242
O O15 0.750000 0.750000 0.500000
O O16 0.500000 0.717708 0.000000
O O17 0.500000 0.574368 0.500000
#
# Coordination Sequence:
#
# PCOD9188798 Si02
#       7
#     8   8   8   8   8   8   8
#     4  10  19  36  61  91 126 165 208 263 316 369
#     4  10  21  35  59  97 127 159 209 263 318 373
#     4  10  25  42  60  90 124 166 207 258 309 379
#     4  11  25  41  64  88 123 161 216 260 307 378
#     4  11  21  38  61  88 127 166 206 257 317 384
#     4  10  23  38  60  88 127 165 205 249 313 377
#     4  10  22  39  65  91 126 165 207 263 321 369
#
# _framework density 22.282402000000001
#
# number of rings (size 3 to 8) (size 9 to 14) (size 15 to 20)
#    0.000    1.714    1.429    2.143    8.000    5.143 
#    0.000    0.000    0.000    5.143    0.000    0.000 
#    0.000    0.000    0.000    0.000    0.000    0.000 
#
# Total GULP energy -156421.782576 kJ/mol
# GULP energy per Si atom -5586.492235 kJ/mol
# Density = 2.223169 g / cm^3
# Si number density = 22.282402 Si / 1000 Ang^3
#
#
#
# Elastic Constant Matrix: (Units=GPa)
#
#
# Indices 1 2 3 4 5 6 
#
# 1 118.3972 45.8416 13.7094 0.0000 -21.3150 0.0000
# 2 45.8416 145.5876 6.2051 0.0000 -9.3967 0.0000
# 3 13.7094 6.2051 19.0336 0.0000 -3.7923 0.0000
# 4 0.0000 0.0000 0.0000 126.2480 0.0000 27.8480
# 5 -21.3150 -9.3967 -3.7923 0.0000 26.2646 0.0000
# 6 0.0000 0.0000 0.0000 27.8480 0.0000 48.3309
#
#
#
# Elastic Compliance Matrix: (Units=1/GPa)
#
#
# Indices 1 2 3 4 5 6 
#
# 1 0.011617 -0.002920 -0.005915 0.000000 0.007529 0.000000
# 2 -0.002920 0.007828 -0.000374 0.000000 0.000377 0.000000
# 3 -0.005915 -0.000374 0.057595 0.000000 0.003382 0.000000
# 4 0.000000 0.000000 0.000000 0.009074 0.000000 -0.005229
# 5 0.007529 0.000377 0.003382 0.000000 0.044808 0.000000
# 6 0.000000 0.000000 0.000000 -0.005229 0.000000 0.023703
#
#
# Mechanical properties :
#
#
# Convention : Reuss Voigt Hill
#
# Bulk Modulus (GPa) = 17.05838 46.05897 31.55867
# Shear Modulus (GPa) = 25.96258 54.65285 40.30771
#
# Velocity S-wave (km/s) = 3.41715 4.95788 4.25779
# Velocity P-wave (km/s) = 4.82093 7.31366 6.19399
#
# Compressibility (1/GPa) = 0.05862222
#
# Stress axis : x y z
#
# Youngs Moduli (GPa) = 86.08018 127.74046 17.36256
#
# Poissons Ratio (x) = 0.37298 0.10271
# Poissons Ratio (y) = 0.25134 0.00649
# Poissons Ratio (z) = 0.50921 0.04776
#
# Static dielectric constant tensor:
#      x y z
#    x 1.860160 0.000000 0.029380 
#    y 0.000000 1.920300 0.000000 
#    z 0.029380 0.000000 1.862990 
# 
# From -- ./inp_files/80100.got.cif
#   From: 2010.05.17/outbox.cif.g08.bks.cpg/sg12_41_cif.got.tgz:80100.got - 2010.06.03 13:09:07.
