data_PCOD9188252
_publ_section_title
;
Structure prediction by ZEFSAII (Michael W. Deem and Ramdas Pophale) SiO2 
 PCOD9188252
Probable space group: C 2/M
;
_chemical_formula_sum "Si O2"
_cell_formula_units_Z 48
_cell_length_a 20.916849
_cell_length_b 7.580412
_cell_length_c 15.437919
_cell_angle_alpha 90.000000
_cell_angle_beta 70.335165
_cell_angle_gamma 90.000000
_cell_volume 2305.047672
_symmetry_space_group_name_H-M "C 2/M"
_symmetry_group_IT_number 12
_symmetry_cell_setting 'monoclinic'
loop_
_space_group_symop_operation_xyz
x,y,z
-x,y,-z
-x,-y,-z
x,-y,z
1/2+x,1/2+y,z
1/2-x,1/2+y,-z
1/2-x,1/2-y,-z
1/2+x,1/2-y,z
loop_
_atom_site_type_symbol
_atom_site_label
_atom_site_fract_x
_atom_site_fract_y
_atom_site_fract_z
Si Si1 0.829348 0.715985 0.743802
Si Si2 0.577663 0.215956 0.457318
Si Si3 0.926001 0.795379 0.052173
Si Si4 0.325610 0.209873 0.432406
Si Si5 0.820978 0.206542 0.236602
Si Si6 0.671701 0.210473 0.058975
O O1 0.829217 0.500000 0.742796
O O2 0.884341 0.772232 0.647777
O O3 0.754150 0.777833 0.749844
O O4 0.842340 0.771066 0.836501
O O5 0.500000 0.272560 0.500000
O O6 0.621378 0.274956 0.520108
O O7 0.578343 0.000000 0.457051
O O8 0.880424 0.715439 0.150054
O O9 0.938599 0.000000 0.070802
O O10 0.879028 0.788902 0.988549
O O11 0.000000 0.715756 0.000000
O O12 0.250000 0.250000 0.500000
O O13 0.335200 0.280738 0.331628
O O14 0.332814 0.000000 0.423743
O O15 0.816607 0.000000 0.214743
O O16 0.663057 0.000000 0.060040
O O17 0.750000 0.250000 0.000000
#
# Coordination Sequence:
#
# PCOD9188252 Si02
#       6
#     8   8   8   8   8   8
#     4   9  17  32  54  79 107 144 181 219 276 336
#     4   9  18  33  53  78 108 140 176 220 271 327
#     4  10  22  40  59  81 115 156 192 234 295 353
#     4  11  21  34  57  86 111 144 188 231 276 332
#     4  10  19  36  58  80 111 148 187 230 281 340
#     4  11  21  35  59  86 113 147 191 240 284 340
#
# _framework density 20.823865999999999
#
# number of rings (size 3 to 8) (size 9 to 14) (size 15 to 20)
#    0.000    2.000    3.333    1.000    0.000    2.333 
#    0.000    1.667    0.000    2.000    0.000    0.000 
#    0.000    0.000    0.000    0.000    0.000    0.000 
#
# Total GULP energy -134055.954433 kJ/mol
# GULP energy per Si atom -5585.664768 kJ/mol
# Density = 2.077647 g / cm^3
# Si number density = 20.823866 Si / 1000 Ang^3
#
#
#
# Elastic Constant Matrix: (Units=GPa)
#
#
# Indices 1 2 3 4 5 6 
#
# 1 163.5750 -13.6925 102.7091 0.0000 -24.4680 0.0000
# 2 -13.6925 45.4207 -12.2125 0.0000 -9.4943 0.0000
# 3 102.7091 -12.2125 213.3974 0.0000 -18.0105 0.0000
# 4 0.0000 0.0000 0.0000 14.0048 0.0000 12.5564
# 5 -24.4680 -9.4943 -18.0105 0.0000 39.3878 0.0000
# 6 0.0000 0.0000 0.0000 12.5564 0.0000 9.5985
#
#
#
# Elastic Compliance Matrix: (Units=1/GPa)
#
#
# Indices 1 2 3 4 5 6 
#
# 1 0.009617 0.002808 -0.004063 0.000000 0.004793 0.000000
# 2 0.002808 0.024746 0.000744 0.000000 0.008050 0.000000
# 3 -0.004063 0.000744 0.006747 0.000000 0.000740 0.000000
# 4 0.000000 0.000000 0.000000 -0.413056 0.000000 0.540344
# 5 0.004793 0.008050 0.000740 0.000000 0.030645 0.000000
# 6 0.000000 0.000000 0.000000 0.540344 0.000000 -0.602674
#
#
# Mechanical properties :
#
#
# Convention : Reuss Voigt Hill
#
# Bulk Modulus (GPa) = 24.94571 64.00015 44.47293
# Shear Modulus (GPa) = -5.37871 35.63749 15.12939
#
# Velocity S-wave (km/s) = -1.60890 4.14137 2.69837
# Velocity P-wave (km/s) = 2.92472 7.32589 5.57775
#
# Compressibility (1/GPa) = 0.04008705
#
# Stress axis : x y z
#
# Youngs Moduli (GPa) = 103.98423 40.41123 148.21726
#
# Poissons Ratio (x) = -0.11349 0.60226
# Poissons Ratio (y) = -0.29203 -0.11025
# Poissons Ratio (z) = 0.42253 -0.03006
#
# Static dielectric constant tensor:
#      x y z
#    x 1.714480 0.000000 -0.015510 
#    y 0.000000 1.780090 0.000000 
#    z -0.015510 0.000000 1.722910 
# 
# From -- ./inp_files/229893.got.cif
#   From: 2010.05.17/outbox.cif.g08.bks.cpg/sg12_115_cif.got.tgz:229893.got - 2010.06.03 13:09:07.
