data_PCOD9188832
_publ_section_title
;
Structure prediction by ZEFSAII (Michael W. Deem and Ramdas Pophale) SiO2 
 PCOD9188832
Probable space group: C 2/M
;
_chemical_formula_sum "Si O2"
_cell_formula_units_Z 56
_cell_length_a 30.987839
_cell_length_b 7.425944
_cell_length_c 11.697913
_cell_angle_alpha 90.000000
_cell_angle_beta 54.183890
_cell_angle_gamma 90.000000
_cell_volume 2182.821789
_symmetry_space_group_name_H-M "C 2/M"
_symmetry_group_IT_number 12
_symmetry_cell_setting 'monoclinic'
loop_
_space_group_symop_operation_xyz
x,y,z
-x,y,-z
-x,-y,-z
x,-y,z
1/2+x,1/2+y,z
1/2-x,1/2+y,-z
1/2-x,1/2-y,-z
1/2+x,1/2-y,z
loop_
_atom_site_type_symbol
_atom_site_label
_atom_site_fract_x
_atom_site_fract_y
_atom_site_fract_z
Si Si1 0.551800 0.287645 0.496985
Si Si2 0.786722 0.279009 0.736891
Si Si3 0.847294 0.284554 0.414332
Si Si4 0.319672 0.287170 0.216523
Si Si5 0.578043 0.793593 0.068334
Si Si6 0.036749 0.297681 0.778133
Si Si7 0.641433 0.796324 0.185168
O O1 0.500000 0.271551 0.500000
O O2 0.562652 0.500000 0.497330
O O3 0.539926 0.198381 0.635493
O O4 0.599782 0.200715 0.354087
O O5 0.787921 0.500000 0.737744
O O6 0.823838 0.221253 0.571725
O O7 0.727512 0.223134 0.792774
O O8 0.807711 0.215608 0.827985
O O9 0.853212 0.500000 0.416691
O O10 0.809546 0.248279 0.365360
O O11 0.905661 0.210348 0.288988
O O12 0.323936 0.500000 0.193636
O O13 0.376009 0.204490 0.096017
O O14 0.521958 0.715368 0.110796
O O15 0.608160 0.710564 0.132349
O O16 0.564328 0.000000 0.121569
O O17 0.037248 0.500000 0.827783
O O18 0.654712 0.000000 0.127810
#
# Coordination Sequence:
#
# PCOD9188832 Si02
#       7
#     8   8   8   8   8   8   8
#     4  11  21  31  50  86 126 153 178 226 291 348
#     4   9  19  37  62  89 112 144 191 243 289 332
#     4  10  20  38  64  87 110 142 193 250 287 329
#     4  11  24  40  57  80 118 158 191 234 291 345
#     4  10  22  38  59  86 114 151 196 234 275 340
#     4  10  20  36  61  87 111 148 194 239 281 332
#     4  10  19  36  62  86 112 148 196 238 276 335
#
# _framework density 25.654866999999999
#
# number of rings (size 3 to 8) (size 9 to 14) (size 15 to 20)
#    0.000    1.857    2.857    1.286    0.000    3.429 
#    0.000    5.000    0.000    0.000    0.000    0.000 
#    0.000    0.000    0.000    0.000    0.000    0.000 
#
# Total GULP energy -156465.299301 kJ/mol
# GULP energy per Si atom -5588.046404 kJ/mol
# Density = 2.559648 g / cm^3
# Si number density = 25.654867 Si / 1000 Ang^3
#
#
#
# Elastic Constant Matrix: (Units=GPa)
#
#
# Indices 1 2 3 4 5 6 
#
# 1 102.6527 15.2078 16.0289 0.0000 -20.4810 0.0000
# 2 15.2078 92.2940 -4.2303 0.0000 -0.9163 0.0000
# 3 16.0289 -4.2303 70.7480 0.0000 -19.3048 0.0000
# 4 0.0000 0.0000 0.0000 2.8991 0.0000 7.9954
# 5 -20.4810 -0.9163 -19.3048 0.0000 34.7554 0.0000
# 6 0.0000 0.0000 0.0000 7.9954 0.0000 5.6510
#
#
#
# Elastic Compliance Matrix: (Units=1/GPa)
#
#
# Indices 1 2 3 4 5 6 
#
# 1 0.011394 -0.001864 -0.001030 0.000000 0.006093 0.000000
# 2 -0.001864 0.011187 0.001028 0.000000 -0.000233 0.000000
# 3 -0.001030 0.001028 0.016821 0.000000 0.008763 0.000000
# 4 0.000000 0.000000 0.000000 -0.118859 0.000000 0.168169
# 5 0.006093 -0.000233 0.008763 0.000000 0.037224 0.000000
# 6 0.000000 0.000000 0.000000 0.168169 0.000000 -0.060976
#
#
# Mechanical properties :
#
#
# Convention : Reuss Voigt Hill
#
# Bulk Modulus (GPa) = 28.03621 35.52305 31.77963
# Shear Modulus (GPa) = -57.08659 24.57367 -16.25646
#
# Velocity S-wave (km/s) = -4.72229 3.09828 -2.51999
# Velocity P-wave (km/s) = 4.33376 5.16485 1.98674
#
# Compressibility (1/GPa) = 0.03566816
#
# Stress axis : x y z
#
# Youngs Moduli (GPa) = 87.76291 89.39016 59.45060
#
# Poissons Ratio (x) = 0.16665 0.06126
# Poissons Ratio (y) = 0.16361 -0.06110
# Poissons Ratio (z) = 0.09043 -0.09187
#
# Static dielectric constant tensor:
#      x y z
#    x 2.091340 0.000000 -0.024300 
#    y 0.000000 2.026550 0.000000 
#    z -0.024300 0.000000 1.965230 
# 
# From -- ./inp_files/181133.got.cif
#   From: 2010.05.17/outbox.cif.g08.bks.cpg/sg12_91_cif.got.tgz:181133.got - 2010.06.03 13:09:07.
