data_PCOD9188395
_publ_section_title
;
Structure prediction by ZEFSAII (Michael W. Deem and Ramdas Pophale) SiO2 
 PCOD9188395
Probable space group: C 2/M
;
_chemical_formula_sum "Si O2"
_cell_formula_units_Z 48
_cell_length_a 15.546346
_cell_length_b 7.740984
_cell_length_c 19.718314
_cell_angle_alpha 90.000000
_cell_angle_beta 90.573024
_cell_angle_gamma 90.000000
_cell_volume 2372.862413
_symmetry_space_group_name_H-M "C 2/M"
_symmetry_group_IT_number 12
_symmetry_cell_setting 'monoclinic'
loop_
_space_group_symop_operation_xyz
x,y,z
-x,y,-z
-x,-y,-z
x,-y,z
1/2+x,1/2+y,z
1/2-x,1/2+y,-z
1/2-x,1/2-y,-z
1/2+x,1/2-y,z
loop_
_atom_site_type_symbol
_atom_site_label
_atom_site_fract_x
_atom_site_fract_y
_atom_site_fract_z
Si Si1 0.529633 0.788270 0.575608
Si Si2 0.370955 0.787573 0.827064
Si Si3 0.022089 0.294840 0.925513
Si Si4 0.275563 0.793875 0.423130
Si Si5 0.618720 0.204038 0.326251
Si Si6 0.281178 0.705713 0.076114
O O1 0.500000 0.735946 0.500000
O O2 0.627279 0.731676 0.589177
O O3 0.461061 0.725923 0.630424
O O4 0.529010 0.000000 0.575797
O O5 0.456207 0.730251 0.868198
O O6 0.371494 0.726292 0.749595
O O7 0.288190 0.730074 0.869713
O O8 0.369228 0.000000 0.826320
O O9 0.006294 0.500000 0.928939
O O10 0.122173 0.269069 0.911518
O O11 0.000000 0.222345 0.000000
O O12 0.250000 0.750000 0.500000
O O13 0.204809 0.724385 0.370915
O O14 0.275513 0.000000 0.416730
O O15 0.602047 0.000000 0.318825
O O16 0.282879 0.500000 0.080994
O O17 0.250000 0.750000 0.000000
#
# Coordination Sequence:
#
# PCOD9188395 Si02
#       6
#     8   8   8   8   8   8
#     4   9  17  32  55  80 104 138 181 219 263 327
#     4   9  20  37  57  80 112 149 183 225 286 344
#     4  10  19  36  59  83 110 145 189 234 279 336
#     4  11  21  35  57  85 112 143 185 232 275 327
#     4  10  20  38  59  79 109 149 185 226 281 334
#     4  11  21  36  57  85 113 147 190 234 281 338
#
# _framework density 20.228732999999998
#
# number of rings (size 3 to 8) (size 9 to 14) (size 15 to 20)
#    0.000    2.000    3.333    1.000    0.000    1.667 
#    0.000    6.667    0.000    0.000    0.000    0.000 
#    0.000    0.000    0.000    0.000    0.000    0.000 
#
# Total GULP energy -134035.933428 kJ/mol
# GULP energy per Si atom -5584.830559 kJ/mol
# Density = 2.018269 g / cm^3
# Si number density = 20.228733 Si / 1000 Ang^3
#
#
#
# Elastic Constant Matrix: (Units=GPa)
#
#
# Indices 1 2 3 4 5 6 
#
# 1 197.4440 -18.0768 117.0217 0.0000 -10.2423 0.0000
# 2 -18.0768 21.4947 -2.2936 0.0000 -4.2015 0.0000
# 3 117.0217 -2.2936 209.1700 0.0000 -9.9248 0.0000
# 4 0.0000 0.0000 0.0000 10.5735 0.0000 4.1676
# 5 -10.2423 -4.2015 -9.9248 0.0000 32.4467 0.0000
# 6 0.0000 0.0000 0.0000 4.1676 0.0000 27.1906
#
#
#
# Elastic Compliance Matrix: (Units=1/GPa)
#
#
# Indices 1 2 3 4 5 6 
#
# 1 0.008565 0.007145 -0.004608 0.000000 0.002219 0.000000
# 2 0.007145 0.053834 -0.003013 0.000000 0.008305 0.000000
# 3 -0.004608 -0.003013 0.007345 0.000000 0.000402 0.000000
# 4 0.000000 0.000000 0.000000 0.100657 0.000000 -0.015428
# 5 0.002219 0.008305 0.000402 0.000000 0.032719 0.000000
# 6 0.000000 0.000000 0.000000 -0.015428 0.000000 0.039142
#
#
# Mechanical properties :
#
#
# Convention : Reuss Voigt Hill
#
# Bulk Modulus (GPa) = 14.53649 69.04568 41.79109
# Shear Modulus (GPa) = 18.78677 36.13933 27.46305
#
# Velocity S-wave (km/s) = 3.05079 4.23133 3.68859
# Velocity P-wave (km/s) = 4.42848 7.62094 6.23258
#
# Compressibility (1/GPa) = 0.06879240
#
# Stress axis : x y z
#
# Youngs Moduli (GPa) = 116.75037 18.57554 136.14804
#
# Poissons Ratio (x) = -0.13273 0.62740
# Poissons Ratio (y) = -0.83423 0.41024
# Poissons Ratio (z) = 0.53801 0.05597
#
# Static dielectric constant tensor:
#      x y z
#    x 1.681260 0.000000 -0.022170 
#    y 0.000000 1.758020 0.000000 
#    z -0.022170 0.000000 1.684980 
# 
# From -- ./inp_files/267598.got.cif
#   From: 2010.05.17/outbox.cif.g08.bks.cpg/sg12_134_cif.got.tgz:267598.got - 2010.06.03 13:09:07.
