data_PCOD9188167
_publ_section_title
;
Structure prediction by ZEFSAII (Michael W. Deem and Ramdas Pophale) SiO2 
 PCOD9188167
Probable space group: C 2/M
;
_chemical_formula_sum "Si O2"
_cell_formula_units_Z 64
_cell_length_a 9.521125
_cell_length_b 27.072547
_cell_length_c 14.523922
_cell_angle_alpha 90.000000
_cell_angle_beta 114.353229
_cell_angle_gamma 90.000000
_cell_volume 3410.589714
_symmetry_space_group_name_H-M "C 2/M"
_symmetry_group_IT_number 12
_symmetry_cell_setting 'monoclinic'
loop_
_space_group_symop_operation_xyz
x,y,z
-x,y,-z
-x,-y,-z
x,-y,z
1/2+x,1/2+y,z
1/2-x,1/2+y,-z
1/2-x,1/2-y,-z
1/2+x,1/2-y,z
loop_
_atom_site_type_symbol
_atom_site_label
_atom_site_fract_x
_atom_site_fract_y
_atom_site_fract_z
Si Si1 0.521949 0.228296 0.877293
Si Si2 0.998160 0.297660 0.658931
Si Si3 0.851093 0.790781 0.403080
Si Si4 0.924108 0.401339 0.383847
Si Si5 0.123079 0.059194 0.394247
Si Si6 0.672900 0.621916 0.744301
Si Si7 0.206827 0.444183 0.371719
Si Si8 0.254620 0.187631 0.926520
O O1 0.503445 0.221026 0.764602
O O2 0.361109 0.221082 0.886604
O O3 0.602727 0.281409 0.910931
O O4 0.636870 0.187594 0.954020
O O5 0.812867 0.295031 0.588244
O O6 0.100814 0.263161 0.620916
O O7 0.067952 0.352300 0.674354
O O8 0.842932 0.826475 0.313200
O O9 0.000000 0.808061 0.500000
O O10 0.763492 0.425067 0.366675
O O11 0.000000 0.383827 0.500000
O O12 0.040441 0.441036 0.373395
O O13 0.175418 0.071805 0.514102
O O14 0.978439 0.089367 0.316671
O O15 0.101088 0.000000 0.386657
O O16 0.794840 0.591023 0.716980
O O17 0.716172 0.637859 0.859668
O O18 0.246534 0.500000 0.356968
#
# Coordination Sequence:
#
# PCOD9188167 Si02
#       8
#     8   8   8   8   8   8   8   8
#     4  10  19  38  55  79 107 142 187 235 277 323
#     4  12  22  38  54  80 112 156 188 225 276 337
#     4  12  25  35  52  79 121 156 189 219 270 339
#     4  10  21  35  54  79 110 146 191 228 273 335
#     4  10  22  36  55  82 113 149 190 237 286 338
#     4  12  21  35  54  83 111 148 185 228 283 336
#     4  10  19  36  57  79 111 148 189 239 286 338
#     4  10  21  35  58  78 106 141 188 240 278 319
#
# _framework density 18.765083000000001
#
# number of rings (size 3 to 8) (size 9 to 14) (size 15 to 20)
#    0.000    1.250    3.750    2.625    3.500    3.500 
#    0.000    0.000    0.000    0.000    0.000   19.250 
#    0.000    0.000    0.000    0.000    0.000    0.000 
#
# Total GULP energy -178488.934683 kJ/mol
# GULP energy per Si atom -5577.779209 kJ/mol
# Density = 1.872237 g / cm^3
# Si number density = 18.765083 Si / 1000 Ang^3
#
#
#
# Elastic Constant Matrix: (Units=GPa)
#
#
# Indices 1 2 3 4 5 6 
#
# 1 53.7178 25.4590 -5.0251 0.0000 -3.6774 0.0000
# 2 25.4590 76.5612 8.5175 0.0000 3.8197 0.0000
# 3 -5.0251 8.5175 48.4251 0.0000 0.0511 0.0000
# 4 0.0000 0.0000 0.0000 -33.0891 0.0000 34.9538
# 5 -3.6774 3.8197 0.0511 0.0000 15.0411 0.0000
# 6 0.0000 0.0000 0.0000 34.9538 0.0000 -1.9082
#
#
#
# Elastic Compliance Matrix: (Units=1/GPa)
#
#
# Indices 1 2 3 4 5 6 
#
# 1 0.023662 -0.008709 0.003979 0.000000 0.007983 0.000000
# 2 -0.008709 0.016701 -0.003835 0.000000 -0.006358 0.000000
# 3 0.003979 -0.003835 0.021736 0.000000 0.001873 0.000000
# 4 0.000000 0.000000 0.000000 0.001647 0.000000 0.030168
# 5 0.007983 -0.006358 0.001873 0.000000 0.070044 0.000000
# 6 0.000000 0.000000 0.000000 0.030168 0.000000 0.028559
#
#
# Mechanical properties :
#
#
# Convention : Reuss Voigt Hill
#
# Bulk Modulus (GPa) = 22.23745 26.28968 24.26356
# Shear Modulus (GPa) = 25.71092 5.99228 15.85160
#
# Velocity S-wave (km/s) = 3.70557 1.78892 2.90959
# Velocity P-wave (km/s) = 5.49404 4.27870 4.92401
#
# Compressibility (1/GPa) = 0.04496918
#
# Stress axis : x y z
#
# Youngs Moduli (GPa) = 42.26135 59.87520 46.00695
#
# Poissons Ratio (x) = 0.52148 -0.18306
# Poissons Ratio (y) = 0.36807 0.17642
# Poissons Ratio (z) = -0.16816 0.22960
#
# Static dielectric constant tensor:
#      x y z
#    x 1.698160 0.000000 0.004660 
#    y 0.000000 1.652940 0.000000 
#    z 0.004660 0.000000 1.683350 
# 
# From -- ./inp_files/199905.got.cif
#   From: 2010.05.17/outbox.cif.g08.bks.cpg/sg12_100_cif.got.tgz:199905.got - 2010.06.03 13:09:07.
