data_PCOD9188723
_publ_section_title
;
Structure prediction by ZEFSAII (Michael W. Deem and Ramdas Pophale) SiO2 
 PCOD9188723
Probable space group: C 2/M
;
_chemical_formula_sum "Si O2"
_cell_formula_units_Z 52
_cell_length_a 18.834811
_cell_length_b 7.439930
_cell_length_c 23.179866
_cell_angle_alpha 90.000000
_cell_angle_beta 37.028802
_cell_angle_gamma 90.000000
_cell_volume 1956.111583
_symmetry_space_group_name_H-M "C 2/M"
_symmetry_group_IT_number 12
_symmetry_cell_setting 'monoclinic'
loop_
_space_group_symop_operation_xyz
x,y,z
-x,y,-z
-x,-y,-z
x,-y,z
1/2+x,1/2+y,z
1/2-x,1/2+y,-z
1/2-x,1/2-y,-z
1/2+x,1/2-y,z
loop_
_atom_site_type_symbol
_atom_site_label
_atom_site_fract_x
_atom_site_fract_y
_atom_site_fract_z
Si Si1 0.709876 0.000000 0.410137
Si Si2 0.214068 0.780864 0.939241
Si Si3 0.523907 0.207092 0.258500
Si Si4 0.606049 0.701404 0.542191
Si Si5 0.363991 0.709664 0.638196
Si Si6 0.839254 0.215759 0.150197
Si Si7 0.502896 0.717992 0.147650
O O1 0.704575 0.155506 0.464246
O O2 0.694828 0.156797 0.369220
O O3 0.346639 0.716247 0.841857
O O4 0.143582 0.728759 0.926686
O O5 0.217720 0.000000 0.939516
O O6 0.135290 0.721973 0.044434
O O7 0.454021 0.292180 0.356119
O O8 0.461615 0.218755 0.236732
O O9 0.540680 0.000000 0.264299
O O10 0.643429 0.500000 0.506017
O O11 0.498593 0.755827 0.567672
O O12 0.360322 0.500000 0.624314
O O13 0.291106 0.733458 0.744645
O O14 0.922369 0.282032 0.147351
O O15 0.850887 0.000000 0.142233
O O16 0.498344 0.500000 0.152486
#
# Coordination Sequence:
#
# PCOD9188723 Si02
#       7
#     4   8   8   8   8   8   8
#     4  12  23  38  64  94 129 159 203 263 315 379
#     4   9  18  34  60  87 121 163 218 260 310 367
#     4  11  21  36  59  86 125 171 206 256 318 368
#     4  11  22  37  60  93 126 161 204 254 317 372
#     4  11  22  36  60  94 127 161 202 254 316 374
#     4  10  19  36  61  86 124 169 209 258 316 364
#     4  10  21  36  57  90 121 168 217 259 303 373
#
# _framework density 26.583352999999999
#
# number of rings (size 3 to 8) (size 9 to 14) (size 15 to 20)
#    0.000    1.538    3.077    3.231    0.000    3.692 
#    0.000    1.538    0.000    2.769    0.000    0.000 
#    0.000    0.000    0.000    0.000    0.000    0.000 
#
# Total GULP energy -145176.190249 kJ/mol
# GULP energy per Si atom -5583.699625 kJ/mol
# Density = 2.652285 g / cm^3
# Si number density = 26.583353 Si / 1000 Ang^3
#
#
#
# Elastic Constant Matrix: (Units=GPa)
#
#
# Indices 1 2 3 4 5 6 
#
# 1 95.1580 9.6359 30.3018 -0.0018 9.3442 -0.0012
# 2 9.6359 114.0041 16.1778 -0.0024 7.5772 0.0010
# 3 30.3018 16.1778 122.8385 -0.0004 44.0499 -0.0005
# 4 -0.0018 -0.0024 -0.0004 34.2306 0.0002 43.0741
# 5 9.3442 7.5772 44.0499 0.0002 49.3346 -0.0004
# 6 -0.0012 0.0010 -0.0005 43.0741 -0.0004 73.3744
#
#
#
# Elastic Compliance Matrix: (Units=1/GPa)
#
#
# Indices 1 2 3 4 5 6 
#
# 1 0.011452 -0.000587 -0.002945 0.000001 0.000551 -0.000001
# 2 -0.000587 0.008976 -0.000857 0.000003 -0.000502 -0.000002
# 3 -0.002945 -0.000857 0.012846 0.000000 -0.010781 0.000000
# 4 0.000001 0.000003 0.000000 0.111805 -0.000002 -0.065634
# 5 0.000551 -0.000502 -0.010781 -0.000002 0.029868 0.000001
# 6 -0.000001 -0.000002 0.000000 -0.065634 0.000001 0.052159
#
#
# Mechanical properties :
#
#
# Convention : Reuss Voigt Hill
#
# Bulk Modulus (GPa) = 40.82342 49.35906 45.09124
# Shear Modulus (GPa) = 20.48756 49.78026 35.13391
#
# Velocity S-wave (km/s) = 2.77914 4.33206 3.63940
# Velocity P-wave (km/s) = 5.06836 6.60532 5.88721
#
# Compressibility (1/GPa) = 0.02449574
#
# Stress axis : x y z
#
# Youngs Moduli (GPa) = 87.32078 111.40529 77.84436
#
# Poissons Ratio (x) = 0.06535 0.22927
# Poissons Ratio (y) = 0.05122 0.06675
# Poissons Ratio (z) = 0.25718 0.09553
#
# Static dielectric constant tensor:
#      x y z
#    x 2.203200 0.000000 -0.061350 
#    y 0.000000 2.023120 0.000000 
#    z -0.061350 0.000000 2.080420 
# 
# From -- ./inp_files/314671.got.cif
#   From: 2010.05.17/outbox.cif.g08.bks.cpg/sg12_158_cif.got.tgz:314671.got - 2010.06.03 13:09:07.
