data_PCOD9188915
_publ_section_title
;
Structure prediction by ZEFSAII (Michael W. Deem and Ramdas Pophale) SiO2 
 PCOD9188915
Probable space group: C 2/M
;
_chemical_formula_sum "Si O2"
_cell_formula_units_Z 64
_cell_length_a 14.759379
_cell_length_b 9.987365
_cell_length_c 27.130751
_cell_angle_alpha 90.000000
_cell_angle_beta 129.068293
_cell_angle_gamma 90.000000
_cell_volume 3105.015121
_symmetry_space_group_name_H-M "C 2/M"
_symmetry_group_IT_number 12
_symmetry_cell_setting 'monoclinic'
loop_
_space_group_symop_operation_xyz
x,y,z
-x,y,-z
-x,-y,-z
x,-y,z
1/2+x,1/2+y,z
1/2-x,1/2+y,-z
1/2-x,1/2-y,-z
1/2+x,1/2-y,z
loop_
_atom_site_type_symbol
_atom_site_label
_atom_site_fract_x
_atom_site_fract_y
_atom_site_fract_z
Si Si1 0.579787 0.157466 0.598731
Si Si2 0.109583 0.150262 0.120626
Si Si3 0.183703 0.156786 0.354866
Si Si4 0.818183 0.345959 0.256235
Si Si5 0.541525 0.659667 0.769482
Si Si6 0.364349 0.339954 0.548947
Si Si7 0.403298 0.142558 0.040014
Si Si8 0.780002 0.261739 0.093101
O O1 0.684181 0.208490 0.599285
O O2 0.641932 0.161176 0.673766
O O3 0.472192 0.259131 0.562394
O O4 0.545464 0.000000 0.577411
O O5 0.182689 0.176766 0.195747
O O6 0.204924 0.165041 0.109546
O O7 0.002017 0.245993 0.074255
O O8 0.064732 0.000000 0.106718
O O9 0.124169 0.166317 0.387601
O O10 0.092169 0.207476 0.282998
O O11 0.201914 0.000000 0.350034
O O12 0.842826 0.500000 0.248314
O O13 0.888692 0.238441 0.248869
O O14 0.543864 0.500000 0.762310
O O15 0.609857 0.692727 0.842791
O O16 0.355298 0.500000 0.533013
O O17 0.250000 0.250000 0.500000
O O18 0.331006 0.151282 0.066052
O O19 0.462755 0.000000 0.055824
O O20 0.311044 0.163486 0.964726
#
# Coordination Sequence:
#
# PCOD9188915 Si02
#       8
#     8   8   8   8   8   8   8   8
#     4  10  20  38  63  90 122 159 198 243 291 350
#     4  10  22  39  60  85 115 157 201 245 304 371
#     4   9  20  37  62  91 121 157 199 243 293 353
#     4   9  19  35  58  87 121 154 193 243 303 360
#     4  10  19  36  63  88 115 153 203 251 298 354
#     4  11  23  42  65  93 127 163 200 241 290 346
#     4  11  24  40  58  85 118 154 202 255 308 362
#     4  10  23  39  60  83 117 158 199 250 308 366
#
# _framework density 20.611816000000001
#
# number of rings (size 3 to 8) (size 9 to 14) (size 15 to 20)
#    0.000    2.000    1.250    1.500    1.750    7.500 
#    0.000    4.375    0.000    0.000    0.000    0.000 
#    0.000    0.000    0.000    0.000    0.000    0.000 
#
# Total GULP energy -178502.636373 kJ/mol
# GULP energy per Si atom -5578.207387 kJ/mol
# Density = 2.056490 g / cm^3
# Si number density = 20.611816 Si / 1000 Ang^3
#
#
#
# Elastic Constant Matrix: (Units=GPa)
#
#
# Indices 1 2 3 4 5 6 
#
# 1 55.8443 24.1196 15.9072 0.0000 24.3260 0.0000
# 2 24.1196 99.8191 43.0433 0.0000 26.5693 0.0000
# 3 15.9072 43.0433 102.1054 0.0000 21.1656 0.0000
# 4 0.0000 0.0000 0.0000 -32.1994 0.0000 70.6447
# 5 24.3260 26.5693 21.1656 0.0000 39.9360 0.0000
# 6 0.0000 0.0000 0.0000 70.6447 0.0000 -44.4845
#
#
#
# Elastic Compliance Matrix: (Units=1/GPa)
#
#
# Indices 1 2 3 4 5 6 
#
# 1 0.024839 -0.002376 -0.000067 0.000000 -0.013514 0.000000
# 2 -0.002376 0.013942 -0.004364 0.000000 -0.005516 0.000000
# 3 -0.000067 -0.004364 0.012395 0.000000 -0.003625 0.000000
# 4 0.000000 0.000000 0.000000 0.012502 0.000000 0.019854
# 5 -0.013514 -0.005516 -0.003625 0.000000 0.038863 0.000000
# 6 0.000000 0.000000 0.000000 0.019854 0.000000 0.009049
#
#
# Mechanical properties :
#
#
# Convention : Reuss Voigt Hill
#
# Bulk Modulus (GPa) = 26.62203 47.10101 36.86152
# Shear Modulus (GPa) = 36.30446 4.29699 20.30072
#
# Velocity S-wave (km/s) = 4.20139 1.44542 3.14173
# Velocity P-wave (km/s) = 6.03983 5.06821 5.57522
#
# Compressibility (1/GPa) = 0.03756288
#
# Stress axis : x y z
#
# Youngs Moduli (GPa) = 40.25951 71.72503 80.67525
#
# Poissons Ratio (x) = 0.17043 0.00538
# Poissons Ratio (y) = 0.09566 0.35206
# Poissons Ratio (z) = 0.00269 0.31300
#
# Static dielectric constant tensor:
#      x y z
#    x 1.768880 0.000000 -0.009540 
#    y 0.000000 1.704100 0.000000 
#    z -0.009540 0.000000 1.773040 
# 
# From -- ./inp_files/375558.got.cif
#   From: 2010.05.17/outbox.cif.g08.bks.cpg/sg12_188_cif.got.tgz:375558.got - 2010.06.03 13:09:07.
