data_PCOD9188949
_publ_section_title
;
Structure prediction by ZEFSAII (Michael W. Deem and Ramdas Pophale) SiO2 
 PCOD9188949
Probable space group: C 2/M
;
_chemical_formula_sum "Si O2"
_cell_formula_units_Z 44
_cell_length_a 11.162959
_cell_length_b 27.696064
_cell_length_c 13.940926
_cell_angle_alpha 90.000000
_cell_angle_beta 31.061698
_cell_angle_gamma 90.000000
_cell_volume 2223.851150
_symmetry_space_group_name_H-M "C 2/M"
_symmetry_group_IT_number 12
_symmetry_cell_setting 'monoclinic'
loop_
_space_group_symop_operation_xyz
x,y,z
-x,y,-z
-x,-y,-z
x,-y,z
1/2+x,1/2+y,z
1/2-x,1/2+y,-z
1/2-x,1/2-y,-z
1/2+x,1/2-y,z
loop_
_atom_site_type_symbol
_atom_site_label
_atom_site_fract_x
_atom_site_fract_y
_atom_site_fract_z
Si Si1 0.832572 0.074894 0.692289
Si Si2 0.352180 0.827098 0.738676
Si Si3 0.816626 0.445112 0.993774
Si Si4 0.961492 0.853413 0.880582
Si Si5 0.500000 0.256888 0.500000
Si Si6 0.370762 0.665561 0.438872
O O1 0.783407 0.051845 0.829236
O O2 0.000000 0.050723 0.500000
O O3 0.970493 0.124067 0.623162
O O4 0.575988 0.077200 0.822813
O O5 0.370222 0.778471 0.663179
O O6 0.606044 0.846100 0.592225
O O7 0.202924 0.861022 0.770954
O O8 0.203155 0.822285 0.937301
O O9 0.825404 0.500000 0.949308
O O10 0.659336 0.405192 0.050742
O O11 0.007217 0.826934 0.748211
O O12 0.639985 0.291220 0.476982
#
# Coordination Sequence:
#
# PCOD9188949 Si02
#       6
#     8   8   8   8   4   8
#     4  10  19  36  63  92 129 161 191 250 318 363
#     4  11  23  43  61  89 125 168 210 253 300 361
#     4  10  22  39  62  94 123 154 209 255 298 373
#     4  10  23  42  64  87 124 172 199 250 320 358
#     4  12  24  40  66  94 122 162 212 262 294 356
#     4  11  22  41  62  93 126 164 204 253 307 363
#
# _framework density 19.785496999999999
#
# number of rings (size 3 to 8) (size 9 to 14) (size 15 to 20)
#    0.000    1.455    2.727    2.727    0.000    2.182 
#    3.273    1.818    0.000    9.818    0.000    0.000 
#    0.000    0.000    0.000    0.000    0.000    0.000 
#
# Total GULP energy -122561.209661 kJ/mol
# GULP energy per Si atom -5570.964075 kJ/mol
# Density = 1.974046 g / cm^3
# Si number density = 19.785497 Si / 1000 Ang^3
#
#
#
# Elastic Constant Matrix: (Units=GPa)
#
#
# Indices 1 2 3 4 5 6 
#
# 1 122.7501 59.2292 67.0540 0.0000 -11.0078 0.0000
# 2 59.2292 92.3109 42.7537 0.0000 -22.4864 0.0000
# 3 67.0540 42.7537 137.3978 0.0000 4.7789 0.0000
# 4 0.0000 0.0000 0.0000 16.0291 0.0000 -53.8790
# 5 -11.0078 -22.4864 4.7789 0.0000 49.3534 0.0000
# 6 0.0000 0.0000 0.0000 -53.8790 0.0000 112.0491
#
#
#
# Elastic Compliance Matrix: (Units=1/GPa)
#
#
# Indices 1 2 3 4 5 6 
#
# 1 0.014020 -0.006635 -0.004797 0.000000 0.000568 0.000000
# 2 -0.006635 0.017994 -0.002603 0.000000 0.006971 0.000000
# 3 -0.004797 -0.002603 0.010543 0.000000 -0.003277 0.000000
# 4 0.000000 0.000000 0.000000 -0.101228 0.000000 -0.048676
# 5 0.000568 0.006971 -0.003277 0.000000 0.023882 0.000000
# 6 0.000000 0.000000 0.000000 -0.048676 0.000000 -0.014481
#
#
# Mechanical properties :
#
#
# Convention : Reuss Voigt Hill
#
# Bulk Modulus (GPa) = 69.03416 76.72586 72.88001
# Shear Modulus (GPa) = -305.43795 47.71444 -128.86175
#
# Velocity S-wave (km/s) = -12.43824 4.91612 -8.07903
# Velocity P-wave (km/s) = 13.08865 8.43133 7.07903
#
# Compressibility (1/GPa) = 0.01448558
#
# Stress axis : x y z
#
# Youngs Moduli (GPa) = 71.32824 55.57391 94.84636
#
# Poissons Ratio (x) = 0.36874 0.45499
# Poissons Ratio (y) = 0.47328 0.24693
# Poissons Ratio (z) = 0.34217 0.14468
#
# Static dielectric constant tensor:
#      x y z
#    x 1.719830 0.000000 0.013410 
#    y 0.000000 1.725400 0.000000 
#    z 0.013410 0.000000 1.720120 
# 
# From -- ./inp_files/209034.got.cif
#   From: 2010.05.17/outbox.cif.g08.bks.cpg/sg12_105_cif.got.tgz:209034.got - 2010.06.03 13:09:07.
