data_PCOD9188238
_publ_section_title
;
Structure prediction by ZEFSAII (Michael W. Deem and Ramdas Pophale) SiO2 
 PCOD9188238
Probable space group: C 2/M
;
_chemical_formula_sum "Si O2"
_cell_formula_units_Z 64
_cell_length_a 30.097711
_cell_length_b 7.466768
_cell_length_c 11.347028
_cell_angle_alpha 90.000000
_cell_angle_beta 77.547318
_cell_angle_gamma 90.000000
_cell_volume 2490.056053
_symmetry_space_group_name_H-M "C 2/M"
_symmetry_group_IT_number 12
_symmetry_cell_setting 'monoclinic'
loop_
_space_group_symop_operation_xyz
x,y,z
-x,y,-z
-x,-y,-z
x,-y,z
1/2+x,1/2+y,z
1/2-x,1/2+y,-z
1/2-x,1/2-y,-z
1/2+x,1/2-y,z
loop_
_atom_site_type_symbol
_atom_site_label
_atom_site_fract_x
_atom_site_fract_y
_atom_site_fract_z
Si Si1 0.685581 0.209635 0.971135
Si Si2 0.920270 0.206306 0.942061
Si Si3 0.684370 0.787107 0.223812
Si Si4 0.483694 0.797860 0.694831
Si Si5 0.596821 0.219897 0.401721
Si Si6 0.563179 0.216081 0.808259
Si Si7 0.353045 0.783074 0.391552
Si Si8 0.771919 0.284931 0.295924
O O1 0.705911 0.286060 0.839230
O O2 0.697143 0.000000 0.961011
O O3 0.630840 0.223985 0.008343
O O4 0.701297 0.286543 0.088611
O O5 0.948311 0.305106 0.824912
O O6 0.918103 0.000000 0.908665
O O7 0.944450 0.220254 0.055282
O O8 0.634244 0.722373 0.284279
O O9 0.719026 0.756682 0.310884
O O10 0.680767 0.000000 0.211895
O O11 0.453321 0.718994 0.606827
O O12 0.528055 0.714712 0.729689
O O13 0.496901 0.000000 0.651424
O O14 0.619478 0.279670 0.510319
O O15 0.594954 0.000000 0.403218
O O16 0.614121 0.258274 0.737234
O O17 0.558893 0.000000 0.812784
O O18 0.302595 0.718481 0.386789
O O19 0.351114 0.000000 0.404834
O O20 0.775880 0.500000 0.295565
#
# Coordination Sequence:
#
# PCOD9188238 Si02
#       8
#     8   8   8   8   8   8   8   8
#     4  10  19  36  58  79 108 146 182 223 279 331
#     4  12  23  34  55  84 115 145 178 225 275 328
#     4  10  20  34  55  80 111 145 179 223 272 325
#     4  10  20  36  59  83 110 146 184 222 270 329
#     4   9  18  34  56  82 111 143 183 230 273 313
#     4  10  20  36  59  83 110 146 184 222 270 329
#     4   9  18  34  56  82 111 143 183 230 273 313
#     4  10  20  34  55  80 111 145 179 223 272 325
#
# _framework density 25.702231999999999
#
# number of rings (size 3 to 8) (size 9 to 14) (size 15 to 20)
#    0.000    2.000    2.500    1.875    0.000    4.000 
#    0.000    2.500    0.000    2.250    0.000    1.750 
#    0.000    0.000    0.000    0.000    0.000    0.000 
#
# Total GULP energy -178937.382039 kJ/mol
# GULP energy per Si atom -5591.793189 kJ/mol
# Density = 2.564373 g / cm^3
# Si number density = 25.702232 Si / 1000 Ang^3
#
#
#
# Elastic Constant Matrix: (Units=GPa)
#
#
# Indices 1 2 3 4 5 6 
#
# 1 141.2572 -3.9819 17.7387 0.0000 43.9729 0.0000
# 2 -3.9819 89.3620 2.9425 0.0000 0.5051 0.0000
# 3 17.7387 2.9425 89.3666 0.0000 35.5078 0.0000
# 4 0.0000 0.0000 0.0000 -15.8980 0.0000 6.3105
# 5 43.9729 0.5051 35.5078 0.0000 52.9585 0.0000
# 6 0.0000 0.0000 0.0000 6.3105 0.0000 7.9747
#
#
#
# Elastic Compliance Matrix: (Units=1/GPa)
#
#
# Indices 1 2 3 4 5 6 
#
# 1 0.009759 0.000430 0.001731 0.000000 -0.009268 0.000000
# 2 0.000430 0.011223 -0.000369 0.000000 -0.000217 0.000000
# 3 0.001731 -0.000369 0.015578 0.000000 -0.011879 0.000000
# 4 0.000000 0.000000 0.000000 -0.047866 0.000000 0.037877
# 5 -0.009268 -0.000217 -0.011879 0.000000 0.034545 0.000000
# 6 0.000000 0.000000 0.000000 0.037877 0.000000 0.095424
#
#
# Mechanical properties :
#
#
# Convention : Reuss Voigt Hill
#
# Bulk Modulus (GPa) = 24.90918 39.26493 32.08706
# Shear Modulus (GPa) = 38.92284 29.22614 34.07449
#
# Velocity S-wave (km/s) = 3.89572 3.37576 3.64502
# Velocity P-wave (km/s) = 5.47248 5.52307 5.49783
#
# Compressibility (1/GPa) = 0.04014584
#
# Stress axis : x y z
#
# Youngs Moduli (GPa) = 102.46784 89.10289 64.19236
#
# Poissons Ratio (x) = -0.03834 -0.11113
# Poissons Ratio (y) = -0.04409 0.02367
# Poissons Ratio (z) = -0.17739 0.03285
#
# Static dielectric constant tensor:
#      x y z
#    x 2.013400 0.000000 0.035140 
#    y 0.000000 1.996760 0.000000 
#    z 0.035140 0.000000 2.055100 
# 
# From -- ./inp_files/187593.got.cif
#   From: 2010.05.17/outbox.cif.g08.bks.cpg/sg12_94_cif.got.tgz:187593.got - 2010.06.03 13:09:07.
