data_PCOD9188157
_publ_section_title
;
Structure prediction by ZEFSAII (Michael W. Deem and Ramdas Pophale) SiO2 
 PCOD9188157
Probable space group: C 2/M
;
_chemical_formula_sum "Si O2"
_cell_formula_units_Z 56
_cell_length_a 23.147007
_cell_length_b 15.099358
_cell_length_c 7.924512
_cell_angle_alpha 90.000000
_cell_angle_beta 64.006853
_cell_angle_gamma 90.000000
_cell_volume 2489.495645
_symmetry_space_group_name_H-M "C 2/M"
_symmetry_group_IT_number 12
_symmetry_cell_setting 'monoclinic'
loop_
_space_group_symop_operation_xyz
x,y,z
-x,y,-z
-x,-y,-z
x,-y,z
1/2+x,1/2+y,z
1/2-x,1/2+y,-z
1/2-x,1/2-y,-z
1/2+x,1/2-y,z
loop_
_atom_site_type_symbol
_atom_site_label
_atom_site_fract_x
_atom_site_fract_y
_atom_site_fract_z
Si Si1 0.119042 0.900188 0.447897
Si Si2 0.533361 0.101849 0.143402
Si Si3 0.641859 0.785235 0.846275
Si Si4 0.317002 0.095970 0.708778
Si Si5 0.576604 0.214222 0.562104
Si Si6 0.745526 0.342204 0.108164
Si Si7 0.320014 0.401448 0.256007
O O1 0.070359 0.817241 0.520834
O O2 0.175338 0.875425 0.244486
O O3 0.154424 0.901067 0.585737
O O4 0.094219 0.000000 0.449769
O O5 0.487167 0.157237 0.325887
O O6 0.544543 0.000000 0.182997
O O7 0.500000 0.097703 0.000000
O O8 0.596580 0.159061 0.027161
O O9 0.613152 0.790948 0.696414
O O10 0.712697 0.825364 0.777737
O O11 0.646218 0.680590 0.879950
O O12 0.372698 0.167351 0.625529
O O13 0.256480 0.113782 0.662700
O O14 0.344478 0.000000 0.628583
O O15 0.283474 0.094407 0.933438
O O16 0.750000 0.250000 0.000000
O O17 0.332639 0.500000 0.169836
#
# Coordination Sequence:
#
# PCOD9188157 Si02
#       7
#     8   8   8   8   8   8   8
#     4  10  20  34  54  79 109 140 177 222 272 322
#     4   9  19  35  56  81 107 139 181 227 271 315
#     4  10  20  35  56  78 109 144 181 221 269 323
#     4  11  21  33  52  78 109 142 179 222 272 323
#     4  10  19  36  57  79 105 142 184 226 268 316
#     4  12  21  34  52  80 113 146 175 219 270 326
#     4   9  18  33  53  80 107 138 177 223 272 322
#
# _framework density 22.494516999999998
#
# number of rings (size 3 to 8) (size 9 to 14) (size 15 to 20)
#    0.000    1.857    2.857    1.714    0.000    4.000 
#    0.000    1.429    0.000    6.000    0.000    1.000 
#    0.000    0.000    0.000    0.000    0.000    0.000 
#
# Total GULP energy -156386.736116 kJ/mol
# GULP energy per Si atom -5585.240576 kJ/mol
# Density = 2.244332 g / cm^3
# Si number density = 22.494517 Si / 1000 Ang^3
#
#
#
# Elastic Constant Matrix: (Units=GPa)
#
#
# Indices 1 2 3 4 5 6 
#
# 1 41.6495 21.5001 14.9016 0.0000 5.6047 0.0000
# 2 21.5001 206.5741 68.5223 0.0000 -28.9711 0.0000
# 3 14.9016 68.5223 83.1415 0.0000 -6.7130 0.0000
# 4 0.0000 0.0000 0.0000 30.7623 0.0000 -6.0597
# 5 5.6047 -28.9711 -6.7130 0.0000 27.2728 0.0000
# 6 0.0000 0.0000 0.0000 -6.0597 0.0000 10.2854
#
#
#
# Elastic Compliance Matrix: (Units=1/GPa)
#
#
# Indices 1 2 3 4 5 6 
#
# 1 0.028197 -0.003306 -0.003143 0.000000 -0.010080 0.000000
# 2 -0.003306 0.008107 -0.005447 0.000000 0.007950 0.000000
# 3 -0.003143 -0.005447 0.017003 0.000000 -0.000955 0.000000
# 4 0.000000 0.000000 0.000000 0.036775 0.000000 0.021666
# 5 -0.010080 0.007950 -0.000955 0.000000 0.046948 0.000000
# 6 0.000000 0.000000 0.000000 0.021666 0.000000 0.109990
#
#
# Mechanical properties :
#
#
# Convention : Reuss Voigt Hill
#
# Bulk Modulus (GPa) = 33.88056 60.13479 47.00767
# Shear Modulus (GPa) = 17.81572 28.76017 23.28794
#
# Velocity S-wave (km/s) = 2.81731 3.57955 3.22105
# Velocity P-wave (km/s) = 5.06728 6.62385 5.89715
#
# Compressibility (1/GPa) = 0.02951545
#
# Stress axis : x y z
#
# Youngs Moduli (GPa) = 35.46419 123.35520 58.81302
#
# Poissons Ratio (x) = 0.40779 0.18486
# Poissons Ratio (y) = 0.11724 0.32034
# Poissons Ratio (z) = 0.11147 0.67189
#
# Static dielectric constant tensor:
#      x y z
#    x 1.844990 0.000000 0.041130 
#    y 0.000000 1.888400 0.000000 
#    z 0.041130 0.000000 1.809880 
# 
# From -- ./inp_files/86398.got.cif
#   From: 2010.05.17/outbox.cif.g08.bks.cpg/sg12_44_cif.got.tgz:86398.got - 2010.06.03 13:09:07.
