data_PCOD9188820
_publ_section_title
;
Structure prediction by ZEFSAII (Michael W. Deem and Ramdas Pophale) SiO2 
 PCOD9188820
Probable space group: C 2/M
;
_chemical_formula_sum "Si O2"
_cell_formula_units_Z 64
_cell_length_a 12.336318
_cell_length_b 29.478593
_cell_length_c 18.179136
_cell_angle_alpha 90.000000
_cell_angle_beta 31.072541
_cell_angle_gamma 90.000000
_cell_volume 3412.075854
_symmetry_space_group_name_H-M "C 2/M"
_symmetry_group_IT_number 12
_symmetry_cell_setting 'monoclinic'
loop_
_space_group_symop_operation_xyz
x,y,z
-x,y,-z
-x,-y,-z
x,-y,z
1/2+x,1/2+y,z
1/2-x,1/2+y,-z
1/2-x,1/2-y,-z
1/2+x,1/2-y,z
loop_
_atom_site_type_symbol
_atom_site_label
_atom_site_fract_x
_atom_site_fract_y
_atom_site_fract_z
Si Si1 0.881579 0.705157 0.908202
Si Si2 0.194575 0.104885 0.339438
Si Si3 0.907235 0.133818 0.841779
Si Si4 0.973708 0.349976 0.300049
Si Si5 0.256036 0.949805 0.158354
Si Si6 0.663429 0.248809 0.339062
Si Si7 0.167131 0.640237 0.336802
Si Si8 0.957640 0.181019 0.381800
O O1 0.873860 0.684581 0.830741
O O2 0.119631 0.723539 0.780099
O O3 0.750000 0.750000 0.000000
O O4 0.784037 0.664655 0.015683
O O5 0.376730 0.119250 0.290437
O O6 0.244147 0.069098 0.247938
O O7 0.000000 0.087665 0.500000
O O8 0.104592 0.148869 0.347717
O O9 0.833976 0.088105 0.844338
O O10 0.096547 0.123079 0.787330
O O11 0.022039 0.163497 0.712095
O O12 0.774028 0.324653 0.451993
O O13 0.079434 0.374199 0.308096
O O14 0.159284 0.000000 0.207399
O O15 0.500000 0.953099 0.000000
O O16 0.500000 0.259422 0.500000
O O17 0.689390 0.195137 0.321388
O O18 0.545292 0.268686 0.336994
O O19 0.000000 0.629568 0.500000
#
# Coordination Sequence:
#
# PCOD9188820 Si02
#       8
#     8   8   8   8   8   8   8   8
#     4  12  24  38  54  87 126 161 212 265 305 349
#     4   9  18  35  62  93 113 145 192 246 314 363
#     4  11  24  40  59  90 124 162 207 255 312 366
#     4  11  21  38  59  81 121 165 205 249 301 363
#     4  10  22  41  67  95 121 151 192 255 324 382
#     4  11  21  37  57  81 115 164 219 256 300 352
#     4  11  24  38  57  83 120 173 217 243 286 375
#     4  10  19  36  62  80 111 163 206 253 302 358
#
# _framework density 18.756910000000001
#
# number of rings (size 3 to 8) (size 9 to 14) (size 15 to 20)
#    0.000    1.375    5.000    1.125    3.500    1.250 
#    0.000    0.000    0.000    1.125    0.000    2.625 
#    0.000    0.000    0.000    0.000    0.000    0.000 
#
# Total GULP energy -178524.830964 kJ/mol
# GULP energy per Si atom -5578.900968 kJ/mol
# Density = 1.871422 g / cm^3
# Si number density = 18.756910 Si / 1000 Ang^3
#
#
#
# Elastic Constant Matrix: (Units=GPa)
#
#
# Indices 1 2 3 4 5 6 
#
# 1 114.6102 36.0215 28.0443 -0.0012 -1.4173 0.0010
# 2 36.0215 80.5461 40.4741 0.0014 6.6825 0.0000
# 3 28.0443 40.4741 100.7386 0.0002 11.6877 0.0053
# 4 -0.0012 0.0014 0.0002 27.8015 0.0011 6.8309
# 5 -1.4173 6.6825 11.6877 0.0011 32.2616 -0.0019
# 6 0.0010 0.0000 0.0053 6.8309 -0.0019 16.3579
#
#
#
# Elastic Compliance Matrix: (Units=1/GPa)
#
#
# Indices 1 2 3 4 5 6 
#
# 1 0.010383 -0.004055 -0.001474 0.000001 0.001830 0.000000
# 2 -0.004055 0.017170 -0.005571 -0.000002 -0.001717 0.000003
# 3 -0.001474 -0.005571 0.012995 0.000002 -0.003619 -0.000005
# 4 0.000001 -0.000002 0.000002 0.040082 -0.000002 -0.016738
# 5 0.001830 -0.001717 -0.003619 -0.000002 0.032743 0.000006
# 6 0.000000 0.000003 -0.000005 -0.016738 0.000006 0.068122
#
#
# Mechanical properties :
#
#
# Convention : Reuss Voigt Hill
#
# Bulk Modulus (GPa) = 54.49595 56.10830 55.30212
# Shear Modulus (GPa) = 23.83111 28.04120 25.93615
#
# Velocity S-wave (km/s) = 3.56831 3.87069 3.72257
# Velocity P-wave (km/s) = 6.78925 7.06786 6.92996
#
# Compressibility (1/GPa) = 0.01834999
#
# Stress axis : x y z
#
# Youngs Moduli (GPa) = 96.31291 58.24046 76.95325
#
# Poissons Ratio (x) = 0.23615 0.11340
# Poissons Ratio (y) = 0.39052 0.42868
# Poissons Ratio (z) = 0.14194 0.32444
#
# Static dielectric constant tensor:
#      x y z
#    x 1.725310 0.000000 0.004490 
#    y 0.000000 1.652320 0.000000 
#    z 0.004490 0.000000 1.679840 
# 
# From -- ./inp_files/266265.got.cif
#   From: 2010.05.17/outbox.cif.g08.bks.cpg/sg12_134_cif.got.tgz:266265.got - 2010.06.03 13:09:07.
