data_PCOD9188473
_publ_section_title
;
Structure prediction by ZEFSAII (Michael W. Deem and Ramdas Pophale) SiO2 
 PCOD9188473
Probable space group: C 2/M
;
_chemical_formula_sum "Si O2"
_cell_formula_units_Z 34
_cell_length_a 13.637793
_cell_length_b 10.038152
_cell_length_c 16.235036
_cell_angle_alpha 90.000000
_cell_angle_beta 140.684722
_cell_angle_gamma 90.000000
_cell_volume 1408.177853
_symmetry_space_group_name_H-M "C 2/M"
_symmetry_group_IT_number 12
_symmetry_cell_setting 'monoclinic'
loop_
_space_group_symop_operation_xyz
x,y,z
-x,y,-z
-x,-y,-z
x,-y,z
1/2+x,1/2+y,z
1/2-x,1/2+y,-z
1/2-x,1/2-y,-z
1/2+x,1/2-y,z
loop_
_atom_site_type_symbol
_atom_site_label
_atom_site_fract_x
_atom_site_fract_y
_atom_site_fract_z
Si Si1 0.319916 0.846275 0.667410
Si Si2 0.748909 0.144988 0.118852
Si Si3 0.968594 0.152227 0.098953
Si Si4 0.500000 0.000000 0.500000
Si Si5 0.510044 0.245374 0.390782
O O1 0.389241 0.743501 0.778674
O O2 0.409320 0.808786 0.640686
O O3 0.141581 0.821594 0.528105
O O4 0.349060 0.000000 0.707714
O O5 0.855314 0.144765 0.105520
O O6 0.868134 0.164406 0.270623
O O7 0.672383 0.000000 0.073490
O O8 0.632983 0.267905 0.033463
O O9 0.010836 0.000000 0.105917
O O10 0.540687 0.883747 0.593315
#
# Coordination Sequence:
#
# PCOD9188473 Si02
#       5
#     8   8   8   2   8
#     4  10  19  36  59  89 115 155 193 253 290 351
#     4   9  17  32  51  82 117 157 189 248 295 356
#     4   9  18  28  52  86 121 145 195 244 305 343
#     4  12  24  40  54  94 124 170 186 256 288 376
#     4  10  22  34  60  82 122 152 206 236 301 344
#
# _framework density 24.144677000000001
#
# number of rings (size 3 to 8) (size 9 to 14) (size 15 to 20)
#    0.000    2.353    1.176    1.412    3.294    5.647 
#    0.000    2.353    0.000    2.824    0.000    3.294 
#    0.000    0.000    0.000    0.000    0.000    0.000 
#
# Total GULP energy -94894.776988 kJ/mol
# GULP energy per Si atom -5582.045705 kJ/mol
# Density = 2.408972 g / cm^3
# Si number density = 24.144677 Si / 1000 Ang^3
#
#
#
# Elastic Constant Matrix: (Units=GPa)
#
#
# Indices 1 2 3 4 5 6 
#
# 1 68.1483 16.0654 11.3196 0.0000 7.9554 0.0000
# 2 16.0654 237.9736 100.5987 0.0000 19.0961 0.0000
# 3 11.3196 100.5987 181.1245 0.0000 12.6363 0.0000
# 4 0.0000 0.0000 0.0000 38.6704 0.0000 -5.0193
# 5 7.9554 19.0961 12.6363 0.0000 23.6377 0.0000
# 6 0.0000 0.0000 0.0000 -5.0193 0.0000 0.5379
#
#
#
# Elastic Compliance Matrix: (Units=1/GPa)
#
#
# Indices 1 2 3 4 5 6 
#
# 1 0.015389 -0.000523 -0.000352 0.000000 -0.004568 0.000000
# 2 -0.000523 0.005710 -0.002939 0.000000 -0.002866 0.000000
# 3 -0.000352 -0.002939 0.007273 0.000000 -0.001395 0.000000
# 4 0.000000 0.000000 0.000000 -0.122488 0.000000 -1.142927
# 5 -0.004568 -0.002866 -0.001395 0.000000 0.046904 0.000000
# 6 0.000000 0.000000 0.000000 -1.142927 0.000000 -8.805547
#
#
# Mechanical properties :
#
#
# Convention : Reuss Voigt Hill
#
# Bulk Modulus (GPa) = 48.20999 82.57931 65.39465
# Shear Modulus (GPa) = -0.56572 36.52006 17.97717
#
# Velocity S-wave (km/s) = -0.48458 3.89337 2.73162
# Velocity P-wave (km/s) = 4.43817 7.38155 6.09035
#
# Compressibility (1/GPa) = 0.02074259
#
# Stress axis : x y z
#
# Youngs Moduli (GPa) = 64.98127 175.14188 137.50342
#
# Poissons Ratio (x) = 0.09167 0.04845
# Poissons Ratio (y) = 0.03401 0.40407
# Poissons Ratio (z) = 0.02290 0.51467
#
# Static dielectric constant tensor:
#      x y z
#    x 1.983470 0.000000 -0.020100 
#    y 0.000000 1.814210 0.000000 
#    z -0.020100 0.000000 1.882660 
# 
# From -- ./inp_files/82986.got.cif
#   From: 2010.05.17/outbox.cif.g08.bks.cpg/sg12_42_cif.got.tgz:82986.got - 2010.06.03 13:09:07.
