data_PCOD9188450
_publ_section_title
;
Structure prediction by ZEFSAII (Michael W. Deem and Ramdas Pophale) SiO2 
 PCOD9188450
Probable space group: C 2/M
;
_chemical_formula_sum "Si O2"
_cell_formula_units_Z 64
_cell_length_a 26.896073
_cell_length_b 14.265100
_cell_length_c 11.354392
_cell_angle_alpha 90.000000
_cell_angle_beta 44.111769
_cell_angle_gamma 90.000000
_cell_volume 3032.315861
_symmetry_space_group_name_H-M "C 2/M"
_symmetry_group_IT_number 12
_symmetry_cell_setting 'monoclinic'
loop_
_space_group_symop_operation_xyz
x,y,z
-x,y,-z
-x,-y,-z
x,-y,z
1/2+x,1/2+y,z
1/2-x,1/2+y,-z
1/2-x,1/2-y,-z
1/2+x,1/2-y,z
loop_
_atom_site_type_symbol
_atom_site_label
_atom_site_fract_x
_atom_site_fract_y
_atom_site_fract_z
Si Si1 0.955085 0.106766 0.240855
Si Si2 0.579319 0.892078 0.349563
Si Si3 0.079353 0.304271 0.819630
Si Si4 0.625585 0.603137 0.969570
Si Si5 0.832024 0.764686 0.889688
Si Si6 0.788245 0.220248 0.314796
Si Si7 0.157991 0.391463 0.465752
Si Si8 0.422730 0.393110 0.570953
O O1 0.929241 0.198662 0.217306
O O2 0.930268 0.116507 0.418355
O O3 0.041304 0.111407 0.094556
O O4 0.936625 0.000000 0.231813
O O5 0.500000 0.852140 0.500000
O O6 0.626173 0.833057 0.180043
O O7 0.615719 0.888351 0.415499
O O8 0.573384 0.000000 0.322146
O O9 0.144756 0.294303 0.803788
O O10 0.108017 0.367492 0.663075
O O11 0.000000 0.331466 0.000000
O O12 0.640770 0.500000 0.989980
O O13 0.653156 0.678314 0.016637
O O14 0.668211 0.623727 0.777753
O O15 0.868309 0.823048 0.722924
O O16 0.750000 0.750000 0.000000
O O17 0.750000 0.250000 0.500000
O O18 0.718540 0.190062 0.357236
O O19 0.184287 0.500000 0.433424
O O20 0.500000 0.379823 0.500000
O O21 0.400859 0.500000 0.633813
#
# Coordination Sequence:
#
# PCOD9188450 Si02
#       8
#     8   8   8   8   8   8   8   8
#     4  10  21  35  58  91 121 157 203 254 316 370
#     4  10  23  42  64  89 121 166 218 261 302 367
#     4  11  22  37  60  93 124 155 206 269 313 363
#     4  11  22  38  62  92 123 163 210 257 313 383
#     4  12  24  35  59  93 127 163 200 255 318 381
#     4  10  22  40  62  87 123 164 207 257 312 371
#     4  10  22  41  64  88 120 169 212 252 314 378
#     4  10  19  36  59  86 119 158 204 252 307 376
#
# _framework density 21.105981
#
# number of rings (size 3 to 8) (size 9 to 14) (size 15 to 20)
#    0.000    1.500    2.500    2.625    1.750    4.500 
#    0.000    0.000    0.000    3.750    0.000    0.000 
#    0.000    0.000    0.000    0.000    0.000    0.000 
#
# Total GULP energy -178455.262799 kJ/mol
# GULP energy per Si atom -5576.726962 kJ/mol
# Density = 2.105794 g / cm^3
# Si number density = 21.105981 Si / 1000 Ang^3
#
#
#
# Elastic Constant Matrix: (Units=GPa)
#
#
# Indices 1 2 3 4 5 6 
#
# 1 59.3665 26.5102 14.3617 0.0000 -9.7424 0.0000
# 2 26.5102 82.0915 26.3224 0.0000 4.1278 0.0000
# 3 14.3617 26.3224 101.9558 0.0000 -14.4882 0.0000
# 4 0.0000 0.0000 0.0000 14.9560 0.0000 -4.0309
# 5 -9.7424 4.1278 -14.4882 0.0000 30.2915 0.0000
# 6 0.0000 0.0000 0.0000 -4.0309 0.0000 25.3868
#
#
#
# Elastic Compliance Matrix: (Units=1/GPa)
#
#
# Indices 1 2 3 4 5 6 
#
# 1 0.021400 -0.007304 -0.000010 0.000000 0.007873 0.000000
# 2 -0.007304 0.016172 -0.004070 0.000000 -0.006499 0.000000
# 3 -0.000010 -0.004070 0.011736 0.000000 0.006165 0.000000
# 4 0.000000 0.000000 0.000000 0.069852 0.000000 0.011091
# 5 0.007873 -0.006499 0.006165 0.000000 0.039379 0.000000
# 6 0.000000 0.000000 0.000000 0.011091 0.000000 0.041152
#
#
# Mechanical properties :
#
#
# Convention : Reuss Voigt Hill
#
# Bulk Modulus (GPa) = 37.67694 41.97806 39.82750
# Shear Modulus (GPa) = 21.61637 25.87480 23.74559
#
# Velocity S-wave (km/s) = 3.20376 3.50515 3.35784
# Velocity P-wave (km/s) = 5.61921 6.02609 5.82620
#
# Compressibility (1/GPa) = 0.02654144
#
# Stress axis : x y z
#
# Youngs Moduli (GPa) = 46.72802 61.83550 85.20510
#
# Poissons Ratio (x) = 0.45162 0.00086
# Poissons Ratio (y) = 0.34128 0.34678
# Poissons Ratio (z) = 0.00047 0.25167
#
# Static dielectric constant tensor:
#      x y z
#    x 1.865020 0.000000 0.025080 
#    y 0.000000 1.767770 0.000000 
#    z 0.025080 0.000000 1.793380 
# 
# From -- ./inp_files/183779.got.cif
#   From: 2010.05.17/outbox.cif.g08.bks.cpg/sg12_92_cif.got.tgz:183779.got - 2010.06.03 13:09:07.
