data_PCOD9188082
_publ_section_title
;
Structure prediction by ZEFSAII (Michael W. Deem and Ramdas Pophale) SiO2 
 PCOD9188082
Probable space group: C 2/M
;
_chemical_formula_sum "Si O2"
_cell_formula_units_Z 44
_cell_length_a 7.173455
_cell_length_b 17.344203
_cell_length_c 16.350780
_cell_angle_alpha 90.000000
_cell_angle_beta 55.538209
_cell_angle_gamma 90.000000
_cell_volume 1677.311884
_symmetry_space_group_name_H-M "C 2/M"
_symmetry_group_IT_number 12
_symmetry_cell_setting 'monoclinic'
loop_
_space_group_symop_operation_xyz
x,y,z
-x,y,-z
-x,-y,-z
x,-y,z
1/2+x,1/2+y,z
1/2-x,1/2+y,-z
1/2-x,1/2-y,-z
1/2+x,1/2-y,z
loop_
_atom_site_type_symbol
_atom_site_label
_atom_site_fract_x
_atom_site_fract_y
_atom_site_fract_z
Si Si1 0.811505 0.664199 0.158889
Si Si2 0.839271 0.658334 0.423131
Si Si3 0.658376 0.689781 0.640647
Si Si4 0.112772 0.000000 0.804595
Si Si5 0.096398 0.500000 0.884060
Si Si6 0.550341 0.000000 0.586566
Si Si7 0.496264 0.335023 0.097733
O O1 0.565738 0.658046 0.263965
O O2 0.951098 0.585372 0.142680
O O3 0.740877 0.661199 0.080333
O O4 0.900278 0.751449 0.151966
O O5 0.673151 0.679133 0.539093
O O6 0.830579 0.718000 0.352510
O O7 0.101843 0.659963 0.387524
O O8 0.805331 0.570699 0.416205
O O9 0.119782 0.917257 0.849968
O O10 0.867088 0.000000 0.824586
O O11 0.309481 0.000000 0.689988
O O12 0.000000 0.500000 0.000000
O O13 0.500000 0.000000 0.500000
O O14 0.500000 0.331165 0.000000
#
# Coordination Sequence:
#
# PCOD9188082 Si02
#       7
#     8   8   8   4   4   4   8
#     4  11  22  38  63  83 124 153 208 242 309 349
#     4  10  21  33  60  84 125 146 204 232 300 345
#     4  10  19  36  55  89 113 163 186 248 286 361
#     4  10  23  40  62  86 124 158 200 250 304 358
#     4  10  22  37  57  86 117 158 201 250 297 352
#     4  12  20  35  61  95 115 152 199 248 288 361
#     4  11  23  40  61  88 118 160 201 256 299 355
#
# _framework density 26.232448000000002
#
# number of rings (size 3 to 8) (size 9 to 14) (size 15 to 20)
#    0.000    1.455    1.818    5.727    0.000    1.455 
#    0.000    0.909    0.000   13.091    0.000    0.000 
#    0.000    0.000    0.000    0.000    0.000    0.000 
#
# Total GULP energy -123007.145601 kJ/mol
# GULP energy per Si atom -5591.233891 kJ/mol
# Density = 2.617274 g / cm^3
# Si number density = 26.232448 Si / 1000 Ang^3
#
#
#
# Elastic Constant Matrix: (Units=GPa)
#
#
# Indices 1 2 3 4 5 6 
#
# 1 66.6615 16.1346 17.0089 0.0000 -3.1732 0.0000
# 2 16.1346 285.9811 68.8508 0.0000 -9.6011 0.0000
# 3 17.0089 68.8508 128.8887 0.0000 -9.0690 0.0000
# 4 0.0000 0.0000 0.0000 41.7178 0.0000 0.8057
# 5 -3.1732 -9.6011 -9.0690 0.0000 32.9654 0.0000
# 6 0.0000 0.0000 0.0000 0.8057 0.0000 26.7154
#
#
#
# Elastic Compliance Matrix: (Units=1/GPa)
#
#
# Indices 1 2 3 4 5 6 
#
# 1 0.015598 -0.000424 -0.001769 0.000000 0.000891 0.000000
# 2 -0.000424 0.004036 -0.002060 0.000000 0.000568 0.000000
# 3 -0.001769 -0.002060 0.009217 0.000000 0.001765 0.000000
# 4 0.000000 0.000000 0.000000 0.023985 0.000000 -0.000723
# 5 0.000891 0.000568 0.001765 0.000000 0.031072 0.000000
# 6 0.000000 0.000000 0.000000 -0.000723 0.000000 0.037453
#
#
# Mechanical properties :
#
#
# Convention : Reuss Voigt Hill
#
# Bulk Modulus (GPa) = 49.15512 76.16887 62.66199
# Shear Modulus (GPa) = 36.59064 45.58219 41.08641
#
# Velocity S-wave (km/s) = 3.73884 4.17301 3.96187
# Velocity P-wave (km/s) = 6.11698 7.23311 6.69833
#
# Compressibility (1/GPa) = 0.02034376
#
# Stress axis : x y z
#
# Youngs Moduli (GPa) = 64.11228 247.79162 108.49924
#
# Poissons Ratio (x) = 0.10511 0.19194
# Poissons Ratio (y) = 0.02719 0.22349
# Poissons Ratio (z) = 0.11342 0.51042
#
# Static dielectric constant tensor:
#      x y z
#    x 2.097290 0.000000 0.074970 
#    y 0.000000 2.283400 0.000000 
#    z 0.074970 0.000000 2.101760 
# 
# From -- ./inp_files/256893.got.cif
#   From: 2010.05.17/outbox.cif.g08.bks.cpg/sg12_129_cif.got.tgz:256893.got - 2010.06.03 13:09:07.
