data_PCOD9188339
_publ_section_title
;
Structure prediction by ZEFSAII (Michael W. Deem and Ramdas Pophale) SiO2 
 PCOD9188339
Probable space group: C 2/M
;
_chemical_formula_sum "Si O2"
_cell_formula_units_Z 64
_cell_length_a 8.762800
_cell_length_b 29.398055
_cell_length_c 14.315204
_cell_angle_alpha 90.000000
_cell_angle_beta 70.147649
_cell_angle_gamma 90.000000
_cell_volume 3468.570805
_symmetry_space_group_name_H-M "C 2/M"
_symmetry_group_IT_number 12
_symmetry_cell_setting 'monoclinic'
loop_
_space_group_symop_operation_xyz
x,y,z
-x,y,-z
-x,-y,-z
x,-y,z
1/2+x,1/2+y,z
1/2-x,1/2+y,-z
1/2-x,1/2-y,-z
1/2+x,1/2-y,z
loop_
_atom_site_type_symbol
_atom_site_label
_atom_site_fract_x
_atom_site_fract_y
_atom_site_fract_z
Si Si1 0.682454 0.359206 0.560539
Si Si2 0.041863 0.446421 0.739226
Si Si3 0.616615 0.784435 0.384554
Si Si4 0.340110 0.613147 0.703245
Si Si5 0.240617 0.445145 0.082671
Si Si6 0.341668 0.950777 0.595206
Si Si7 0.556421 0.555059 0.139918
Si Si8 0.191494 0.309493 0.655216
O O1 0.753566 0.323870 0.621777
O O2 0.492186 0.367634 0.613058
O O3 0.750664 0.408817 0.569621
O O4 0.748788 0.337484 0.450252
O O5 0.075838 0.500000 0.742244
O O6 0.210703 0.421695 0.685224
O O7 0.937975 0.429135 0.849774
O O8 0.913925 0.440917 0.681929
O O9 0.500000 0.780746 0.500000
O O10 0.707170 0.736694 0.357467
O O11 0.495262 0.797447 0.326380
O O12 0.410649 0.585944 0.777022
O O13 0.229088 0.658220 0.735083
O O14 0.232133 0.500000 0.088249
O O15 0.384227 0.433708 0.126436
O O16 0.306469 0.434308 0.966330
O O17 0.500000 0.955767 0.500000
O O18 0.254019 0.000000 0.615532
O O19 0.560326 0.500000 0.157482
#
# Coordination Sequence:
#
# PCOD9188339 Si02
#       8
#     8   8   8   8   8   8   8   8
#     4  11  21  34  52  74 103 141 181 218 256 305
#     4  10  20  33  49  71 104 145 185 222 256 299
#     4  10  19  36  59  76  98 133 178 226 273 309
#     4  12  22  30  46  76 110 134 166 210 264 321
#     4   8  16  34  56  74  96 135 186 230 268 307
#     4  10  20  34  50  70 103 147 185 211 247 304
#     4   9  18  33  54  77 103 137 176 223 272 315
#     4  11  22  36  54  78 105 135 172 220 270 316
#
# _framework density 18.451405000000001
#
# number of rings (size 3 to 8) (size 9 to 14) (size 15 to 20)
#    0.000    1.875    0.000    7.875    0.000    2.500 
#    0.000    2.500    0.000    6.000    0.000    0.000 
#    0.000   65.000    0.000    0.000    0.000    0.000 
#
# Total GULP energy -178330.913838 kJ/mol
# GULP energy per Si atom -5572.841057 kJ/mol
# Density = 1.840941 g / cm^3
# Si number density = 18.451405 Si / 1000 Ang^3
#
#
#
# Elastic Constant Matrix: (Units=GPa)
#
#
# Indices 1 2 3 4 5 6 
#
# 1 80.4561 56.2242 15.5532 0.0000 -6.6497 0.0000
# 2 56.2242 91.8594 19.3553 0.0000 9.5995 0.0000
# 3 15.5532 19.3553 45.9725 0.0000 -3.4813 0.0000
# 4 0.0000 0.0000 0.0000 12.4460 0.0000 3.1125
# 5 -6.6497 9.5995 -3.4813 0.0000 22.1934 0.0000
# 6 0.0000 0.0000 0.0000 3.1125 0.0000 45.0869
#
#
#
# Elastic Compliance Matrix: (Units=1/GPa)
#
#
# Indices 1 2 3 4 5 6 
#
# 1 0.025884 -0.017372 -0.000290 0.000000 0.015224 0.000000
# 2 -0.017372 0.024460 -0.005683 0.000000 -0.016676 0.000000
# 3 -0.000290 -0.005683 0.024716 0.000000 0.006248 0.000000
# 4 0.000000 0.000000 0.000000 0.081758 0.000000 -0.005644
# 5 0.015224 -0.016676 0.006248 0.000000 0.057813 0.000000
# 6 0.000000 0.000000 0.000000 -0.005644 0.000000 0.022569
#
#
# Mechanical properties :
#
#
# Convention : Reuss Voigt Hill
#
# Bulk Modulus (GPa) = 35.25102 44.50594 39.87848
# Shear Modulus (GPa) = 17.04465 24.42229 20.73347
#
# Velocity S-wave (km/s) = 3.04264 3.64208 3.35577
# Velocity P-wave (km/s) = 5.61158 6.46988 6.05595
#
# Compressibility (1/GPa) = 0.02836798
#
# Stress axis : x y z
#
# Youngs Moduli (GPa) = 38.63453 40.88387 40.45933
#
# Poissons Ratio (x) = 0.71025 0.01173
# Poissons Ratio (y) = 0.67117 0.22995
# Poissons Ratio (z) = 0.01120 0.23236
#
# Static dielectric constant tensor:
#      x y z
#    x 1.760660 0.000000 0.049980 
#    y 0.000000 1.662390 0.000000 
#    z 0.049980 0.000000 1.726700 
# 
# From -- ./inp_files/199780.got.cif
#   From: 2010.05.17/outbox.cif.g08.bks.cpg/sg12_100_cif.got.tgz:199780.got - 2010.06.03 13:09:07.
