data_PCOD9188973
_publ_section_title
;
Structure prediction by ZEFSAII (Michael W. Deem and Ramdas Pophale) SiO2 
 PCOD9188973
Probable space group: C 2/M
;
_chemical_formula_sum "Si O2"
_cell_formula_units_Z 48
_cell_length_a 16.319551
_cell_length_b 26.252362
_cell_length_c 8.819881
_cell_angle_alpha 90.000000
_cell_angle_beta 32.011813
_cell_angle_gamma 90.000000
_cell_volume 2003.052287
_symmetry_space_group_name_H-M "C 2/M"
_symmetry_group_IT_number 12
_symmetry_cell_setting 'monoclinic'
loop_
_space_group_symop_operation_xyz
x,y,z
-x,y,-z
-x,-y,-z
x,-y,z
1/2+x,1/2+y,z
1/2-x,1/2+y,-z
1/2-x,1/2-y,-z
1/2+x,1/2-y,z
loop_
_atom_site_type_symbol
_atom_site_label
_atom_site_fract_x
_atom_site_fract_y
_atom_site_fract_z
Si Si1 0.492244 0.314083 0.764150
Si Si2 0.734257 0.343402 0.610743
Si Si3 0.296690 0.058833 0.664730
Si Si4 0.095234 0.558202 0.994934
Si Si5 0.538982 0.802235 0.267010
Si Si6 0.705302 0.619125 0.113779
O O1 0.658622 0.323218 0.577020
O O2 0.471865 0.258042 0.730903
O O3 0.365365 0.318132 0.097535
O O4 0.451303 0.359574 0.714752
O O5 0.714953 0.403789 0.670613
O O6 0.910317 0.326961 0.360274
O O7 0.472627 0.058458 0.326594
O O8 0.273883 0.086894 0.861290
O O9 0.245069 0.000000 0.751092
O O10 0.131877 0.500000 0.896734
O O11 0.249630 0.584528 0.813614
O O12 0.000000 0.579957 0.000000
O O13 0.500000 0.816399 0.500000
O O14 0.703255 0.828661 0.989020
#
# Coordination Sequence:
#
# PCOD9188973 Si02
#       6
#     8   8   8   8   8   8
#     4  10  23  37  56  81 120 152 194 245 291 341
#     4  10  21  41  57  84 120 150 197 250 287 349
#     4  10  19  36  64  88 113 153 195 240 297 346
#     4  10  20  35  56  88 122 149 188 245 295 346
#     4  12  20  37  58  81 115 159 195 244 289 343
#     4  11  20  38  59  89 115 149 198 246 285 348
#
# _framework density 23.963429999999999
#
# number of rings (size 3 to 8) (size 9 to 14) (size 15 to 20)
#    0.000    1.500    5.000    2.000    0.000    1.333 
#    6.000    7.500    0.000    0.000    0.000    3.500 
#    0.000    0.000    0.000    0.000    0.000    0.000 
#
# Total GULP energy -134097.598162 kJ/mol
# GULP energy per Si atom -5587.399923 kJ/mol
# Density = 2.390889 g / cm^3
# Si number density = 23.963430 Si / 1000 Ang^3
#
#
#
# Elastic Constant Matrix: (Units=GPa)
#
#
# Indices 1 2 3 4 5 6 
#
# 1 140.6482 45.8451 12.0075 -0.0001 -18.5890 0.0001
# 2 45.8451 155.0135 -1.4214 0.0000 -5.4975 0.0000
# 3 12.0075 -1.4214 13.1660 0.0000 6.9490 0.0000
# 4 -0.0001 0.0000 0.0000 11.9196 0.0000 13.1907
# 5 -18.5890 -5.4975 6.9490 0.0000 39.3896 0.0000
# 6 0.0001 0.0000 0.0000 13.1907 0.0000 25.4238
#
#
#
# Elastic Compliance Matrix: (Units=1/GPa)
#
#
# Indices 1 2 3 4 5 6 
#
# 1 0.010015 -0.002846 -0.012930 0.000000 0.006610 0.000000
# 2 -0.002846 0.007293 0.003920 0.000000 -0.001017 0.000000
# 3 -0.012930 0.003920 0.100454 0.000000 -0.023277 0.000000
# 4 0.000000 0.000000 0.000000 0.197011 0.000000 -0.102216
# 5 0.006610 -0.001017 -0.023277 0.000000 0.032471 0.000000
# 6 0.000000 0.000000 0.000000 -0.102216 0.000000 0.092366
#
#
# Mechanical properties :
#
#
# Convention : Reuss Voigt Hill
#
# Bulk Modulus (GPa) = 10.63275 46.85443 28.74359
# Shear Modulus (GPa) = 10.10767 32.17304 21.14035
#
# Velocity S-wave (km/s) = 2.05599 3.66811 2.97339
# Velocity P-wave (km/s) = 3.17535 6.12658 4.87944
#
# Compressibility (1/GPa) = 0.09404909
#
# Stress axis : x y z
#
# Youngs Moduli (GPa) = 99.84847 137.12406 9.95478
#
# Poissons Ratio (x) = 0.39027 0.12872
# Poissons Ratio (y) = 0.28418 -0.03902
# Poissons Ratio (z) = 1.29105 -0.53748
#
# Static dielectric constant tensor:
#      x y z
#    x 1.926180 0.000000 0.009270 
#    y 0.000000 1.897200 0.000000 
#    z 0.009270 0.000000 2.028430 
# 
# From -- ./inp_files/67304.got.cif
#   From: 2010.05.17/outbox.cif.g08.bks.cpg/sg12_34_cif.got.tgz:67304.got - 2010.06.03 13:09:07.
