data_PCOD9188125
_publ_section_title
;
Structure prediction by ZEFSAII (Michael W. Deem and Ramdas Pophale) SiO2 
 PCOD9188125
Probable space group: C 2/M
;
_chemical_formula_sum "Si O2"
_cell_formula_units_Z 56
_cell_length_a 13.656740
_cell_length_b 30.184161
_cell_length_c 10.421025
_cell_angle_alpha 90.000000
_cell_angle_beta 33.946034
_cell_angle_gamma 90.000000
_cell_volume 2398.784164
_symmetry_space_group_name_H-M "C 2/M"
_symmetry_group_IT_number 12
_symmetry_cell_setting 'monoclinic'
loop_
_space_group_symop_operation_xyz
x,y,z
-x,y,-z
-x,-y,-z
x,-y,z
1/2+x,1/2+y,z
1/2-x,1/2+y,-z
1/2-x,1/2-y,-z
1/2+x,1/2-y,z
loop_
_atom_site_type_symbol
_atom_site_label
_atom_site_fract_x
_atom_site_fract_y
_atom_site_fract_z
Si Si1 0.718508 0.912649 0.877410
Si Si2 0.263030 0.674209 0.481522
Si Si3 0.041259 0.049763 0.185480
Si Si4 0.605933 0.639930 0.016980
Si Si5 0.704088 0.779940 0.280416
Si Si6 0.287435 0.314345 0.745097
Si Si7 0.157243 0.419525 0.638604
O O1 0.887951 0.937036 0.750078
O O2 0.727386 0.858944 0.882650
O O3 0.699561 0.916698 0.745111
O O4 0.546759 0.932991 0.134775
O O5 0.463888 0.657307 0.272593
O O6 0.252274 0.709109 0.377345
O O7 0.213032 0.686691 0.679702
O O8 0.161601 0.628363 0.564448
O O9 0.138937 0.088473 0.000657
O O10 0.830330 0.055269 0.399605
O O11 0.089726 0.000000 0.100339
O O12 0.500000 0.643621 0.000000
O O13 0.753465 0.676214 0.845170
O O14 0.500000 0.773650 0.500000
O O15 0.774747 0.734321 0.141618
O O16 0.500000 0.316935 0.500000
#
# Coordination Sequence:
#
# PCOD9188125 Si02
#       7
#     8   8   8   8   8   8   8
#     4  10  20  37  60  86 125 154 189 239 297 356
#     4   9  18  37  55  79 116 160 193 240 284 338
#     4  11  23  39  64  87 112 153 199 250 306 360
#     4   9  20  40  59  80 118 153 195 245 296 343
#     4  10  21  35  56  87 118 159 202 242 281 341
#     4  10  19  36  56  87 123 160 200 233 287 351
#     4   9  20  37  58  86 119 155 187 237 298 352
#
# _framework density 23.34516
#
# number of rings (size 3 to 8) (size 9 to 14) (size 15 to 20)
#    0.000    2.286    0.000    3.429    2.000    2.000 
#   18.000    3.571    0.000    0.429    0.000    0.000 
#    0.000    0.000    0.000    0.000    0.000    0.000 
#
# Total GULP energy -156024.575180 kJ/mol
# GULP energy per Si atom -5572.306256 kJ/mol
# Density = 2.329203 g / cm^3
# Si number density = 23.345160 Si / 1000 Ang^3
#
#
#
# Elastic Constant Matrix: (Units=GPa)
#
#
# Indices 1 2 3 4 5 6 
#
# 1 43.3070 6.4490 -3.5714 0.0000 -9.8695 0.0000
# 2 6.4490 139.0003 21.3428 0.0000 -6.0912 0.0000
# 3 -3.5714 21.3428 54.8138 0.0000 -10.0039 0.0000
# 4 0.0000 0.0000 0.0000 -110.4466 0.0000 -152.2803
# 5 -9.8695 -6.0912 -10.0039 0.0000 24.6289 0.0000
# 6 0.0000 0.0000 0.0000 -152.2803 0.0000 -166.4725
#
#
#
# Elastic Compliance Matrix: (Units=1/GPa)
#
#
# Indices 1 2 3 4 5 6 
#
# 1 0.026411 -0.001382 0.004459 0.000000 0.012053 0.000000
# 2 -0.001382 0.007736 -0.003083 0.000000 0.000107 0.000000
# 3 0.004459 -0.003083 0.021516 0.000000 0.009764 0.000000
# 4 0.000000 0.000000 0.000000 0.034660 0.000000 -0.031705
# 5 0.012053 0.000107 0.009764 0.000000 0.049425 0.000000
# 6 0.000000 0.000000 0.000000 -0.031705 0.000000 0.022995
#
#
# Mechanical properties :
#
#
# Convention : Reuss Voigt Hill
#
# Bulk Modulus (GPa) = 17.96874 31.72910 24.84892
# Shear Modulus (GPa) = 27.57743 -36.26469 -4.34363
#
# Velocity S-wave (km/s) = 3.44072 -3.94561 -1.36552
# Velocity P-wave (km/s) = 4.84752 2.67139 2.86025
#
# Compressibility (1/GPa) = 0.05565221
#
# Stress axis : x y z
#
# Youngs Moduli (GPa) = 37.86269 129.25929 46.47619
#
# Poissons Ratio (x) = 0.17861 -0.20722
# Poissons Ratio (y) = 0.05232 0.14327
# Poissons Ratio (z) = -0.16881 0.39847
#
# Static dielectric constant tensor:
#      x y z
#    x 1.953940 0.000000 0.011630 
#    y 0.000000 1.925320 0.000000 
#    z 0.011630 0.000000 1.954320 
# 
# From -- ./inp_files/150440.got.cif
#   From: 2010.05.17/outbox.cif.g08.bks.cpg/sg12_76_cif.got.tgz:150440.got - 2010.06.03 13:09:07.
