data_PCOD9188002
_publ_section_title
;
Structure prediction by ZEFSAII (Michael W. Deem and Ramdas Pophale) SiO2 
 PCOD9188002
Probable space group: C 2/M
;
_chemical_formula_sum "Si O2"
_cell_formula_units_Z 64
_cell_length_a 25.910368
_cell_length_b 14.333352
_cell_length_c 11.678728
_cell_angle_alpha 90.000000
_cell_angle_beta 138.378239
_cell_angle_gamma 90.000000
_cell_volume 2880.861757
_symmetry_space_group_name_H-M "C 2/M"
_symmetry_group_IT_number 12
_symmetry_cell_setting 'monoclinic'
loop_
_space_group_symop_operation_xyz
x,y,z
-x,y,-z
-x,-y,-z
x,-y,z
1/2+x,1/2+y,z
1/2-x,1/2+y,-z
1/2-x,1/2-y,-z
1/2+x,1/2-y,z
loop_
_atom_site_type_symbol
_atom_site_label
_atom_site_fract_x
_atom_site_fract_y
_atom_site_fract_z
Si Si1 0.669140 0.845821 0.255760
Si Si2 0.418796 0.602211 0.434575
Si Si3 0.543601 0.397695 0.232350
Si Si4 0.605413 0.893835 0.914074
Si Si5 0.167450 0.278105 0.813040
Si Si6 0.545711 0.183722 0.225917
Si Si7 0.698806 0.370971 0.354398
Si Si8 0.171132 0.603671 0.596886
O O1 0.585231 0.857871 0.177171
O O2 0.686342 0.737502 0.305510
O O3 0.738276 0.892203 0.441765
O O4 0.664682 0.874123 0.117094
O O5 0.500000 0.606133 0.500000
O O6 0.383241 0.500000 0.351592
O O7 0.433098 0.606858 0.594817
O O8 0.369119 0.687722 0.306987
O O9 0.501791 0.500000 0.149805
O O10 0.514392 0.290850 0.161376
O O11 0.616927 0.402733 0.268239
O O12 0.616960 0.820038 0.832438
O O13 0.521370 0.876783 0.829624
O O14 0.614301 0.000000 0.889011
O O15 0.174592 0.357468 0.729293
O O16 0.250000 0.250000 0.000000
O O17 0.619655 0.175417 0.435511
O O18 0.742876 0.403039 0.314009
O O19 0.136109 0.500000 0.532242
#
# Coordination Sequence:
#
# PCOD9188002 Si02
#       8
#     8   8   8   8   8   8   8   8
#     4   9  20  37  61  89 126 163 205 256 318 368
#     4  10  22  42  68  92 119 162 217 273 327 383
#     4  10  19  35  66  96 117 153 210 266 320 376
#     4  12  26  41  62  92 128 172 216 253 309 384
#     4  12  27  43  62  90 132 169 210 267 326 383
#     4  10  21  40  63  92 129 164 209 268 317 372
#     4   9  19  37  63  93 123 160 205 263 319 369
#     4  11  22  39  61  88 128 173 213 255 315 380
#
# _framework density 22.215575000000001
#
# number of rings (size 3 to 8) (size 9 to 14) (size 15 to 20)
#    0.000    1.625    1.250    3.750    1.750    4.500 
#    0.000    1.250    0.000    7.500    0.000    0.000 
#    0.000    0.000    0.000    0.000    0.000    0.000 
#
# Total GULP energy -178643.588392 kJ/mol
# GULP energy per Si atom -5582.612137 kJ/mol
# Density = 2.216501 g / cm^3
# Si number density = 22.215575 Si / 1000 Ang^3
#
#
#
# Elastic Constant Matrix: (Units=GPa)
#
#
# Indices 1 2 3 4 5 6 
#
# 1 85.7317 15.0601 23.1427 0.0000 -20.6805 0.0000
# 2 15.0601 114.7660 2.0393 0.0000 -4.7768 0.0000
# 3 23.1427 2.0393 36.8832 0.0000 -13.5785 0.0000
# 4 0.0000 0.0000 0.0000 15.7603 0.0000 -20.7059
# 5 -20.6805 -4.7768 -13.5785 0.0000 30.1464 0.0000
# 6 0.0000 0.0000 0.0000 -20.7059 0.0000 18.4578
#
#
#
# Elastic Compliance Matrix: (Units=1/GPa)
#
#
# Indices 1 2 3 4 5 6 
#
# 1 0.015600 -0.001619 -0.007017 0.000000 0.007285 0.000000
# 2 -0.001619 0.008939 0.000760 0.000000 0.000648 0.000000
# 3 -0.007017 0.000760 0.035659 0.000000 0.011368 0.000000
# 4 0.000000 0.000000 0.000000 -0.133912 0.000000 -0.150223
# 5 0.007285 0.000648 0.011368 0.000000 0.043392 0.000000
# 6 0.000000 0.000000 0.000000 -0.150223 0.000000 -0.114342
#
#
# Mechanical properties :
#
#
# Convention : Reuss Voigt Hill
#
# Bulk Modulus (GPa) = 22.49915 35.31834 28.90875
# Shear Modulus (GPa) = -43.82242 26.01549 -8.90347
#
# Velocity S-wave (km/s) = -4.44621 3.42577 -2.00411
# Velocity P-wave (km/s) = 4.02601 5.61964 2.77233
#
# Compressibility (1/GPa) = 0.04444612
#
# Stress axis : x y z
#
# Youngs Moduli (GPa) = 64.10189 111.86520 28.04368
#
# Poissons Ratio (x) = 0.18114 0.19679
# Poissons Ratio (y) = 0.10380 -0.02132
# Poissons Ratio (z) = 0.44981 -0.08506
#
# Static dielectric constant tensor:
#      x y z
#    x 1.751230 0.000000 -0.019880 
#    y 0.000000 1.854110 0.000000 
#    z -0.019880 0.000000 1.813660 
# 
# From -- ./inp_files/183838.got.cif
#   From: 2010.05.17/outbox.cif.g08.bks.cpg/sg12_92_cif.got.tgz:183838.got - 2010.06.03 13:09:07.
