data_PCOD9188951
_publ_section_title
;
Structure prediction by ZEFSAII (Michael W. Deem and Ramdas Pophale) SiO2 
 PCOD9188951
Probable space group: C 2/M
;
_chemical_formula_sum "Si O2"
_cell_formula_units_Z 52
_cell_length_a 19.376531
_cell_length_b 7.260192
_cell_length_c 25.191302
_cell_angle_alpha 90.000000
_cell_angle_beta 143.966149
_cell_angle_gamma 90.000000
_cell_volume 2084.713479
_symmetry_space_group_name_H-M "C 2/M"
_symmetry_group_IT_number 12
_symmetry_cell_setting 'monoclinic'
loop_
_space_group_symop_operation_xyz
x,y,z
-x,y,-z
-x,-y,-z
x,-y,z
1/2+x,1/2+y,z
1/2-x,1/2+y,-z
1/2-x,1/2-y,-z
1/2+x,1/2-y,z
loop_
_atom_site_type_symbol
_atom_site_label
_atom_site_fract_x
_atom_site_fract_y
_atom_site_fract_z
Si Si1 0.177501 0.778880 0.213143
Si Si2 0.761366 0.000000 0.064828
Si Si3 0.446176 0.222512 0.191569
Si Si4 0.562490 0.279590 0.981376
Si Si5 0.214249 0.292560 0.352136
Si Si6 0.534090 0.209688 0.464199
Si Si7 0.114517 0.276905 0.726940
O O1 0.238556 0.710617 0.304387
O O2 0.257129 0.721589 0.213228
O O3 0.042946 0.725316 0.124448
O O4 0.179902 0.000000 0.215949
O O5 0.854379 0.838642 0.101125
O O6 0.674146 0.839656 0.036149
O O7 0.582172 0.280259 0.271911
O O8 0.413293 0.281567 0.231324
O O9 0.436307 0.000000 0.177569
O O10 0.587339 0.500000 0.994915
O O11 0.500000 0.248140 0.000000
O O12 0.207478 0.500000 0.368398
O O13 0.324986 0.205698 0.449969
O O14 0.500000 0.294960 0.500000
O O15 0.476502 0.286235 0.375013
O O16 0.488155 0.000000 0.438070
O O17 0.110025 0.500000 0.726554
#
# Coordination Sequence:
#
# PCOD9188951 Si02
#       7
#     8   4   8   8   8   8   8
#     4  10  20  38  68  91 120 164 210 259 319 373
#     4  12  23  40  68  92 122 173 213 266 318 380
#     4  10  24  44  63  90 130 172 216 261 318 380
#     4  10  22  40  65  99 133 164 207 270 324 381
#     4  11  24  40  61  89 131 171 203 262 322 377
#     4  10  19  36  63  93 123 161 211 259 311 377
#     4   9  18  38  64  92 123 166 209 260 309 372
#
# _framework density 24.943477000000001
#
# number of rings (size 3 to 8) (size 9 to 14) (size 15 to 20)
#    0.000    1.846    1.538    2.077    3.231    3.385 
#    2.769    0.769    0.000    0.000    0.000    0.000 
#    0.000    0.000    0.000    0.000    0.000    0.000 
#
# Total GULP energy -144941.412322 kJ/mol
# GULP energy per Si atom -5574.669705 kJ/mol
# Density = 2.488670 g / cm^3
# Si number density = 24.943477 Si / 1000 Ang^3
#
#
#
# Elastic Constant Matrix: (Units=GPa)
#
#
# Indices 1 2 3 4 5 6 
#
# 1 77.6037 4.9554 22.3866 0.0002 18.3612 0.0001
# 2 4.9554 135.5845 21.1425 0.0003 13.0703 0.0005
# 3 22.3866 21.1425 123.5158 0.0000 18.1692 0.0000
# 4 0.0002 0.0003 0.0000 26.9819 0.0000 11.3848
# 5 18.3612 13.0703 18.1692 0.0000 47.7941 0.0000
# 6 0.0001 0.0005 0.0000 11.3848 0.0000 6.3471
#
#
#
# Elastic Compliance Matrix: (Units=1/GPa)
#
#
# Indices 1 2 3 4 5 6 
#
# 1 0.014603 0.000248 -0.001964 0.000000 -0.004932 0.000000
# 2 0.000248 0.007710 -0.001102 0.000001 -0.001785 -0.000002
# 3 -0.001964 -0.001102 0.008988 0.000000 -0.002361 0.000000
# 4 0.000000 0.000001 0.000000 0.152419 0.000000 -0.273395
# 5 -0.004932 -0.001785 -0.002361 0.000000 0.024203 0.000000
# 6 0.000000 -0.000002 0.000000 -0.273395 0.000000 0.647943
#
#
# Mechanical properties :
#
#
# Convention : Reuss Voigt Hill
#
# Bulk Modulus (GPa) = 38.96262 48.18589 43.57426
# Shear Modulus (GPa) = 5.74674 35.43924 20.59299
#
# Velocity S-wave (km/s) = 1.51951 3.77342 2.87642
# Velocity P-wave (km/s) = 4.32814 6.19232 5.34218
#
# Compressibility (1/GPa) = 0.02566563
#
# Stress axis : x y z
#
# Youngs Moduli (GPa) = 68.47684 129.69598 111.25920
#
# Poissons Ratio (x) = -0.03215 0.21849
# Poissons Ratio (y) = -0.01697 0.12263
# Poissons Ratio (z) = 0.13448 0.14295
#
# Static dielectric constant tensor:
#      x y z
#    x 1.967220 0.000000 -0.038340 
#    y 0.000000 2.209050 0.000000 
#    z -0.038340 0.000000 2.003530 
# 
# From -- ./inp_files/380410.got.cif
#   From: 2010.05.17/outbox.cif.g08.bks.cpg/sg12_191_cif.got.tgz:380410.got - 2010.06.03 13:09:07.
