data_PCOD9188909
_publ_section_title
;
Structure prediction by ZEFSAII (Michael W. Deem and Ramdas Pophale) SiO2 
 PCOD9188909
Probable space group: C 2/M
;
_chemical_formula_sum "Si O2"
_cell_formula_units_Z 64
_cell_length_a 12.822708
_cell_length_b 15.261305
_cell_length_c 28.091673
_cell_angle_alpha 90.000000
_cell_angle_beta 146.325469
_cell_angle_gamma 90.000000
_cell_volume 3048.110095
_symmetry_space_group_name_H-M "C 2/M"
_symmetry_group_IT_number 12
_symmetry_cell_setting 'monoclinic'
loop_
_space_group_symop_operation_xyz
x,y,z
-x,y,-z
-x,-y,-z
x,-y,z
1/2+x,1/2+y,z
1/2-x,1/2+y,-z
1/2-x,1/2-y,-z
1/2+x,1/2-y,z
loop_
_atom_site_type_symbol
_atom_site_label
_atom_site_fract_x
_atom_site_fract_y
_atom_site_fract_z
Si Si1 0.185835 0.402988 0.663492
Si Si2 0.231567 0.260783 0.358562
Si Si3 0.382207 0.649040 0.328612
Si Si4 0.486205 0.097258 0.144246
Si Si5 0.860311 0.596802 0.902322
Si Si6 0.711629 0.829835 0.521679
Si Si7 0.853528 0.324244 0.253090
Si Si8 0.791192 0.785689 0.898897
O O1 0.241591 0.500000 0.669767
O O2 0.311972 0.325051 0.690065
O O3 0.179341 0.393815 0.718064
O O4 0.973566 0.381556 0.564290
O O5 0.368137 0.316644 0.377271
O O6 0.306492 0.217939 0.434890
O O7 0.057822 0.322201 0.306243
O O8 0.593526 0.615302 0.401604
O O9 0.356085 0.732199 0.283049
O O10 0.194818 0.595902 0.246450
O O11 0.524042 0.114453 0.102562
O O12 0.357353 0.167759 0.122433
O O13 0.401497 0.000000 0.116830
O O14 0.768837 0.500000 0.861681
O O15 0.742709 0.683618 0.869696
O O16 0.000000 0.590033 0.000000
O O17 0.750000 0.750000 0.500000
O O18 0.713710 0.328454 0.155582
O O19 0.000000 0.789874 0.000000
#
# Coordination Sequence:
#
# PCOD9188909 Si02
#       8
#     8   8   8   8   8   8   8   8
#     4  11  24  39  61  95 128 158 204 263 313 363
#     4  10  19  36  63  84 120 164 203 243 309 373
#     4  10  20  36  61  86 118 166 214 247 300 377
#     4  11  23  40  63  91 126 168 215 262 313 376
#     4   9  20  40  64  92 125 158 199 257 320 379
#     4  11  20  34  60  91 119 165 205 252 305 375
#     4  10  20  40  63  87 124 167 202 249 313 379
#     4  11  23  39  69  97 123 165 214 264 318 378
#
# _framework density 20.996614999999998
#
# number of rings (size 3 to 8) (size 9 to 14) (size 15 to 20)
#    0.000    1.625    6.250    0.375    0.000    4.250 
#    0.000    2.500    0.000    3.000    0.000    0.000 
#    0.000    0.000    0.000    0.000    0.000    0.000 
#
# Total GULP energy -178400.476114 kJ/mol
# GULP energy per Si atom -5575.014879 kJ/mol
# Density = 2.094883 g / cm^3
# Si number density = 20.996615 Si / 1000 Ang^3
#
#
#
# Elastic Constant Matrix: (Units=GPa)
#
#
# Indices 1 2 3 4 5 6 
#
# 1 114.5439 30.9124 48.9157 0.0000 -23.9965 0.0000
# 2 30.9124 75.8926 2.8424 0.0000 -3.7705 0.0000
# 3 48.9157 2.8424 113.4600 0.0000 -13.9095 0.0000
# 4 0.0000 0.0000 0.0000 12.9784 0.0000 1.5147
# 5 -23.9965 -3.7705 -13.9095 0.0000 39.1198 0.0000
# 6 0.0000 0.0000 0.0000 1.5147 0.0000 14.8586
#
#
#
# Elastic Compliance Matrix: (Units=1/GPa)
#
#
# Indices 1 2 3 4 5 6 
#
# 1 0.013444 -0.004993 -0.004934 0.000000 0.006011 0.000000
# 2 -0.004993 0.015098 0.001649 0.000000 -0.001021 0.000000
# 3 -0.004934 0.001649 0.011029 0.000000 0.001054 0.000000
# 4 0.000000 0.000000 0.000000 0.077979 0.000000 -0.007949
# 5 0.006011 -0.001021 0.001054 0.000000 0.029526 0.000000
# 6 0.000000 0.000000 0.000000 -0.007949 0.000000 0.068112
#
#
# Mechanical properties :
#
#
# Convention : Reuss Voigt Hill
#
# Bulk Modulus (GPa) = 43.44960 52.13750 47.79355
# Shear Modulus (GPa) = 20.88432 28.13975 24.51204
#
# Velocity S-wave (km/s) = 3.15723 3.66485 3.42047
# Velocity P-wave (km/s) = 5.83347 6.54167 6.19769
#
# Compressibility (1/GPa) = 0.02301517
#
# Stress axis : x y z
#
# Youngs Moduli (GPa) = 74.38245 66.23577 90.67201
#
# Poissons Ratio (x) = 0.33069 0.44738
# Poissons Ratio (y) = 0.37136 -0.14952
# Poissons Ratio (z) = 0.36701 -0.10922
#
# Static dielectric constant tensor:
#      x y z
#    x 1.775470 0.000000 0.006250 
#    y 0.000000 1.791600 0.000000 
#    z 0.006250 0.000000 1.797990 
# 
# From -- ./inp_files/358464.got.cif
#   From: 2010.05.17/outbox.cif.g08.bks.cpg/sg12_180_cif.got.tgz:358464.got - 2010.06.03 13:09:07.
