data_PCOD9188411
_publ_section_title
;
Structure prediction by ZEFSAII (Michael W. Deem and Ramdas Pophale) SiO2 
 PCOD9188411
Probable space group: C 2/M
;
_chemical_formula_sum "Si O2"
_cell_formula_units_Z 64
_cell_length_a 15.438227
_cell_length_b 7.860658
_cell_length_c 26.553944
_cell_angle_alpha 90.000000
_cell_angle_beta 106.390601
_cell_angle_gamma 90.000000
_cell_volume 3091.484629
_symmetry_space_group_name_H-M "C 2/M"
_symmetry_group_IT_number 12
_symmetry_cell_setting 'monoclinic'
loop_
_space_group_symop_operation_xyz
x,y,z
-x,y,-z
-x,-y,-z
x,-y,z
1/2+x,1/2+y,z
1/2-x,1/2+y,-z
1/2-x,1/2-y,-z
1/2+x,1/2-y,z
loop_
_atom_site_type_symbol
_atom_site_label
_atom_site_fract_x
_atom_site_fract_y
_atom_site_fract_z
Si Si1 0.995203 0.702630 0.942160
Si Si2 0.308380 0.297066 0.058680
Si Si3 0.252628 0.795466 0.745690
Si Si4 0.191705 0.708906 0.134627
Si Si5 0.483269 0.800607 0.555159
Si Si6 0.795339 0.186844 0.558487
Si Si7 0.631481 0.705813 0.330066
Si Si8 0.066774 0.205928 0.665964
O O1 0.981768 0.500000 0.944693
O O2 0.090305 0.732378 0.931231
O O3 0.908631 0.766715 0.897462
O O4 0.000000 0.772782 0.000000
O O5 0.311598 0.500000 0.061611
O O6 0.258791 0.236047 0.101039
O O7 0.250000 0.250000 0.000000
O O8 0.278073 0.732337 0.805373
O O9 0.328744 0.753374 0.717103
O O10 0.155654 0.733074 0.709472
O O11 0.246236 0.000000 0.747641
O O12 0.192064 0.500000 0.135473
O O13 0.500000 0.758805 0.500000
O O14 0.400983 0.688383 0.561532
O O15 0.563452 0.768802 0.607620
O O16 0.457578 0.000000 0.553434
O O17 0.750000 0.250000 0.500000
O O18 0.801886 0.273991 0.614381
O O19 0.756233 0.000000 0.560040
O O20 0.631626 0.500000 0.334320
O O21 0.528246 0.761809 0.323925
O O22 0.067505 0.000000 0.665664
#
# Coordination Sequence:
#
# PCOD9188411 Si02
#       8
#     8   8   8   8   8   8   8   8
#     4  10  19  36  59  83 117 160 192 232 291 338
#     4  11  21  36  59  87 118 155 193 237 287 338
#     4  10  21  38  61  84 108 150 200 233 274 344
#     4   9  20  38  57  82 118 154 190 233 287 342
#     4  10  21  35  53  80 111 143 181 230 284 337
#     4  10  21  36  55  80 112 145 181 228 285 344
#     4   9  20  38  56  78 112 147 181 234 293 335
#     4   9  20  38  57  79 109 148 188 232 286 343
#
# _framework density 20.702026
#
# number of rings (size 3 to 8) (size 9 to 14) (size 15 to 20)
#    0.000    2.250    1.250    1.875    1.750    5.250 
#    0.000    3.125    0.000    0.000    0.000    0.000 
#    0.000    0.000    0.000    0.000    0.000    0.000 
#
# Total GULP energy -178543.197491 kJ/mol
# GULP energy per Si atom -5579.474922 kJ/mol
# Density = 2.065491 g / cm^3
# Si number density = 20.702026 Si / 1000 Ang^3
#
#
#
# Elastic Constant Matrix: (Units=GPa)
#
#
# Indices 1 2 3 4 5 6 
#
# 1 122.5935 -5.5545 97.2795 0.0000 9.0834 0.0000
# 2 -5.5545 18.0289 8.5784 0.0000 4.4055 0.0000
# 3 97.2795 8.5784 222.4452 0.0000 3.2951 0.0000
# 4 0.0000 0.0000 0.0000 14.7019 0.0000 -7.8917
# 5 9.0834 4.4055 3.2951 0.0000 36.2666 0.0000
# 6 0.0000 0.0000 0.0000 -7.8917 0.0000 22.5779
#
#
#
# Elastic Compliance Matrix: (Units=1/GPa)
#
#
# Indices 1 2 3 4 5 6 
#
# 1 0.013817 0.008204 -0.006301 0.000000 -0.003885 0.000000
# 2 0.008204 0.063036 -0.005883 0.000000 -0.009178 0.000000
# 3 -0.006301 -0.005883 0.007454 0.000000 0.001616 0.000000
# 4 0.000000 0.000000 0.000000 0.083728 0.000000 0.029266
# 5 -0.003885 -0.009178 0.001616 0.000000 0.029515 0.000000
# 6 0.000000 0.000000 0.000000 0.029266 0.000000 0.054520
#
#
# Mechanical properties :
#
#
# Convention : Reuss Voigt Hill
#
# Bulk Modulus (GPa) = 13.09814 62.63049 37.86431
# Shear Modulus (GPa) = 17.51452 32.22688 24.87070
#
# Velocity S-wave (km/s) = 2.91181 3.94979 3.46983
# Velocity P-wave (km/s) = 4.20067 7.14983 5.86369
#
# Compressibility (1/GPa) = 0.07634674
#
# Stress axis : x y z
#
# Youngs Moduli (GPa) = 72.37686 15.86403 134.15598
#
# Poissons Ratio (x) = -0.13015 0.84533
# Poissons Ratio (y) = -0.59379 0.78921
# Poissons Ratio (z) = 0.45605 0.09332
#
# Static dielectric constant tensor:
#      x y z
#    x 1.715400 0.000000 0.020000 
#    y 0.000000 1.758500 0.000000 
#    z 0.020000 0.000000 1.756620 
# 
# From -- ./inp_files/359896.got.cif
#   From: 2010.05.17/outbox.cif.g08.bks.cpg/sg12_180_cif.got.tgz:359896.got - 2010.06.03 13:09:07.
