data_PCOD9188658
_publ_section_title
;
Structure prediction by ZEFSAII (Michael W. Deem and Ramdas Pophale) SiO2 
 PCOD9188658
Probable space group: C 2/M
;
_chemical_formula_sum "Si O2"
_cell_formula_units_Z 52
_cell_length_a 12.607990
_cell_length_b 19.684054
_cell_length_c 11.868879
_cell_angle_alpha 90.000000
_cell_angle_beta 120.329167
_cell_angle_gamma 90.000000
_cell_volume 2542.439614
_symmetry_space_group_name_H-M "C 2/M"
_symmetry_group_IT_number 12
_symmetry_cell_setting 'monoclinic'
loop_
_space_group_symop_operation_xyz
x,y,z
-x,y,-z
-x,-y,-z
x,-y,z
1/2+x,1/2+y,z
1/2-x,1/2+y,-z
1/2-x,1/2-y,-z
1/2+x,1/2-y,z
loop_
_atom_site_type_symbol
_atom_site_label
_atom_site_fract_x
_atom_site_fract_y
_atom_site_fract_z
Si Si1 0.209010 0.223751 0.141423
Si Si2 0.192732 0.500000 0.013844
Si Si3 0.324930 0.354023 0.090646
Si Si4 0.977684 0.500000 0.294661
Si Si5 0.688680 0.778892 0.354873
Si Si6 0.611319 0.626076 0.642666
Si Si7 0.036153 0.347990 0.647213
Si Si8 0.706859 0.000000 0.269093
O O1 0.229371 0.297871 0.092630
O O2 0.144677 0.231257 0.228374
O O3 0.341431 0.188452 0.240098
O O4 0.143442 0.177122 0.013035
O O5 0.269007 0.429401 0.045773
O O6 0.139093 0.500000 0.111937
O O7 0.098676 0.500000 0.861731
O O8 0.422424 0.360485 0.245188
O O9 0.948904 0.429583 0.341684
O O10 0.118532 0.500000 0.328290
O O11 0.750000 0.750000 0.500000
O O12 0.805123 0.813945 0.358766
O O13 0.577204 0.826774 0.333300
O O14 0.500000 0.615593 0.500000
O O15 0.703398 0.563530 0.685442
O O16 0.000000 0.327248 0.500000
#
# Coordination Sequence:
#
# PCOD9188658 Si02
#       8
#     8   4   8   4   8   8   8   4
#     4  10  21  40  60  90 130 165 214 261 319 384
#     4  10  19  36  60  90 129 172 206 264 327 381
#     4   9  20  37  60  89 124 165 215 261 315 384
#     4  12  22  39  61  95 131 171 210 264 329 389
#     4  11  23  37  61  90 122 163 211 268 313 380
#     4  10  21  37  62  84 120 164 210 262 314 370
#     4  12  24  41  65  95 129 170 216 266 329 389
#     4  10  20  37  55  93 125 155 213 257 310 386
#
# _framework density 20.452794999999998
#
# number of rings (size 3 to 8) (size 9 to 14) (size 15 to 20)
#    0.000    1.538    4.615    0.692    4.308    0.000 
#    0.000    6.923    0.000    0.000    0.000    2.154 
#    0.000    0.154    0.000    0.000    0.000    0.000 
#
# Total GULP energy -144977.157710 kJ/mol
# GULP energy per Si atom -5576.044527 kJ/mol
# Density = 2.040624 g / cm^3
# Si number density = 20.452795 Si / 1000 Ang^3
#
#
#
# Elastic Constant Matrix: (Units=GPa)
#
#
# Indices 1 2 3 4 5 6 
#
# 1 35.9346 21.5665 32.5765 0.0000 -9.5392 0.0000
# 2 21.5665 126.5714 35.3625 0.0000 -9.0406 0.0000
# 3 32.5765 35.3625 161.0182 0.0000 -13.6356 0.0000
# 4 0.0000 0.0000 0.0000 35.7948 0.0000 -6.8095
# 5 -9.5392 -9.0406 -13.6356 0.0000 32.7575 0.0000
# 6 0.0000 0.0000 0.0000 -6.8095 0.0000 17.2540
#
#
#
# Elastic Compliance Matrix: (Units=1/GPa)
#
#
# Indices 1 2 3 4 5 6 
#
# 1 0.037840 -0.004218 -0.006110 0.000000 0.007312 0.000000
# 2 -0.004218 0.008970 -0.001048 0.000000 0.000811 0.000000
# 3 -0.006110 -0.001048 0.007776 0.000000 0.001168 0.000000
# 4 0.000000 0.000000 0.000000 0.030205 0.000000 0.011921
# 5 0.007312 0.000811 0.001168 0.000000 0.033367 0.000000
# 6 0.000000 0.000000 0.000000 0.011921 0.000000 0.062662
#
#
# Mechanical properties :
#
#
# Convention : Reuss Voigt Hill
#
# Bulk Modulus (GPa) = 31.41348 55.83726 43.62537
# Shear Modulus (GPa) = 23.34452 32.76250 28.05351
#
# Velocity S-wave (km/s) = 3.38210 4.00667 3.70756
# Velocity P-wave (km/s) = 5.53569 6.98314 6.30112
#
# Compressibility (1/GPa) = 0.03183347
#
# Stress axis : x y z
#
# Youngs Moduli (GPa) = 26.42706 111.48119 128.60575
#
# Poissons Ratio (x) = 0.47025 0.78579
# Poissons Ratio (y) = 0.11148 0.13477
# Poissons Ratio (z) = 0.16147 0.11682
#
# Static dielectric constant tensor:
#      x y z
#    x 1.716350 0.000000 -0.031500 
#    y 0.000000 1.758250 0.000000 
#    z -0.031500 0.000000 1.795820 
# 
# From -- ./inp_files/133120.got.cif
#   From: 2010.05.17/outbox.cif.g08.bks.cpg/sg12_67_cif.got.tgz:133120.got - 2010.06.03 13:09:07.
