data_PCOD9188608
_publ_section_title
;
Structure prediction by ZEFSAII (Michael W. Deem and Ramdas Pophale) SiO2 
 PCOD9188608
Probable space group: C 2/M
;
_chemical_formula_sum "Si O2"
_cell_formula_units_Z 48
_cell_length_a 21.009392
_cell_length_b 8.734416
_cell_length_c 21.457765
_cell_angle_alpha 90.000000
_cell_angle_beta 42.597167
_cell_angle_gamma 90.000000
_cell_volume 2665.125005
_symmetry_space_group_name_H-M "C 2/M"
_symmetry_group_IT_number 12
_symmetry_cell_setting 'monoclinic'
loop_
_space_group_symop_operation_xyz
x,y,z
-x,y,-z
-x,-y,-z
x,-y,z
1/2+x,1/2+y,z
1/2-x,1/2+y,-z
1/2-x,1/2-y,-z
1/2+x,1/2-y,z
loop_
_atom_site_type_symbol
_atom_site_label
_atom_site_fract_x
_atom_site_fract_y
_atom_site_fract_z
Si Si1 0.161950 0.318023 0.792204
Si Si2 0.413928 0.185056 0.790777
Si Si3 0.001981 0.685701 0.398857
Si Si4 0.965311 0.183354 0.887576
Si Si5 0.345849 0.185135 0.605647
Si Si6 0.704107 0.315577 0.897752
O O1 0.158459 0.500000 0.793774
O O2 0.244784 0.258560 0.687481
O O3 0.187058 0.259623 0.843274
O O4 0.061983 0.250933 0.843893
O O5 0.476776 0.236122 0.686404
O O6 0.445305 0.257363 0.832725
O O7 0.306018 0.224651 0.852000
O O8 0.419579 0.000000 0.791438
O O9 0.001374 0.500000 0.398874
O O10 0.905292 0.732956 0.501895
O O11 0.087911 0.727670 0.383021
O O12 0.971145 0.000000 0.883411
O O13 0.878640 0.227572 0.995034
O O14 0.337214 0.000000 0.611975
O O15 0.702718 0.500000 0.890296
#
# Coordination Sequence:
#
# PCOD9188608 Si02
#       6
#     8   8   8   8   8   8
#     4  12  24  37  56  84 115 149 188 235 283 327
#     4  10  19  36  60  87 116 145 181 228 281 335
#     4   8  15  30  59  88 110 142 183 225 275 333
#     4  11  24  39  56  81 114 153 191 229 278 335
#     4   9  16  33  59  85 111 144 185 226 275 335
#     4  10  21  39  62  83 109 148 191 232 277 333
#
# _framework density 18.010411000000001
#
# number of rings (size 3 to 8) (size 9 to 14) (size 15 to 20)
#    0.000    2.000    1.667    4.000    0.000    4.000 
#    0.000    3.333    0.000    0.000    0.000    0.000 
#    0.000    0.000    0.000    0.000    0.000    0.000 
#
# Total GULP energy -134010.400286 kJ/mol
# GULP energy per Si atom -5583.766679 kJ/mol
# Density = 1.796942 g / cm^3
# Si number density = 18.010411 Si / 1000 Ang^3
#
#
#
# Elastic Constant Matrix: (Units=GPa)
#
#
# Indices 1 2 3 4 5 6 
#
# 1 46.9683 6.6405 -4.9984 -0.0002 23.3257 0.0002
# 2 6.6405 17.0451 6.8900 0.0002 13.2447 -0.0002
# 3 -4.9984 6.8900 80.9999 -0.0002 32.4866 0.0001
# 4 -0.0002 0.0002 -0.0002 0.7556 0.0001 13.2000
# 5 23.3257 13.2447 32.4866 0.0001 -5.2277 0.0000
# 6 0.0002 -0.0002 0.0001 13.2000 0.0000 25.5853
#
#
#
# Elastic Compliance Matrix: (Units=1/GPa)
#
#
# Indices 1 2 3 4 5 6 
#
# 1 0.016385 -0.015752 -0.003140 -0.000001 0.013690 0.000000
# 2 -0.015752 0.059635 -0.011010 0.000004 0.012381 -0.000001
# 3 -0.003140 -0.011010 0.008560 -0.000001 0.011291 0.000000
# 4 -0.000001 0.000004 -0.000001 -0.165166 -0.000001 0.085213
# 5 0.013690 0.012381 0.011291 -0.000001 -0.028671 0.000000
# 6 0.000000 -0.000001 0.000000 0.085213 0.000000 -0.004878
#
#
# Mechanical properties :
#
#
# Convention : Reuss Voigt Hill
#
# Bulk Modulus (GPa) = 40.36192 18.00861 29.18527
# Shear Modulus (GPa) = -108.52270 13.32138 -47.60066
#
# Velocity S-wave (km/s) = -7.77087 2.72260 -5.14654
# Velocity P-wave (km/s) = 7.61946 4.46140 4.36761
#
# Compressibility (1/GPa) = 0.02477583
#
# Stress axis : x y z
#
# Youngs Moduli (GPa) = 61.03117 16.76879 116.82080
#
# Poissons Ratio (x) = 0.26414 0.36678
# Poissons Ratio (y) = 0.96136 1.28624
# Poissons Ratio (z) = 0.19162 0.18463
#
# Static dielectric constant tensor:
#      x y z
#    x 1.573430 0.000000 0.001360 
#    y 0.000000 1.605060 0.000000 
#    z 0.001360 0.000000 1.630080 
# 
# From -- ./inp_files/229846.got.cif
#   From: 2010.05.17/outbox.cif.g08.bks.cpg/sg12_115_cif.got.tgz:229846.got - 2010.06.03 13:09:07.
