data_PCOD9188444
_publ_section_title
;
Structure prediction by ZEFSAII (Michael W. Deem and Ramdas Pophale) SiO2 
 PCOD9188444
Probable space group: C 2/M
;
_chemical_formula_sum "Si O2"
_cell_formula_units_Z 58
_cell_length_a 22.842141
_cell_length_b 7.734890
_cell_length_c 20.454675
_cell_angle_alpha 90.000000
_cell_angle_beta 40.973372
_cell_angle_gamma 90.000000
_cell_volume 2369.704289
_symmetry_space_group_name_H-M "C 2/M"
_symmetry_group_IT_number 12
_symmetry_cell_setting 'monoclinic'
loop_
_space_group_symop_operation_xyz
x,y,z
-x,y,-z
-x,-y,-z
x,-y,z
1/2+x,1/2+y,z
1/2-x,1/2+y,-z
1/2-x,1/2-y,-z
1/2+x,1/2-y,z
loop_
_atom_site_type_symbol
_atom_site_label
_atom_site_fract_x
_atom_site_fract_y
_atom_site_fract_z
Si Si1 0.616924 0.803166 0.749347
Si Si2 0.500000 0.500000 0.500000
Si Si3 0.856376 0.793833 0.855035
Si Si4 0.317680 0.202058 0.171161
Si Si5 0.954156 0.290851 0.322771
Si Si6 0.308357 0.800654 0.547182
Si Si7 0.120213 0.309826 0.366005
Si Si8 0.160087 0.802373 0.986724
O O1 0.627510 0.725498 0.812858
O O2 0.561257 0.720545 0.737702
O O3 0.717508 0.801839 0.635312
O O4 0.584559 0.000000 0.784803
O O5 0.553958 0.651931 0.413186
O O6 0.767644 0.708449 0.902317
O O7 0.946293 0.756595 0.740491
O O8 0.840221 0.000000 0.870948
O O9 0.869481 0.727128 0.918609
O O10 0.219318 0.285631 0.252673
O O11 0.363769 0.218143 0.062074
O O12 0.302075 0.000000 0.198477
O O13 0.947692 0.500000 0.327151
O O14 0.875435 0.229403 0.436432
O O15 0.358911 0.803033 0.573635
O O16 0.284590 0.000000 0.551376
O O17 0.085062 0.500000 0.377837
O O18 0.130613 0.000000 0.008468
#
# Coordination Sequence:
#
# PCOD9188444 Si02
#       8
#     8   2   8   8   8   8   8   8
#     4   9  19  34  57  84 116 151 190 237 282 345
#     4  12  22  36  52  78 116 160 192 244 298 352
#     4  10  22  39  58  85 113 144 191 241 296 356
#     4  10  19  36  59  86 112 148 200 238 285 353
#     4  10  20  36  56  84 117 151 188 236 295 346
#     4   9  19  34  54  79 112 153 194 236 287 342
#     4  10  21  37  54  79 116 157 200 246 290 349
#     4  10  21  39  62  83 110 149 189 241 299 355
#
# _framework density 24.475629000000001
#
# number of rings (size 3 to 8) (size 9 to 14) (size 15 to 20)
#    0.000    2.207    0.690    1.862    0.966    4.414 
#    2.483    3.448    0.000    4.138    0.000    0.000 
#    0.000    0.000    0.000    0.000    0.000    0.000 
#
# Total GULP energy -161831.414479 kJ/mol
# GULP energy per Si atom -5580.393603 kJ/mol
# Density = 2.441992 g / cm^3
# Si number density = 24.475629 Si / 1000 Ang^3
#
#
#
# Elastic Constant Matrix: (Units=GPa)
#
#
# Indices 1 2 3 4 5 6 
#
# 1 35.4485 -5.5158 57.3150 -0.0098 15.7652 0.0106
# 2 -5.5158 98.0308 -2.7394 -0.0145 0.8385 0.0169
# 3 57.3150 -2.7394 33.4079 -0.0095 28.7323 0.0137
# 4 -0.0098 -0.0145 -0.0095 18.0766 0.0056 6.8399
# 5 15.7652 0.8385 28.7323 0.0056 38.3690 -0.0075
# 6 0.0106 0.0169 0.0137 6.8399 -0.0075 3.7554
#
#
#
# Elastic Compliance Matrix: (Units=1/GPa)
#
#
# Indices 1 2 3 4 5 6 
#
# 1 -0.006863 0.000497 0.026407 0.000189 -0.016965 -0.000457
# 2 0.000497 0.010267 0.001006 0.000095 -0.001182 -0.000227
# 3 0.026407 0.001006 -0.016681 0.000037 0.001619 -0.000083
# 4 0.000189 0.000095 0.000037 0.177971 -0.000198 -0.324146
# 5 -0.016965 -0.001182 0.001619 -0.000198 0.031847 0.000471
# 6 -0.000457 -0.000227 -0.000083 -0.324146 0.000471 0.856661
#
#
# Mechanical properties :
#
#
# Convention : Reuss Voigt Hill
#
# Bulk Modulus (GPa) = 23.50600 29.44519 26.47559
# Shear Modulus (GPa) = 4.94284 19.89537 12.41911
#
# Velocity S-wave (km/s) = 1.42263 2.85417 2.25501
# Velocity P-wave (km/s) = 3.51044 4.78730 4.19770
#
# Compressibility (1/GPa) = 0.04254234
#
# Stress axis : x y z
#
# Youngs Moduli (GPa) = -145.70256 97.39843 -59.94929
#
# Poissons Ratio (x) = -0.04840 1.58307
# Poissons Ratio (y) = 0.07241 0.06030
# Poissons Ratio (z) = 3.84754 -0.09797
#
# Static dielectric constant tensor:
#      x y z
#    x 1.978920 0.000000 0.043160 
#    y 0.000000 1.933580 0.000000 
#    z 0.043160 0.000000 1.940050 
# 
# From -- ./inp_files/324526.got.cif
#   From: 2010.05.17/outbox.cif.g08.bks.cpg/sg12_163_cif.got.tgz:324526.got - 2010.06.03 13:09:07.
