data_PCOD9188606
_publ_section_title
;
Structure prediction by ZEFSAII (Michael W. Deem and Ramdas Pophale) SiO2 
 PCOD9188606
Probable space group: C 2/M
;
_chemical_formula_sum "Si O2"
_cell_formula_units_Z 56
_cell_length_a 9.938503
_cell_length_b 16.158011
_cell_length_c 30.457034
_cell_angle_alpha 90.000000
_cell_angle_beta 144.622297
_cell_angle_gamma 90.000000
_cell_volume 2831.704808
_symmetry_space_group_name_H-M "C 2/M"
_symmetry_group_IT_number 12
_symmetry_cell_setting 'monoclinic'
loop_
_space_group_symop_operation_xyz
x,y,z
-x,y,-z
-x,-y,-z
x,-y,z
1/2+x,1/2+y,z
1/2-x,1/2+y,-z
1/2-x,1/2-y,-z
1/2+x,1/2-y,z
loop_
_atom_site_type_symbol
_atom_site_label
_atom_site_fract_x
_atom_site_fract_y
_atom_site_fract_z
Si Si1 0.538289 0.165353 0.059739
Si Si2 0.488942 0.256743 0.447543
Si Si3 0.941552 0.863060 0.032476
Si Si4 0.936453 0.832834 0.771962
Si Si5 0.733921 0.088672 0.800788
Si Si6 0.743638 0.845657 0.302334
Si Si7 0.335829 0.597881 0.649599
O O1 0.496859 0.264541 0.048456
O O2 0.796724 0.150768 0.144819
O O3 0.500000 0.135835 0.000000
O O4 0.332230 0.126650 0.033018
O O5 0.500000 0.289291 0.500000
O O6 0.358682 0.317024 0.378865
O O7 0.360578 0.166875 0.414367
O O8 0.750000 0.250000 0.500000
O O9 0.094995 0.898290 0.112713
O O10 0.000000 0.895232 0.000000
O O11 0.783430 0.849270 0.774451
O O12 0.886098 0.737120 0.748693
O O13 0.879288 0.884623 0.712964
O O14 0.469197 0.093220 0.745984
O O15 0.787294 0.000000 0.794945
O O16 0.938671 0.877699 0.320164
O O17 0.281281 0.500000 0.628268
#
# Coordination Sequence:
#
# PCOD9188606 Si02
#       7
#     8   8   8   8   8   8   8
#     4  10  19  36  60  87 114 161 225 273 305 367
#     4  11  23  46  73 101 128 166 213 257 301 374
#     4  10  22  35  58  87 120 161 218 273 321 368
#     4  11  22  40  66  92 122 171 225 263 309 381
#     4  12  25  41  60  92 134 167 206 269 331 376
#     4  11  24  42  69  95 127 169 216 253 307 384
#     4  11  25  43  66  99 135 169 205 258 320 379
#
# _framework density 19.776071999999999
#
# number of rings (size 3 to 8) (size 9 to 14) (size 15 to 20)
#    0.000    1.143    4.286    2.571    4.000    0.571 
#    0.000    2.143    0.000    2.143    0.000    0.000 
#    0.000    0.000    0.000    0.000    0.000    0.000 
#
# Total GULP energy -156334.964900 kJ/mol
# GULP energy per Si atom -5583.391604 kJ/mol
# Density = 1.973106 g / cm^3
# Si number density = 19.776072 Si / 1000 Ang^3
#
#
#
# Elastic Constant Matrix: (Units=GPa)
#
#
# Indices 1 2 3 4 5 6 
#
# 1 131.1390 14.4248 39.2422 0.0001 6.3922 0.0000
# 2 14.4248 57.4842 8.7032 0.0000 -3.9498 0.0000
# 3 39.2422 8.7032 99.2827 0.0002 2.5407 0.0003
# 4 0.0001 0.0000 0.0002 -12.5988 0.0001 12.4676
# 5 6.3922 -3.9498 2.5407 0.0001 44.6589 0.0001
# 6 0.0000 0.0000 0.0003 12.4676 0.0001 -8.8993
#
#
#
# Elastic Compliance Matrix: (Units=1/GPa)
#
#
# Indices 1 2 3 4 5 6 
#
# 1 0.008878 -0.001811 -0.003319 0.000000 -0.001242 0.000000
# 2 -0.001811 0.018122 -0.000922 0.000000 0.001914 0.000000
# 3 -0.003319 -0.000922 0.011471 -0.000002 -0.000259 -0.000002
# 4 0.000000 0.000000 -0.000002 0.205422 -0.000001 0.287791
# 5 -0.001242 0.001914 -0.000259 -0.000001 0.022754 -0.000001
# 6 0.000000 0.000000 -0.000002 0.287791 -0.000001 0.290818
#
#
# Mechanical properties :
#
#
# Convention : Reuss Voigt Hill
#
# Bulk Modulus (GPa) = 37.92372 45.84960 41.88666
# Shear Modulus (GPa) = 8.64517 19.66788 14.15652
#
# Velocity S-wave (km/s) = 2.09309 3.15704 2.67842
# Velocity P-wave (km/s) = 5.00595 6.04350 5.54903
#
# Compressibility (1/GPa) = 0.02636872
#
# Stress axis : x y z
#
# Youngs Moduli (GPa) = 112.63407 55.18287 87.17316
#
# Poissons Ratio (x) = 0.09992 0.28930
# Poissons Ratio (y) = 0.20396 0.08036
# Poissons Ratio (z) = 0.37380 0.05087
#
# Static dielectric constant tensor:
#      x y z
#    x 1.928960 0.000000 0.055200 
#    y 0.000000 1.700830 0.000000 
#    z 0.055200 0.000000 1.683490 
# 
# From -- ./inp_files/372819.got.cif
#   From: 2010.05.17/outbox.cif.g08.bks.cpg/sg12_187_cif.got.tgz:372819.got - 2010.06.03 13:09:07.
