data_PCOD9188218
_publ_section_title
;
Structure prediction by ZEFSAII (Michael W. Deem and Ramdas Pophale) SiO2 
 PCOD9188218
Probable space group: C 2/M
;
_chemical_formula_sum "Si O2"
_cell_formula_units_Z 48
_cell_length_a 8.924942
_cell_length_b 16.837231
_cell_length_c 26.762121
_cell_angle_alpha 90.000000
_cell_angle_beta 39.075482
_cell_angle_gamma 90.000000
_cell_volume 2534.976832
_symmetry_space_group_name_H-M "C 2/M"
_symmetry_group_IT_number 12
_symmetry_cell_setting 'monoclinic'
loop_
_space_group_symop_operation_xyz
x,y,z
-x,y,-z
-x,-y,-z
x,-y,z
1/2+x,1/2+y,z
1/2-x,1/2+y,-z
1/2-x,1/2-y,-z
1/2+x,1/2-y,z
loop_
_atom_site_type_symbol
_atom_site_label
_atom_site_fract_x
_atom_site_fract_y
_atom_site_fract_z
Si Si1 0.991976 0.212045 0.056453
Si Si2 0.103350 0.790802 0.309088
Si Si3 0.629942 0.863898 0.586032
Si Si4 0.535853 0.590842 0.411979
Si Si5 0.473859 0.317521 0.841237
Si Si6 0.403833 0.412601 0.281335
O O1 0.957836 0.167993 0.118363
O O2 0.785589 0.278229 0.101269
O O3 0.250000 0.250000 0.000000
O O4 0.000000 0.169058 0.000000
O O5 0.335679 0.746199 0.229080
O O6 0.931253 0.723783 0.377280
O O7 0.148521 0.855595 0.339914
O O8 0.992060 0.840567 0.292811
O O9 0.792282 0.868786 0.494797
O O10 0.380306 0.906739 0.643392
O O11 0.783145 0.906839 0.588786
O O12 0.489492 0.500000 0.409095
O O13 0.507356 0.393676 0.797544
O O14 0.482689 0.500000 0.277303
#
# Coordination Sequence:
#
# PCOD9188218 Si02
#       6
#     8   8   8   8   8   8
#     4   9  18  34  62  92 112 141 185 229 266 326
#     4  11  22  35  56  82 114 147 195 234 278 329
#     4  10  21  38  55  76 107 151 199 242 276 329
#     4  11  22  37  54  78 112 151 193 240 292 332
#     4  10  19  36  57  90 115 145 187 230 273 330
#     4  11  22  36  55  83 117 152 186 232 287 333
#
# _framework density 18.935084
#
# number of rings (size 3 to 8) (size 9 to 14) (size 15 to 20)
#    0.000    1.667    1.667    5.000    2.333    2.000 
#    0.000    1.667    0.000    5.000    0.000    0.000 
#    0.000    0.000    0.000    0.000    0.000    0.000 
#
# Total GULP energy -133801.457786 kJ/mol
# GULP energy per Si atom -5575.060741 kJ/mol
# Density = 1.889199 g / cm^3
# Si number density = 18.935084 Si / 1000 Ang^3
#
#
#
# Elastic Constant Matrix: (Units=GPa)
#
#
# Indices 1 2 3 4 5 6 
#
# 1 68.1196 17.1297 20.9620 -0.0033 3.7664 0.0008
# 2 17.1297 108.1075 27.3066 0.0023 4.7360 0.0024
# 3 20.9620 27.3066 74.5011 -0.0081 -1.1239 -0.0055
# 4 -0.0033 0.0023 -0.0081 -16.7968 0.0090 -28.1233
# 5 3.7664 4.7360 -1.1239 0.0090 41.3492 0.0087
# 6 0.0008 0.0024 -0.0055 -28.1233 0.0087 -29.3779
#
#
#
# Elastic Compliance Matrix: (Units=1/GPa)
#
#
# Indices 1 2 3 4 5 6 
#
# 1 0.016394 -0.001504 -0.004083 0.000006 -0.001432 -0.000005
# 2 -0.001504 0.010399 -0.003406 -0.000001 -0.001147 0.000003
# 3 -0.004083 -0.003406 0.015838 0.000003 0.001192 -0.000006
# 4 0.000006 -0.000001 0.000003 0.098761 -0.000002 -0.094544
# 5 -0.001432 -0.001147 0.001192 -0.000002 0.024478 0.000009
# 6 -0.000005 0.000003 -0.000006 -0.094544 0.000009 0.056467
#
#
# Mechanical properties :
#
#
# Convention : Reuss Voigt Hill
#
# Bulk Modulus (GPa) = 40.57523 42.39165 41.48344
# Shear Modulus (GPa) = 20.11775 11.39021 15.75398
#
# Velocity S-wave (km/s) = 3.26307 2.45529 2.88757
# Velocity P-wave (km/s) = 5.97260 5.52037 5.75093
#
# Compressibility (1/GPa) = 0.02464558
#
# Stress axis : x y z
#
# Youngs Moduli (GPa) = 60.99859 96.16543 63.14028
#
# Poissons Ratio (x) = 0.14459 0.25781
# Poissons Ratio (y) = 0.09171 0.21504
# Poissons Ratio (z) = 0.24907 0.32751
#
# Static dielectric constant tensor:
#      x y z
#    x 1.691050 0.000000 0.047460 
#    y 0.000000 1.645120 0.000000 
#    z 0.047460 0.000000 1.700200 
# 
# From -- ./inp_files/256130.got.cif
#   From: 2010.05.17/outbox.cif.g08.bks.cpg/sg12_129_cif.got.tgz:256130.got - 2010.06.03 13:09:07.
