data_PCOD9188478
_publ_section_title
;
Structure prediction by ZEFSAII (Michael W. Deem and Ramdas Pophale) SiO2 
 PCOD9188478
Probable space group: C 2/M
;
_chemical_formula_sum "Si O2"
_cell_formula_units_Z 48
_cell_length_a 9.760196
_cell_length_b 23.489899
_cell_length_c 13.123812
_cell_angle_alpha 90.000000
_cell_angle_beta 46.959979
_cell_angle_gamma 90.000000
_cell_volume 2199.095412
_symmetry_space_group_name_H-M "C 2/M"
_symmetry_group_IT_number 12
_symmetry_cell_setting 'monoclinic'
loop_
_space_group_symop_operation_xyz
x,y,z
-x,y,-z
-x,-y,-z
x,-y,z
1/2+x,1/2+y,z
1/2-x,1/2+y,-z
1/2-x,1/2-y,-z
1/2+x,1/2-y,z
loop_
_atom_site_type_symbol
_atom_site_label
_atom_site_fract_x
_atom_site_fract_y
_atom_site_fract_z
Si Si1 0.697463 0.125357 0.508092
Si Si2 0.717079 0.190819 0.075329
Si Si3 0.772356 0.382217 0.115092
Si Si4 0.789682 0.681923 0.693007
Si Si5 0.235309 0.311313 0.685572
Si Si6 0.332607 0.500000 0.732226
Si Si7 0.235027 0.500000 0.553231
O O1 0.502723 0.156783 0.396123
O O2 0.795964 0.141692 0.351554
O O3 0.796981 0.151475 0.557091
O O4 0.661453 0.058876 0.544176
O O5 0.784145 0.140752 0.966781
O O6 0.204807 0.187041 0.849479
O O7 0.750000 0.250000 0.000000
O O8 0.491293 0.187275 0.198051
O O9 0.707631 0.338672 0.236175
O O10 0.706868 0.444130 0.182255
O O11 0.000000 0.382611 0.000000
O O12 0.793695 0.745976 0.648546
O O13 0.213805 0.500000 0.686833
O O14 0.545874 0.500000 0.586610
#
# Coordination Sequence:
#
# PCOD9188478 Si02
#       7
#     8   8   8   8   8   4   4
#     4  10  22  41  59  87 119 159 211 247 301 356
#     4  10  20  34  57  88 123 159 191 239 305 370
#     4  10  20  37  61  89 118 153 195 252 298 356
#     4  10  21  37  58  89 122 162 194 241 309 363
#     4  10  19  36  59  89 122 150 201 249 301 359
#     4  11  23  42  61  91 114 156 212 256 311 335
#     4  11  24  43  63  85 121 164 204 262 302 359
#
# _framework density 21.827155999999999
#
# number of rings (size 3 to 8) (size 9 to 14) (size 15 to 20)
#    0.000    1.833    3.333    0.750    0.000    2.667 
#    6.000    0.833    0.000    1.000    0.000    0.000 
#    0.000    0.000    0.000    0.000    0.000    0.000 
#
# Total GULP energy -134133.217680 kJ/mol
# GULP energy per Si atom -5588.884070 kJ/mol
# Density = 2.177748 g / cm^3
# Si number density = 21.827156 Si / 1000 Ang^3
#
#
#
# Elastic Constant Matrix: (Units=GPa)
#
#
# Indices 1 2 3 4 5 6 
#
# 1 54.0267 23.0209 39.5707 0.0000 22.1653 0.0000
# 2 23.0209 178.8602 51.4527 0.0000 36.8219 0.0000
# 3 39.5707 51.4527 130.9843 0.0000 38.7447 0.0000
# 4 0.0000 0.0000 0.0000 51.8334 0.0000 -3.5398
# 5 22.1653 36.8219 38.7447 0.0000 49.8040 0.0000
# 6 0.0000 0.0000 0.0000 -3.5398 0.0000 2.3993
#
#
#
# Elastic Compliance Matrix: (Units=1/GPa)
#
#
# Indices 1 2 3 4 5 6 
#
# 1 0.025509 -0.000276 -0.005586 0.000000 -0.006804 0.000000
# 2 -0.000276 0.006830 -0.001484 0.000000 -0.003773 0.000000
# 3 -0.005586 -0.001484 0.011489 0.000000 -0.005355 0.000000
# 4 0.000000 0.000000 0.000000 0.021454 0.000000 0.031653
# 5 -0.006804 -0.003773 -0.005355 0.000000 0.030062 0.000000
# 6 0.000000 0.000000 0.000000 0.031653 0.000000 0.463484
#
#
# Mechanical properties :
#
#
# Convention : Reuss Voigt Hill
#
# Bulk Modulus (GPa) = 34.31956 65.77331 50.04643
# Shear Modulus (GPa) = 8.57295 37.46247 23.01771
#
# Velocity S-wave (km/s) = 1.98398 4.14735 3.25090
# Velocity P-wave (km/s) = 4.58320 7.28925 6.08847
#
# Compressibility (1/GPa) = 0.02913790
#
# Stress axis : x y z
#
# Youngs Moduli (GPa) = 39.20147 146.41431 87.04267
#
# Poissons Ratio (x) = 0.04038 0.48618
# Poissons Ratio (y) = 0.01081 0.12914
# Poissons Ratio (z) = 0.21896 0.21723
#
# Static dielectric constant tensor:
#      x y z
#    x 1.861360 0.000000 -0.006560 
#    y 0.000000 1.750140 0.000000 
#    z -0.006560 0.000000 1.885450 
# 
# From -- ./inp_files/218087.got.cif
#   From: 2010.05.17/outbox.cif.g08.bks.cpg/sg12_110_cif.got.tgz:218087.got - 2010.06.03 13:09:07.
