data_PCOD9188698
_publ_section_title
;
Structure prediction by ZEFSAII (Michael W. Deem and Ramdas Pophale) SiO2 
 PCOD9188698
Probable space group: C 2/M
;
_chemical_formula_sum "Si O2"
_cell_formula_units_Z 56
_cell_length_a 19.005670
_cell_length_b 14.545489
_cell_length_c 15.026890
_cell_angle_alpha 90.000000
_cell_angle_beta 48.194112
_cell_angle_gamma 90.000000
_cell_volume 3096.523467
_symmetry_space_group_name_H-M "C 2/M"
_symmetry_group_IT_number 12
_symmetry_cell_setting 'monoclinic'
loop_
_space_group_symop_operation_xyz
x,y,z
-x,y,-z
-x,-y,-z
x,-y,z
1/2+x,1/2+y,z
1/2-x,1/2+y,-z
1/2-x,1/2-y,-z
1/2+x,1/2-y,z
loop_
_atom_site_type_symbol
_atom_site_label
_atom_site_fract_x
_atom_site_fract_y
_atom_site_fract_z
Si Si1 0.000000 0.671511 0.500000
Si Si2 0.034271 0.757675 0.280126
Si Si3 0.809547 0.600308 0.599457
Si Si4 0.897294 0.604571 0.912529
Si Si5 0.839784 0.307788 0.395509
Si Si6 0.198645 0.892193 0.176676
Si Si7 0.804018 0.277126 0.237468
Si Si8 0.000000 0.317532 0.000000
O O1 0.013199 0.732467 0.400467
O O2 0.093487 0.611416 0.428921
O O3 0.082174 0.674981 0.184170
O O4 0.104134 0.844333 0.219126
O O5 0.930525 0.758955 0.323781
O O6 0.766813 0.500000 0.646503
O O7 0.842672 0.615598 0.469147
O O8 0.743054 0.682680 0.689693
O O9 0.916188 0.500000 0.868969
O O10 0.787999 0.612756 0.034508
O O11 0.961548 0.626283 0.946133
O O12 0.750000 0.250000 0.500000
O O13 0.824054 0.338276 0.308236
O O14 0.234684 0.831815 0.230206
O O15 0.184386 0.000000 0.210292
O O16 0.906361 0.262318 0.107151
#
# Coordination Sequence:
#
# PCOD9188698 Si02
#       8
#     4   8   8   8   8   8   8   4
#     4  10  21  36  57  82 118 146 191 232 291 342
#     4  11  20  39  61  85 121 153 192 240 295 347
#     4  10  20  35  57  83 114 149 191 242 293 345
#     4  10  21  36  61  92 116 148 198 245 298 351
#     4   9  20  36  58  79 114 154 199 238 285 342
#     4  10  22  39  61  88 119 156 195 244 296 354
#     4  10  19  39  58  84 118 154 197 244 294 349
#     4  10  19  36  61  84 118 156 191 244 297 340
#
# _framework density 18.084796999999998
#
# number of rings (size 3 to 8) (size 9 to 14) (size 15 to 20)
#    0.000    2.000    2.857    0.857    0.000    4.000 
#    0.000    3.571    0.000    0.000    0.000    0.000 
#    0.000    0.000    0.000    0.000    0.000    0.000 
#
# Total GULP energy -155930.707479 kJ/mol
# GULP energy per Si atom -5568.953839 kJ/mol
# Density = 1.804364 g / cm^3
# Si number density = 18.084797 Si / 1000 Ang^3
#
#
#
# Elastic Constant Matrix: (Units=GPa)
#
#
# Indices 1 2 3 4 5 6 
#
# 1 62.1144 33.0594 23.3464 0.0000 -15.9563 0.0000
# 2 33.0594 106.4516 46.0135 0.0000 -15.2077 0.0000
# 3 23.3464 46.0135 76.9752 0.0000 -9.3917 0.0000
# 4 0.0000 0.0000 0.0000 16.8838 0.0000 -3.4588
# 5 -15.9563 -15.2077 -9.3917 0.0000 33.5426 0.0000
# 6 0.0000 0.0000 0.0000 -3.4588 0.0000 1.6045
#
#
#
# Elastic Compliance Matrix: (Units=1/GPa)
#
#
# Indices 1 2 3 4 5 6 
#
# 1 0.021420 -0.004284 -0.003033 0.000000 0.007398 0.000000
# 2 -0.004284 0.013997 -0.006773 0.000000 0.002411 0.000000
# 3 -0.003033 -0.006773 0.018025 0.000000 0.000533 0.000000
# 4 0.000000 0.000000 0.000000 0.106067 0.000000 0.228640
# 5 0.007398 0.002411 0.000533 0.000000 0.034575 0.000000
# 6 0.000000 0.000000 0.000000 0.228640 0.000000 1.116097
#
#
# Mechanical properties :
#
#
# Convention : Reuss Voigt Hill
#
# Bulk Modulus (GPa) = 39.58720 50.04220 44.81470
# Shear Modulus (GPa) = 3.71256 19.94765 11.83010
#
# Velocity S-wave (km/s) = 1.43434 3.32476 2.56040
# Velocity P-wave (km/s) = 4.96793 6.51687 5.79439
#
# Compressibility (1/GPa) = 0.02526069
#
# Stress axis : x y z
#
# Youngs Moduli (GPa) = 46.68546 71.44579 55.47868
#
# Poissons Ratio (x) = 0.30609 0.16827
# Poissons Ratio (y) = 0.20001 0.37577
# Poissons Ratio (z) = 0.14160 0.48391
#
# Static dielectric constant tensor:
#      x y z
#    x 1.662760 0.000000 0.019500 
#    y 0.000000 1.599750 0.000000 
#    z 0.019500 0.000000 1.644490 
# 
# From -- ./inp_files/225216.got.cif
#   From: 2010.05.17/outbox.cif.g08.bks.cpg/sg12_113_cif.got.tgz:225216.got - 2010.06.03 13:09:07.
