data_PCOD9188640
_publ_section_title
;
Structure prediction by ZEFSAII (Michael W. Deem and Ramdas Pophale) SiO2 
 PCOD9188640
Probable space group: C 2/M
;
_chemical_formula_sum "Si O2"
_cell_formula_units_Z 56
_cell_length_a 24.398651
_cell_length_b 8.781265
_cell_length_c 17.457434
_cell_angle_alpha 90.000000
_cell_angle_beta 134.584213
_cell_angle_gamma 90.000000
_cell_volume 2663.895347
_symmetry_space_group_name_H-M "C 2/M"
_symmetry_group_IT_number 12
_symmetry_cell_setting 'monoclinic'
loop_
_space_group_symop_operation_xyz
x,y,z
-x,y,-z
-x,-y,-z
x,-y,z
1/2+x,1/2+y,z
1/2-x,1/2+y,-z
1/2-x,1/2-y,-z
1/2+x,1/2-y,z
loop_
_atom_site_type_symbol
_atom_site_label
_atom_site_fract_x
_atom_site_fract_y
_atom_site_fract_z
Si Si1 0.413195 0.679001 0.166441
Si Si2 0.668049 0.317686 0.609931
Si Si3 0.954985 0.676105 0.801289
Si Si4 0.131434 0.318718 0.729427
Si Si5 0.703824 0.817648 0.060220
Si Si6 0.327209 0.825583 0.543633
Si Si7 0.156476 0.683385 0.179749
O O1 0.409017 0.500000 0.174758
O O2 0.478399 0.724833 0.170130
O O3 0.425475 0.761866 0.259886
O O4 0.335218 0.739757 0.050375
O O5 0.665552 0.500000 0.614486
O O6 0.620666 0.244567 0.633223
O O7 0.643799 0.264241 0.502311
O O8 0.758366 0.268160 0.708152
O O9 0.981929 0.500000 0.839418
O O10 0.888061 0.673158 0.671861
O O11 0.914041 0.737694 0.837735
O O12 0.134656 0.500000 0.731700
O O13 0.213206 0.247807 0.836238
O O14 0.652635 0.785005 0.085962
O O15 0.708528 0.000000 0.054673
O O16 0.250000 0.750000 0.500000
O O17 0.311667 0.000000 0.505913
O O18 0.155965 0.500000 0.188526
#
# Coordination Sequence:
#
# PCOD9188640 Si02
#       7
#     8   8   8   8   8   8   8
#     4  12  25  40  56  81 116 156 197 243 292 342
#     4  10  19  36  60  89 120 151 189 238 290 344
#     4  10  21  39  58  82 117 157 195 235 288 349
#     4  11  22  39  62  88 115 149 194 243 289 342
#     4  10  20  37  62  88 115 152 194 239 288 344
#     4  11  21  35  60  90 120 153 193 239 289 345
#     4   8  16  33  57  84 114 150 188 229 283 342
#
# _framework density 21.021847000000001
#
# number of rings (size 3 to 8) (size 9 to 14) (size 15 to 20)
#    0.000    1.714    1.429    5.143    0.000    1.714 
#    0.000    5.000    0.000    4.286    0.000    0.000 
#    0.000    0.000    0.000    0.000    0.000    0.000 
#
# Total GULP energy -156488.893073 kJ/mol
# GULP energy per Si atom -5588.889038 kJ/mol
# Density = 2.097400 g / cm^3
# Si number density = 21.021847 Si / 1000 Ang^3
#
#
#
# Elastic Constant Matrix: (Units=GPa)
#
#
# Indices 1 2 3 4 5 6 
#
# 1 103.0485 19.9195 3.4023 0.0000 -29.2572 0.0000
# 2 19.9195 107.4803 10.2043 0.0000 -10.9950 0.0000
# 3 3.4023 10.2043 22.1765 0.0000 -14.9259 0.0000
# 4 0.0000 0.0000 0.0000 25.2195 0.0000 -4.3290
# 5 -29.2572 -10.9950 -14.9259 0.0000 35.2727 0.0000
# 6 0.0000 0.0000 0.0000 -4.3290 0.0000 30.4277
#
#
#
# Elastic Compliance Matrix: (Units=1/GPa)
#
#
# Indices 1 2 3 4 5 6 
#
# 1 0.013929 -0.001902 0.008550 0.000000 0.014578 0.000000
# 2 -0.001902 0.010053 -0.004595 0.000000 -0.000388 0.000000
# 3 0.008550 -0.004595 0.069498 0.000000 0.035068 0.000000
# 4 0.000000 0.000000 0.000000 0.040644 0.000000 0.005783
# 5 0.014578 -0.000388 0.035068 0.000000 0.055161 0.000000
# 6 0.000000 0.000000 0.000000 0.005783 0.000000 0.033687
#
#
# Mechanical properties :
#
#
# Convention : Reuss Voigt Hill
#
# Bulk Modulus (GPa) = 10.24739 33.30640 21.77690
# Shear Modulus (GPa) = 19.88895 31.46258 25.67576
#
# Velocity S-wave (km/s) = 3.07922 3.87287 3.49862
# Velocity P-wave (km/s) = 4.18657 5.98973 5.16741
#
# Compressibility (1/GPa) = 0.09758581
#
# Stress axis : x y z
#
# Youngs Moduli (GPa) = 71.79494 99.47214 14.38883
#
# Poissons Ratio (x) = 0.18918 -0.12303
# Poissons Ratio (y) = 0.13654 0.06612
# Poissons Ratio (z) = -0.61386 0.45712
#
# Static dielectric constant tensor:
#      x y z
#    x 1.830270 0.000000 0.004060 
#    y 0.000000 1.703510 0.000000 
#    z 0.004060 0.000000 1.749110 
# 
# From -- ./inp_files/288405.got.cif
#   From: 2010.05.17/outbox.cif.g08.bks.cpg/sg12_145_cif.got.tgz:288405.got - 2010.06.03 13:09:07.
