data_PCOD9188350
_publ_section_title
;
Structure prediction by ZEFSAII (Michael W. Deem and Ramdas Pophale) SiO2 
 PCOD9188350
Probable space group: C 2/M
;
_chemical_formula_sum "Si O2"
_cell_formula_units_Z 64
_cell_length_a 21.000617
_cell_length_b 8.928799
_cell_length_c 25.053352
_cell_angle_alpha 90.000000
_cell_angle_beta 127.983698
_cell_angle_gamma 90.000000
_cell_volume 3702.709141
_symmetry_space_group_name_H-M "C 2/M"
_symmetry_group_IT_number 12
_symmetry_cell_setting 'monoclinic'
loop_
_space_group_symop_operation_xyz
x,y,z
-x,y,-z
-x,-y,-z
x,-y,z
1/2+x,1/2+y,z
1/2-x,1/2+y,-z
1/2-x,1/2-y,-z
1/2+x,1/2-y,z
loop_
_atom_site_type_symbol
_atom_site_label
_atom_site_fract_x
_atom_site_fract_y
_atom_site_fract_z
Si Si1 0.115875 0.821731 0.673805
Si Si2 0.792010 0.179745 0.470139
Si Si3 0.240630 0.819763 0.826331
Si Si4 0.467095 0.178602 0.542205
Si Si5 0.269088 0.821080 0.677229
Si Si6 0.788970 0.320127 0.968045
Si Si7 0.124747 0.178210 0.180826
Si Si8 0.023997 0.319805 0.951651
O O1 0.158124 0.786736 0.752147
O O2 0.185451 0.788110 0.665724
O O3 0.035859 0.731993 0.618632
O O4 0.099621 0.000000 0.662906
O O5 0.750000 0.250000 0.500000
O O6 0.882569 0.241313 0.509862
O O7 0.743465 0.218622 0.390838
O O8 0.794000 0.000000 0.475268
O O9 0.244414 0.776372 0.890009
O O10 0.313025 0.742176 0.831426
O O11 0.253610 0.000000 0.829230
O O12 0.500000 0.218101 0.500000
O O13 0.456307 0.000000 0.538977
O O14 0.340078 0.737381 0.744972
O O15 0.281830 0.000000 0.688512
O O16 0.784976 0.500000 0.969777
O O17 0.750000 0.250000 0.000000
O O18 0.883198 0.278881 0.010771
O O19 0.037604 0.242522 0.120565
O O20 0.124686 0.000000 0.179716
O O21 0.015871 0.500000 0.943021
O O22 0.000000 0.279218 0.000000
#
# Coordination Sequence:
#
# PCOD9188350 Si02
#       8
#     8   8   8   8   8   8   8   8
#     4   9  17  32  57  83 107 141 190 235 274 326
#     4  11  23  40  61  84 114 151 191 233 283 341
#     4   9  18  36  56  78 110 150 188 222 275 339
#     4  11  22  35  55  85 119 149 186 234 280 330
#     4   9  19  36  57  80 111 151 187 222 276 343
#     4  10  21  37  58  81 110 147 183 226 276 331
#     4  11  21  31  53  87 116 140 179 239 284 316
#     4  10  19  36  59  79 107 149 193 226 269 334
#
# _framework density 17.284642000000002
#
# number of rings (size 3 to 8) (size 9 to 14) (size 15 to 20)
#    0.000    2.000    2.500    2.625    0.000    4.750 
#    0.000    1.250    0.000    3.000    0.000    0.000 
#    0.000    0.000    0.000    0.000    0.000    0.000 
#
# Total GULP energy -178631.347594 kJ/mol
# GULP energy per Si atom -5582.229612 kJ/mol
# Density = 1.724530 g / cm^3
# Si number density = 17.284642 Si / 1000 Ang^3
#
#
#
# Elastic Constant Matrix: (Units=GPa)
#
#
# Indices 1 2 3 4 5 6 
#
# 1 112.4506 46.3079 85.3165 0.0000 -10.1977 0.0000
# 2 46.3079 44.9311 64.5299 0.0000 -1.2642 0.0000
# 3 85.3165 64.5299 179.8826 0.0000 -8.3734 0.0000
# 4 0.0000 0.0000 0.0000 8.5343 0.0000 -8.3446
# 5 -10.1977 -1.2642 -8.3734 0.0000 24.1975 0.0000
# 6 0.0000 0.0000 0.0000 -8.3446 0.0000 24.1469
#
#
#
# Elastic Compliance Matrix: (Units=1/GPa)
#
#
# Indices 1 2 3 4 5 6 
#
# 1 0.017152 -0.012797 -0.003292 0.000000 0.005421 0.000000
# 2 -0.012797 0.055727 -0.014267 0.000000 -0.007419 0.000000
# 3 -0.003292 -0.014267 0.012338 0.000000 0.002137 0.000000
# 4 0.000000 0.000000 0.000000 0.176973 0.000000 0.061157
# 5 0.005421 -0.007419 0.002137 0.000000 0.043963 0.000000
# 6 0.000000 0.000000 0.000000 0.061157 0.000000 0.062548
#
#
# Mechanical properties :
#
#
# Convention : Reuss Voigt Hill
#
# Bulk Modulus (GPa) = 40.80818 81.06365 60.93592
# Shear Modulus (GPa) = 11.42649 20.78306 16.10477
#
# Velocity S-wave (km/s) = 2.57393 3.47133 3.05575
# Velocity P-wave (km/s) = 5.70037 7.94153 6.91238
#
# Compressibility (1/GPa) = 0.02450489
#
# Stress axis : x y z
#
# Youngs Moduli (GPa) = 58.30269 17.94470 81.05098
#
# Poissons Ratio (x) = 0.22964 0.26681
# Poissons Ratio (y) = 0.74611 1.15634
# Poissons Ratio (z) = 0.19192 0.25601
#
# Static dielectric constant tensor:
#      x y z
#    x 1.554120 0.000000 -0.005960 
#    y 0.000000 1.574750 0.000000 
#    z -0.005960 0.000000 1.595140 
# 
# From -- ./inp_files/346224.got.cif
#   From: 2010.05.17/outbox.cif.g08.bks.cpg/sg12_174_cif.got.tgz:346224.got - 2010.06.03 13:09:07.
