data_PCOD9188030
_publ_section_title
;
Structure prediction by ZEFSAII (Michael W. Deem and Ramdas Pophale) SiO2 
 PCOD9188030
Probable space group: C 2/M
;
_chemical_formula_sum "Si O2"
_cell_formula_units_Z 52
_cell_length_a 11.320188
_cell_length_b 23.341704
_cell_length_c 13.920667
_cell_angle_alpha 90.000000
_cell_angle_beta 51.691665
_cell_angle_gamma 90.000000
_cell_volume 2886.305235
_symmetry_space_group_name_H-M "C 2/M"
_symmetry_group_IT_number 12
_symmetry_cell_setting 'monoclinic'
loop_
_space_group_symop_operation_xyz
x,y,z
-x,y,-z
-x,-y,-z
x,-y,z
1/2+x,1/2+y,z
1/2-x,1/2+y,-z
1/2-x,1/2-y,-z
1/2+x,1/2-y,z
loop_
_atom_site_type_symbol
_atom_site_label
_atom_site_fract_x
_atom_site_fract_y
_atom_site_fract_z
Si Si1 0.217453 0.932819 0.171311
Si Si2 0.468030 0.332603 0.671293
Si Si3 0.000000 0.182811 0.000000
Si Si4 0.797119 0.631621 0.935806
Si Si5 0.489886 0.756117 0.818519
Si Si6 0.756887 0.172154 0.592902
Si Si7 0.584822 0.933672 0.737618
O O1 0.070682 0.897960 0.281028
O O2 0.345658 0.928083 0.189312
O O3 0.190499 0.000000 0.168427
O O4 0.270290 0.900416 0.049504
O O5 0.421689 0.291534 0.781886
O O6 0.638875 0.320353 0.552588
O O7 0.365294 0.321771 0.630399
O O8 0.141358 0.144267 0.960396
O O9 0.041766 0.223005 0.888015
O O10 0.876517 0.693617 0.906338
O O11 0.917478 0.591874 0.820110
O O12 0.619455 0.786639 0.689959
O O13 0.690186 0.108093 0.623280
O O14 0.590285 0.000000 0.708375
#
# Coordination Sequence:
#
# PCOD9188030 Si02
#       7
#     8   8   4   8   8   8   8
#     4  10  20  35  56  81 109 143 180 226 276 318
#     4  10  19  36  53  82 112 140 176 226 270 323
#     4  12  24  34  53  84 111 150 180 218 272 328
#     4  11  22  35  54  80 112 144 181 224 270 324
#     4  11  22  35  55  78 113 146 182 218 268 322
#     4   9  20  33  57  82 109 139 179 222 275 320
#     4   9  19  35  57  81 106 140 182 227 275 321
#
# _framework density 18.016113000000001
#
# number of rings (size 3 to 8) (size 9 to 14) (size 15 to 20)
#    0.000    1.846    1.538    2.769    6.462    1.846 
#    0.000    4.615    0.000    0.000    0.000    1.077 
#    0.000    0.000    0.000    0.000    0.000    0.000 
#
# Total GULP energy -144973.801919 kJ/mol
# GULP energy per Si atom -5575.915458 kJ/mol
# Density = 1.797511 g / cm^3
# Si number density = 18.016113 Si / 1000 Ang^3
#
#
#
# Elastic Constant Matrix: (Units=GPa)
#
#
# Indices 1 2 3 4 5 6 
#
# 1 45.0714 42.1815 20.7313 0.0000 -14.5233 0.0000
# 2 42.1815 131.9564 41.1401 0.0000 0.6892 0.0000
# 3 20.7313 41.1401 73.9198 0.0000 -3.2109 0.0000
# 4 0.0000 0.0000 0.0000 19.1378 0.0000 6.3879
# 5 -14.5233 0.6892 -3.2109 0.0000 21.9004 0.0000
# 6 0.0000 0.0000 0.0000 6.3879 0.0000 20.9864
#
#
#
# Elastic Compliance Matrix: (Units=1/GPa)
#
#
# Indices 1 2 3 4 5 6 
#
# 1 0.047167 -0.013960 -0.004108 0.000000 0.031116 0.000000
# 2 -0.013960 0.013324 -0.003946 0.000000 -0.010255 0.000000
# 3 -0.004108 -0.003946 0.016871 0.000000 -0.000126 0.000000
# 4 0.000000 0.000000 0.000000 0.058162 0.000000 -0.017703
# 5 0.031116 -0.010255 -0.000126 0.000000 0.066600 0.000000
# 6 0.000000 0.000000 0.000000 -0.017703 0.000000 0.053038
#
#
# Mechanical properties :
#
#
# Convention : Reuss Voigt Hill
#
# Bulk Modulus (GPa) = 29.99742 51.00594 40.50168
# Shear Modulus (GPa) = 16.11334 22.19791 19.15562
#
# Velocity S-wave (km/s) = 2.99387 3.51396 3.26429
# Velocity P-wave (km/s) = 5.35140 6.69601 6.06111
#
# Compressibility (1/GPa) = 0.03333620
#
# Stress axis : x y z
#
# Youngs Moduli (GPa) = 21.20108 75.05002 59.27358
#
# Poissons Ratio (x) = 1.04766 0.24347
# Poissons Ratio (y) = 0.29596 0.23390
# Poissons Ratio (z) = 0.08709 0.29616
#
# Static dielectric constant tensor:
#      x y z
#    x 1.603170 0.000000 -0.027550 
#    y 0.000000 1.609290 0.000000 
#    z -0.027550 0.000000 1.642130 
# 
# From -- ./inp_files/207588.got.cif
#   From: 2010.05.17/outbox.cif.g08.bks.cpg/sg12_104_cif.got.tgz:207588.got - 2010.06.03 13:09:07.
