data_PCOD9188635
_publ_section_title
;
Structure prediction by ZEFSAII (Michael W. Deem and Ramdas Pophale) SiO2 
 PCOD9188635
Probable space group: C 2/M
;
_chemical_formula_sum "Si O2"
_cell_formula_units_Z 58
_cell_length_a 15.170540
_cell_length_b 21.514157
_cell_length_c 11.516109
_cell_angle_alpha 90.000000
_cell_angle_beta 52.606731
_cell_angle_gamma 90.000000
_cell_volume 2986.189553
_symmetry_space_group_name_H-M "C 2/M"
_symmetry_group_IT_number 12
_symmetry_cell_setting 'monoclinic'
loop_
_space_group_symop_operation_xyz
x,y,z
-x,y,-z
-x,-y,-z
x,-y,z
1/2+x,1/2+y,z
1/2-x,1/2+y,-z
1/2-x,1/2-y,-z
1/2+x,1/2-y,z
loop_
_atom_site_type_symbol
_atom_site_label
_atom_site_fract_x
_atom_site_fract_y
_atom_site_fract_z
Si Si1 0.703524 0.067569 0.463646
Si Si2 0.112801 0.889567 0.849882
Si Si3 0.795576 0.807705 0.825968
Si Si4 0.798276 0.665444 0.856220
Si Si5 0.000000 0.000000 0.500000
Si Si6 0.037213 0.322305 0.591447
Si Si7 0.448689 0.302510 0.303140
Si Si8 0.178010 0.108433 0.414725
O O1 0.820026 0.070844 0.299877
O O2 0.628111 0.126088 0.489996
O O3 0.728696 0.077546 0.579215
O O4 0.652865 0.000000 0.482318
O O5 0.203810 0.876676 0.875686
O O6 0.079148 0.828001 0.802443
O O7 0.000000 0.913871 0.000000
O O8 0.779407 0.734430 0.817434
O O9 0.782500 0.851076 0.725651
O O10 0.921237 0.812042 0.774735
O O11 0.717638 0.827717 0.993945
O O12 0.924496 0.647203 0.729312
O O13 0.094630 0.054804 0.441794
O O14 0.000000 0.290296 0.500000
O O15 0.076950 0.269434 0.648569
O O16 0.383621 0.343859 0.448716
#
# Coordination Sequence:
#
# PCOD9188635 Si02
#       8
#     8   8   8   8   2   8   8   8
#     4  11  26  43  63  88 121 165 216 264 301 367
#     4  11  22  38  61  93 128 156 197 257 323 373
#     4  10  19  36  60  88 129 157 196 247 309 375
#     4  10  21  37  59  96 122 161 198 247 312 375
#     4  12  20  36  64  92 126 164 204 248 306 374
#     4  11  22  41  63  89 124 163 215 250 308 375
#     4  10  20  34  62  94 122 157 199 258 311 369
#     4  11  22  37  62  92 122 161 205 255 312 363
#
# _framework density 19.422744999999999
#
# number of rings (size 3 to 8) (size 9 to 14) (size 15 to 20)
#    0.000    1.379    4.828    1.655    1.931    1.655 
#    0.000    0.690    3.034    0.828    0.000    0.000 
#    0.000    0.000    0.000    0.000    0.000    0.000 
#
# Total GULP energy -161550.433943 kJ/mol
# GULP energy per Si atom -5570.704619 kJ/mol
# Density = 1.937854 g / cm^3
# Si number density = 19.422745 Si / 1000 Ang^3
#
#
#
# Elastic Constant Matrix: (Units=GPa)
#
#
# Indices 1 2 3 4 5 6 
#
# 1 24.2610 14.5770 11.5407 0.0000 -1.9589 0.0000
# 2 14.5770 69.2205 21.5151 0.0000 0.9355 0.0000
# 3 11.5407 21.5151 98.0020 0.0000 -9.0269 0.0000
# 4 0.0000 0.0000 0.0000 7.6237 0.0000 -5.3305
# 5 -1.9589 0.9355 -9.0269 0.0000 25.8409 0.0000
# 6 0.0000 0.0000 0.0000 -5.3305 0.0000 16.4932
#
#
#
# Elastic Compliance Matrix: (Units=1/GPa)
#
#
# Indices 1 2 3 4 5 6 
#
# 1 0.048615 -0.009205 -0.003445 0.000000 0.002815 0.000000
# 2 -0.009205 0.017330 -0.002937 0.000000 -0.002351 0.000000
# 3 -0.003445 -0.002937 0.011614 0.000000 0.003902 0.000000
# 4 0.000000 0.000000 0.000000 0.169466 0.000000 0.054770
# 5 0.002815 -0.002351 0.003902 0.000000 0.040360 0.000000
# 6 0.000000 0.000000 0.000000 0.054770 0.000000 0.078333
#
#
# Mechanical properties :
#
#
# Convention : Reuss Voigt Hill
#
# Bulk Modulus (GPa) = 21.55881 31.86100 26.70991
# Shear Modulus (GPa) = 12.12555 19.58160 15.85357
#
# Velocity S-wave (km/s) = 2.50130 3.17863 2.86009
# Velocity P-wave (km/s) = 4.41202 5.46911 4.96875
#
# Compressibility (1/GPa) = 0.04638475
#
# Stress axis : x y z
#
# Youngs Moduli (GPa) = 20.56973 57.70417 86.10483
#
# Poissons Ratio (x) = 0.53117 0.29661
# Poissons Ratio (y) = 0.18935 0.25290
# Poissons Ratio (z) = 0.07086 0.16948
#
# Static dielectric constant tensor:
#      x y z
#    x 1.697950 0.000000 -0.003800 
#    y 0.000000 1.681130 0.000000 
#    z -0.003800 0.000000 1.708530 
# 
# From -- ./inp_files/147595.got.cif
#   From: 2010.05.17/outbox.cif.g08.bks.cpg/sg12_74_cif.got.tgz:147595.got - 2010.06.03 13:09:07.
