data_PCOD9188281
_publ_section_title
;
Structure prediction by ZEFSAII (Michael W. Deem and Ramdas Pophale) SiO2 
 PCOD9188281
Probable space group: C 2/M
;
_chemical_formula_sum "Si O2"
_cell_formula_units_Z 64
_cell_length_a 15.852777
_cell_length_b 7.618104
_cell_length_c 29.607457
_cell_angle_alpha 90.000000
_cell_angle_beta 57.344867
_cell_angle_gamma 90.000000
_cell_volume 3010.448368
_symmetry_space_group_name_H-M "C 2/M"
_symmetry_group_IT_number 12
_symmetry_cell_setting 'monoclinic'
loop_
_space_group_symop_operation_xyz
x,y,z
-x,y,-z
-x,-y,-z
x,-y,z
1/2+x,1/2+y,z
1/2-x,1/2+y,-z
1/2-x,1/2-y,-z
1/2+x,1/2-y,z
loop_
_atom_site_type_symbol
_atom_site_label
_atom_site_fract_x
_atom_site_fract_y
_atom_site_fract_z
Si Si1 0.009409 0.784108 0.865589
Si Si2 0.874891 0.208086 0.256219
Si Si3 0.857839 0.787330 0.673197
Si Si4 0.769189 0.209376 0.442295
Si Si5 0.921952 0.200931 0.557681
Si Si6 0.219382 0.791785 0.060306
Si Si7 0.454013 0.714149 0.329408
Si Si8 0.416153 0.708592 0.058836
O O1 0.893403 0.725717 0.898577
O O2 0.068495 0.722900 0.804231
O O3 0.062763 0.725630 0.896667
O O4 0.009975 0.000000 0.865279
O O5 0.755993 0.232098 0.287735
O O6 0.914765 0.278902 0.292542
O O7 0.894597 0.000000 0.251636
O O8 0.902666 0.721547 0.612500
O O9 0.934225 0.731036 0.690037
O O10 0.857374 0.000000 0.671293
O O11 0.750000 0.250000 0.500000
O O12 0.683941 0.297668 0.436859
O O13 0.876641 0.264141 0.391473
O O14 0.760376 0.000000 0.438590
O O15 0.000000 0.284423 0.500000
O O16 0.957798 0.000000 0.555039
O O17 0.306314 0.733044 0.069449
O O18 0.214767 0.000000 0.065703
O O19 0.250000 0.750000 0.000000
O O20 0.453423 0.500000 0.328664
O O21 0.433012 0.500000 0.056412
O O22 0.500000 0.780814 0.000000
#
# Coordination Sequence:
#
# PCOD9188281 Si02
#       8
#     8   8   8   8   8   8   8   8
#     4   9  20  37  58  82 114 154 191 230 287 343
#     4  10  20  39  61  81 110 151 195 234 275 336
#     4  10  20  36  58  82 111 147 186 232 287 337
#     4  11  21  35  55  82 112 145 187 232 284 343
#     4  10  20  35  55  80 113 148 184 230 286 342
#     4  11  21  36  58  88 118 153 194 236 285 340
#     4   9  19  36  58  80 109 149 186 224 282 343
#     4  10  19  36  58  82 116 157 192 233 289 340
#
# _framework density 21.259293
#
# number of rings (size 3 to 8) (size 9 to 14) (size 15 to 20)
#    0.000    2.000    2.500    1.500    0.000    3.500 
#    0.000    6.250    0.000    0.000    0.000    0.000 
#    0.000    0.000    0.000    0.000    0.000    0.000 
#
# Total GULP energy -178723.652369 kJ/mol
# GULP energy per Si atom -5585.114137 kJ/mol
# Density = 2.121091 g / cm^3
# Si number density = 21.259293 Si / 1000 Ang^3
#
#
#
# Elastic Constant Matrix: (Units=GPa)
#
#
# Indices 1 2 3 4 5 6 
#
# 1 185.7433 -11.9788 104.3290 0.0001 6.9108 0.0000
# 2 -11.9788 43.7092 4.5243 0.0001 4.7669 0.0000
# 3 104.3290 4.5243 194.9716 0.0000 1.8599 0.0000
# 4 0.0001 0.0001 0.0000 11.6889 0.0001 -3.1911
# 5 6.9108 4.7669 1.8599 0.0001 30.0802 0.0001
# 6 0.0000 0.0000 0.0000 -3.1911 0.0001 27.5773
#
#
#
# Elastic Compliance Matrix: (Units=1/GPa)
#
#
# Indices 1 2 3 4 5 6 
#
# 1 0.008112 0.002901 -0.004389 0.000000 -0.002052 0.000000
# 2 0.002901 0.024368 -0.002076 0.000000 -0.004400 0.000000
# 3 -0.004389 -0.002076 0.007517 0.000000 0.000872 0.000000
# 4 0.000000 0.000000 0.000000 0.088342 0.000000 0.010222
# 5 -0.002052 -0.004400 0.000872 0.000000 0.034359 0.000000
# 6 0.000000 0.000000 0.000000 0.010222 0.000000 0.037445
#
#
# Mechanical properties :
#
#
# Convention : Reuss Voigt Hill
#
# Bulk Modulus (GPa) = 30.42182 68.68589 49.55386
# Shear Modulus (GPa) = 22.91191 35.70592 29.30892
#
# Velocity S-wave (km/s) = 3.28645 4.10267 3.71703
# Velocity P-wave (km/s) = 5.36115 7.40414 6.46387
#
# Compressibility (1/GPa) = 0.03287114
#
# Stress axis : x y z
#
# Youngs Moduli (GPa) = 123.27061 41.03689 133.02955
#
# Poissons Ratio (x) = -0.11906 0.58381
# Poissons Ratio (y) = -0.35764 0.27616
# Poissons Ratio (z) = 0.54098 0.08519
#
# Static dielectric constant tensor:
#      x y z
#    x 1.732550 0.000000 0.002830 
#    y 0.000000 1.763040 0.000000 
#    z 0.002830 0.000000 1.748780 
# 
# From -- ./inp_files/375067.got.cif
#   From: 2010.05.17/outbox.cif.g08.bks.cpg/sg12_188_cif.got.tgz:375067.got - 2010.06.03 13:09:07.
