data_PCOD9188764
_publ_section_title
;
Structure prediction by ZEFSAII (Michael W. Deem and Ramdas Pophale) SiO2 
 PCOD9188764
Probable space group: C 2/M
;
_chemical_formula_sum "Si O2"
_cell_formula_units_Z 52
_cell_length_a 22.763596
_cell_length_b 15.051928
_cell_length_c 12.982253
_cell_angle_alpha 90.000000
_cell_angle_beta 32.092479
_cell_angle_gamma 90.000000
_cell_volume 2363.265783
_symmetry_space_group_name_H-M "C 2/M"
_symmetry_group_IT_number 12
_symmetry_cell_setting 'monoclinic'
loop_
_space_group_symop_operation_xyz
x,y,z
-x,y,-z
-x,-y,-z
x,-y,z
1/2+x,1/2+y,z
1/2-x,1/2+y,-z
1/2-x,1/2-y,-z
1/2+x,1/2-y,z
loop_
_atom_site_type_symbol
_atom_site_label
_atom_site_fract_x
_atom_site_fract_y
_atom_site_fract_z
Si Si1 0.745707 0.248658 0.128226
Si Si2 0.121038 0.591874 0.972896
Si Si3 0.384144 0.098390 0.409320
Si Si4 0.000000 0.188660 0.000000
Si Si5 0.413820 0.393597 0.916847
Si Si6 0.583608 0.723342 0.537022
Si Si7 0.303188 0.828894 0.335056
O O1 0.831347 0.321324 0.044268
O O2 0.630566 0.279365 0.351124
O O3 0.750000 0.250000 0.000000
O O4 0.792752 0.153158 0.095108
O O5 0.163517 0.500000 0.958199
O O6 0.155155 0.596075 0.804447
O O7 0.990627 0.592488 0.177365
O O8 0.425770 0.171349 0.428091
O O9 0.292712 0.135756 0.466546
O O10 0.357499 0.000000 0.488490
O O11 0.896700 0.252481 0.184118
O O12 0.033883 0.131813 0.049783
O O13 0.413195 0.500000 0.902191
O O14 0.484916 0.339397 0.723805
O O15 0.686735 0.697626 0.458053
#
# Coordination Sequence:
#
# PCOD9188764 Si02
#       7
#     8   8   8   4   8   8   8
#     4  11  25  47  71  91 126 173 223 289 343 391
#     4  10  19  36  61  88 121 160 209 265 321 378
#     4  11  20  33  58  90 128 165 208 260 317 387
#     4  12  19  42  67  96 142 184 215 270 333 408
#     4  12  26  45  68 103 142 181 223 274 338 413
#     4  11  23  42  62  93 132 176 223 275 332 411
#     4  11  18  34  61  90 134 174 215 259 323 391
#
# _framework density 22.003449
#
# number of rings (size 3 to 8) (size 9 to 14) (size 15 to 20)
#    0.000    0.923    7.692    1.154    0.000    6.154 
#    0.000    0.769    0.000    1.846    0.000    0.000 
#    0.000    0.000    0.000    0.000    0.000    0.000 
#
# Total GULP energy -145080.795581 kJ/mol
# GULP energy per Si atom -5580.030599 kJ/mol
# Density = 2.195337 g / cm^3
# Si number density = 22.003449 Si / 1000 Ang^3
#
#
#
# Elastic Constant Matrix: (Units=GPa)
#
#
# Indices 1 2 3 4 5 6 
#
# 1 65.2781 27.1569 1.4897 0.0000 23.0415 0.0000
# 2 27.1569 161.8764 29.1652 0.0000 10.8907 0.0000
# 3 1.4897 29.1652 69.2462 0.0000 3.6503 0.0000
# 4 0.0000 0.0000 0.0000 15.3716 0.0000 0.3797
# 5 23.0415 10.8907 3.6503 0.0000 32.3176 0.0000
# 6 0.0000 0.0000 0.0000 0.3797 0.0000 3.1003
#
#
#
# Elastic Compliance Matrix: (Units=1/GPa)
#
#
# Indices 1 2 3 4 5 6 
#
# 1 0.021668 -0.002928 0.001538 0.000000 -0.014636 0.000000
# 2 -0.002928 0.007204 -0.002971 0.000000 -0.000005 0.000000
# 3 0.001538 -0.002971 0.015758 0.000000 -0.001876 0.000000
# 4 0.000000 0.000000 0.000000 0.065253 0.000000 -0.007992
# 5 -0.014636 -0.000005 -0.001876 0.000000 0.041591 0.000000
# 6 0.000000 0.000000 0.000000 -0.007992 0.000000 0.323531
#
#
# Mechanical properties :
#
#
# Convention : Reuss Voigt Hill
#
# Bulk Modulus (GPa) = 27.84725 45.78048 36.81387
# Shear Modulus (GPa) = 10.08683 26.06381 18.07532
#
# Velocity S-wave (km/s) = 2.14340 3.44544 2.86925
# Velocity P-wave (km/s) = 4.33692 6.05634 5.26726
#
# Compressibility (1/GPa) = 0.03591019
#
# Stress axis : x y z
#
# Youngs Moduli (GPa) = 46.15097 138.80547 63.45838
#
# Poissons Ratio (x) = 0.40637 -0.09763
# Poissons Ratio (y) = 0.13511 0.18854
# Poissons Ratio (z) = -0.07100 0.41240
#
# Static dielectric constant tensor:
#      x y z
#    x 1.829230 0.000000 0.011780 
#    y 0.000000 1.864000 0.000000 
#    z 0.011780 0.000000 1.853070 
# 
# From -- ./inp_files/240917.got.cif
#   From: 2010.05.17/outbox.cif.g08.bks.cpg/sg12_121_cif.got.tgz:240917.got - 2010.06.03 13:09:07.
