data_PCOD9188007
_publ_section_title
;
Structure prediction by ZEFSAII (Michael W. Deem and Ramdas Pophale) SiO2 
 PCOD9188007
Probable space group: C 2/M
;
_chemical_formula_sum "Si O2"
_cell_formula_units_Z 36
_cell_length_a 12.436895
_cell_length_b 10.729076
_cell_length_c 9.773478
_cell_angle_alpha 90.000000
_cell_angle_beta 108.990409
_cell_angle_gamma 90.000000
_cell_volume 1233.157418
_symmetry_space_group_name_H-M "C 2/M"
_symmetry_group_IT_number 12
_symmetry_cell_setting 'monoclinic'
loop_
_space_group_symop_operation_xyz
x,y,z
-x,y,-z
-x,-y,-z
x,-y,z
1/2+x,1/2+y,z
1/2-x,1/2+y,-z
1/2-x,1/2-y,-z
1/2+x,1/2-y,z
loop_
_atom_site_type_symbol
_atom_site_label
_atom_site_fract_x
_atom_site_fract_y
_atom_site_fract_z
Si Si1 0.309593 0.500000 0.976668
Si Si2 0.732759 0.774667 0.302804
Si Si3 0.093129 0.000000 0.688525
Si Si4 0.990959 0.354778 0.654763
Si Si5 0.888860 0.318796 0.028434
Si Si6 0.839046 0.000000 0.682311
O O1 0.218574 0.393041 0.965148
O O2 0.371177 0.500000 0.857854
O O3 0.389307 0.500000 0.140110
O O4 0.638197 0.840338 0.355916
O O5 0.734220 0.629276 0.354730
O O6 0.835492 0.877078 0.335631
O O7 0.667045 0.760939 0.130644
O O8 0.047770 0.000000 0.370626
O O9 0.026973 0.500000 0.681773
O O10 0.000000 0.317905 0.500000
O O11 0.058698 0.279468 0.801884
O O12 0.000000 0.374957 0.000000
#
# Coordination Sequence:
#
# PCOD9188007 Si02
#       6
#     4   8   4   8   8   4
#     4  10  20  34  60  94 143 183 232 288 361 422
#     4  10  23  43  70 102 148 191 235 298 369 425
#     4  10  23  45  67 102 152 192 234 303 361 427
#     4  10  19  35  68 107 139 186 249 296 350 436
#     4   9  18  34  64 101 139 183 234 293 353 424
#     4  12  27  43  70 116 150 187 245 305 358 433
#
# _framework density 29.193353999999999
#
# number of rings (size 3 to 8) (size 9 to 14) (size 15 to 20)
#    0.000    2.000    2.222    0.667    3.111   12.444 
#    0.000    1.667    0.000    8.000    0.000    0.000 
#    0.000    0.000    0.000    0.000    0.000    0.000 
#
# Total GULP energy -100312.774623 kJ/mol
# GULP energy per Si atom -5572.931923 kJ/mol
# Density = 2.912691 g / cm^3
# Si number density = 29.193354 Si / 1000 Ang^3
#
#
#
# Elastic Constant Matrix: (Units=GPa)
#
#
# Indices 1 2 3 4 5 6 
#
# 1 193.7045 119.6388 84.6475 0.0000 -34.3072 0.0000
# 2 119.6388 166.6120 46.2950 0.0000 15.8519 0.0000
# 3 84.6475 46.2950 245.3168 0.0000 9.0305 0.0000
# 4 0.0000 0.0000 0.0000 47.5751 0.0000 -44.6857
# 5 -34.3072 15.8519 9.0305 0.0000 60.7938 0.0000
# 6 0.0000 0.0000 0.0000 -44.6857 0.0000 60.0353
#
#
#
# Elastic Compliance Matrix: (Units=1/GPa)
#
#
# Indices 1 2 3 4 5 6 
#
# 1 0.016789 -0.012211 -0.003976 0.000000 0.013249 0.000000
# 2 -0.012211 0.015351 0.001727 0.000000 -0.011150 0.000000
# 3 -0.003976 0.001727 0.005250 0.000000 -0.003474 0.000000
# 4 0.000000 0.000000 0.000000 0.069860 0.000000 0.051998
# 5 0.013249 -0.011150 -0.003474 0.000000 0.027349 0.000000
# 6 0.000000 0.000000 0.000000 0.051998 0.000000 0.055360
#
#
# Mechanical properties :
#
#
# Convention : Reuss Voigt Hill
#
# Bulk Modulus (GPa) = 118.07060 122.97733 120.52397
# Shear Modulus (GPa) = 22.55266 57.35098 39.95182
#
# Velocity S-wave (km/s) = 2.78245 4.43710 3.70337
# Velocity P-wave (km/s) = 7.13126 8.27448 7.72405
#
# Compressibility (1/GPa) = 0.00846951
#
# Stress axis : x y z
#
# Youngs Moduli (GPa) = 59.56434 65.14089 190.46223
#
# Poissons Ratio (x) = 0.79544 0.75733
# Poissons Ratio (y) = 0.72734 -0.32891
# Poissons Ratio (z) = 0.23684 -0.11249
#
# Static dielectric constant tensor:
#      x y z
#    x 2.170910 0.000000 0.003430 
#    y 0.000000 2.512420 0.000000 
#    z 0.003430 0.000000 2.294250 
# 
# From -- ./inp_files/71528.got.cif
#   From: 2010.05.17/outbox.cif.g08.bks.cpg/sg12_36_cif.got.tgz:71528.got - 2010.06.03 13:09:07.
