data_PCOD9188943
_publ_section_title
;
Structure prediction by ZEFSAII (Michael W. Deem and Ramdas Pophale) SiO2 
 PCOD9188943
Probable space group: C 2/M
;
_chemical_formula_sum "Si O2"
_cell_formula_units_Z 40
_cell_length_a 28.423786
_cell_length_b 11.376929
_cell_length_c 12.150675
_cell_angle_alpha 90.000000
_cell_angle_beta 150.474978
_cell_angle_gamma 90.000000
_cell_volume 1936.338405
_symmetry_space_group_name_H-M "C 2/M"
_symmetry_group_IT_number 12
_symmetry_cell_setting 'monoclinic'
loop_
_space_group_symop_operation_xyz
x,y,z
-x,y,-z
-x,-y,-z
x,-y,z
1/2+x,1/2+y,z
1/2-x,1/2+y,-z
1/2-x,1/2-y,-z
1/2+x,1/2-y,z
loop_
_atom_site_type_symbol
_atom_site_label
_atom_site_fract_x
_atom_site_fract_y
_atom_site_fract_z
Si Si1 0.267521 0.370761 0.967646
Si Si2 0.467072 0.722223 0.313430
Si Si3 0.611901 0.134612 0.254104
Si Si4 0.848055 0.238940 0.437565
Si Si5 0.344584 0.134267 0.893650
O O1 0.248815 0.500000 0.979394
O O2 0.378739 0.364935 0.157739
O O3 0.250000 0.250000 0.000000
O O4 0.195812 0.348877 0.720041
O O5 0.500000 0.769371 0.500000
O O6 0.563469 0.683194 0.448172
O O7 0.419622 0.812166 0.131306
O O8 0.625059 0.213753 0.387871
O O9 0.655746 0.186614 0.230355
O O10 0.646915 0.000000 0.345105
O O11 0.500000 0.128246 0.000000
O O12 0.759864 0.150751 0.269174
O O13 0.370399 0.000000 0.930147
#
# Coordination Sequence:
#
# PCOD9188943 Si02
#       5
#     8   8   8   8   8
#     4  11  25  44  64  93 129 171 217 264 322 383
#     4  11  23  42  58  94 126 167 210 260 321 375
#     4  10  19  36  63  92 120 159 212 266 319 375
#     4  11  22  41  64  90 126 168 209 263 322 381
#     4  10  23  39  62  93 124 164 216 265 314 378
#
# _framework density 20.657546
#
# number of rings (size 3 to 8) (size 9 to 14) (size 15 to 20)
#    0.000    1.400    4.000    1.200    0.000    5.600 
#    0.000    0.000    0.000    0.600    0.000    0.000 
#    0.000    0.000    0.000    0.000    0.000    0.000 
#
# Total GULP energy -111514.755924 kJ/mol
# GULP energy per Si atom -5575.737796 kJ/mol
# Density = 2.061053 g / cm^3
# Si number density = 20.657546 Si / 1000 Ang^3
#
#
#
# Elastic Constant Matrix: (Units=GPa)
#
#
# Indices 1 2 3 4 5 6 
#
# 1 124.2629 18.2739 34.3368 0.0000 3.1038 0.0000
# 2 18.2739 69.8297 9.2617 0.0000 -14.4228 0.0000
# 3 34.3368 9.2617 94.7346 0.0000 -10.4031 0.0000
# 4 0.0000 0.0000 0.0000 -1.9535 0.0000 -5.0030
# 5 3.1038 -14.4228 -10.4031 0.0000 58.2856 0.0000
# 6 0.0000 0.0000 0.0000 -5.0030 0.0000 18.4573
#
#
#
# Elastic Compliance Matrix: (Units=1/GPa)
#
#
# Indices 1 2 3 4 5 6 
#
# 1 0.009360 -0.002352 -0.003347 0.000000 -0.001678 0.000000
# 2 -0.002352 0.015793 -0.000254 0.000000 0.003988 0.000000
# 3 -0.003347 -0.000254 0.012042 0.000000 0.002265 0.000000
# 4 0.000000 0.000000 0.000000 -0.302153 0.000000 -0.081900
# 5 -0.001678 0.003988 0.002265 0.000000 0.018637 0.000000
# 6 0.000000 0.000000 0.000000 -0.081900 0.000000 0.031980
#
#
# Mechanical properties :
#
#
# Convention : Reuss Voigt Hill
#
# Bulk Modulus (GPa) = 39.54010 45.84134 42.69072
# Shear Modulus (GPa) = -25.77258 30.08820 2.15781
#
# Velocity S-wave (km/s) = -3.53599 3.82058 1.02315
# Velocity P-wave (km/s) = 1.58473 6.45769 4.70176
#
# Compressibility (1/GPa) = 0.02529078
#
# Stress axis : x y z
#
# Youngs Moduli (GPa) = 106.83671 63.31754 83.03992
#
# Poissons Ratio (x) = 0.14893 0.27792
# Poissons Ratio (y) = 0.25129 0.02106
# Poissons Ratio (z) = 0.35757 0.01606
#
# Static dielectric constant tensor:
#      x y z
#    x 1.816650 0.000000 -0.014520 
#    y 0.000000 1.717340 0.000000 
#    z -0.014520 0.000000 1.744630 
# 
# From -- ./inp_files/188827.got.cif
#   From: 2010.05.17/outbox.cif.g08.bks.cpg/sg12_95_cif.got.tgz:188827.got - 2010.06.03 13:09:07.
