data_PCOD9188502
_publ_section_title
;
Structure prediction by ZEFSAII (Michael W. Deem and Ramdas Pophale) SiO2 
 PCOD9188502
Probable space group: C 2/M
;
_chemical_formula_sum "Si O2"
_cell_formula_units_Z 56
_cell_length_a 19.695286
_cell_length_b 8.879835
_cell_length_c 27.625247
_cell_angle_alpha 90.000000
_cell_angle_beta 140.819955
_cell_angle_gamma 90.000000
_cell_volume 3052.284750
_symmetry_space_group_name_H-M "C 2/M"
_symmetry_group_IT_number 12
_symmetry_cell_setting 'monoclinic'
loop_
_space_group_symop_operation_xyz
x,y,z
-x,y,-z
-x,-y,-z
x,-y,z
1/2+x,1/2+y,z
1/2-x,1/2+y,-z
1/2-x,1/2-y,-z
1/2+x,1/2-y,z
loop_
_atom_site_type_symbol
_atom_site_label
_atom_site_fract_x
_atom_site_fract_y
_atom_site_fract_z
Si Si1 0.787379 0.678789 0.877350
Si Si2 0.095031 0.819057 0.698546
Si Si3 0.382274 0.674363 0.448805
Si Si4 0.254297 0.178707 0.298663
Si Si5 0.065758 0.319120 0.133633
Si Si6 0.329694 0.679831 0.004020
Si Si7 0.638183 0.671727 0.447334
O O1 0.798519 0.500000 0.894053
O O2 0.673746 0.702942 0.787483
O O3 0.879021 0.717562 0.888050
O O4 0.795272 0.770379 0.930955
O O5 0.150831 0.735773 0.684552
O O6 0.972395 0.766877 0.636687
O O7 0.093553 0.000000 0.687481
O O8 0.500000 0.733345 0.500000
O O9 0.374835 0.500000 0.427740
O O10 0.289968 0.767612 0.371355
O O11 0.377202 0.674659 0.503492
O O12 0.147947 0.258748 0.219487
O O13 0.242702 0.000000 0.289552
O O14 0.058216 0.500000 0.131941
O O15 0.950083 0.244880 0.076049
O O16 0.329868 0.500000 0.008616
O O17 0.250000 0.750000 0.000000
O O18 0.647671 0.500000 0.435810
O O19 0.750000 0.750000 0.500000
#
# Coordination Sequence:
#
# PCOD9188502 Si02
#       7
#     8   8   8   8   8   8   8
#     4   9  19  37  64  90 114 150 194 240 291 347
#     4   9  18  37  60  82 113 156 196 234 287 347
#     4  10  19  36  60  80 110 155 200 237 283 345
#     4  11  21  33  56  91 121 146 188 247 295 333
#     4  10  21  40  65  89 118 154 194 237 287 348
#     4  12  25  41  61  87 122 157 193 237 289 346
#     4  10  21  37  57  81 112 154 195 240 290 341
#
# _framework density 18.346912
#
# number of rings (size 3 to 8) (size 9 to 14) (size 15 to 20)
#    0.000    1.857    1.429    4.286    0.000    6.000 
#    2.571    0.000    0.000    0.000    0.000    0.000 
#    0.000    0.000    0.000    0.000    0.000    0.000 
#
# Total GULP energy -156315.102991 kJ/mol
# GULP energy per Si atom -5582.682250 kJ/mol
# Density = 1.830515 g / cm^3
# Si number density = 18.346912 Si / 1000 Ang^3
#
#
#
# Elastic Constant Matrix: (Units=GPa)
#
#
# Indices 1 2 3 4 5 6 
#
# 1 83.7657 44.2366 65.0645 0.0000 26.0097 0.0000
# 2 44.2366 87.5873 58.5013 0.0000 9.0673 0.0000
# 3 65.0645 58.5013 124.9555 0.0000 24.6132 0.0000
# 4 0.0000 0.0000 0.0000 28.5391 0.0000 3.0948
# 5 26.0097 9.0673 24.6132 0.0000 31.7267 0.0000
# 6 0.0000 0.0000 0.0000 3.0948 0.0000 26.2722
#
#
#
# Elastic Compliance Matrix: (Units=1/GPa)
#
#
# Indices 1 2 3 4 5 6 
#
# 1 0.025209 -0.006297 -0.007628 0.000000 -0.012949 0.000000
# 2 -0.006297 0.018247 -0.006201 0.000000 0.004758 0.000000
# 3 -0.007628 -0.006201 0.015695 0.000000 -0.004151 0.000000
# 4 0.000000 0.000000 0.000000 0.035493 0.000000 -0.004181
# 5 -0.012949 0.004758 -0.004151 0.000000 0.043996 0.000000
# 6 0.000000 0.000000 0.000000 -0.004181 0.000000 0.038556
#
#
# Mechanical properties :
#
#
# Convention : Reuss Voigt Hill
#
# Bulk Modulus (GPa) = 52.91015 70.21257 61.56136
# Shear Modulus (GPa) = 22.34672 25.87468 24.11070
#
# Velocity S-wave (km/s) = 3.49379 3.75947 3.62906
# Velocity P-wave (km/s) = 6.72136 7.56289 7.15451
#
# Compressibility (1/GPa) = 0.01889997
#
# Stress axis : x y z
#
# Youngs Moduli (GPa) = 39.66850 54.80421 63.71272
#
# Poissons Ratio (x) = 0.34509 0.48597
# Poissons Ratio (y) = 0.24978 0.39510
# Poissons Ratio (z) = 0.30257 0.33985
#
# Static dielectric constant tensor:
#      x y z
#    x 1.625470 0.000000 0.011400 
#    y 0.000000 1.628030 0.000000 
#    z 0.011400 0.000000 1.648810 
# 
# From -- ./inp_files/363177.got.cif
#   From: 2010.05.17/outbox.cif.g08.bks.cpg/sg12_182_cif.got.tgz:363177.got - 2010.06.03 13:09:07.
