data_PCOD9188600
_publ_section_title
;
Structure prediction by ZEFSAII (Michael W. Deem and Ramdas Pophale) SiO2 
 PCOD9188600
Probable space group: C 2/M
;
_chemical_formula_sum "Si O2"
_cell_formula_units_Z 64
_cell_length_a 13.418268
_cell_length_b 14.478453
_cell_length_c 16.740126
_cell_angle_alpha 90.000000
_cell_angle_beta 115.703182
_cell_angle_gamma 90.000000
_cell_volume 2930.405029
_symmetry_space_group_name_H-M "C 2/M"
_symmetry_group_IT_number 12
_symmetry_cell_setting 'monoclinic'
loop_
_space_group_symop_operation_xyz
x,y,z
-x,y,-z
-x,-y,-z
x,-y,z
1/2+x,1/2+y,z
1/2-x,1/2+y,-z
1/2-x,1/2-y,-z
1/2+x,1/2-y,z
loop_
_atom_site_type_symbol
_atom_site_label
_atom_site_fract_x
_atom_site_fract_y
_atom_site_fract_z
Si Si1 0.739683 0.387823 0.778780
Si Si2 0.228448 0.605732 0.774285
Si Si3 0.548634 0.798380 0.232297
Si Si4 0.489652 0.894235 0.369704
Si Si5 0.606035 0.600549 0.304885
Si Si6 0.687974 0.749637 0.895054
Si Si7 0.228169 0.357172 0.498808
Si Si8 0.893986 0.105566 0.418683
O O1 0.754184 0.500000 0.783961
O O2 0.848246 0.333548 0.783881
O O3 0.705035 0.345719 0.851965
O O4 0.645250 0.361426 0.681070
O O5 0.199242 0.500000 0.786490
O O6 0.340435 0.601336 0.764123
O O7 0.233873 0.671378 0.851581
O O8 0.134717 0.644426 0.679834
O O9 0.527114 0.877302 0.290821
O O10 0.559559 0.704696 0.289868
O O11 0.441147 0.776227 0.142220
O O12 0.596373 0.866377 0.457608
O O13 0.474134 0.000000 0.385449
O O14 0.546664 0.500000 0.293006
O O15 0.702716 0.600890 0.404646
O O16 0.750000 0.750000 0.000000
O O17 0.250000 0.250000 0.500000
O O18 0.287076 0.394674 0.439005
O O19 0.000000 0.150671 0.500000
O O20 0.927524 0.000000 0.416058
#
# Coordination Sequence:
#
# PCOD9188600 Si02
#       8
#     8   8   8   8   8   8   8   8
#     4  11  23  44  72 102 135 178 229 278 335 405
#     4   9  21  41  64  87 121 165 208 257 321 393
#     4  11  22  42  66  93 128 167 214 272 336 393
#     4  10  19  36  60  86 120 166 211 262 316 366
#     4  11  22  38  60  90 128 171 213 253 312 392
#     4  11  26  45  69  98 129 163 213 284 351 407
#     4  12  22  35  53  89 127 164 214 263 308 376
#     4  10  22  38  58  86 127 172 213 258 310 377
#
# _framework density 21.839984999999999
#
# number of rings (size 3 to 8) (size 9 to 14) (size 15 to 20)
#    0.000    1.375    3.750    1.500    1.750    2.500 
#    0.000    2.500    0.000    1.500    0.000    0.000 
#    0.000    0.000    0.000    0.000    0.000    0.000 
#
# Total GULP energy -178494.320973 kJ/mol
# GULP energy per Si atom -5577.947530 kJ/mol
# Density = 2.179028 g / cm^3
# Si number density = 21.839985 Si / 1000 Ang^3
#
#
#
# Elastic Constant Matrix: (Units=GPa)
#
#
# Indices 1 2 3 4 5 6 
#
# 1 69.7542 14.8388 18.0815 0.0000 -2.0379 0.0000
# 2 14.8388 120.5880 31.7467 0.0000 -7.3988 0.0000
# 3 18.0815 31.7467 147.7491 0.0000 2.7542 0.0000
# 4 0.0000 0.0000 0.0000 21.6690 0.0000 1.4860
# 5 -2.0379 -7.3988 2.7542 0.0000 21.4353 0.0000
# 6 0.0000 0.0000 0.0000 1.4860 0.0000 22.0404
#
#
#
# Elastic Compliance Matrix: (Units=1/GPa)
#
#
# Indices 1 2 3 4 5 6 
#
# 1 0.015069 -0.001369 -0.001572 0.000000 0.001162 0.000000
# 2 -0.001369 0.009151 -0.001860 0.000000 0.003268 0.000000
# 3 -0.001572 -0.001860 0.007393 0.000000 -0.001741 0.000000
# 4 0.000000 0.000000 0.000000 0.046363 0.000000 -0.003126
# 5 0.001162 0.003268 -0.001741 0.000000 0.048114 0.000000
# 6 0.000000 0.000000 0.000000 -0.003126 0.000000 0.045582
#
#
# Mechanical properties :
#
#
# Convention : Reuss Voigt Hill
#
# Bulk Modulus (GPa) = 45.43056 51.93615 48.68336
# Shear Modulus (GPa) = 26.50974 31.25722 28.88348
#
# Velocity S-wave (km/s) = 3.48777 3.78721 3.64057
# Velocity P-wave (km/s) = 6.08819 6.55408 6.32542
#
# Compressibility (1/GPa) = 0.02201161
#
# Stress axis : x y z
#
# Youngs Moduli (GPa) = 66.36298 109.27458 135.27043
#
# Poissons Ratio (x) = 0.14962 0.21258
# Poissons Ratio (y) = 0.09087 0.25156
# Poissons Ratio (z) = 0.10429 0.20321
#
# Static dielectric constant tensor:
#      x y z
#    x 1.876900 0.000000 0.049280 
#    y 0.000000 1.869600 0.000000 
#    z 0.049280 0.000000 1.799690 
# 
# From -- ./inp_files/270691.got.cif
#   From: 2010.05.17/outbox.cif.g08.bks.cpg/sg12_136_cif.got.tgz:270691.got - 2010.06.03 13:09:07.
