data_PCOD9188322
_publ_section_title
;
Structure prediction by ZEFSAII (Michael W. Deem and Ramdas Pophale) SiO2 
 PCOD9188322
Probable space group: C 2/M
;
_chemical_formula_sum "Si O2"
_cell_formula_units_Z 48
_cell_length_a 12.258943
_cell_length_b 19.964378
_cell_length_c 14.666654
_cell_angle_alpha 90.000000
_cell_angle_beta 44.950119
_cell_angle_gamma 90.000000
_cell_volume 2535.983584
_symmetry_space_group_name_H-M "C 2/M"
_symmetry_group_IT_number 12
_symmetry_cell_setting 'monoclinic'
loop_
_space_group_symop_operation_xyz
x,y,z
-x,y,-z
-x,-y,-z
x,-y,z
1/2+x,1/2+y,z
1/2-x,1/2+y,-z
1/2-x,1/2-y,-z
1/2+x,1/2-y,z
loop_
_atom_site_type_symbol
_atom_site_label
_atom_site_fract_x
_atom_site_fract_y
_atom_site_fract_z
Si Si1 0.372029 0.500000 0.293037
Si Si2 0.234238 0.599117 0.710059
Si Si3 0.828959 0.878286 0.455899
Si Si4 0.049146 0.500000 0.119772
Si Si5 0.194029 0.000000 0.177940
Si Si6 0.910455 0.780231 0.649727
Si Si7 0.007413 0.359582 0.387363
Si Si8 0.343872 0.000000 0.752374
O O1 0.326219 0.434945 0.379895
O O2 0.556587 0.500000 0.187646
O O3 0.294019 0.500000 0.239996
O O4 0.322283 0.589540 0.561595
O O5 0.315132 0.561412 0.746391
O O6 0.256434 0.677136 0.721118
O O7 0.066927 0.563934 0.804021
O O8 0.663189 0.842520 0.547334
O O9 0.968806 0.825940 0.365045
O O10 0.171940 0.500000 0.129385
O O11 0.145222 0.500000 0.970265
O O12 0.888715 0.705006 0.697783
O O13 0.000000 0.773793 0.500000
O O14 0.061514 0.431746 0.321365
O O15 0.000000 0.366618 0.500000
#
# Coordination Sequence:
#
# PCOD9188322 Si02
#       8
#     4   8   8   4   4   8   8   4
#     4  12  22  34  59  86 113 157 185 238 280 348
#     4  10  19  36  58  88 117 145 180 239 292 339
#     4  11  19  32  55  88 125 148 178 225 290 354
#     4  11  23  40  60  83 108 154 201 247 284 324
#     4  11  23  38  59  86 108 150 203 244 288 325
#     4   9  20  32  52  87 121 150 183 219 285 356
#     4  11  20  34  53  83 123 159 187 216 279 352
#     4  12  23  39  54  81 113 157 199 233 278 335
#
# _framework density 18.927567
#
# number of rings (size 3 to 8) (size 9 to 14) (size 15 to 20)
#    0.000    1.333    5.000    3.250    0.000    1.000 
#    0.000    0.000    0.000    1.000    4.333    0.000 
#    0.000    0.000    0.000    0.000    0.000    0.000 
#
# Total GULP energy -133709.469128 kJ/mol
# GULP energy per Si atom -5571.227880 kJ/mol
# Density = 1.888449 g / cm^3
# Si number density = 18.927567 Si / 1000 Ang^3
#
#
#
# Elastic Constant Matrix: (Units=GPa)
#
#
# Indices 1 2 3 4 5 6 
#
# 1 122.8157 21.6153 20.3605 -0.0001 -3.7586 0.0001
# 2 21.6153 123.4602 22.9739 -0.0002 0.9531 0.0000
# 3 20.3605 22.9739 49.4324 -0.0009 -3.1671 0.0001
# 4 -0.0001 -0.0002 -0.0009 -5.9251 0.0002 -3.9960
# 5 -3.7586 0.9531 -3.1671 0.0002 19.1045 0.0000
# 6 0.0001 0.0000 0.0001 -3.9960 0.0000 8.4018
#
#
#
# Elastic Compliance Matrix: (Units=1/GPa)
#
#
# Indices 1 2 3 4 5 6 
#
# 1 0.008871 -0.000983 -0.003115 0.000000 0.001278 0.000000
# 2 -0.000983 0.009000 -0.003860 0.000000 -0.001282 0.000000
# 3 -0.003115 -0.003860 0.023530 -0.000003 0.003480 -0.000001
# 4 0.000000 0.000000 -0.000003 -0.127785 0.000001 -0.060776
# 5 0.001278 -0.001282 0.003480 0.000001 0.053236 0.000001
# 6 0.000000 0.000000 -0.000001 -0.060776 0.000001 0.090116
#
#
# Mechanical properties :
#
#
# Convention : Reuss Voigt Hill
#
# Bulk Modulus (GPa) = 39.24013 47.28973 43.26493
# Shear Modulus (GPa) = 61.44091 19.70015 40.57053
#
# Velocity S-wave (km/s) = 5.70364 3.22967 4.63478
# Velocity P-wave (km/s) = 8.00950 6.24071 7.17979
#
# Compressibility (1/GPa) = 0.02548412
#
# Stress axis : x y z
#
# Youngs Moduli (GPa) = 112.72885 111.10968 42.49973
#
# Poissons Ratio (x) = 0.10926 0.13238
# Poissons Ratio (y) = 0.11085 0.16405
# Poissons Ratio (z) = 0.35114 0.42888
#
# Static dielectric constant tensor:
#      x y z
#    x 1.744190 0.000000 -0.020100 
#    y 0.000000 1.717720 0.000000 
#    z -0.020100 0.000000 1.614420 
# 
# From -- ./inp_files/132539.got.cif
#   From: 2010.05.17/outbox.cif.g08.bks.cpg/sg12_67_cif.got.tgz:132539.got - 2010.06.03 13:09:07.
