data_PCOD9188414
_publ_section_title
;
Structure prediction by ZEFSAII (Michael W. Deem and Ramdas Pophale) SiO2 
 PCOD9188414
Probable space group: C 2/M
;
_chemical_formula_sum "Si O2"
_cell_formula_units_Z 56
_cell_length_a 21.071865
_cell_length_b 8.656508
_cell_length_c 30.905853
_cell_angle_alpha 90.000000
_cell_angle_beta 33.607067
_cell_angle_gamma 90.000000
_cell_volume 3120.323208
_symmetry_space_group_name_H-M "C 2/M"
_symmetry_group_IT_number 12
_symmetry_cell_setting 'monoclinic'
loop_
_space_group_symop_operation_xyz
x,y,z
-x,y,-z
-x,-y,-z
x,-y,z
1/2+x,1/2+y,z
1/2-x,1/2+y,-z
1/2-x,1/2-y,-z
1/2+x,1/2-y,z
loop_
_atom_site_type_symbol
_atom_site_label
_atom_site_fract_x
_atom_site_fract_y
_atom_site_fract_z
Si Si1 0.575509 0.684817 0.577735
Si Si2 0.551463 0.186879 0.753260
Si Si3 0.169585 0.314628 0.267763
Si Si4 0.182333 0.312057 0.159975
Si Si5 0.097093 0.685126 0.825857
Si Si6 0.064412 0.813410 0.008188
Si Si7 0.291479 0.684849 0.409775
O O1 0.570604 0.500000 0.578537
O O2 0.449529 0.754578 0.645233
O O3 0.627376 0.729887 0.595447
O O4 0.666870 0.747025 0.491256
O O5 0.429401 0.238957 0.802862
O O6 0.566971 0.233873 0.794121
O O7 0.651012 0.251365 0.666060
O O8 0.554349 0.000000 0.749611
O O9 0.171645 0.500000 0.267351
O O10 0.175347 0.263724 0.214080
O O11 0.280376 0.251161 0.229244
O O12 0.182555 0.500000 0.159840
O O13 0.303417 0.263279 0.070934
O O14 0.101449 0.500000 0.824602
O O15 0.002741 0.743234 0.913454
O O16 0.060744 0.000000 0.013755
O O17 0.000000 0.772558 0.000000
O O18 0.285251 0.500000 0.412162
#
# Coordination Sequence:
#
# PCOD9188414 Si02
#       7
#     8   8   8   8   8   8   8
#     4  10  20  34  56  88 120 148 185 235 286 334
#     4  10  21  39  58  80 116 157 190 229 287 343
#     4  11  20  36  61  85 111 149 194 238 280 335
#     4   9  18  34  59  83 107 145 193 235 276 334
#     4  11  24  38  55  83 119 153 186 234 293 343
#     4  10  19  36  59  84 110 146 194 238 283 336
#     4  10  20  34  56  87 118 150 189 233 279 333
#
# _framework density 17.946859
#
# number of rings (size 3 to 8) (size 9 to 14) (size 15 to 20)
#    0.000    1.857    2.857    1.714    0.000    3.143 
#    0.000    1.429    0.000    4.286    0.000    0.000 
#    0.000    0.000    0.000    0.000    0.000    0.000 
#
# Total GULP energy -156372.564220 kJ/mol
# GULP energy per Si atom -5584.734436 kJ/mol
# Density = 1.790601 g / cm^3
# Si number density = 17.946859 Si / 1000 Ang^3
#
#
#
# Elastic Constant Matrix: (Units=GPa)
#
#
# Indices 1 2 3 4 5 6 
#
# 1 139.6562 36.0857 96.1577 0.0000 1.4333 0.0004
# 2 36.0857 29.3322 40.3663 -0.0042 2.6550 0.0000
# 3 96.1577 40.3663 189.0997 0.0001 -4.7304 -0.0001
# 4 0.0000 -0.0042 0.0001 33.4339 0.0001 0.9329
# 5 1.4333 2.6550 -4.7304 0.0001 31.5221 0.0001
# 6 0.0004 0.0000 -0.0001 0.9329 0.0001 21.5294
#
#
#
# Elastic Compliance Matrix: (Units=1/GPa)
#
#
# Indices 1 2 3 4 5 6 
#
# 1 0.012653 -0.009424 -0.004433 -0.000001 -0.000447 0.000000
# 2 -0.009424 0.056311 -0.007364 0.000007 -0.005419 0.000000
# 3 -0.004433 -0.007364 0.009169 -0.000001 0.002198 0.000000
# 4 -0.000001 0.000007 -0.000001 0.029946 -0.000001 -0.001298
# 5 -0.000447 -0.005419 0.002198 -0.000001 0.032530 0.000000
# 6 0.000000 0.000000 0.000000 -0.001298 0.000000 0.046504
#
#
# Mechanical properties :
#
#
# Convention : Reuss Voigt Hill
#
# Bulk Modulus (GPa) = 28.01900 78.14529 53.08215
# Shear Modulus (GPa) = 20.70800 29.66232 25.18516
#
# Velocity S-wave (km/s) = 3.40052 4.06986 3.75015
# Velocity P-wave (km/s) = 5.57352 8.10692 6.95652
#
# Compressibility (1/GPa) = 0.03569006
#
# Stress axis : x y z
#
# Youngs Moduli (GPa) = 79.03488 17.75865 109.05805
#
# Poissons Ratio (x) = 0.16736 0.48349
# Poissons Ratio (y) = 0.74485 0.80307
# Poissons Ratio (z) = 0.35039 0.13077
#
# Static dielectric constant tensor:
#      x y z
#    x 1.600070 0.000000 -0.003750 
#    y 0.000000 1.607080 0.000000 
#    z -0.003750 0.000000 1.589530 
# 
# From -- ./inp_files/362884.got.cif
#   From: 2010.05.17/outbox.cif.g08.bks.cpg/sg12_182_cif.got.tgz:362884.got - 2010.06.03 13:09:07.
