data_PCOD9188026
_publ_section_title
;
Structure prediction by ZEFSAII (Michael W. Deem and Ramdas Pophale) SiO2 
 PCOD9188026
Probable space group: C 2/M
;
_chemical_formula_sum "Si O2"
_cell_formula_units_Z 64
_cell_length_a 15.357223
_cell_length_b 19.129206
_cell_length_c 12.198682
_cell_angle_alpha 90.000000
_cell_angle_beta 112.713943
_cell_angle_gamma 90.000000
_cell_volume 3305.693824
_symmetry_space_group_name_H-M "C 2/M"
_symmetry_group_IT_number 12
_symmetry_cell_setting 'monoclinic'
loop_
_space_group_symop_operation_xyz
x,y,z
-x,y,-z
-x,-y,-z
x,-y,z
1/2+x,1/2+y,z
1/2-x,1/2+y,-z
1/2-x,1/2-y,-z
1/2+x,1/2-y,z
loop_
_atom_site_type_symbol
_atom_site_label
_atom_site_fract_x
_atom_site_fract_y
_atom_site_fract_z
Si Si1 0.344787 0.688754 0.225089
Si Si2 0.308612 0.839646 0.141877
Si Si3 0.150539 0.638330 0.073946
Si Si4 0.630767 0.921103 0.290603
Si Si5 0.450160 0.304177 0.677194
Si Si6 0.290195 0.311278 0.441969
Si Si7 0.897890 0.199852 0.902474
Si Si8 0.518653 0.147925 0.636855
O O1 0.331777 0.756406 0.141849
O O2 0.262161 0.636431 0.155214
O O3 0.448718 0.658982 0.265753
O O4 0.325660 0.714008 0.340336
O O5 0.195614 0.841599 0.102573
O O6 0.372062 0.860422 0.276487
O O7 0.351663 0.876950 0.055790
O O8 0.105227 0.595605 0.151116
O O9 0.117061 0.718426 0.074943
O O10 0.710380 0.867654 0.374492
O O11 0.541084 0.906931 0.322610
O O12 0.664592 0.000000 0.315050
O O13 0.380999 0.336515 0.553821
O O14 0.402755 0.302734 0.772972
O O15 0.479667 0.224875 0.655602
O O16 0.250000 0.250000 0.500000
O O17 0.000000 0.177830 0.000000
O O18 0.500000 0.141329 0.500000
#
# Coordination Sequence:
#
# PCOD9188026 Si02
#       8
#     8   8   8   8   8   8   8   8
#     4   9  18  30  48  86 118 149 187 245 307 352
#     4  10  20  32  53  84 115 158 193 245 301 358
#     4  10  19  36  53  75 119 154 196 238 298 363
#     4  11  25  41  59  84 119 163 206 252 300 355
#     4  11  18  29  54  87 118 153 189 246 303 365
#     4  11  19  33  57  85 117 154 201 250 304 357
#     4  11  19  30  53  90 124 149 191 249 317 356
#     4  11  22  37  58  81 124 159 203 247 303 359
#
# _framework density 19.360534999999999
#
# number of rings (size 3 to 8) (size 9 to 14) (size 15 to 20)
#    0.000    1.500    2.500    7.125    1.750    0.250 
#    0.000    1.250    0.000    6.000    0.000    0.000 
#    0.000    5.500    0.000    0.000    0.000    0.000 
#
# Total GULP energy -178500.025835 kJ/mol
# GULP energy per Si atom -5578.125807 kJ/mol
# Density = 1.931647 g / cm^3
# Si number density = 19.360535 Si / 1000 Ang^3
#
#
#
# Elastic Constant Matrix: (Units=GPa)
#
#
# Indices 1 2 3 4 5 6 
#
# 1 103.7390 12.6327 50.9451 0.0000 3.9544 0.0000
# 2 12.6327 34.9402 16.9801 0.0000 -11.2926 0.0000
# 3 50.9451 16.9801 143.4214 0.0000 -9.4714 0.0000
# 4 0.0000 0.0000 0.0000 5.9546 0.0000 2.1000
# 5 3.9544 -11.2926 -9.4714 0.0000 43.6271 0.0000
# 6 0.0000 0.0000 0.0000 2.1000 0.0000 5.9303
#
#
#
# Elastic Compliance Matrix: (Units=1/GPa)
#
#
# Indices 1 2 3 4 5 6 
#
# 1 0.012177 -0.003324 -0.004121 0.000000 -0.002859 0.000000
# 2 -0.003324 0.033668 -0.002242 0.000000 0.008529 0.000000
# 3 -0.004121 -0.002242 0.008814 0.000000 0.001707 0.000000
# 4 0.000000 0.000000 0.000000 0.191901 0.000000 -0.067955
# 5 -0.002859 0.008529 0.001707 0.000000 0.025759 0.000000
# 6 0.000000 0.000000 0.000000 -0.067955 0.000000 0.192688
#
#
# Mechanical properties :
#
#
# Convention : Reuss Voigt Hill
#
# Bulk Modulus (GPa) = 28.33970 49.24626 38.79298
# Shear Modulus (GPa) = 10.07773 24.53860 17.30816
#
# Velocity S-wave (km/s) = 2.28399 3.56400 2.99321
# Velocity P-wave (km/s) = 4.65028 6.51366 5.65919
#
# Compressibility (1/GPa) = 0.03528619
#
# Stress axis : x y z
#
# Youngs Moduli (GPa) = 82.12257 29.70142 113.45162
#
# Poissons Ratio (x) = 0.09873 0.46749
# Poissons Ratio (y) = 0.27297 0.25437
# Poissons Ratio (z) = 0.33840 0.06659
#
# Static dielectric constant tensor:
#      x y z
#    x 1.749700 0.000000 0.017370 
#    y 0.000000 1.652790 0.000000 
#    z 0.017370 0.000000 1.733230 
# 
# From -- ./inp_files/147657.got.cif
#   From: 2010.05.17/outbox.cif.g08.bks.cpg/sg12_74_cif.got.tgz:147657.got - 2010.06.03 13:09:07.
