data_PCOD9188088
_publ_section_title
;
Structure prediction by ZEFSAII (Michael W. Deem and Ramdas Pophale) SiO2 
 PCOD9188088
Probable space group: C 2/M
;
_chemical_formula_sum "Si O2"
_cell_formula_units_Z 40
_cell_length_a 15.007927
_cell_length_b 15.866062
_cell_length_c 13.157893
_cell_angle_alpha 90.000000
_cell_angle_beta 137.959813
_cell_angle_gamma 90.000000
_cell_volume 2098.095097
_symmetry_space_group_name_H-M "C 2/M"
_symmetry_group_IT_number 12
_symmetry_cell_setting 'monoclinic'
loop_
_space_group_symop_operation_xyz
x,y,z
-x,y,-z
-x,-y,-z
x,-y,z
1/2+x,1/2+y,z
1/2-x,1/2+y,-z
1/2-x,1/2-y,-z
1/2+x,1/2-y,z
loop_
_atom_site_type_symbol
_atom_site_label
_atom_site_fract_x
_atom_site_fract_y
_atom_site_fract_z
Si Si1 0.111105 0.308145 0.163316
Si Si2 0.130795 0.500000 0.464208
Si Si3 0.254736 0.323287 0.876486
Si Si4 0.718121 0.345228 0.514204
Si Si5 0.666082 0.000000 0.735288
Si Si6 0.543084 0.286465 0.785888
O O1 0.171478 0.237609 0.140211
O O2 0.230704 0.352572 0.326083
O O3 0.032278 0.262598 0.187743
O O4 0.000000 0.355467 0.000000
O O5 0.202044 0.416952 0.479269
O O6 0.143007 0.500000 0.595669
O O7 0.971030 0.500000 0.315448
O O8 0.244992 0.416101 0.826635
O O9 0.109140 0.282785 0.768915
O O10 0.332282 0.327543 0.049659
O O11 0.750000 0.250000 0.500000
O O12 0.560025 0.347646 0.358035
#
# Coordination Sequence:
#
# PCOD9188088 Si02
#       6
#     8   4   8   8   4   8
#     4   9  18  34  55  79 107 147 191 222 269 338
#     4  11  24  35  54  88 112 141 194 231 280 351
#     4  10  20  34  56  84 112 146 187 229 279 339
#     4  10  19  36  56  76 110 147 177 227 282 325
#     4  11  20  33  53  85 118 137 175 242 291 327
#     4   9  19  35  54  80 112 149 185 218 274 339
#
# _framework density 19.064913000000001
#
# number of rings (size 3 to 8) (size 9 to 14) (size 15 to 20)
#    0.000    2.200    0.000    4.800    0.000    3.200 
#    0.000    6.000    0.000   12.000    0.000    0.000 
#    0.000    0.000    0.000    0.000    0.000    0.000 
#
# Total GULP energy -111336.100511 kJ/mol
# GULP energy per Si atom -5566.805026 kJ/mol
# Density = 1.902152 g / cm^3
# Si number density = 19.064913 Si / 1000 Ang^3
#
#
#
# Elastic Constant Matrix: (Units=GPa)
#
#
# Indices 1 2 3 4 5 6 
#
# 1 70.8762 24.9690 16.3693 0.0000 1.1314 0.0000
# 2 24.9690 73.2962 20.2752 0.0000 -7.3156 0.0000
# 3 16.3693 20.2752 148.1869 0.0000 2.4471 0.0000
# 4 0.0000 0.0000 0.0000 18.1802 0.0000 8.7676
# 5 1.1314 -7.3156 2.4471 0.0000 23.2339 0.0000
# 6 0.0000 0.0000 0.0000 8.7676 0.0000 55.0320
#
#
#
# Elastic Compliance Matrix: (Units=1/GPa)
#
#
# Indices 1 2 3 4 5 6 
#
# 1 0.016327 -0.005526 -0.001007 0.000000 -0.002429 0.000000
# 2 -0.005526 0.016576 -0.001751 0.000000 0.005673 0.000000
# 3 -0.001007 -0.001751 0.007120 0.000000 -0.001252 0.000000
# 4 0.000000 0.000000 0.000000 0.059583 0.000000 -0.009493
# 5 -0.002429 0.005673 -0.001252 0.000000 0.045077 0.000000
# 6 0.000000 0.000000 0.000000 -0.009493 0.000000 0.019684
#
#
# Mechanical properties :
#
#
# Convention : Reuss Voigt Hill
#
# Bulk Modulus (GPa) = 42.63589 46.17627 44.40608
# Shear Modulus (GPa) = 26.48956 34.67227 30.58092
#
# Velocity S-wave (km/s) = 3.73156 4.26918 4.00939
# Velocity P-wave (km/s) = 6.40142 6.96953 6.69151
#
# Compressibility (1/GPa) = 0.02345442
#
# Stress axis : x y z
#
# Youngs Moduli (GPa) = 61.24742 60.32702 140.45318
#
# Poissons Ratio (x) = 0.33335 0.14150
# Poissons Ratio (y) = 0.33844 0.24597
# Poissons Ratio (z) = 0.06170 0.10565
#
# Static dielectric constant tensor:
#      x y z
#    x 1.677420 0.000000 0.049720 
#    y 0.000000 1.642570 0.000000 
#    z 0.049720 0.000000 1.799180 
# 
# From -- ./inp_files/143381.got.cif
#   From: 2010.05.17/outbox.cif.g08.bks.cpg/sg12_72_cif.got.tgz:143381.got - 2010.06.03 13:09:07.
