data_PCOD9188385
_publ_section_title
;
Structure prediction by ZEFSAII (Michael W. Deem and Ramdas Pophale) SiO2 
 PCOD9188385
Probable space group: C 2/M
;
_chemical_formula_sum "Si O2"
_cell_formula_units_Z 48
_cell_length_a 14.475086
_cell_length_b 27.613839
_cell_length_c 11.960079
_cell_angle_alpha 90.000000
_cell_angle_beta 151.762961
_cell_angle_gamma 90.000000
_cell_volume 2261.797146
_symmetry_space_group_name_H-M "C 2/M"
_symmetry_group_IT_number 12
_symmetry_cell_setting 'monoclinic'
loop_
_space_group_symop_operation_xyz
x,y,z
-x,y,-z
-x,-y,-z
x,-y,z
1/2+x,1/2+y,z
1/2-x,1/2+y,-z
1/2-x,1/2-y,-z
1/2+x,1/2-y,z
loop_
_atom_site_type_symbol
_atom_site_label
_atom_site_fract_x
_atom_site_fract_y
_atom_site_fract_z
Si Si1 0.346402 0.657721 0.545990
Si Si2 0.206452 0.697752 0.172945
Si Si3 0.852431 0.446003 0.004372
Si Si4 0.802209 0.944357 0.400725
Si Si5 0.906668 0.350733 0.170226
Si Si6 0.368823 0.690594 0.959810
O O1 0.343936 0.684531 0.423051
O O2 0.389192 0.601101 0.561578
O O3 0.486900 0.685208 0.780811
O O4 0.132042 0.658590 0.377627
O O5 0.215986 0.674071 0.061751
O O6 0.183359 0.754838 0.130518
O O7 0.000000 0.677690 0.000000
O O8 0.810296 0.500000 0.997540
O O9 0.713801 0.434709 0.749973
O O10 0.852667 0.406713 0.100381
O O11 0.074391 0.445041 0.195057
O O12 0.872301 0.000000 0.492579
O O13 0.831389 0.332339 0.208594
O O14 0.500000 0.668564 0.000000
#
# Coordination Sequence:
#
# PCOD9188385 Si02
#       6
#     8   8   8   8   8   8
#     4  10  20  38  61  82 115 148 176 236 288 326
#     4   9  19  36  57  82 109 139 186 231 281 334
#     4   8  13  25  52  87 116 138 172 227 283 339
#     4   8  13  26  54  88 115 140 171 220 290 346
#     4  10  19  36  59  82 114 148 181 224 286 338
#     4  11  25  39  53  80 113 150 200 232 262 328
#
# _framework density 21.222064
#
# number of rings (size 3 to 8) (size 9 to 14) (size 15 to 20)
#    0.000    2.667    1.667    1.500    0.000    7.333 
#    0.000    5.833    0.000    4.000    0.000    4.667 
#    0.000    0.000    0.000    0.000    0.000    0.000 
#
# Total GULP energy -133911.116366 kJ/mol
# GULP energy per Si atom -5579.629849 kJ/mol
# Density = 2.117376 g / cm^3
# Si number density = 21.222064 Si / 1000 Ang^3
#
#
#
# Elastic Constant Matrix: (Units=GPa)
#
#
# Indices 1 2 3 4 5 6 
#
# 1 133.1584 40.4775 11.2310 0.0000 6.0717 0.0000
# 2 40.4775 96.6496 15.9637 0.0000 -1.7094 0.0000
# 3 11.2310 15.9637 72.9157 0.0001 4.1446 0.0000
# 4 0.0000 0.0000 0.0001 -29.3728 0.0000 -7.8625
# 5 6.0717 -1.7094 4.1446 0.0000 25.6056 0.0000
# 6 0.0000 0.0000 0.0000 -7.8625 0.0000 26.9940
#
#
#
# Elastic Compliance Matrix: (Units=1/GPa)
#
#
# Indices 1 2 3 4 5 6 
#
# 1 0.008753 -0.003636 -0.000424 0.000000 -0.002250 0.000000
# 2 -0.003636 0.012276 -0.002244 0.000000 0.002045 0.000000
# 3 -0.000424 -0.002244 0.014406 0.000000 -0.002381 0.000000
# 4 0.000000 0.000000 0.000000 -0.031583 0.000000 -0.009199
# 5 -0.002250 0.002045 -0.002381 0.000000 0.040109 0.000000
# 6 0.000000 0.000000 0.000000 -0.009199 0.000000 0.034366
#
#
# Mechanical properties :
#
#
# Convention : Reuss Voigt Hill
#
# Bulk Modulus (GPa) = 43.80591 48.67424 46.24008
# Shear Modulus (GPa) = 50.73791 20.31547 35.52669
#
# Velocity S-wave (km/s) = 4.89489 3.09735 4.09595
# Velocity P-wave (km/s) = 7.25487 5.98138 6.64869
#
# Compressibility (1/GPa) = 0.02282797
#
# Stress axis : x y z
#
# Youngs Moduli (GPa) = 114.24134 81.45921 69.41343
#
# Poissons Ratio (x) = 0.29616 0.02946
# Poissons Ratio (y) = 0.41534 0.15576
# Poissons Ratio (z) = 0.04849 0.18279
#
# Static dielectric constant tensor:
#      x y z
#    x 1.808740 0.000000 0.094620 
#    y 0.000000 1.771280 0.000000 
#    z 0.094620 0.000000 1.837260 
# 
# From -- ./inp_files/149840.got.cif
#   From: 2010.05.17/outbox.cif.g08.bks.cpg/sg12_75_cif.got.tgz:149840.got - 2010.06.03 13:09:07.
