data_PCOD9188537
_publ_section_title
;
Structure prediction by ZEFSAII (Michael W. Deem and Ramdas Pophale) SiO2 
 PCOD9188537
Probable space group: C 2/M
;
_chemical_formula_sum "Si O2"
_cell_formula_units_Z 64
_cell_length_a 33.263648
_cell_length_b 7.573078
_cell_length_c 15.248137
_cell_angle_alpha 90.000000
_cell_angle_beta 132.454770
_cell_angle_gamma 90.000000
_cell_volume 2834.026322
_symmetry_space_group_name_H-M "C 2/M"
_symmetry_group_IT_number 12
_symmetry_cell_setting 'monoclinic'
loop_
_space_group_symop_operation_xyz
x,y,z
-x,y,-z
-x,-y,-z
x,-y,z
1/2+x,1/2+y,z
1/2-x,1/2+y,-z
1/2-x,1/2-y,-z
1/2+x,1/2-y,z
loop_
_atom_site_type_symbol
_atom_site_label
_atom_site_fract_x
_atom_site_fract_y
_atom_site_fract_z
Si Si1 0.708654 0.715729 0.078837
Si Si2 0.872438 0.214334 0.505834
Si Si3 0.646450 0.286353 0.157198
Si Si4 0.185968 0.211710 0.403680
Si Si5 0.022297 0.706307 0.940355
Si Si6 0.607646 0.295991 0.815831
Si Si7 0.492912 0.703037 0.705057
Si Si8 0.170819 0.707443 0.747268
O O1 0.710591 0.500000 0.077900
O O2 0.691986 0.765192 0.153309
O O3 0.768785 0.778829 0.142607
O O4 0.659488 0.778803 0.944744
O O5 0.843383 0.278015 0.551842
O O6 0.934687 0.280687 0.593837
O O7 0.840653 0.266562 0.371882
O O8 0.873587 0.000000 0.511143
O O9 0.644944 0.500000 0.156089
O O10 0.659970 0.221596 0.274602
O O11 0.587429 0.225141 0.038000
O O12 0.250000 0.250000 0.500000
O O13 0.179371 0.000000 0.392923
O O14 0.007553 0.500000 0.913683
O O15 0.998243 0.794331 0.818334
O O16 0.000000 0.777737 0.000000
O O17 0.603904 0.500000 0.840477
O O18 0.548876 0.215274 0.750584
O O19 0.624523 0.291119 0.739590
O O20 0.491593 0.500000 0.671932
O O21 0.169789 0.500000 0.765133
#
# Coordination Sequence:
#
# PCOD9188537 Si02
#       8
#     8   8   8   8   8   8   8   8
#     4   9  18  35  59  87 117 147 190 238 287 345
#     4  10  22  40  59  85 116 153 202 245 284 340
#     4  10  19  36  60  84 111 150 197 238 278 339
#     4  10  21  36  58  86 119 155 196 243 289 342
#     4  11  23  36  53  84 121 151 183 232 291 344
#     4  10  20  38  62  87 114 147 191 246 294 341
#     4  10  21  40  65  85 110 153 199 241 285 338
#     4  11  23  38  59  86 116 155 193 238 298 351
#
# _framework density 22.582712000000001
#
# number of rings (size 3 to 8) (size 9 to 14) (size 15 to 20)
#    0.000    1.875    1.250    2.625    0.000    5.500 
#    0.000    4.375    0.000    0.000    0.000    0.000 
#    0.000    0.000    0.000    0.000    0.000    0.000 
#
# Total GULP energy -178898.028602 kJ/mol
# GULP energy per Si atom -5590.563394 kJ/mol
# Density = 2.253131 g / cm^3
# Si number density = 22.582712 Si / 1000 Ang^3
#
#
#
# Elastic Constant Matrix: (Units=GPa)
#
#
# Indices 1 2 3 4 5 6 
#
# 1 117.2382 2.1448 10.8901 0.0000 12.5327 0.0000
# 2 2.1448 56.8897 -3.9632 0.0000 2.8177 0.0000
# 3 10.8901 -3.9632 72.5850 0.0000 12.8908 0.0000
# 4 0.0000 0.0000 0.0000 12.3668 0.0000 0.5275
# 5 12.5327 2.8177 12.8908 0.0000 44.3503 0.0000
# 6 0.0000 0.0000 0.0000 0.5275 0.0000 9.4248
#
#
#
# Elastic Compliance Matrix: (Units=1/GPa)
#
#
# Indices 1 2 3 4 5 6 
#
# 1 0.008860 -0.000291 -0.000953 0.000000 -0.002208 0.000000
# 2 -0.000291 0.017747 0.001264 0.000000 -0.001413 0.000000
# 3 -0.000953 0.001264 0.014715 0.000000 -0.004088 0.000000
# 4 0.000000 0.000000 0.000000 0.081055 0.000000 -0.004537
# 5 -0.002208 -0.001413 -0.004088 0.000000 0.024450 0.000000
# 6 0.000000 0.000000 0.000000 -0.004537 0.000000 0.106357
#
#
# Mechanical properties :
#
#
# Convention : Reuss Voigt Hill
#
# Bulk Modulus (GPa) = 24.17775 29.42847 26.80311
# Shear Modulus (GPa) = 18.73149 29.07116 23.90132
#
# Velocity S-wave (km/s) = 2.88316 3.59182 3.25682
# Velocity P-wave (km/s) = 4.67044 5.50102 5.10266
#
# Compressibility (1/GPa) = 0.04136034
#
# Stress axis : x y z
#
# Youngs Moduli (GPa) = 112.87280 56.34807 67.95823
#
# Poissons Ratio (x) = 0.01640 0.06476
# Poissons Ratio (y) = 0.03285 -0.08587
# Poissons Ratio (z) = 0.10756 -0.07120
#
# Static dielectric constant tensor:
#      x y z
#    x 1.833270 0.000000 0.006370 
#    y 0.000000 1.872220 0.000000 
#    z 0.006370 0.000000 1.799670 
# 
# From -- ./inp_files/250009.got.cif
#   From: 2010.05.17/outbox.cif.g08.bks.cpg/sg12_126_cif.got.tgz:250009.got - 2010.06.03 13:09:07.
