data_PCOD9188679
_publ_section_title
;
Structure prediction by ZEFSAII (Michael W. Deem and Ramdas Pophale) SiO2 
 PCOD9188679
Probable space group: C 2/M
;
_chemical_formula_sum "Si O2"
_cell_formula_units_Z 56
_cell_length_a 24.516856
_cell_length_b 7.966659
_cell_length_c 15.345570
_cell_angle_alpha 90.000000
_cell_angle_beta 117.361269
_cell_angle_gamma 90.000000
_cell_volume 2661.942961
_symmetry_space_group_name_H-M "C 2/M"
_symmetry_group_IT_number 12
_symmetry_cell_setting 'monoclinic'
loop_
_space_group_symop_operation_xyz
x,y,z
-x,y,-z
-x,-y,-z
x,-y,z
1/2+x,1/2+y,z
1/2-x,1/2+y,-z
1/2-x,1/2-y,-z
1/2+x,1/2-y,z
loop_
_atom_site_type_symbol
_atom_site_label
_atom_site_fract_x
_atom_site_fract_y
_atom_site_fract_z
Si Si1 0.458851 0.793731 0.886601
Si Si2 0.320883 0.189954 0.800969
Si Si3 0.994287 0.297802 0.718845
Si Si4 0.308132 0.300361 0.984854
Si Si5 0.812710 0.691931 0.325396
Si Si6 0.437020 0.794925 0.502495
Si Si7 0.628308 0.304269 0.801434
O O1 0.388228 0.730638 0.837839
O O2 0.483842 0.742003 0.810170
O O3 0.458792 0.000000 0.889509
O O4 0.500000 0.739528 0.000000
O O5 0.310735 0.203113 0.897204
O O6 0.256830 0.248540 0.712234
O O7 0.328130 0.000000 0.777109
O O8 0.999101 0.500000 0.723299
O O9 0.058016 0.227925 0.729089
O O10 0.943433 0.253680 0.609489
O O11 0.307812 0.500000 0.966465
O O12 0.250000 0.250000 0.000000
O O13 0.362986 0.256515 0.091249
O O14 0.812502 0.500000 0.351778
O O15 0.872865 0.771167 0.415643
O O16 0.828844 0.706990 0.234472
O O17 0.500000 0.739996 0.500000
O O18 0.436664 0.000000 0.493541
O O19 0.644696 0.500000 0.805540
#
# Coordination Sequence:
#
# PCOD9188679 Si02
#       7
#     8   8   8   8   8   8   8
#     4   9  19  36  59  85 110 146 192 235 280 337
#     4  11  22  37  56  82 116 146 188 241 286 337
#     4  10  19  36  61  82 108 148 194 237 280 334
#     4  11  22  34  51  77 111 148 186 224 278 342
#     4  11  21  35  56  80 111 149 189 229 282 346
#     4   9  17  32  55  85 111 142 192 239 277 334
#     4  11  22  34  51  82 117 144 179 231 288 340
#
# _framework density 21.037265000000001
#
# number of rings (size 3 to 8) (size 9 to 14) (size 15 to 20)
#    0.000    1.714    2.857    2.571    0.000    2.857 
#    0.000    4.286    0.000    3.857    0.000    0.000 
#    0.000    0.000    0.000    0.000    0.000    0.000 
#
# Total GULP energy -156173.229029 kJ/mol
# GULP energy per Si atom -5577.615322 kJ/mol
# Density = 2.098938 g / cm^3
# Si number density = 21.037265 Si / 1000 Ang^3
#
#
#
# Elastic Constant Matrix: (Units=GPa)
#
#
# Indices 1 2 3 4 5 6 
#
# 1 111.2632 2.9161 36.7329 0.0000 25.9332 0.0000
# 2 2.9161 13.7810 11.7110 0.0000 8.7317 0.0000
# 3 36.7329 11.7110 122.3319 0.0000 28.2606 0.0000
# 4 0.0000 0.0000 0.0000 14.9884 0.0000 10.4108
# 5 25.9332 8.7317 28.2606 0.0000 40.2126 0.0000
# 6 0.0000 0.0000 0.0000 10.4108 0.0000 14.1894
#
#
#
# Elastic Compliance Matrix: (Units=1/GPa)
#
#
# Indices 1 2 3 4 5 6 
#
# 1 0.011111 0.003571 -0.002201 0.000000 -0.006394 0.000000
# 2 0.003571 0.087490 -0.005404 0.000000 -0.017502 0.000000
# 3 -0.002201 -0.005404 0.010450 0.000000 -0.004751 0.000000
# 4 0.000000 0.000000 0.000000 0.136055 0.000000 -0.099824
# 5 -0.006394 -0.017502 -0.004751 0.000000 0.036131 0.000000
# 6 0.000000 0.000000 0.000000 -0.099824 0.000000 0.143716
#
#
# Mechanical properties :
#
#
# Convention : Reuss Voigt Hill
#
# Bulk Modulus (GPa) = 9.90279 38.89957 24.40118
# Shear Modulus (GPa) = 10.71390 26.94582 18.82986
#
# Velocity S-wave (km/s) = 2.25918 3.58280 2.99502
# Velocity P-wave (km/s) = 3.39450 5.97044 4.85638
#
# Compressibility (1/GPa) = 0.10098166
#
# Stress axis : x y z
#
# Youngs Moduli (GPa) = 90.00008 11.42987 95.69005
#
# Poissons Ratio (x) = -0.04081 0.21062
# Poissons Ratio (y) = -0.32135 0.51715
# Poissons Ratio (z) = 0.19810 0.06177
#
# Static dielectric constant tensor:
#      x y z
#    x 1.758910 0.000000 0.051750 
#    y 0.000000 1.773240 0.000000 
#    z 0.051750 0.000000 1.820700 
# 
# From -- ./inp_files/239023.got.cif
#   From: 2010.05.17/outbox.cif.g08.bks.cpg/sg12_120_cif.got.tgz:239023.got - 2010.06.03 13:09:07.
