data_PCOD9188921
_publ_section_title
;
Structure prediction by ZEFSAII (Michael W. Deem and Ramdas Pophale) SiO2 
 PCOD9188921
Probable space group: C 2/M
;
_chemical_formula_sum "Si O2"
_cell_formula_units_Z 64
_cell_length_a 31.095052
_cell_length_b 16.074015
_cell_length_c 17.047278
_cell_angle_alpha 90.000000
_cell_angle_beta 159.212842
_cell_angle_gamma 90.000000
_cell_volume 3023.942647
_symmetry_space_group_name_H-M "C 2/M"
_symmetry_group_IT_number 12
_symmetry_cell_setting 'monoclinic'
loop_
_space_group_symop_operation_xyz
x,y,z
-x,y,-z
-x,-y,-z
x,-y,z
1/2+x,1/2+y,z
1/2-x,1/2+y,-z
1/2-x,1/2-y,-z
1/2+x,1/2-y,z
loop_
_atom_site_type_symbol
_atom_site_label
_atom_site_fract_x
_atom_site_fract_y
_atom_site_fract_z
Si Si1 0.656875 0.855031 0.491936
Si Si2 0.735551 0.093932 0.210495
Si Si3 0.955181 0.826220 0.676943
Si Si4 0.055960 0.172972 0.014397
Si Si5 0.182740 0.898829 0.977786
Si Si6 0.918343 0.593485 0.471512
Si Si7 0.995228 0.371159 0.080486
Si Si8 0.182576 0.601260 0.947289
O O1 0.580740 0.770061 0.374844
O O2 0.800278 0.841604 0.742195
O O3 0.613760 0.909649 0.491266
O O4 0.617199 0.885131 0.338297
O O5 0.836579 0.135983 0.435388
O O6 0.611898 0.094072 0.048576
O O7 0.712128 0.132876 0.084797
O O8 0.776894 0.000000 0.266708
O O9 0.068044 0.849416 0.814443
O O10 0.991345 0.859196 0.825241
O O11 0.032523 0.272368 0.973514
O O12 0.000000 0.139793 0.000000
O O13 0.214597 0.883118 0.941403
O O14 0.166267 0.000000 0.960602
O O15 0.302013 0.869950 0.229531
O O16 0.926894 0.500000 0.453715
O O17 0.051656 0.632559 0.693479
O O18 0.000000 0.403130 0.000000
O O19 0.168538 0.500000 0.929061
#
# Coordination Sequence:
#
# PCOD9188921 Si02
#       8
#     8   8   8   8   8   8   8   8
#     4  11  21  38  64  87 119 150 191 245 290 341
#     4  11  22  38  58  84 123 156 190 238 290 346
#     4  11  23  37  60  86 119 152 194 238 291 349
#     4  10  22  39  63  87 111 151 198 241 287 346
#     4  10  20  37  62  88 116 154 199 240 283 340
#     4  10  19  36  63  89 116 150 196 244 288 336
#     4  10  22  36  60  87 114 151 196 240 285 344
#     4   9  19  36  61  88 113 154 201 238 282 342
#
# _framework density 21.164421999999998
#
# number of rings (size 3 to 8) (size 9 to 14) (size 15 to 20)
#    0.000    1.750    3.750    0.750    1.750    3.750 
#    0.000    2.500    2.750    1.875    0.000    0.000 
#    0.000    0.000    0.000    0.000    0.000    0.000 
#
# Total GULP energy -178637.909319 kJ/mol
# GULP energy per Si atom -5582.434666 kJ/mol
# Density = 2.111625 g / cm^3
# Si number density = 21.164422 Si / 1000 Ang^3
#
#
#
# Elastic Constant Matrix: (Units=GPa)
#
#
# Indices 1 2 3 4 5 6 
#
# 1 122.0176 10.9429 45.1070 0.0000 -3.7482 0.0000
# 2 10.9429 21.0297 19.6961 0.0000 -1.8594 0.0000
# 3 45.1070 19.6961 134.8412 0.0000 -9.8593 0.0000
# 4 0.0000 0.0000 0.0000 12.4509 0.0000 1.1295
# 5 -3.7482 -1.8594 -9.8593 0.0000 32.7680 0.0000
# 6 0.0000 0.0000 0.0000 1.1295 0.0000 20.4494
#
#
#
# Elastic Compliance Matrix: (Units=1/GPa)
#
#
# Indices 1 2 3 4 5 6 
#
# 1 0.009445 -0.002263 -0.002821 0.000000 0.000103 0.000000
# 2 -0.002263 0.055647 -0.007320 0.000000 0.000696 0.000000
# 3 -0.002821 -0.007320 0.009586 0.000000 0.002146 0.000000
# 4 0.000000 0.000000 0.000000 0.080720 0.000000 -0.004458
# 5 0.000103 0.000696 0.002146 0.000000 0.031215 0.000000
# 6 0.000000 0.000000 0.000000 -0.004458 0.000000 0.049148
#
#
# Mechanical properties :
#
#
# Convention : Reuss Voigt Hill
#
# Bulk Modulus (GPa) = 20.05279 47.70892 33.88085
# Shear Modulus (GPa) = 18.03804 26.60982 22.32393
#
# Velocity S-wave (km/s) = 2.92255 3.54968 3.25127
# Velocity P-wave (km/s) = 4.56987 6.27624 5.48976
#
# Compressibility (1/GPa) = 0.04986837
#
# Stress axis : x y z
#
# Youngs Moduli (GPa) = 105.88027 17.97042 104.31757
#
# Poissons Ratio (x) = 0.04067 0.29431
# Poissons Ratio (y) = 0.23961 0.76364
# Poissons Ratio (z) = 0.29872 0.13155
#
# Static dielectric constant tensor:
#      x y z
#    x 1.765090 0.000000 -0.034440 
#    y 0.000000 1.823010 0.000000 
#    z -0.034440 0.000000 1.759300 
# 
# From -- ./inp_files/251945.got.cif
#   From: 2010.05.17/outbox.cif.g08.bks.cpg/sg12_126_cif.got.tgz:251945.got - 2010.06.03 13:09:07.
