data_PCOD9188813
_publ_section_title
;
Structure prediction by ZEFSAII (Michael W. Deem and Ramdas Pophale) SiO2 
 PCOD9188813
Probable space group: C 2/M
;
_chemical_formula_sum "Si O2"
_cell_formula_units_Z 48
_cell_length_a 11.825156
_cell_length_b 14.748739
_cell_length_c 26.101777
_cell_angle_alpha 90.000000
_cell_angle_beta 30.144050
_cell_angle_gamma 90.000000
_cell_volume 2286.059689
_symmetry_space_group_name_H-M "C 2/M"
_symmetry_group_IT_number 12
_symmetry_cell_setting 'monoclinic'
loop_
_space_group_symop_operation_xyz
x,y,z
-x,y,-z
-x,-y,-z
x,-y,z
1/2+x,1/2+y,z
1/2-x,1/2+y,-z
1/2-x,1/2-y,-z
1/2+x,1/2-y,z
loop_
_atom_site_type_symbol
_atom_site_label
_atom_site_fract_x
_atom_site_fract_y
_atom_site_fract_z
Si Si1 0.348821 0.158391 0.512576
Si Si2 0.588125 0.743290 0.263572
Si Si3 0.520967 0.639861 0.553132
Si Si4 0.477619 0.895797 0.230117
Si Si5 0.570737 0.742646 0.115797
Si Si6 0.758846 0.101054 0.881239
O O1 0.500000 0.114622 0.500000
O O2 0.483059 0.249861 0.444423
O O3 0.124589 0.197104 0.627256
O O4 0.242493 0.114984 0.501494
O O5 0.518184 0.838461 0.265892
O O6 0.683966 0.672264 0.184744
O O7 0.805665 0.757957 0.211705
O O8 0.500000 0.614713 0.500000
O O9 0.294308 0.604422 0.668807
O O10 0.600044 0.831649 0.140320
O O11 0.554205 0.000000 0.200176
O O12 0.612811 0.643334 0.121775
O O13 0.750000 0.750000 0.000000
O O14 0.822532 0.000000 0.841438
O O15 0.500000 0.102515 0.000000
#
# Coordination Sequence:
#
# PCOD9188813 Si02
#       6
#     8   8   8   8   8   8
#     4  10  19  36  64  95 124 178 224 270 330 398
#     4  11  21  41  64  90 127 175 215 268 333 396
#     4  10  19  36  61  95 130 174 218 271 329 396
#     4  11  24  40  63 100 133 172 222 274 331 401
#     4  11  23  41  66  94 126 172 217 269 334 399
#     4  10  22  39  63  93 124 163 215 272 331 395
#
# _framework density 20.996829000000002
#
# number of rings (size 3 to 8) (size 9 to 14) (size 15 to 20)
#    0.000    1.500    6.667    0.000    0.000    2.333 
#    0.000    0.833    0.000    2.000    0.000    0.000 
#    0.000    0.000    0.000    0.000    0.000    0.000 
#
# Total GULP energy -133601.821456 kJ/mol
# GULP energy per Si atom -5566.742561 kJ/mol
# Density = 2.094904 g / cm^3
# Si number density = 20.996829 Si / 1000 Ang^3
#
#
#
# Elastic Constant Matrix: (Units=GPa)
#
#
# Indices 1 2 3 4 5 6 
#
# 1 117.5425 16.6542 16.0930 0.0004 -12.6630 0.0007
# 2 16.6542 112.5461 17.4243 -0.0015 -7.6139 0.0013
# 3 16.0930 17.4243 84.7273 -0.0003 3.8164 0.0044
# 4 0.0004 -0.0015 -0.0003 13.4675 0.0030 -10.2132
# 5 -12.6630 -7.6139 3.8164 0.0030 25.1725 -0.0001
# 6 0.0007 0.0013 0.0044 -10.2132 -0.0001 -3.7433
#
#
#
# Elastic Compliance Matrix: (Units=1/GPa)
#
#
# Indices 1 2 3 4 5 6 
#
# 1 0.009383 -0.000782 -0.001836 -0.000001 0.004762 0.000001
# 2 -0.000782 0.009487 -0.001927 0.000000 0.002768 0.000000
# 3 -0.001836 -0.001927 0.012702 0.000004 -0.003432 0.000004
# 4 -0.000001 0.000000 0.000004 0.024194 -0.000004 -0.066010
# 5 0.004762 0.002768 -0.003432 -0.000004 0.043479 0.000007
# 6 0.000001 0.000000 0.000004 -0.066010 0.000007 -0.087043
#
#
# Mechanical properties :
#
#
# Convention : Reuss Voigt Hill
#
# Bulk Modulus (GPa) = 44.48081 46.12873 45.30477
# Shear Modulus (GPa) = 173.70190 24.62229 99.16209
#
# Velocity S-wave (km/s) = 9.10534 3.42814 6.87966
# Velocity P-wave (km/s) = 11.47927 6.13894 9.20489
#
# Compressibility (1/GPa) = 0.02248161
#
# Stress axis : x y z
#
# Youngs Moduli (GPa) = 106.57911 105.41197 78.72675
#
# Poissons Ratio (x) = 0.08244 0.14453
# Poissons Ratio (y) = 0.08335 0.15171
# Poissons Ratio (z) = 0.19566 0.20314
#
# Static dielectric constant tensor:
#      x y z
#    x 1.927080 -0.000020 0.036450 
#    y -0.000020 1.720130 0.000020 
#    z 0.036450 0.000020 1.705430 
# 
# From -- ./inp_files/358325.got.cif
#   From: 2010.05.17/outbox.cif.g08.bks.cpg/sg12_180_cif.got.tgz:358325.got - 2010.06.03 13:09:07.
