data_PCOD9188970
_publ_section_title
;
Structure prediction by ZEFSAII (Michael W. Deem and Ramdas Pophale) SiO2 
 PCOD9188970
Probable space group: C 2/M
;
_chemical_formula_sum "Si O2"
_cell_formula_units_Z 64
_cell_length_a 10.312525
_cell_length_b 17.396882
_cell_length_c 31.407927
_cell_angle_alpha 90.000000
_cell_angle_beta 38.452546
_cell_angle_gamma 90.000000
_cell_volume 3504.069317
_symmetry_space_group_name_H-M "C 2/M"
_symmetry_group_IT_number 12
_symmetry_cell_setting 'monoclinic'
loop_
_space_group_symop_operation_xyz
x,y,z
-x,y,-z
-x,-y,-z
x,-y,z
1/2+x,1/2+y,z
1/2-x,1/2+y,-z
1/2-x,1/2-y,-z
1/2+x,1/2-y,z
loop_
_atom_site_type_symbol
_atom_site_label
_atom_site_fract_x
_atom_site_fract_y
_atom_site_fract_z
Si Si1 0.265375 0.091187 0.649706
Si Si2 0.984018 0.090069 0.372570
Si Si3 0.464894 0.406422 0.801690
Si Si4 0.459403 0.092836 0.134651
Si Si5 0.431259 0.906474 0.240701
Si Si6 0.126494 0.318487 0.510083
Si Si7 0.394051 0.593156 0.141551
Si Si8 0.142169 0.820765 0.003767
O O1 0.154312 0.116561 0.721842
O O2 0.464139 0.139606 0.583354
O O3 0.093354 0.098443 0.656349
O O4 0.318089 0.000000 0.638881
O O5 0.217385 0.122806 0.316562
O O6 0.805752 0.124593 0.447578
O O7 0.993745 0.000000 0.379102
O O8 0.464221 0.500000 0.800788
O O9 0.243721 0.380980 0.839449
O O10 0.499901 0.383356 0.841325
O O11 0.437000 0.116047 0.189669
O O12 0.465733 0.000000 0.131685
O O13 0.671182 0.125896 0.061323
O O14 0.649884 0.885012 0.205446
O O15 0.421432 0.000000 0.243916
O O16 0.250000 0.250000 0.500000
O O17 0.000000 0.294609 0.500000
O O18 0.407056 0.500000 0.134004
O O19 0.503112 0.632541 0.073432
O O20 0.250000 0.750000 0.000000
O O21 0.000000 0.797555 0.000000
#
# Coordination Sequence:
#
# PCOD9188970 Si02
#       8
#     8   8   8   8   8   8   8   8
#     4   9  16  32  59  85 108 140 182 229 274 317
#     4   9  16  31  59  87 106 136 186 234 270 316
#     4   9  18  33  58  91 116 136 176 233 283 326
#     4  10  19  36  64  86 106 143 185 228 275 326
#     4   9  16  31  58  88 109 131 179 236 278 319
#     4  10  21  37  54  77 112 150 187 224 266 323
#     4  10  21  38  61  86 111 143 183 228 278 329
#     4  12  27  42  56  79 114 150 185 228 276 329
#
# _framework density 18.264479000000001
#
# number of rings (size 3 to 8) (size 9 to 14) (size 15 to 20)
#    0.000    2.250    2.500    0.750    1.750    2.000 
#    2.250    4.375    0.000    0.750    0.000    0.000 
#    0.000    0.000    0.000    0.000    0.000    0.000 
#
# Total GULP energy -178492.654729 kJ/mol
# GULP energy per Si atom -5577.895460 kJ/mol
# Density = 1.822291 g / cm^3
# Si number density = 18.264479 Si / 1000 Ang^3
#
#
#
# Elastic Constant Matrix: (Units=GPa)
#
#
# Indices 1 2 3 4 5 6 
#
# 1 112.5994 23.1595 41.5840 0.0036 -11.3714 -0.0021
# 2 23.1595 22.7222 16.5999 0.0006 -5.4965 -0.0009
# 3 41.5840 16.5999 101.0934 0.0014 -14.6808 -0.0020
# 4 0.0036 0.0006 0.0014 -6.0512 -0.0029 -4.7219
# 5 -11.3714 -5.4965 -14.6808 -0.0029 30.1471 0.0018
# 6 -0.0021 -0.0009 -0.0020 -4.7219 0.0018 21.0287
#
#
#
# Elastic Compliance Matrix: (Units=1/GPa)
#
#
# Indices 1 2 3 4 5 6 
#
# 1 0.012215 -0.009783 -0.003237 0.000004 0.001247 0.000001
# 2 -0.009783 0.058709 -0.004947 -0.000003 0.004605 0.000000
# 3 -0.003237 -0.004947 0.012620 -0.000001 0.004023 0.000000
# 4 0.000004 -0.000003 -0.000001 -0.140618 -0.000012 -0.031575
# 5 0.001247 0.004605 0.004023 -0.000012 0.036440 -0.000005
# 6 0.000001 0.000000 0.000000 -0.031575 -0.000005 0.040464
#
#
# Mechanical properties :
#
#
# Convention : Reuss Voigt Hill
#
# Bulk Modulus (GPa) = 21.00440 44.34465 32.67452
# Shear Modulus (GPa) = 69.79952 19.36305 44.58128
#
# Velocity S-wave (km/s) = 6.18862 3.25952 4.94588
# Velocity P-wave (km/s) = 7.91141 6.20467 7.10944
#
# Compressibility (1/GPa) = 0.04760908
#
# Stress axis : x y z
#
# Youngs Moduli (GPa) = 81.86914 17.03303 79.24057
#
# Poissons Ratio (x) = 0.16664 0.25649
# Poissons Ratio (y) = 0.80094 0.39203
# Poissons Ratio (z) = 0.26499 0.08427
#
# Static dielectric constant tensor:
#      x y z
#    x 1.626120 0.000000 -0.003630 
#    y 0.000000 1.629880 0.000000 
#    z -0.003630 0.000000 1.630200 
# 
# From -- ./inp_files/372905.got.cif
#   From: 2010.05.17/outbox.cif.g08.bks.cpg/sg12_187_cif.got.tgz:372905.got - 2010.06.03 13:09:07.
