data_PCOD9188304
_publ_section_title
;
Structure prediction by ZEFSAII (Michael W. Deem and Ramdas Pophale) SiO2 
 PCOD9188304
Probable space group: C 2/M
;
_chemical_formula_sum "Si O2"
_cell_formula_units_Z 48
_cell_length_a 14.704510
_cell_length_b 14.136453
_cell_length_c 20.957266
_cell_angle_alpha 90.000000
_cell_angle_beta 33.560715
_cell_angle_gamma 90.000000
_cell_volume 2408.294745
_symmetry_space_group_name_H-M "C 2/M"
_symmetry_group_IT_number 12
_symmetry_cell_setting 'monoclinic'
loop_
_space_group_symop_operation_xyz
x,y,z
-x,y,-z
-x,-y,-z
x,-y,z
1/2+x,1/2+y,z
1/2-x,1/2+y,-z
1/2-x,1/2-y,-z
1/2+x,1/2-y,z
loop_
_atom_site_type_symbol
_atom_site_label
_atom_site_fract_x
_atom_site_fract_y
_atom_site_fract_z
Si Si1 0.555592 0.110399 0.751180
Si Si2 0.010833 0.891388 0.178074
Si Si3 0.712986 0.391983 0.568020
Si Si4 0.154520 0.731916 0.801694
Si Si5 0.629219 0.108608 0.014649
Si Si6 0.992528 0.281198 0.354005
O O1 0.684718 0.168262 0.719950
O O2 0.526042 0.166602 0.703533
O O3 0.597251 0.000000 0.716556
O O4 0.398998 0.112094 0.891290
O O5 0.871630 0.890313 0.313541
O O6 0.950190 0.822338 0.158974
O O7 0.185480 0.858000 0.105501
O O8 0.035684 0.000000 0.142996
O O9 0.709584 0.500000 0.546786
O O10 0.604080 0.318621 0.590864
O O11 0.896001 0.349889 0.459065
O O12 0.320724 0.761995 0.737477
O O13 0.028394 0.667403 0.915310
O O14 0.615492 0.000000 0.002043
#
# Coordination Sequence:
#
# PCOD9188304 Si02
#       6
#     8   8   8   8   8   8
#     4   9  19  38  61  87 120 157 194 248 304 351
#     4  10  19  36  58  84 119 159 197 239 301 363
#     4  10  22  39  58  81 121 162 193 247 304 354
#     4  10  20  35  61  89 114 157 199 248 299 357
#     4   8  17  35  61  86 115 155 198 245 299 359
#     4  11  22  38  60  88 117 155 208 252 296 358
#
# _framework density 19.931115999999999
#
# number of rings (size 3 to 8) (size 9 to 14) (size 15 to 20)
#    1.000    1.333    1.667    1.000    0.000    3.333 
#    0.000    5.000    0.000    9.000    0.000    0.000 
#    0.000    0.000    0.000    0.000    0.000    0.000 
#
# Total GULP energy -133699.848860 kJ/mol
# GULP energy per Si atom -5570.827036 kJ/mol
# Density = 1.988575 g / cm^3
# Si number density = 19.931116 Si / 1000 Ang^3
#
#
#
# Elastic Constant Matrix: (Units=GPa)
#
#
# Indices 1 2 3 4 5 6 
#
# 1 90.2346 57.6073 27.5937 0.0000 -16.8572 0.0001
# 2 57.6073 159.5978 17.7262 0.0000 -16.7750 0.0002
# 3 27.5937 17.7262 88.1855 -0.0006 -6.8417 0.0003
# 4 0.0000 0.0000 -0.0006 29.5543 0.0001 -7.7351
# 5 -16.8572 -16.7750 -6.8417 0.0001 25.6769 0.0000
# 6 0.0001 0.0002 0.0003 -7.7351 0.0000 -7.3327
#
#
#
# Elastic Compliance Matrix: (Units=1/GPa)
#
#
# Indices 1 2 3 4 5 6 
#
# 1 0.016571 -0.004866 -0.003686 0.000000 0.006718 0.000000
# 2 -0.004866 0.008250 0.000035 0.000000 0.002205 0.000000
# 3 -0.003686 0.000035 0.012560 0.000000 0.000950 0.000000
# 4 0.000000 0.000000 0.000000 0.026516 0.000000 -0.027970
# 5 0.006718 0.002205 0.000950 0.000000 0.045049 0.000000
# 6 0.000000 0.000000 0.000000 -0.027970 0.000000 -0.106870
#
#
# Mechanical properties :
#
#
# Convention : Reuss Voigt Hill
#
# Bulk Modulus (GPa) = 49.14576 60.43024 54.78800
# Shear Modulus (GPa) = 193.12083 25.25241 109.18662
#
# Velocity S-wave (km/s) = 9.85416 3.56333 7.40952
# Velocity P-wave (km/s) = 12.41708 6.87860 10.03741
#
# Compressibility (1/GPa) = 0.02034764
#
# Stress axis : x y z
#
# Youngs Moduli (GPa) = 60.34730 121.21392 79.62017
#
# Poissons Ratio (x) = 0.58980 0.29346
# Poissons Ratio (y) = 0.29364 -0.00281
# Poissons Ratio (z) = 0.22243 -0.00427
#
# Static dielectric constant tensor:
#      x y z
#    x 1.694140 0.000000 0.032580 
#    y 0.000000 1.729850 0.000000 
#    z 0.032580 0.000000 1.717010 
# 
# From -- ./inp_files/340060.got.cif
#   From: 2010.05.17/outbox.cif.g08.bks.cpg/sg12_171_cif.got.tgz:340060.got - 2010.06.03 13:09:07.
