data_PCOD9188147
_publ_section_title
;
Structure prediction by ZEFSAII (Michael W. Deem and Ramdas Pophale) SiO2 
 PCOD9188147
Probable space group: C 2/M
;
_chemical_formula_sum "Si O2"
_cell_formula_units_Z 44
_cell_length_a 18.979765
_cell_length_b 17.894220
_cell_length_c 19.552042
_cell_angle_alpha 90.000000
_cell_angle_beta 21.614627
_cell_angle_gamma 90.000000
_cell_volume 2446.078736
_symmetry_space_group_name_H-M "C 2/M"
_symmetry_group_IT_number 12
_symmetry_cell_setting 'monoclinic'
loop_
_space_group_symop_operation_xyz
x,y,z
-x,y,-z
-x,-y,-z
x,-y,z
1/2+x,1/2+y,z
1/2-x,1/2+y,-z
1/2-x,1/2-y,-z
1/2+x,1/2-y,z
loop_
_atom_site_type_symbol
_atom_site_label
_atom_site_fract_x
_atom_site_fract_y
_atom_site_fract_z
Si Si1 0.661579 0.833056 0.087552
Si Si2 0.035198 0.087659 0.717571
Si Si3 0.622115 0.084997 0.265922
Si Si4 0.244214 0.803669 0.438019
Si Si5 0.500000 0.627670 0.000000
Si Si6 0.738223 0.165135 0.360399
O O1 0.625084 0.858840 0.198659
O O2 0.459420 0.831035 0.232594
O O3 0.750000 0.750000 0.000000
O O4 0.813340 0.891708 0.922450
O O5 0.117197 0.127307 0.576073
O O6 0.135407 0.126707 0.693060
O O7 0.070387 0.000000 0.687967
O O8 0.831655 0.085260 0.111077
O O9 0.453641 0.115253 0.467047
O O10 0.577443 0.000000 0.284701
O O11 0.250000 0.750000 0.500000
O O12 0.181935 0.748567 0.434289
O O13 0.372845 0.668462 0.172581
#
# Coordination Sequence:
#
# PCOD9188147 Si02
#       6
#     8   8   8   8   4   8
#     4  12  19  34  55  77 106 145 185 231 282 327
#     4  11  21  33  54  83 111 141 181 227 280 333
#     4  12  24  36  52  76 112 153 190 227 268 321
#     4  10  19  36  57  78 105 144 185 235 283 328
#     4  12  25  38  52  74 113 156 198 222 259 318
#     4  11  22  38  55  77 108 150 190 231 269 324
#
# _framework density 17.987974999999999
#
# number of rings (size 3 to 8) (size 9 to 14) (size 15 to 20)
#    0.000    0.727    9.091    1.909    0.000    3.636 
#    0.000    0.000    0.000    0.000    0.000    0.636 
#    0.000   17.455    0.000    4.545    0.000    0.000 
#
# Total GULP energy -122699.064548 kJ/mol
# GULP energy per Si atom -5577.230207 kJ/mol
# Density = 1.794703 g / cm^3
# Si number density = 17.987975 Si / 1000 Ang^3
#
#
#
# Elastic Constant Matrix: (Units=GPa)
#
#
# Indices 1 2 3 4 5 6 
#
# 1 35.2800 34.9038 18.9351 -0.0043 9.7158 0.0007
# 2 34.9038 96.5164 29.7923 -0.0236 22.7731 0.0024
# 3 18.9351 29.7923 123.5108 -0.0283 9.2038 0.0027
# 4 -0.0043 -0.0236 -0.0283 15.5054 0.0066 -9.7349
# 5 9.7158 22.7731 9.2038 0.0066 37.8711 0.0012
# 6 0.0007 0.0024 0.0027 -9.7349 0.0012 -2.8075
#
#
#
# Elastic Compliance Matrix: (Units=1/GPa)
#
#
# Indices 1 2 3 4 5 6 
#
# 1 0.045412 -0.014995 -0.003207 -0.000006 -0.001854 0.000015
# 2 -0.014995 0.017777 -0.001507 0.000009 -0.006477 -0.000023
# 3 -0.003207 -0.001507 0.008985 0.000005 -0.000455 -0.000013
# 4 -0.000006 0.000009 0.000005 0.020300 -0.000006 -0.070390
# 5 -0.001854 -0.006477 -0.000455 -0.000006 0.030886 0.000029
# 6 0.000015 -0.000023 -0.000013 -0.070390 0.000029 -0.112114
#
#
# Mechanical properties :
#
#
# Convention : Reuss Voigt Hill
#
# Bulk Modulus (GPa) = 30.52785 46.95216 38.74000
# Shear Modulus (GPa) = 81.19254 21.55887 51.37571
#
# Velocity S-wave (km/s) = 6.72571 3.46571 5.35006
# Velocity P-wave (km/s) = 8.79327 6.49412 7.72965
#
# Compressibility (1/GPa) = 0.03275698
#
# Stress axis : x y z
#
# Youngs Moduli (GPa) = 22.02084 56.25267 111.29183
#
# Poissons Ratio (x) = 0.84352 0.35689
# Poissons Ratio (y) = 0.33021 0.16766
# Poissons Ratio (z) = 0.07062 0.08474
#
# Static dielectric constant tensor:
#      x y z
#    x 1.647220 -0.000010 -0.000190 
#    y -0.000010 1.612010 0.000030 
#    z -0.000190 0.000030 1.664720 
# 
# From -- ./inp_files/322392.got.cif
#   From: 2010.05.17/outbox.cif.g08.bks.cpg/sg12_162_cif.got.tgz:322392.got - 2010.06.03 13:09:07.
