data_PCOD9188035
_publ_section_title
;
Structure prediction by ZEFSAII (Michael W. Deem and Ramdas Pophale) SiO2 
 PCOD9188035
Probable space group: C 2/M
;
_chemical_formula_sum "Si O2"
_cell_formula_units_Z 56
_cell_length_a 19.945302
_cell_length_b 21.668174
_cell_length_c 16.375950
_cell_angle_alpha 90.000000
_cell_angle_beta 159.335737
_cell_angle_gamma 90.000000
_cell_volume 2497.528203
_symmetry_space_group_name_H-M "C 2/M"
_symmetry_group_IT_number 12
_symmetry_cell_setting 'monoclinic'
loop_
_space_group_symop_operation_xyz
x,y,z
-x,y,-z
-x,-y,-z
x,-y,z
1/2+x,1/2+y,z
1/2-x,1/2+y,-z
1/2-x,1/2-y,-z
1/2+x,1/2-y,z
loop_
_atom_site_type_symbol
_atom_site_label
_atom_site_fract_x
_atom_site_fract_y
_atom_site_fract_z
Si Si1 0.531405 0.387618 0.752079
Si Si2 0.174894 0.932658 0.323832
Si Si3 0.526401 0.251890 0.822758
Si Si4 0.855364 0.389761 0.779372
Si Si5 0.800044 0.783481 0.282717
Si Si6 0.454212 0.117011 0.178946
Si Si7 0.820018 0.199198 0.738357
O O1 0.474836 0.419704 0.773512
O O2 0.536608 0.313886 0.780260
O O3 0.355057 0.406484 0.492910
O O4 0.738573 0.401838 0.951527
O O5 0.389257 0.927127 0.603187
O O6 0.169366 0.873429 0.260430
O O7 0.142555 0.000000 0.251670
O O8 0.515089 0.188588 0.758751
O O9 0.357673 0.266540 0.695496
O O10 0.701560 0.237853 0.086034
O O11 0.812208 0.330648 0.787009
O O12 0.977852 0.378945 0.837210
O O13 0.000000 0.429227 0.000000
O O14 0.844179 0.725281 0.392055
O O15 0.000000 0.816569 0.500000
O O16 0.000000 0.215578 0.000000
#
# Coordination Sequence:
#
# PCOD9188035 Si02
#       7
#     8   8   8   8   8   8   8
#     4  10  24  36  61  86 119 156 196 245 301 361
#     4  10  24  41  60  84 115 161 214 255 288 335
#     4  10  19  36  53  90 124 153 190 229 303 372
#     4  11  21  36  53  88 125 152 184 229 293 372
#     4  11  20  31  55  87 132 162 186 232 291 367
#     4  11  21  37  61  86 117 155 193 247 302 354
#     4   9  19  36  57  85 124 163 195 239 295 352
#
# _framework density 22.422170999999999
#
# number of rings (size 3 to 8) (size 9 to 14) (size 15 to 20)
#    0.000    1.714    2.857    1.714    4.000    2.571 
#    0.000    0.000    0.000    7.286    0.000    8.000 
#    0.000    0.000    0.000    0.000    0.000    0.000 
#
# Total GULP energy -156061.150080 kJ/mol
# GULP energy per Si atom -5573.612503 kJ/mol
# Density = 2.237114 g / cm^3
# Si number density = 22.422171 Si / 1000 Ang^3
#
#
#
# Elastic Constant Matrix: (Units=GPa)
#
#
# Indices 1 2 3 4 5 6 
#
# 1 69.2381 8.5355 45.3505 0.0000 22.5481 0.0000
# 2 8.5355 88.2903 -8.6953 0.0000 1.2905 0.0000
# 3 45.3505 -8.6953 115.1890 0.0000 32.0580 0.0000
# 4 0.0000 0.0000 0.0000 2.9665 0.0000 1.4407
# 5 22.5481 1.2905 32.0580 0.0000 51.1454 0.0000
# 6 0.0000 0.0000 0.0000 1.4407 0.0000 1.8006
#
#
#
# Elastic Compliance Matrix: (Units=1/GPa)
#
#
# Indices 1 2 3 4 5 6 
#
# 1 0.020990 -0.002665 -0.007157 0.000000 -0.004700 0.000000
# 2 -0.002665 0.011792 0.002054 0.000000 -0.000410 0.000000
# 3 -0.007157 0.002054 0.013070 0.000000 -0.005089 0.000000
# 4 0.000000 0.000000 0.000000 0.551344 0.000000 -0.441133
# 5 -0.004700 -0.000410 -0.005089 0.000000 0.024825 0.000000
# 6 0.000000 0.000000 0.000000 -0.441133 0.000000 0.908313
#
#
# Mechanical properties :
#
#
# Convention : Reuss Voigt Hill
#
# Bulk Modulus (GPa) = 32.98678 40.34432 36.66555
# Shear Modulus (GPa) = 3.21342 26.35095 14.78218
#
# Velocity S-wave (km/s) = 1.19844 3.43187 2.57040
# Velocity P-wave (km/s) = 4.08150 5.80824 5.01968
#
# Compressibility (1/GPa) = 0.03031517
#
# Stress axis : x y z
#
# Youngs Moduli (GPa) = 47.64182 84.80202 76.50842
#
# Poissons Ratio (x) = 0.22603 0.54756
# Poissons Ratio (y) = 0.12698 -0.15711
# Poissons Ratio (z) = 0.34097 -0.17414
#
# Static dielectric constant tensor:
#      x y z
#    x 1.920770 0.000000 0.029760 
#    y 0.000000 1.843110 0.000000 
#    z 0.029760 0.000000 1.992380 
# 
# From -- ./inp_files/286079.got.cif
#   From: 2010.05.17/outbox.cif.g08.bks.cpg/sg12_144_cif.got.tgz:286079.got - 2010.06.03 13:09:07.
