data_PCOD9188137
_publ_section_title
;
Structure prediction by ZEFSAII (Michael W. Deem and Ramdas Pophale) SiO2 
 PCOD9188137
Probable space group: C 2/M
;
_chemical_formula_sum "Si O2"
_cell_formula_units_Z 48
_cell_length_a 24.175514
_cell_length_b 7.843226
_cell_length_c 13.167728
_cell_angle_alpha 90.000000
_cell_angle_beta 90.679906
_cell_angle_gamma 90.000000
_cell_volume 2496.610048
_symmetry_space_group_name_H-M "C 2/M"
_symmetry_group_IT_number 12
_symmetry_cell_setting 'monoclinic'
loop_
_space_group_symop_operation_xyz
x,y,z
-x,y,-z
-x,-y,-z
x,-y,z
1/2+x,1/2+y,z
1/2-x,1/2+y,-z
1/2-x,1/2-y,-z
1/2+x,1/2-y,z
loop_
_atom_site_type_symbol
_atom_site_label
_atom_site_fract_x
_atom_site_fract_y
_atom_site_fract_z
Si Si1 0.315457 0.206296 0.893826
Si Si2 0.996890 0.298591 0.614431
Si Si3 0.884549 0.800139 0.307691
Si Si4 0.382770 0.791404 0.701743
Si Si5 0.189272 0.204171 0.877679
Si Si6 0.814318 0.296235 0.501693
O O1 0.356924 0.266882 0.807452
O O2 0.252630 0.267876 0.870606
O O3 0.314336 0.000000 0.891616
O O4 0.330044 0.258980 0.008446
O O5 0.985796 0.500000 0.602350
O O6 0.055771 0.278447 0.668925
O O7 0.000000 0.225411 0.500000
O O8 0.944610 0.231478 0.676524
O O9 0.851223 0.728341 0.210296
O O10 0.846313 0.778618 0.405993
O O11 0.894101 0.000000 0.290769
O O12 0.343543 0.741096 0.606887
O O13 0.382586 0.000000 0.705565
O O14 0.191999 0.000000 0.864262
O O15 0.819979 0.500000 0.495549
O O16 0.750000 0.250000 0.500000
#
# Coordination Sequence:
#
# PCOD9188137 Si02
#       6
#     8   8   8   8   8   8
#     4   9  17  33  57  79 100 135 180 220 263 323
#     4  10  19  36  57  77 104 145 185 222 269 322
#     4  11  22  36  54  79 110 144 181 222 270 322
#     4   9  18  34  55  77 106 140 176 220 273 321
#     4   9  19  35  53  76 109 141 172 219 276 321
#     4  11  21  35  54  80 112 143 175 219 273 326
#
# _framework density 19.226071000000001
#
# number of rings (size 3 to 8) (size 9 to 14) (size 15 to 20)
#    0.000    2.167    1.667    2.000    0.000    4.333 
#    0.000    6.667    0.000    5.000    0.000    0.000 
#    0.000    0.000    0.000    0.000    0.000    0.000 
#
# Total GULP energy -133970.147757 kJ/mol
# GULP energy per Si atom -5582.089490 kJ/mol
# Density = 1.918231 g / cm^3
# Si number density = 19.226071 Si / 1000 Ang^3
#
#
#
# Elastic Constant Matrix: (Units=GPa)
#
#
# Indices 1 2 3 4 5 6 
#
# 1 130.7204 -15.0162 75.8595 0.0000 -23.9151 0.0000
# 2 -15.0162 14.5258 -12.1830 0.0000 -2.7234 0.0000
# 3 75.8595 -12.1830 140.6322 0.0000 -22.1263 0.0000
# 4 0.0000 0.0000 0.0000 11.9393 0.0000 -5.9220
# 5 -23.9151 -2.7234 -22.1263 0.0000 26.0860 0.0000
# 6 0.0000 0.0000 0.0000 -5.9220 0.0000 17.1217
#
#
#
# Elastic Compliance Matrix: (Units=1/GPa)
#
#
# Indices 1 2 3 4 5 6 
#
# 1 0.013522 0.011778 -0.004766 0.000000 0.009584 0.000000
# 2 0.011778 0.090145 0.005349 0.000000 0.024747 0.000000
# 3 -0.004766 0.005349 0.011015 0.000000 0.005533 0.000000
# 4 0.000000 0.000000 0.000000 0.101103 0.000000 0.034969
# 5 0.009584 0.024747 0.005533 0.000000 0.054398 0.000000
# 6 0.000000 0.000000 0.000000 0.034969 0.000000 0.070501
#
#
# Mechanical properties :
#
#
# Convention : Reuss Voigt Hill
#
# Bulk Modulus (GPa) = 7.17327 42.57767 24.87547
# Shear Modulus (GPa) = 13.79583 26.84391 20.31987
#
# Velocity S-wave (km/s) = 2.68163 3.74066 3.25451
# Velocity P-wave (km/s) = 3.65066 6.39145 5.20471
#
# Compressibility (1/GPa) = 0.13940637
#
# Stress axis : x y z
#
# Youngs Moduli (GPa) = 73.95390 11.09321 90.78220
#
# Poissons Ratio (x) = -0.13066 0.43264
# Poissons Ratio (y) = -0.87105 -0.48563
# Poissons Ratio (z) = 0.35244 -0.05934
#
# Static dielectric constant tensor:
#      x y z
#    x 1.641400 0.000000 0.002590 
#    y 0.000000 1.487280 0.000000 
#    z 0.002590 0.000000 1.654110 
# 
# From -- ./inp_files/172202.got.cif
#   From: 2010.05.17/outbox.cif.g08.bks.cpg/sg12_87_cif.got.tgz:172202.got - 2010.06.03 13:09:07.
