data_PCOD9188059
_publ_section_title
;
Structure prediction by ZEFSAII (Michael W. Deem and Ramdas Pophale) SiO2 
 PCOD9188059
Probable space group: C 2/M
;
_chemical_formula_sum "Si O2"
_cell_formula_units_Z 40
_cell_length_a 10.043869
_cell_length_b 21.537610
_cell_length_c 17.591601
_cell_angle_alpha 90.000000
_cell_angle_beta 142.907029
_cell_angle_gamma 90.000000
_cell_volume 2295.094340
_symmetry_space_group_name_H-M "C 2/M"
_symmetry_group_IT_number 12
_symmetry_cell_setting 'monoclinic'
loop_
_space_group_symop_operation_xyz
x,y,z
-x,y,-z
-x,-y,-z
x,-y,z
1/2+x,1/2+y,z
1/2-x,1/2+y,-z
1/2-x,1/2-y,-z
1/2+x,1/2-y,z
loop_
_atom_site_type_symbol
_atom_site_label
_atom_site_fract_x
_atom_site_fract_y
_atom_site_fract_z
Si Si1 0.283954 0.429914 0.211425
Si Si2 0.036133 0.818184 0.398461
Si Si3 0.289599 0.301833 0.953394
Si Si4 0.744312 0.071292 0.014480
Si Si5 0.336980 0.218749 0.663180
O O1 0.348503 0.500000 0.259532
O O2 0.422631 0.381074 0.321451
O O3 0.311155 0.421124 0.133212
O O4 0.022665 0.423507 0.108581
O O5 0.843496 0.777821 0.351904
O O6 0.226775 0.824792 0.548366
O O7 0.125072 0.782415 0.365269
O O8 0.068215 0.303457 0.802027
O O9 0.500000 0.282371 0.000000
O O10 0.250000 0.250000 0.000000
O O11 0.332097 0.370246 0.007457
O O12 0.801127 0.000000 0.017136
#
# Coordination Sequence:
#
# PCOD9188059 Si02
#       5
#     8   8   8   8   8
#     4   9  17  33  58  81 106 143 182 225 267 321
#     4  10  19  36  55  76 110 140 180 220 271 329
#     4  12  24  35  56  84 113 143 182 231 273 324
#     4   9  19  35  55  80 111 145 183 223 273 327
#     4  10  21  34  52  79 109 143 174 223 274 319
#
# _framework density 17.428477000000001
#
# number of rings (size 3 to 8) (size 9 to 14) (size 15 to 20)
#    0.000    2.000    2.000    3.600    2.800    0.400 
#    0.000    3.000    0.000    0.000    0.000   14.000 
#    0.000    0.000    0.000    0.000    0.000    0.000 
#
# Total GULP energy -111537.873798 kJ/mol
# GULP energy per Si atom -5576.893690 kJ/mol
# Density = 1.738881 g / cm^3
# Si number density = 17.428477 Si / 1000 Ang^3
#
#
#
# Elastic Constant Matrix: (Units=GPa)
#
#
# Indices 1 2 3 4 5 6 
#
# 1 93.4283 55.3372 37.4534 -0.0001 2.9083 -0.0001
# 2 55.3372 94.2082 39.0328 -0.0002 -10.5085 -0.0002
# 3 37.4534 39.0328 81.3940 0.0020 6.6983 0.0000
# 4 -0.0001 -0.0002 0.0020 28.9518 0.0000 1.5116
# 5 2.9083 -10.5085 6.6983 0.0000 15.0755 -0.0002
# 6 -0.0001 -0.0002 0.0000 1.5116 -0.0002 24.7568
#
#
#
# Elastic Compliance Matrix: (Units=1/GPa)
#
#
# Indices 1 2 3 4 5 6 
#
# 1 0.018503 -0.011011 -0.002396 0.000000 -0.010181 0.000000
# 2 -0.011011 0.022546 -0.007487 0.000001 0.021167 0.000000
# 3 -0.002396 -0.007487 0.018029 -0.000001 -0.012767 0.000000
# 4 0.000000 0.000001 -0.000001 0.034651 0.000001 -0.002116
# 5 -0.010181 0.021167 -0.012767 0.000001 0.088724 0.000001
# 6 0.000000 0.000000 0.000000 -0.002116 0.000001 0.040522
#
#
# Mechanical properties :
#
#
# Convention : Reuss Voigt Hill
#
# Bulk Modulus (GPa) = 57.83713 59.18636 58.51175
# Shear Modulus (GPa) = 18.48252 22.90395 20.69324
#
# Velocity S-wave (km/s) = 3.26003 3.62908 3.44949
# Velocity P-wave (km/s) = 6.88679 7.18287 7.03639
#
# Compressibility (1/GPa) = 0.01728993
#
# Stress axis : x y z
#
# Youngs Moduli (GPa) = 54.04640 44.35411 55.46508
#
# Poissons Ratio (x) = 0.48840 0.13288
# Poissons Ratio (y) = 0.59512 0.41527
# Poissons Ratio (z) = 0.12948 0.33208
#
# Static dielectric constant tensor:
#      x y z
#    x 1.604650 0.000000 -0.004090 
#    y 0.000000 1.580880 0.000000 
#    z -0.004090 0.000000 1.588440 
# 
# From -- ./inp_files/120420.got.cif
#   From: 2010.05.17/outbox.cif.g08.bks.cpg/sg12_61_cif.got.tgz:120420.got - 2010.06.03 13:09:07.
