data_PCOD9188692
_publ_section_title
;
Structure prediction by ZEFSAII (Michael W. Deem and Ramdas Pophale) SiO2 
 PCOD9188692
Probable space group: C 2/M
;
_chemical_formula_sum "Si O2"
_cell_formula_units_Z 64
_cell_length_a 20.812834
_cell_length_b 7.588300
_cell_length_c 18.850122
_cell_angle_alpha 90.000000
_cell_angle_beta 82.412621
_cell_angle_gamma 90.000000
_cell_volume 2951.010359
_symmetry_space_group_name_H-M "C 2/M"
_symmetry_group_IT_number 12
_symmetry_cell_setting 'monoclinic'
loop_
_space_group_symop_operation_xyz
x,y,z
-x,y,-z
-x,-y,-z
x,-y,z
1/2+x,1/2+y,z
1/2-x,1/2+y,-z
1/2-x,1/2-y,-z
1/2+x,1/2-y,z
loop_
_atom_site_type_symbol
_atom_site_label
_atom_site_fract_x
_atom_site_fract_y
_atom_site_fract_z
Si Si1 0.538124 0.202174 0.791204
Si Si2 0.172895 0.282728 0.711707
Si Si3 0.068510 0.794629 0.296380
Si Si4 0.308862 0.790117 0.938607
Si Si5 0.569417 0.786414 0.459927
Si Si6 0.297339 0.294446 0.779258
Si Si7 0.682031 0.211144 0.547385
Si Si8 0.956891 0.715429 0.938505
O O1 0.607741 0.279383 0.760723
O O2 0.494698 0.205050 0.726751
O O3 0.494253 0.275830 0.861629
O O4 0.550804 0.000000 0.810527
O O5 0.171315 0.500000 0.711993
O O6 0.236290 0.223041 0.745198
O O7 0.176765 0.225176 0.629168
O O8 0.076216 0.777748 0.378978
O O9 0.133186 0.716665 0.251629
O O10 0.061894 0.000000 0.278095
O O11 0.290368 0.718212 0.864168
O O12 0.381382 0.726355 0.949881
O O13 0.313721 0.000000 0.931597
O O14 0.250000 0.750000 0.000000
O O15 0.500000 0.733060 0.500000
O O16 0.625270 0.722350 0.504444
O O17 0.571655 0.000000 0.457476
O O18 0.301231 0.500000 0.758020
O O19 0.750000 0.250000 0.500000
O O20 0.675231 0.000000 0.552210
O O21 0.955134 0.500000 0.938595
O O22 0.000000 0.768654 0.000000
#
# Coordination Sequence:
#
# PCOD9188692 Si02
#       8
#     8   8   8   8   8   8   8   8
#     4  10  19  36  61  84 111 147 191 237 276 329
#     4   9  19  35  59  84 108 147 195 236 275 328
#     4  11  22  36  57  84 118 152 184 232 293 347
#     4  11  23  39  61  88 118 149 187 235 282 335
#     4  10  21  37  59  84 110 147 197 243 280 332
#     4  10  21  38  59  84 115 152 192 230 276 338
#     4  10  20  36  56  82 113 147 189 237 288 338
#     4   9  19  35  59  89 113 143 190 234 273 325
#
# _framework density 21.687487999999998
#
# number of rings (size 3 to 8) (size 9 to 14) (size 15 to 20)
#    0.000    2.000    1.250    2.250    1.750    4.250 
#    0.000    3.125    0.000    1.875    0.000    0.000 
#    0.000    0.000    0.000    0.000    0.000    0.000 
#
# Total GULP energy -178782.962215 kJ/mol
# GULP energy per Si atom -5586.967569 kJ/mol
# Density = 2.163813 g / cm^3
# Si number density = 21.687488 Si / 1000 Ang^3
#
#
#
# Elastic Constant Matrix: (Units=GPa)
#
#
# Indices 1 2 3 4 5 6 
#
# 1 95.5834 -1.4990 17.1139 0.0000 -0.0188 0.0000
# 2 -1.4990 48.5823 -12.8329 0.0000 -0.4796 0.0000
# 3 17.1139 -12.8329 98.4115 0.0000 1.6617 0.0000
# 4 0.0000 0.0000 0.0000 18.8324 0.0000 -5.2652
# 5 -0.0188 -0.4796 1.6617 0.0000 45.1069 0.0000
# 6 0.0000 0.0000 0.0000 -5.2652 0.0000 7.5713
#
#
#
# Elastic Compliance Matrix: (Units=1/GPa)
#
#
# Indices 1 2 3 4 5 6 
#
# 1 0.010800 -0.000168 -0.001901 0.000000 0.000073 0.000000
# 2 -0.000168 0.021321 0.002807 0.000000 0.000123 0.000000
# 3 -0.001901 0.002807 0.010864 0.000000 -0.000371 0.000000
# 4 0.000000 0.000000 0.000000 0.065916 0.000000 0.045839
# 5 0.000073 0.000123 -0.000371 0.000000 0.022185 0.000000
# 6 0.000000 0.000000 0.000000 0.045839 0.000000 0.163956
#
#
# Mechanical properties :
#
#
# Convention : Reuss Voigt Hill
#
# Bulk Modulus (GPa) = 22.49143 27.57123 25.03133
# Shear Modulus (GPa) = 16.21343 30.28845 23.25094
#
# Velocity S-wave (km/s) = 2.73718 3.74115 3.27783
# Velocity P-wave (km/s) = 4.51473 5.60376 5.08846
#
# Compressibility (1/GPa) = 0.04446138
#
# Stress axis : x y z
#
# Youngs Moduli (GPa) = 92.59376 46.90157 92.04367
#
# Poissons Ratio (x) = 0.00789 0.17500
# Poissons Ratio (y) = 0.01558 -0.25841
# Poissons Ratio (z) = 0.17605 -0.13167
#
# Static dielectric constant tensor:
#      x y z
#    x 1.757510 0.000000 0.009770 
#    y 0.000000 1.849320 0.000000 
#    z 0.009770 0.000000 1.710180 
# 
# From -- ./inp_files/281364.got.cif
#   From: 2010.05.17/outbox.cif.g08.bks.cpg/sg12_141_cif.got.tgz:281364.got - 2010.06.03 13:09:07.
