data_PCOD9188105
_publ_section_title
;
Structure prediction by ZEFSAII (Michael W. Deem and Ramdas Pophale) SiO2 
 PCOD9188105
Probable space group: C 2/M
;
_chemical_formula_sum "Si O2"
_cell_formula_units_Z 56
_cell_length_a 11.986002
_cell_length_b 22.832087
_cell_length_c 10.685374
_cell_angle_alpha 90.000000
_cell_angle_beta 99.036520
_cell_angle_gamma 90.000000
_cell_volume 2887.923449
_symmetry_space_group_name_H-M "C 2/M"
_symmetry_group_IT_number 12
_symmetry_cell_setting 'monoclinic'
loop_
_space_group_symop_operation_xyz
x,y,z
-x,y,-z
-x,-y,-z
x,-y,z
1/2+x,1/2+y,z
1/2-x,1/2+y,-z
1/2-x,1/2-y,-z
1/2+x,1/2-y,z
loop_
_atom_site_type_symbol
_atom_site_label
_atom_site_fract_x
_atom_site_fract_y
_atom_site_fract_z
Si Si1 0.834439 0.681736 0.905527
Si Si2 0.487531 0.430541 0.350055
Si Si3 0.726669 0.066907 0.235788
Si Si4 0.433406 0.232311 0.667362
Si Si5 0.317466 0.349758 0.680149
Si Si6 0.620690 0.888620 0.470059
Si Si7 0.161120 0.722688 0.829533
O O1 0.820192 0.614224 0.869260
O O2 0.895060 0.713334 0.800118
O O3 0.714156 0.715631 0.880969
O O4 0.883291 0.692892 0.051241
O O5 0.500000 0.415146 0.500000
O O6 0.511112 0.500000 0.343146
O O7 0.358680 0.420447 0.286333
O O8 0.576451 0.392844 0.286270
O O9 0.661525 0.076712 0.355300
O O10 0.715276 0.000000 0.192764
O O11 0.371473 0.292428 0.621713
O O12 0.398821 0.178688 0.574926
O O13 0.568100 0.235367 0.707220
O O14 0.222251 0.384859 0.586715
O O15 0.254123 0.321510 0.788090
O O16 0.500000 0.910214 0.500000
#
# Coordination Sequence:
#
# PCOD9188105 Si02
#       7
#     8   8   8   8   8   8   8
#     4   9  20  35  57  81 109 150 192 229 278 337
#     4  10  20  36  57  80 110 147 188 228 272 337
#     4  10  21  39  60  83 112 152 194 232 278 334
#     4  10  20  33  54  81 114 150 181 228 284 336
#     4  11  21  34  56  85 114 147 187 230 287 342
#     4  11  21  35  53  84 120 148 182 234 285 339
#     4  10  19  36  56  82 113 146 186 236 286 333
#
# _framework density 19.391096000000001
#
# number of rings (size 3 to 8) (size 9 to 14) (size 15 to 20)
#    0.000    1.857    2.857    1.714    0.000    0.857 
#    0.000    2.857    0.000    8.571    0.000    0.000 
#    0.000    0.000    0.000    0.000    0.000    0.000 
#
# Total GULP energy -156190.530934 kJ/mol
# GULP energy per Si atom -5578.233248 kJ/mol
# Density = 1.934696 g / cm^3
# Si number density = 19.391096 Si / 1000 Ang^3
#
#
#
# Elastic Constant Matrix: (Units=GPa)
#
#
# Indices 1 2 3 4 5 6 
#
# 1 99.0383 24.2409 9.0666 0.0000 -6.1315 0.0000
# 2 24.2409 61.3831 3.8936 0.0000 -0.9063 0.0000
# 3 9.0666 3.8936 34.0495 0.0000 -7.9352 0.0000
# 4 0.0000 0.0000 0.0000 11.2039 0.0000 -3.5260
# 5 -6.1315 -0.9063 -7.9352 0.0000 27.5924 0.0000
# 6 0.0000 0.0000 0.0000 -3.5260 0.0000 21.7191
#
#
#
# Elastic Compliance Matrix: (Units=1/GPa)
#
#
# Indices 1 2 3 4 5 6 
#
# 1 0.011473 -0.004369 -0.002138 0.000000 0.001791 0.000000
# 2 -0.004369 0.018074 -0.001063 0.000000 -0.000683 0.000000
# 3 -0.002138 -0.001063 0.032092 0.000000 0.008719 0.000000
# 4 0.000000 0.000000 0.000000 0.094061 0.000000 0.015270
# 5 0.001791 -0.000683 0.008719 0.000000 0.039125 0.000000
# 6 0.000000 0.000000 0.000000 0.015270 0.000000 0.048521
#
#
# Mechanical properties :
#
#
# Convention : Reuss Voigt Hill
#
# Bulk Modulus (GPa) = 21.50543 29.87478 25.69010
# Shear Modulus (GPa) = 18.24923 22.58773 20.41848
#
# Velocity S-wave (km/s) = 3.07109 3.41669 3.24849
# Velocity P-wave (km/s) = 4.86722 5.56821 5.22947
#
# Compressibility (1/GPa) = 0.04649989
#
# Stress axis : x y z
#
# Youngs Moduli (GPa) = 87.16093 55.32898 31.16063
#
# Poissons Ratio (x) = 0.24172 0.06662
# Poissons Ratio (y) = 0.38079 0.03311
# Poissons Ratio (z) = 0.18635 0.05879
#
# Static dielectric constant tensor:
#      x y z
#    x 1.733520 0.000000 -0.014840 
#    y 0.000000 1.649260 0.000000 
#    z -0.014840 0.000000 1.667900 
# 
# From -- ./inp_files/133149.got.cif
#   From: 2010.05.17/outbox.cif.g08.bks.cpg/sg12_67_cif.got.tgz:133149.got - 2010.06.03 13:09:07.
