data_PCOD9188666
_publ_section_title
;
Structure prediction by ZEFSAII (Michael W. Deem and Ramdas Pophale) SiO2 
 PCOD9188666
Probable space group: C 2/M
;
_chemical_formula_sum "Si O2"
_cell_formula_units_Z 64
_cell_length_a 24.247688
_cell_length_b 22.004526
_cell_length_c 17.616603
_cell_angle_alpha 90.000000
_cell_angle_beta 19.190413
_cell_angle_gamma 90.000000
_cell_volume 3089.695069
_symmetry_space_group_name_H-M "C 2/M"
_symmetry_group_IT_number 12
_symmetry_cell_setting 'monoclinic'
loop_
_space_group_symop_operation_xyz
x,y,z
-x,y,-z
-x,-y,-z
x,-y,z
1/2+x,1/2+y,z
1/2-x,1/2+y,-z
1/2-x,1/2-y,-z
1/2+x,1/2-y,z
loop_
_atom_site_type_symbol
_atom_site_label
_atom_site_fract_x
_atom_site_fract_y
_atom_site_fract_z
Si Si1 0.184375 0.102253 0.755556
Si Si2 0.094566 0.931376 0.458817
Si Si3 0.310946 0.638560 0.911870
Si Si4 0.194423 0.654319 0.557733
Si Si5 0.668978 0.261487 0.826483
Si Si6 0.073783 0.776333 0.630514
Si Si7 0.844880 0.654291 0.052154
Si Si8 0.532413 0.930353 0.372576
O O1 0.218927 0.119084 0.623131
O O2 0.174309 0.165622 0.816977
O O3 0.350922 0.069954 0.568237
O O4 0.000000 0.073406 0.000000
O O5 0.240447 0.883733 0.249985
O O6 0.000000 0.934225 0.500000
O O7 0.966563 0.906227 0.688692
O O8 0.149579 0.000000 0.405435
O O9 0.392627 0.697235 0.845978
O O10 0.233907 0.651092 0.929044
O O11 0.166968 0.608790 0.150861
O O12 0.110296 0.713899 0.627638
O O13 0.327463 0.674643 0.447034
O O14 0.030336 0.625438 0.807895
O O15 0.830048 0.236741 0.572932
O O16 0.655896 0.224510 0.920491
O O17 0.500000 0.245072 0.000000
O O18 0.500000 0.907166 0.500000
O O19 0.593770 0.000000 0.297758
#
# Coordination Sequence:
#
# PCOD9188666 Si02
#       8
#     8   8   8   8   8   8   8   8
#     4  10  23  43  65  90 116 161 215 260 313 376
#     4   9  19  35  58  86 118 162 204 241 296 368
#     4  11  22  39  62  94 123 164 205 258 310 372
#     4  10  21  38  57  90 124 167 206 247 304 373
#     4  10  19  36  60  92 130 168 197 245 310 376
#     4  10  21  35  59  86 127 171 204 240 302 375
#     4  11  20  36  60  94 130 162 203 252 310 372
#     4  11  26  47  66  89 122 162 212 273 326 361
#
# _framework density 20.714017999999999
#
# number of rings (size 3 to 8) (size 9 to 14) (size 15 to 20)
#    0.000    1.750    3.750    0.375    3.500    1.250 
#    4.500    0.000    0.000    4.125    0.000    0.000 
#    0.000    0.000    0.000    0.000    0.000    0.000 
#
# Total GULP energy -178585.359950 kJ/mol
# GULP energy per Si atom -5580.792498 kJ/mol
# Density = 2.066687 g / cm^3
# Si number density = 20.714018 Si / 1000 Ang^3
#
#
#
# Elastic Constant Matrix: (Units=GPa)
#
#
# Indices 1 2 3 4 5 6 
#
# 1 63.0604 16.2935 34.0422 -0.0109 12.5150 -0.0046
# 2 16.2935 49.1304 25.6533 0.0041 4.3543 0.0048
# 3 34.0422 25.6533 141.9245 -0.0297 9.6042 0.0008
# 4 -0.0109 0.0041 -0.0297 7.8305 -0.0084 -16.2296
# 5 12.5150 4.3543 9.6042 -0.0084 31.3958 -0.0085
# 6 -0.0046 0.0048 0.0008 -16.2296 -0.0085 -8.0613
#
#
#
# Elastic Compliance Matrix: (Units=1/GPa)
#
#
# Indices 1 2 3 4 5 6 
#
# 1 0.020177 -0.004225 -0.003647 -0.000001 -0.006341 -0.000005
# 2 -0.004225 0.023473 -0.003189 0.000001 -0.000596 0.000015
# 3 -0.003647 -0.003189 0.008546 0.000006 -0.000718 -0.000011
# 4 -0.000001 0.000001 0.000006 0.024688 -0.000008 -0.049704
# 5 -0.006341 -0.000596 -0.000718 -0.000008 0.034681 -0.000017
# 6 -0.000005 0.000015 -0.000011 -0.049704 -0.000017 -0.023982
#
#
# Mechanical properties :
#
#
# Convention : Reuss Voigt Hill
#
# Bulk Modulus (GPa) = 33.25184 45.12148 39.18666
# Shear Modulus (GPa) = 41.76044 18.10808 29.93426
#
# Velocity S-wave (km/s) = 4.49491 2.95989 3.80560
# Velocity P-wave (km/s) = 6.55947 5.78892 6.18620
#
# Compressibility (1/GPa) = 0.03007352
#
# Stress axis : x y z
#
# Youngs Moduli (GPa) = 49.56227 42.60172 117.01710
#
# Poissons Ratio (x) = 0.18000 0.42673
# Poissons Ratio (y) = 0.20941 0.37318
# Poissons Ratio (z) = 0.18074 0.13586
#
# Static dielectric constant tensor:
#      x y z
#    x 1.714440 -0.000010 0.007970 
#    y -0.000010 1.789230 0.000010 
#    z 0.007970 0.000010 1.785720 
# 
# From -- ./inp_files/291086.got.cif
#   From: 2010.05.17/outbox.cif.g08.bks.cpg/sg12_146_cif.got.tgz:291086.got - 2010.06.03 13:09:07.
