data_PCOD9188603
_publ_section_title
;
Structure prediction by ZEFSAII (Michael W. Deem and Ramdas Pophale) SiO2 
 PCOD9188603
Probable space group: C 2/M
;
_chemical_formula_sum "Si O2"
_cell_formula_units_Z 60
_cell_length_a 12.701076
_cell_length_b 18.776506
_cell_length_c 25.407852
_cell_angle_alpha 90.000000
_cell_angle_beta 147.414285
_cell_angle_gamma 90.000000
_cell_volume 3263.306961
_symmetry_space_group_name_H-M "C 2/M"
_symmetry_group_IT_number 12
_symmetry_cell_setting 'monoclinic'
loop_
_space_group_symop_operation_xyz
x,y,z
-x,y,-z
-x,-y,-z
x,-y,z
1/2+x,1/2+y,z
1/2-x,1/2+y,-z
1/2-x,1/2-y,-z
1/2+x,1/2-y,z
loop_
_atom_site_type_symbol
_atom_site_label
_atom_site_fract_x
_atom_site_fract_y
_atom_site_fract_z
Si Si1 0.258360 0.418643 0.495216
Si Si2 0.879783 0.582279 0.820385
Si Si3 0.500000 0.364177 0.500000
Si Si4 0.545116 0.680742 0.215050
Si Si5 0.005178 0.841704 0.316035
Si Si6 0.894586 0.664310 0.721876
Si Si7 0.933053 0.321699 0.313550
Si Si8 0.179267 0.417204 0.034448
O O1 0.195945 0.500000 0.473906
O O2 0.392101 0.409212 0.499478
O O3 0.382807 0.392551 0.596993
O O4 0.080111 0.364602 0.412525
O O5 0.822899 0.500000 0.802889
O O6 0.717446 0.631335 0.779338
O O7 0.883134 0.603455 0.760695
O O8 0.083392 0.592012 0.936496
O O9 0.323036 0.323105 0.395212
O O10 0.594103 0.656149 0.295294
O O11 0.526335 0.765705 0.215374
O O12 0.718464 0.670845 0.246595
O O13 0.352251 0.638159 0.117202
O O14 0.996959 0.761138 0.335004
O O15 0.033853 0.648134 0.731267
O O16 0.244776 0.500000 0.067891
O O17 0.000000 0.407390 0.000000
#
# Coordination Sequence:
#
# PCOD9188603 Si02
#       8
#     8   8   4   8   8   8   8   8
#     4  11  22  35  56  88 120 163 208 247 298 360
#     4  11  21  39  64  92 119 149 207 266 299 341
#     4  10  19  36  60  86 125 158 204 256 295 344
#     4  11  22  40  63  85 124 164 198 247 310 368
#     4  11  21  37  62  89 118 160 209 248 301 354
#     4  10  22  38  62  93 122 162 206 246 303 357
#     4  10  23  40  56  87 130 162 196 248 309 369
#     4  10  22  39  62  91 119 156 204 258 306 351
#
# _framework density 18.386255999999999
#
# number of rings (size 3 to 8) (size 9 to 14) (size 15 to 20)
#    0.000    1.467    4.000    1.000    0.000    6.400 
#    0.000    1.333    0.000    1.600    0.000    0.000 
#    0.000    0.000    0.000    0.000    0.000    0.000 
#
# Total GULP energy -167396.271924 kJ/mol
# GULP energy per Si atom -5579.875731 kJ/mol
# Density = 1.834441 g / cm^3
# Si number density = 18.386256 Si / 1000 Ang^3
#
#
#
# Elastic Constant Matrix: (Units=GPa)
#
#
# Indices 1 2 3 4 5 6 
#
# 1 91.7815 5.3390 25.0045 -0.0009 6.2142 -0.0006
# 2 5.3390 88.8009 53.7179 -0.0010 2.6193 -0.0007
# 3 25.0045 53.7179 89.4876 0.0150 2.2325 0.0100
# 4 -0.0009 -0.0010 0.0150 197.3134 0.0045 121.7848
# 5 6.2142 2.6193 2.2325 0.0045 23.3701 0.0029
# 6 -0.0006 -0.0007 0.0100 121.7848 0.0029 97.0619
#
#
#
# Elastic Compliance Matrix: (Units=1/GPa)
#
#
# Indices 1 2 3 4 5 6 
#
# 1 0.012241 0.002162 -0.004642 0.000000 -0.003054 0.000000
# 2 0.002162 0.018086 -0.011423 0.000001 -0.001511 0.000000
# 3 -0.004642 -0.011423 0.019312 -0.000001 0.000670 -0.000001
# 4 0.000000 0.000001 -0.000001 0.022468 -0.000001 -0.028190
# 5 -0.003054 -0.001511 0.000670 -0.000001 0.043707 0.000000
# 6 0.000000 0.000000 -0.000001 -0.028190 0.000000 0.045674
#
#
# Mechanical properties :
#
#
# Convention : Reuss Voigt Hill
#
# Bulk Modulus (GPa) = 45.80193 48.68810 47.24502
# Shear Modulus (GPa) = 25.43605 75.94964 50.69285
#
# Velocity S-wave (km/s) = 3.72348 6.43409 5.25651
# Velocity P-wave (km/s) = 6.59172 9.04073 7.91156
#
# Compressibility (1/GPa) = 0.02183314
#
# Stress axis : x y z
#
# Youngs Moduli (GPa) = 81.69186 55.29182 51.78056
#
# Poissons Ratio (x) = -0.11956 0.24038
# Poissons Ratio (y) = -0.17664 0.59150
# Poissons Ratio (z) = 0.37923 0.63161
#
# Static dielectric constant tensor:
#      x y z
#    x 1.644900 0.000000 -0.015830 
#    y 0.000000 1.628400 0.000000 
#    z -0.015830 0.000000 1.635370 
# 
# From -- ./inp_files/336874.got.cif
#   From: 2010.05.17/outbox.cif.g08.bks.cpg/sg12_169_cif.got.tgz:336874.got - 2010.06.03 13:09:07.
