data_PCOD9188742
_publ_section_title
;
Structure prediction by ZEFSAII (Michael W. Deem and Ramdas Pophale) SiO2 
 PCOD9188742
Probable space group: C 2/M
;
_chemical_formula_sum "Si O2"
_cell_formula_units_Z 56
_cell_length_a 12.571486
_cell_length_b 13.126231
_cell_length_c 28.836327
_cell_angle_alpha 90.000000
_cell_angle_beta 30.692893
_cell_angle_gamma 90.000000
_cell_volume 2428.891507
_symmetry_space_group_name_H-M "C 2/M"
_symmetry_group_IT_number 12
_symmetry_cell_setting 'monoclinic'
loop_
_space_group_symop_operation_xyz
x,y,z
-x,y,-z
-x,-y,-z
x,-y,z
1/2+x,1/2+y,z
1/2-x,1/2+y,-z
1/2-x,1/2-y,-z
1/2+x,1/2-y,z
loop_
_atom_site_type_symbol
_atom_site_label
_atom_site_fract_x
_atom_site_fract_y
_atom_site_fract_z
Si Si1 0.624668 0.121446 0.826051
Si Si2 0.429030 0.810128 0.296934
Si Si3 0.111250 0.167663 0.856182
Si Si4 0.931831 0.118249 0.634161
Si Si5 0.684949 0.614899 0.958001
Si Si6 0.146958 0.622750 0.572104
Si Si7 0.826226 0.118994 0.275685
O O1 0.598786 0.211174 0.872299
O O2 0.830063 0.152584 0.720546
O O3 0.422770 0.145913 0.869789
O O4 0.622059 0.000000 0.837949
O O5 0.660033 0.860484 0.209677
O O6 0.250726 0.867341 0.334774
O O7 0.360408 0.819304 0.376199
O O8 0.426706 0.697718 0.274336
O O9 0.112827 0.142012 0.800799
O O10 0.912081 0.116448 0.954188
O O11 0.151627 0.154631 0.532814
O O12 0.964456 0.000000 0.629930
O O13 0.696387 0.500000 0.935675
O O14 0.500000 0.670202 0.000000
O O15 0.162864 0.500000 0.575906
O O16 0.925064 0.636060 0.629643
O O17 0.869756 0.000000 0.269652
#
# Coordination Sequence:
#
# PCOD9188742 Si02
#       7
#     8   8   8   8   8   8   8
#     4  10  21  38  59  87 119 152 195 245 298 353
#     4  11  21  35  58  91 118 154 205 250 293 351
#     4  11  22  39  61  88 121 162 198 240 301 364
#     4  10  19  36  61  87 118 151 196 254 303 347
#     4  10  21  37  63  93 117 146 193 252 299 349
#     4   9  20  38  61  88 119 158 203 252 302 352
#     4  10  22  40  60  86 122 165 206 244 295 360
#
# _framework density 23.055783999999999
#
# number of rings (size 3 to 8) (size 9 to 14) (size 15 to 20)
#    0.000    1.857    1.429    2.571    0.000    5.143 
#    2.571    0.000    0.000    2.143    0.000    0.000 
#    0.000    0.000    0.000    0.000    0.000    0.000 
#
# Total GULP energy -156215.001320 kJ/mol
# GULP energy per Si atom -5579.107190 kJ/mol
# Density = 2.300331 g / cm^3
# Si number density = 23.055784 Si / 1000 Ang^3
#
#
#
# Elastic Constant Matrix: (Units=GPa)
#
#
# Indices 1 2 3 4 5 6 
#
# 1 68.1103 21.2017 27.1888 0.0004 -1.5026 -0.0001
# 2 21.2017 95.3999 39.3127 0.0012 12.5117 -0.0002
# 3 27.1888 39.3127 101.7721 0.0023 -4.3300 -0.0004
# 4 0.0004 0.0012 0.0023 30.4416 -0.0008 2.2124
# 5 -1.5026 12.5117 -4.3300 -0.0008 21.9663 0.0002
# 6 -0.0001 -0.0002 -0.0004 2.2124 0.0002 24.2355
#
#
#
# Elastic Compliance Matrix: (Units=1/GPa)
#
#
# Indices 1 2 3 4 5 6 
#
# 1 0.016903 -0.002602 -0.003427 0.000000 0.001963 0.000000
# 2 -0.002602 0.014489 -0.005305 0.000000 -0.009477 0.000000
# 3 -0.003427 -0.005305 0.013019 -0.000001 0.005354 0.000000
# 4 0.000000 0.000000 -0.000001 0.033069 0.000001 -0.003019
# 5 0.001963 -0.009477 0.005354 0.000001 0.052112 0.000000
# 6 0.000000 0.000000 0.000000 -0.003019 0.000000 0.041537
#
#
# Mechanical properties :
#
#
# Convention : Reuss Voigt Hill
#
# Bulk Modulus (GPa) = 45.99164 48.96540 47.47852
# Shear Modulus (GPa) = 24.86997 27.16727 26.01862
#
# Velocity S-wave (km/s) = 3.28790 3.43640 3.36297
# Velocity P-wave (km/s) = 5.86558 6.08515 5.97637
#
# Compressibility (1/GPa) = 0.02174308
#
# Stress axis : x y z
#
# Youngs Moduli (GPa) = 59.15981 69.01578 76.81342
#
# Poissons Ratio (x) = 0.17956 0.26326
# Poissons Ratio (y) = 0.15391 0.40751
# Poissons Ratio (z) = 0.20276 0.36614
#
# Static dielectric constant tensor:
#      x y z
#    x 1.903050 0.000000 -0.001110 
#    y 0.000000 1.915640 0.000000 
#    z -0.001110 0.000000 1.904280 
# 
# From -- ./inp_files/374178.got.cif
#   From: 2010.05.17/outbox.cif.g08.bks.cpg/sg12_188_cif.got.tgz:374178.got - 2010.06.03 13:09:07.
