data_PCOD9188568
_publ_section_title
;
Structure prediction by ZEFSAII (Michael W. Deem and Ramdas Pophale) SiO2 
 PCOD9188568
Probable space group: C 2/M
;
_chemical_formula_sum "Si O2"
_cell_formula_units_Z 64
_cell_length_a 17.152102
_cell_length_b 15.396914
_cell_length_c 14.828453
_cell_angle_alpha 90.000000
_cell_angle_beta 51.388238
_cell_angle_gamma 90.000000
_cell_volume 3059.962138
_symmetry_space_group_name_H-M "C 2/M"
_symmetry_group_IT_number 12
_symmetry_cell_setting 'monoclinic'
loop_
_space_group_symop_operation_xyz
x,y,z
-x,y,-z
-x,-y,-z
x,-y,z
1/2+x,1/2+y,z
1/2-x,1/2+y,-z
1/2-x,1/2-y,-z
1/2+x,1/2-y,z
loop_
_atom_site_type_symbol
_atom_site_label
_atom_site_fract_x
_atom_site_fract_y
_atom_site_fract_z
Si Si1 0.751835 0.401964 0.845588
Si Si2 0.583627 0.293477 0.875821
Si Si3 0.257770 0.299331 0.645315
Si Si4 0.366461 0.183879 0.429142
Si Si5 0.687381 0.604640 0.217581
Si Si6 0.178610 0.669447 0.028578
Si Si7 0.955337 0.398351 0.622181
Si Si8 0.479104 0.298062 0.783043
O O1 0.737116 0.500000 0.825514
O O2 0.654602 0.349446 0.889361
O O3 0.783814 0.401007 0.926513
O O4 0.850386 0.359708 0.728670
O O5 0.658779 0.231700 0.768841
O O6 0.526272 0.344522 0.836781
O O7 0.500000 0.252491 0.000000
O O8 0.314101 0.217079 0.558712
O O9 0.215455 0.344551 0.584964
O O10 0.315338 0.355030 0.679251
O O11 0.451955 0.112387 0.378464
O O12 0.431254 0.265493 0.345190
O O13 0.681495 0.500000 0.223686
O O14 0.599697 0.646969 0.218625
O O15 0.790023 0.635170 0.092195
O O16 0.073307 0.711597 0.134244
O O17 0.250000 0.750000 0.000000
O O18 0.935718 0.500000 0.622029
O O19 0.000000 0.357797 0.500000
#
# Coordination Sequence:
#
# PCOD9188568 Si02
#       8
#     8   8   8   8   8   8   8   8
#     4  11  22  36  57  89 124 158 198 252 314 369
#     4  11  21  37  59  87 121 157 205 258 305 364
#     4  10  23  40  62  90 115 159 212 253 308 367
#     4  10  21  40  64  87 118 158 209 259 303 368
#     4  11  23  39  60  91 130 165 204 255 315 378
#     4  10  19  36  60  85 116 162 210 249 297 363
#     4  10  21  35  59  91 121 154 194 252 316 367
#     4  10  21  36  61  89 117 166 211 253 304 368
#
# _framework density 20.915292000000001
#
# number of rings (size 3 to 8) (size 9 to 14) (size 15 to 20)
#    0.000    1.625    1.250    4.875    1.750    1.250 
#    0.000    1.250    0.000    7.875    0.000    0.000 
#    0.000    0.000    0.000    0.000    0.000    0.000 
#
# Total GULP energy -178195.121898 kJ/mol
# GULP energy per Si atom -5568.597559 kJ/mol
# Density = 2.086769 g / cm^3
# Si number density = 20.915292 Si / 1000 Ang^3
#
#
#
# Elastic Constant Matrix: (Units=GPa)
#
#
# Indices 1 2 3 4 5 6 
#
# 1 121.8377 21.4001 33.8513 0.0000 13.7780 0.0000
# 2 21.4001 48.9328 12.6185 0.0000 9.4602 0.0000
# 3 33.8513 12.6185 117.4901 0.0000 7.1285 0.0000
# 4 0.0000 0.0000 0.0000 16.4808 0.0000 0.1903
# 5 13.7780 9.4602 7.1285 0.0000 37.6104 0.0000
# 6 0.0000 0.0000 0.0000 0.1903 0.0000 14.4945
#
#
#
# Elastic Compliance Matrix: (Units=1/GPa)
#
#
# Indices 1 2 3 4 5 6 
#
# 1 0.009668 -0.003189 -0.002303 0.000000 -0.002303 0.000000
# 2 -0.003189 0.023009 -0.001287 0.000000 -0.004375 0.000000
# 3 -0.002303 -0.001287 0.009350 0.000000 -0.000605 0.000000
# 4 0.000000 0.000000 0.000000 0.060686 0.000000 -0.000797
# 5 -0.002303 -0.004375 -0.000605 0.000000 0.028647 0.000000
# 6 0.000000 0.000000 0.000000 -0.000797 0.000000 0.069002
#
#
# Mechanical properties :
#
#
# Convention : Reuss Voigt Hill
#
# Bulk Modulus (GPa) = 35.12692 47.11117 41.11905
# Shear Modulus (GPa) = 22.38039 28.40984 25.39512
#
# Velocity S-wave (km/s) = 3.27471 3.68955 3.48830
# Velocity P-wave (km/s) = 5.57939 6.38154 5.99390
#
# Compressibility (1/GPa) = 0.02846819
#
# Stress axis : x y z
#
# Youngs Moduli (GPa) = 103.43209 43.46204 106.95302
#
# Poissons Ratio (x) = 0.13860 0.24635
# Poissons Ratio (y) = 0.32985 0.13763
# Poissons Ratio (z) = 0.23824 0.05593
#
# Static dielectric constant tensor:
#      x y z
#    x 1.849590 0.000000 0.024060 
#    y 0.000000 1.590500 0.000000 
#    z 0.024060 0.000000 1.824750 
# 
# From -- ./inp_files/225665.got.cif
#   From: 2010.05.17/outbox.cif.g08.bks.cpg/sg12_113_cif.got.tgz:225665.got - 2010.06.03 13:09:07.
