data_PCOD9188727
_publ_section_title
;
Structure prediction by ZEFSAII (Michael W. Deem and Ramdas Pophale) SiO2 
 PCOD9188727
Probable space group: C 2/M
;
_chemical_formula_sum "Si O2"
_cell_formula_units_Z 52
_cell_length_a 15.609076
_cell_length_b 19.965733
_cell_length_c 17.637662
_cell_angle_alpha 90.000000
_cell_angle_beta 149.077375
_cell_angle_gamma 90.000000
_cell_volume 2824.653781
_symmetry_space_group_name_H-M "C 2/M"
_symmetry_group_IT_number 12
_symmetry_cell_setting 'monoclinic'
loop_
_space_group_symop_operation_xyz
x,y,z
-x,y,-z
-x,-y,-z
x,-y,z
1/2+x,1/2+y,z
1/2-x,1/2+y,-z
1/2-x,1/2-y,-z
1/2+x,1/2-y,z
loop_
_atom_site_type_symbol
_atom_site_label
_atom_site_fract_x
_atom_site_fract_y
_atom_site_fract_z
Si Si1 0.000000 0.332376 0.500000
Si Si2 0.973408 0.579560 0.632576
Si Si3 0.727806 0.419671 0.854815
Si Si4 0.280874 0.755803 0.645911
Si Si5 0.131054 0.145739 0.406114
Si Si6 0.500682 0.875544 0.819136
Si Si7 0.185787 0.077790 0.659035
O O1 0.984529 0.378816 0.412494
O O2 0.158291 0.282894 0.609396
O O3 0.008592 0.500000 0.653080
O O4 0.777895 0.593558 0.499203
O O5 0.049042 0.611467 0.767866
O O6 0.734205 0.500000 0.863880
O O7 0.541250 0.392600 0.722295
O O8 0.766683 0.396033 0.798401
O O9 0.852476 0.394207 0.013131
O O10 0.174089 0.807392 0.511706
O O11 0.360730 0.699180 0.654572
O O12 0.433227 0.801660 0.787608
O O13 0.331539 0.917747 0.708110
O O14 0.000000 0.106061 0.500000
O O15 0.154249 0.000000 0.649586
#
# Coordination Sequence:
#
# PCOD9188727 Si02
#       7
#     4   8   8   8   8   8   8
#     4  10  21  36  60  86 111 148 196 244 276 330
#     4  10  19  36  61  87 113 145 191 240 288 334
#     4  11  22  35  56  87 118 148 184 228 290 348
#     4   9  20  36  56  81 110 145 198 230 276 334
#     4   9  19  36  57  82 109 148 186 237 278 337
#     4  11  22  35  55  84 116 155 182 234 285 342
#     4  10  20  34  53  81 111 144 186 228 277 336
#
# _framework density 18.409336
#
# number of rings (size 3 to 8) (size 9 to 14) (size 15 to 20)
#    0.000    2.000    0.000    5.308    3.231    3.077 
#    0.000    0.000    0.000    2.769    0.000    9.692 
#    0.000    0.000    0.000    0.000    0.000    0.000 
#
# Total GULP energy -144756.745940 kJ/mol
# GULP energy per Si atom -5567.567152 kJ/mol
# Density = 1.836744 g / cm^3
# Si number density = 18.409336 Si / 1000 Ang^3
#
#
#
# Elastic Constant Matrix: (Units=GPa)
#
#
# Indices 1 2 3 4 5 6 
#
# 1 119.6488 30.7433 33.2508 -0.0082 -21.1360 -0.0019
# 2 30.7433 72.5858 8.9536 -0.0158 -14.4164 -0.0045
# 3 33.2508 8.9536 50.1012 -0.0268 -25.7200 -0.0090
# 4 -0.0082 -0.0158 -0.0268 25.9161 -0.0094 2.1983
# 5 -21.1360 -14.4164 -25.7200 -0.0094 19.8506 -0.0019
# 6 -0.0019 -0.0045 -0.0090 2.1983 -0.0019 19.5031
#
#
#
# Elastic Compliance Matrix: (Units=1/GPa)
#
#
# Indices 1 2 3 4 5 6 
#
# 1 0.011256 -0.003746 -0.006107 -0.000004 0.001352 -0.000002
# 2 -0.003746 0.018952 0.012296 0.000032 0.025708 0.000009
# 3 -0.006107 0.012296 0.068871 0.000107 0.091663 0.000031
# 4 -0.000004 0.000032 0.000107 0.038959 0.000175 -0.004391
# 5 0.001352 0.025708 0.091663 0.000175 0.189252 0.000047
# 6 -0.000002 0.000009 0.000031 -0.004391 0.000047 0.051769
#
#
# Mechanical properties :
#
#
# Convention : Reuss Voigt Hill
#
# Bulk Modulus (GPa) = 9.61835 43.13678 26.37757
# Shear Modulus (GPa) = 12.23011 24.34651 18.28831
#
# Velocity S-wave (km/s) = 2.58028 3.64058 3.15529
# Velocity P-wave (km/s) = 3.75675 6.41519 5.25680
#
# Compressibility (1/GPa) = 0.10396792
#
# Stress axis : x y z
#
# Youngs Moduli (GPa) = 88.83984 52.76372 14.51989
#
# Poissons Ratio (x) = 0.19763 0.08867
# Poissons Ratio (y) = 0.33276 -0.17854
# Poissons Ratio (z) = 0.54252 -0.64881
#
# Static dielectric constant tensor:
#      x y z
#    x 1.693110 0.000000 -0.022540 
#    y 0.000000 1.678560 0.000000 
#    z -0.022540 0.000000 1.629610 
# 
# From -- ./inp_files/272224.got.cif
#   From: 2010.05.17/outbox.cif.g08.bks.cpg/sg12_137_cif.got.tgz:272224.got - 2010.06.03 13:09:07.
