data_PCOD9188027
_publ_section_title
;
Structure prediction by ZEFSAII (Michael W. Deem and Ramdas Pophale) SiO2 
 PCOD9188027
Probable space group: C 2/M
;
_chemical_formula_sum "Si O2"
_cell_formula_units_Z 40
_cell_length_a 17.957568
_cell_length_b 15.949218
_cell_length_c 12.713093
_cell_angle_alpha 90.000000
_cell_angle_beta 147.634029
_cell_angle_gamma 90.000000
_cell_volume 1949.197552
_symmetry_space_group_name_H-M "C 2/M"
_symmetry_group_IT_number 12
_symmetry_cell_setting 'monoclinic'
loop_
_space_group_symop_operation_xyz
x,y,z
-x,y,-z
-x,-y,-z
x,-y,z
1/2+x,1/2+y,z
1/2-x,1/2+y,-z
1/2-x,1/2-y,-z
1/2+x,1/2-y,z
loop_
_atom_site_type_symbol
_atom_site_label
_atom_site_fract_x
_atom_site_fract_y
_atom_site_fract_z
Si Si1 0.790679 0.857094 0.313395
Si Si2 0.029691 0.592836 0.879027
Si Si3 0.118892 0.241695 0.227368
Si Si4 0.557853 0.407543 0.302176
Si Si5 0.216632 0.154656 0.931391
O O1 0.640069 0.899629 0.108211
O O2 0.753742 0.767880 0.321961
O O3 0.848194 0.847882 0.264454
O O4 0.875659 0.905442 0.502017
O O5 0.967109 0.500000 0.800864
O O6 0.137194 0.606675 0.910074
O O7 0.931898 0.673857 0.772223
O O8 0.127825 0.164419 0.316059
O O9 0.000000 0.222150 0.000000
O O10 0.573513 0.500000 0.275558
O O11 0.395574 0.384173 0.124539
O O12 0.250000 0.250000 0.000000
#
# Coordination Sequence:
#
# PCOD9188027 Si02
#       5
#     8   8   8   8   8
#     4   9  21  33  54  80 111 136 178 224 275 320
#     4   9  18  32  54  77 104 135 176 223 265 317
#     4  10  20  38  53  77 111 147 187 218 266 329
#     4  12  22  34  55  83 113 143 180 229 277 318
#     4  10  19  36  53  77 110 140 174 219 276 328
#
# _framework density 20.521266000000001
#
# number of rings (size 3 to 8) (size 9 to 14) (size 15 to 20)
#    1.200    0.800    2.000    2.400    0.000    5.600 
#    0.000    0.000    0.000    0.000    0.000    1.400 
#    0.000    0.000    0.000    0.000    0.000    0.000 
#
# Total GULP energy -111465.504144 kJ/mol
# GULP energy per Si atom -5573.275207 kJ/mol
# Density = 2.047456 g / cm^3
# Si number density = 20.521266 Si / 1000 Ang^3
#
#
#
# Elastic Constant Matrix: (Units=GPa)
#
#
# Indices 1 2 3 4 5 6 
#
# 1 58.1552 27.7728 -10.5845 0.0000 1.2440 0.0000
# 2 27.7728 160.7638 13.5848 0.0000 -9.5729 0.0000
# 3 -10.5845 13.5848 42.5832 0.0000 -3.1960 0.0000
# 4 0.0000 0.0000 0.0000 7.9840 0.0000 -5.7188
# 5 1.2440 -9.5729 -3.1960 0.0000 20.8858 0.0000
# 6 0.0000 0.0000 0.0000 -5.7188 0.0000 13.0147
#
#
#
# Elastic Compliance Matrix: (Units=1/GPa)
#
#
# Indices 1 2 3 4 5 6 
#
# 1 0.020370 -0.004175 0.006232 0.000000 -0.002173 0.000000
# 2 -0.004175 0.007397 -0.003161 0.000000 0.003155 0.000000
# 3 0.006232 -0.003161 0.026205 0.000000 0.002190 0.000000
# 4 0.000000 0.000000 0.000000 0.182778 0.000000 0.080315
# 5 -0.002173 0.003155 0.002190 0.000000 0.049790 0.000000
# 6 0.000000 0.000000 0.000000 0.080315 0.000000 0.112128
#
#
# Mechanical properties :
#
#
# Convention : Reuss Voigt Hill
#
# Bulk Modulus (GPa) = 19.31830 35.89425 27.60627
# Shear Modulus (GPa) = 11.95802 23.75883 17.85843
#
# Velocity S-wave (km/s) = 2.41656 3.40629 2.95318
# Velocity P-wave (km/s) = 4.14977 5.74453 5.01100
#
# Compressibility (1/GPa) = 0.05176439
#
# Stress axis : x y z
#
# Youngs Moduli (GPa) = 49.09193 135.19882 38.16044
#
# Poissons Ratio (x) = 0.56446 -0.23782
# Poissons Ratio (y) = 0.20496 0.12061
# Poissons Ratio (z) = -0.30594 0.42730
#
# Static dielectric constant tensor:
#      x y z
#    x 1.788820 0.000000 0.016560 
#    y 0.000000 1.718470 0.000000 
#    z 0.016560 0.000000 1.761770 
# 
# From -- ./inp_files/240291.got.cif
#   From: 2010.05.17/outbox.cif.g08.bks.cpg/sg12_121_cif.got.tgz:240291.got - 2010.06.03 13:09:07.
