data_PCOD9188886
_publ_section_title
;
Structure prediction by ZEFSAII (Michael W. Deem and Ramdas Pophale) SiO2 
 PCOD9188886
Probable space group: C 2/M
;
_chemical_formula_sum "Si O2"
_cell_formula_units_Z 48
_cell_length_a 14.272294
_cell_length_b 19.413585
_cell_length_c 12.669226
_cell_angle_alpha 90.000000
_cell_angle_beta 138.522041
_cell_angle_gamma 90.000000
_cell_volume 2325.012386
_symmetry_space_group_name_H-M "C 2/M"
_symmetry_group_IT_number 12
_symmetry_cell_setting 'monoclinic'
loop_
_space_group_symop_operation_xyz
x,y,z
-x,y,-z
-x,-y,-z
x,-y,z
1/2+x,1/2+y,z
1/2-x,1/2+y,-z
1/2-x,1/2-y,-z
1/2+x,1/2-y,z
loop_
_atom_site_type_symbol
_atom_site_label
_atom_site_fract_x
_atom_site_fract_y
_atom_site_fract_z
Si Si1 0.113744 0.294530 0.506803
Si Si2 0.159020 0.850849 0.173922
Si Si3 0.944099 0.361616 0.762375
Si Si4 0.970844 0.500000 0.659474
Si Si5 0.150463 0.144048 0.627604
Si Si6 0.206086 0.281772 0.073227
Si Si7 0.283564 0.000000 0.303726
O O1 0.269417 0.327428 0.655607
O O2 0.072307 0.312551 0.353669
O O3 0.120406 0.213875 0.535460
O O4 0.000000 0.323114 0.500000
O O5 0.214954 0.786341 0.152820
O O6 0.205162 0.929755 0.207195
O O7 0.000000 0.850130 0.000000
O O8 0.990893 0.433210 0.748942
O O9 0.798164 0.379252 0.700131
O O10 0.056892 0.321461 0.931113
O O11 0.827957 0.500000 0.465888
O O12 0.084369 0.500000 0.662899
O O13 0.189885 0.165140 0.780688
O O14 0.000000 0.104720 0.500000
O O15 0.250000 0.250000 0.000000
#
# Coordination Sequence:
#
# PCOD9188886 Si02
#       7
#     8   8   8   4   8   8   4
#     4  10  19  36  62  92 123 166 209 259 319 381
#     4  11  22  36  60  94 129 162 201 264 329 380
#     4  12  22  40  64  92 127 171 220 264 321 380
#     4  11  24  40  68  90 121 174 222 258 311 396
#     4  10  22  38  59  91 127 165 212 269 324 375
#     4  11  22  39  63  94 130 167 217 270 320 383
#     4  11  21  42  62  92 130 166 209 263 324 389
#
# _framework density 20.645052
#
# number of rings (size 3 to 8) (size 9 to 14) (size 15 to 20)
#    0.000    1.167    1.667    8.250    0.000    1.333 
#    0.000    2.083    0.000    0.000    0.000    0.000 
#    0.000    0.000    0.000    0.000    0.000    0.000 
#
# Total GULP energy -133618.602957 kJ/mol
# GULP energy per Si atom -5567.441790 kJ/mol
# Density = 2.059806 g / cm^3
# Si number density = 20.645052 Si / 1000 Ang^3
#
#
#
# Elastic Constant Matrix: (Units=GPa)
#
#
# Indices 1 2 3 4 5 6 
#
# 1 46.3309 -14.8850 15.2788 0.0000 -2.1432 0.0000
# 2 -14.8850 56.2282 2.5896 0.0000 -7.7020 0.0000
# 3 15.2788 2.5896 126.4036 0.0000 -1.2062 0.0000
# 4 0.0000 0.0000 0.0000 -12.9227 0.0000 8.8084
# 5 -2.1432 -7.7020 -1.2062 0.0000 31.8444 0.0000
# 6 0.0000 0.0000 0.0000 8.8084 0.0000 14.3573
#
#
#
# Elastic Compliance Matrix: (Units=1/GPa)
#
#
# Indices 1 2 3 4 5 6 
#
# 1 0.025105 0.007246 -0.003151 0.000000 0.003323 0.000000
# 2 0.007246 0.020500 -0.001244 0.000000 0.005399 0.000000
# 3 -0.003151 -0.001244 0.008316 0.000000 -0.000198 0.000000
# 4 0.000000 0.000000 0.000000 -0.054565 0.000000 0.033476
# 5 0.003323 0.005399 -0.000198 0.000000 0.032925 0.000000
# 6 0.000000 0.000000 0.000000 0.033476 0.000000 0.049113
#
#
# Mechanical properties :
#
#
# Convention : Reuss Voigt Hill
#
# Bulk Modulus (GPa) = 16.77253 26.10328 21.43790
# Shear Modulus (GPa) = 52.32038 21.72109 37.02073
#
# Velocity S-wave (km/s) = 5.03963 3.24716 4.23921
# Velocity P-wave (km/s) = 6.48118 5.17011 5.86241
#
# Compressibility (1/GPa) = 0.05962131
#
# Stress axis : x y z
#
# Youngs Moduli (GPa) = 39.83308 48.78118 120.25496
#
# Poissons Ratio (x) = -0.35347 0.37895
# Poissons Ratio (y) = -0.28864 0.14964
# Poissons Ratio (z) = 0.12552 0.06070
#
# Static dielectric constant tensor:
#      x y z
#    x 1.821060 0.000000 0.043970 
#    y 0.000000 1.734500 0.000000 
#    z 0.043970 0.000000 1.898940 
# 
# From -- ./inp_files/148067.got.cif
#   From: 2010.05.17/outbox.cif.g08.bks.cpg/sg12_75_cif.got.tgz:148067.got - 2010.06.03 13:09:07.
