data_PCOD9188134
_publ_section_title
;
Structure prediction by ZEFSAII (Michael W. Deem and Ramdas Pophale) SiO2 
 PCOD9188134
Probable space group: C 2/M
;
_chemical_formula_sum "Si O2"
_cell_formula_units_Z 48
_cell_length_a 20.436011
_cell_length_b 9.050408
_cell_length_c 20.500562
_cell_angle_alpha 90.000000
_cell_angle_beta 130.740406
_cell_angle_gamma 90.000000
_cell_volume 2872.847650
_symmetry_space_group_name_H-M "C 2/M"
_symmetry_group_IT_number 12
_symmetry_cell_setting 'monoclinic'
loop_
_space_group_symop_operation_xyz
x,y,z
-x,y,-z
-x,-y,-z
x,-y,z
1/2+x,1/2+y,z
1/2-x,1/2+y,-z
1/2-x,1/2-y,-z
1/2+x,1/2-y,z
loop_
_atom_site_type_symbol
_atom_site_label
_atom_site_fract_x
_atom_site_fract_y
_atom_site_fract_z
Si Si1 0.996971 0.324292 0.714955
Si Si2 0.375299 0.823478 0.094331
Si Si3 0.231044 0.675143 0.091509
Si Si4 0.334854 0.823345 0.264546
Si Si5 0.397913 0.175169 0.446781
Si Si6 0.341007 0.324263 0.543022
O O1 0.979910 0.500000 0.696582
O O2 0.033293 0.296488 0.811477
O O3 0.076733 0.287789 0.717764
O O4 0.913979 0.233252 0.640419
O O5 0.306454 0.731842 0.091930
O O6 0.357580 0.000000 0.092089
O O7 0.356217 0.790346 0.006141
O O8 0.236297 0.500000 0.103074
O O9 0.254493 0.751539 0.174715
O O10 0.348304 0.781314 0.348328
O O11 0.326448 0.000000 0.255755
O O12 0.500000 0.191824 0.500000
O O13 0.370233 0.268424 0.490821
O O14 0.382850 0.000000 0.449517
O O15 0.334468 0.500000 0.540875
O O16 0.250000 0.250000 0.500000
#
# Coordination Sequence:
#
# PCOD9188134 Si02
#       6
#     8   8   8   8   8   8
#     4   9  16  31  50  69  96 133 172 205 248 301
#     4   8  15  26  40  60  92 133 165 195 245 300
#     4   9  15  23  38  64  97 128 162 203 242 287
#     4   9  17  29  48  71  99 134 165 198 250 304
#     4  10  19  36  57  75 100 137 173 207 254 308
#     4  12  25  38  53  75 103 134 172 215 258 303
#
# _framework density 16.708161
#
# number of rings (size 3 to 8) (size 9 to 14) (size 15 to 20)
#    0.000    2.500    1.667    3.000    0.000    4.333 
#    0.000    0.000    0.000    0.000    0.000    1.167 
#    0.000    9.333    0.000    0.000    0.000    0.000 
#
# Total GULP energy -133681.673336 kJ/mol
# GULP energy per Si atom -5570.069722 kJ/mol
# Density = 1.667013 g / cm^3
# Si number density = 16.708161 Si / 1000 Ang^3
#
#
#
# Elastic Constant Matrix: (Units=GPa)
#
#
# Indices 1 2 3 4 5 6 
#
# 1 36.0234 33.1313 37.7617 0.0000 8.3711 0.0000
# 2 33.1313 63.3144 67.0280 0.0000 6.0955 0.0000
# 3 37.7617 67.0280 184.9156 0.0000 -1.5821 0.0000
# 4 0.0000 0.0000 0.0000 32.5985 0.0000 -0.2562
# 5 8.3711 6.0955 -1.5821 0.0000 10.9181 0.0000
# 6 0.0000 0.0000 0.0000 -0.2562 0.0000 17.1599
#
#
#
# Elastic Compliance Matrix: (Units=1/GPa)
#
#
# Indices 1 2 3 4 5 6 
#
# 1 0.063821 -0.025803 -0.003980 0.000000 -0.035104 0.000000
# 2 -0.025803 0.039053 -0.008915 0.000000 -0.003311 0.000000
# 3 -0.003980 -0.008915 0.009533 0.000000 0.009410 0.000000
# 4 0.000000 0.000000 0.000000 0.030680 0.000000 0.000458
# 5 -0.035104 -0.003311 0.009410 0.000000 0.121718 0.000000
# 6 0.000000 0.000000 0.000000 0.000458 0.000000 0.058282
#
#
# Mechanical properties :
#
#
# Convention : Reuss Voigt Hill
#
# Bulk Modulus (GPa) = 28.56316 62.23283 45.39799
# Shear Modulus (GPa) = 12.13138 21.89080 17.01109
#
# Velocity S-wave (km/s) = 2.69750 3.62358 3.19428
# Velocity P-wave (km/s) = 5.18020 7.40506 6.39020
#
# Compressibility (1/GPa) = 0.03501013
#
# Stress axis : x y z
#
# Youngs Moduli (GPa) = 15.66878 25.60597 104.90243
#
# Poissons Ratio (x) = 0.66072 0.41752
# Poissons Ratio (y) = 0.40431 0.93521
# Poissons Ratio (z) = 0.06236 0.22828
#
# Static dielectric constant tensor:
#      x y z
#    x 1.525500 0.000000 -0.009710 
#    y 0.000000 1.555560 0.000000 
#    z -0.009710 0.000000 1.625810 
# 
# From -- ./inp_files/319376.got.cif
#   From: 2010.05.17/outbox.cif.g08.bks.cpg/sg12_160_cif.got.tgz:319376.got - 2010.06.03 13:09:07.
