data_PCOD9188011
_publ_section_title
;
Structure prediction by ZEFSAII (Michael W. Deem and Ramdas Pophale) SiO2 
 PCOD9188011
Probable space group: C 2/M
;
_chemical_formula_sum "Si O2"
_cell_formula_units_Z 64
_cell_length_a 31.458009
_cell_length_b 14.988941
_cell_length_c 8.698706
_cell_angle_alpha 90.000000
_cell_angle_beta 104.204292
_cell_angle_gamma 90.000000
_cell_volume 3976.233992
_symmetry_space_group_name_H-M "C 2/M"
_symmetry_group_IT_number 12
_symmetry_cell_setting 'monoclinic'
loop_
_space_group_symop_operation_xyz
x,y,z
-x,y,-z
-x,-y,-z
x,-y,z
1/2+x,1/2+y,z
1/2-x,1/2+y,-z
1/2-x,1/2-y,-z
1/2+x,1/2-y,z
loop_
_atom_site_type_symbol
_atom_site_label
_atom_site_fract_x
_atom_site_fract_y
_atom_site_fract_z
Si Si1 0.287144 0.098670 0.231866
Si Si2 0.212327 0.302173 0.065394
Si Si3 0.451221 0.605856 0.890749
Si Si4 0.866320 0.165308 0.946286
Si Si5 0.786071 0.789466 0.365538
Si Si6 0.134422 0.103164 0.711479
Si Si7 0.545793 0.392446 0.470256
Si Si8 0.798855 0.097433 0.667976
O O1 0.298897 0.186095 0.343144
O O2 0.234887 0.097151 0.219278
O O3 0.303567 0.000000 0.291823
O O4 0.297186 0.118040 0.062280
O O5 0.167530 0.248007 0.058568
O O6 0.239749 0.316433 0.245425
O O7 0.250000 0.250000 0.000000
O O8 0.439506 0.500000 0.904941
O O9 0.417108 0.671188 0.945370
O O10 0.451113 0.624039 0.708510
O O11 0.500000 0.616545 0.000000
O O12 0.845719 0.112563 0.783978
O O13 0.865522 0.112961 0.105452
O O14 0.824194 0.844537 0.315841
O O15 0.786898 0.824466 0.540099
O O16 0.089058 0.139096 0.598783
O O17 0.138339 0.000000 0.671678
O O18 0.500000 0.358424 0.500000
O O19 0.545193 0.500000 0.489395
O O20 0.795501 0.000000 0.589685
#
# Coordination Sequence:
#
# PCOD9188011 Si02
#       8
#     8   8   8   8   8   8   8   8
#     4  10  20  35  51  67  94 135 175 216 268 312
#     4  10  19  36  50  70  99 133 174 229 264 303
#     4  10  20  33  49  73 105 140 177 215 256 308
#     4  12  20  33  51  71 104 141 181 212 260 308
#     4  11  20  35  47  72 103 133 173 228 262 303
#     4  11  20  30  50  74 101 140 179 211 256 315
#     4   9  18  33  49  71 104 140 178 217 255 302
#     4  11  21  31  50  74 101 138 178 214 261 319
#
# _framework density 16.095631999999998
#
# number of rings (size 3 to 8) (size 9 to 14) (size 15 to 20)
#    0.000    1.500    5.000    3.375    0.000    5.000 
#    0.000    0.000    0.000    0.000    0.000    0.000 
#    0.000    1.000    0.250    0.000    0.000    0.875 
#
# Total GULP energy -178188.591383 kJ/mol
# GULP energy per Si atom -5568.393481 kJ/mol
# Density = 1.605900 g / cm^3
# Si number density = 16.095632 Si / 1000 Ang^3
#
#
#
# Elastic Constant Matrix: (Units=GPa)
#
#
# Indices 1 2 3 4 5 6 
#
# 1 105.2698 32.4561 29.6053 0.0000 0.3907 0.0000
# 2 32.4561 81.1264 30.8652 0.0000 3.1361 0.0000
# 3 29.6053 30.8652 84.1159 0.0000 7.9821 0.0000
# 4 0.0000 0.0000 0.0000 20.5968 0.0000 -1.4533
# 5 0.3907 3.1361 7.9821 0.0000 26.6800 0.0000
# 6 0.0000 0.0000 0.0000 -1.4533 0.0000 20.3393
#
#
#
# Elastic Compliance Matrix: (Units=1/GPa)
#
#
# Indices 1 2 3 4 5 6 
#
# 1 0.011372 -0.003521 -0.002814 0.000000 0.001089 0.000000
# 2 -0.003521 0.015417 -0.004375 0.000000 -0.000452 0.000000
# 3 -0.002814 -0.004375 0.014853 0.000000 -0.003888 0.000000
# 4 0.000000 0.000000 0.000000 0.048797 0.000000 0.003487
# 5 0.001089 -0.000452 -0.003888 0.000000 0.038682 0.000000
# 6 0.000000 0.000000 0.000000 0.003487 0.000000 0.049415
#
#
# Mechanical properties :
#
#
# Convention : Reuss Voigt Hill
#
# Bulk Modulus (GPa) = 49.45008 50.70726 50.07867
# Shear Modulus (GPa) = 24.18994 25.36224 24.77609
#
# Velocity S-wave (km/s) = 3.88092 3.97384 3.92765
# Velocity P-wave (km/s) = 7.13242 7.25447 7.19370
#
# Compressibility (1/GPa) = 0.02022241
#
# Stress axis : x y z
#
# Youngs Moduli (GPa) = 87.93244 64.86295 67.32644
#
# Poissons Ratio (x) = 0.22840 0.18945
# Poissons Ratio (y) = 0.30963 0.29455
# Poissons Ratio (z) = 0.24743 0.28377
#
# Static dielectric constant tensor:
#      x y z
#    x 1.567870 0.000000 -0.017400 
#    y 0.000000 1.570610 0.000000 
#    z -0.017400 0.000000 1.596350 
# 
# From -- ./inp_files/111244.got.cif
#   From: 2010.05.17/outbox.cif.g08.bks.cpg/sg12_56_cif.got.tgz:111244.got - 2010.06.03 13:09:07.
