data_PCOD9188222
_publ_section_title
;
Structure prediction by ZEFSAII (Michael W. Deem and Ramdas Pophale) SiO2 
 PCOD9188222
Probable space group: C 2/M
;
_chemical_formula_sum "Si O2"
_cell_formula_units_Z 64
_cell_length_a 19.879959
_cell_length_b 9.312946
_cell_length_c 19.434541
_cell_angle_alpha 90.000000
_cell_angle_beta 97.499229
_cell_angle_gamma 90.000000
_cell_volume 3567.353875
_symmetry_space_group_name_H-M "C 2/M"
_symmetry_group_IT_number 12
_symmetry_cell_setting 'monoclinic'
loop_
_space_group_symop_operation_xyz
x,y,z
-x,y,-z
-x,-y,-z
x,-y,z
1/2+x,1/2+y,z
1/2-x,1/2+y,-z
1/2-x,1/2-y,-z
1/2+x,1/2-y,z
loop_
_atom_site_type_symbol
_atom_site_label
_atom_site_fract_x
_atom_site_fract_y
_atom_site_fract_z
Si Si1 0.804551 0.165280 0.415078
Si Si2 0.851164 0.334769 0.548903
Si Si3 0.256683 0.174084 0.122965
Si Si4 0.256335 0.829526 0.279931
Si Si5 0.892491 0.829336 0.941926
Si Si6 0.898978 0.328192 0.080444
Si Si7 0.990123 0.170050 0.823967
Si Si8 0.103336 0.169633 0.315601
O O1 0.849045 0.247892 0.477499
O O2 0.726859 0.167386 0.433538
O O3 0.800259 0.245121 0.341707
O O4 0.825071 0.000000 0.411103
O O5 0.870236 0.500000 0.541103
O O6 0.894847 0.259545 0.614208
O O7 0.266208 0.220721 0.203184
O O8 0.184252 0.220614 0.084158
O O9 0.321287 0.214149 0.086410
O O10 0.253698 0.000000 0.124773
O O11 0.176876 0.811163 0.288947
O O12 0.270648 0.000000 0.286469
O O13 0.936085 0.810217 0.878748
O O14 0.892726 0.000000 0.957864
O O15 0.919194 0.743463 0.011036
O O16 0.904155 0.500000 0.078101
O O17 0.945926 0.264850 0.146724
O O18 0.953967 0.208425 0.747466
O O19 0.007024 0.000000 0.824516
O O20 0.097516 0.000000 0.330454
#
# Coordination Sequence:
#
# PCOD9188222 Si02
#       8
#     8   8   8   8   8   8   8   8
#     4   9  16  25  38  63  98 130 159 195 239 286
#     4   9  16  25  39  63  96 131 161 193 238 289
#     4   9  18  34  54  74  97 129 168 206 248 298
#     4   9  15  28  49  69  90 122 164 205 242 285
#     4  10  19  36  58  74  92 127 172 210 245 295
#     4  11  23  35  49  74 105 131 159 204 257 301
#     4  10  20  35  54  74  96 130 171 206 245 297
#     4   9  16  28  48  70  91 121 163 207 244 281
#
# _framework density 17.940467999999999
#
# number of rings (size 3 to 8) (size 9 to 14) (size 15 to 20)
#    0.000    2.500    1.250    1.875    0.000    5.500 
#    0.000    2.500    0.000    0.000    0.000    0.875 
#    0.000    7.000    0.000    0.000    0.000    0.000 
#
# Total GULP energy -178484.125608 kJ/mol
# GULP energy per Si atom -5577.628925 kJ/mol
# Density = 1.789963 g / cm^3
# Si number density = 17.940468 Si / 1000 Ang^3
#
#
#
# Elastic Constant Matrix: (Units=GPa)
#
#
# Indices 1 2 3 4 5 6 
#
# 1 34.9571 12.5177 2.1592 0.0000 10.8254 0.0000
# 2 12.5177 49.7802 37.6953 0.0000 12.0131 0.0000
# 3 2.1592 37.6953 105.2409 0.0000 21.7024 0.0000
# 4 0.0000 0.0000 0.0000 27.3445 0.0000 7.0592
# 5 10.8254 12.0131 21.7024 0.0000 18.0716 0.0000
# 6 0.0000 0.0000 0.0000 7.0592 0.0000 16.2422
#
#
#
# Elastic Compliance Matrix: (Units=1/GPa)
#
#
# Indices 1 2 3 4 5 6 
#
# 1 0.040132 -0.009767 0.008365 0.000000 -0.027593 0.000000
# 2 -0.009767 0.030984 -0.010443 0.000000 -0.002205 0.000000
# 3 0.008365 -0.010443 0.016844 0.000000 -0.018297 0.000000
# 4 0.000000 0.000000 0.000000 0.041192 0.000000 -0.017903
# 5 -0.027593 -0.002205 -0.018297 0.000000 0.095303 0.000000
# 6 0.000000 0.000000 0.000000 -0.017903 0.000000 0.069349
#
#
# Mechanical properties :
#
#
# Convention : Reuss Voigt Hill
#
# Bulk Modulus (GPa) = 15.55916 32.74696 24.15306
# Shear Modulus (GPa) = 14.75281 21.50539 18.12910
#
# Velocity S-wave (km/s) = 2.87072 3.46599 3.18231
# Velocity P-wave (km/s) = 4.43616 5.85749 5.19566
#
# Compressibility (1/GPa) = 0.06427083
#
# Stress axis : x y z
#
# Youngs Moduli (GPa) = 24.91757 32.27453 59.36833
#
# Poissons Ratio (x) = 0.31523 -0.49663
# Poissons Ratio (y) = 0.24338 0.61998
# Poissons Ratio (z) = -0.20844 0.33704
#
# Static dielectric constant tensor:
#      x y z
#    x 1.612370 0.000000 0.007650 
#    y 0.000000 1.596650 0.000000 
#    z 0.007650 0.000000 1.599700 
# 
# From -- ./inp_files/319233.got.cif
#   From: 2010.05.17/outbox.cif.g08.bks.cpg/sg12_160_cif.got.tgz:319233.got - 2010.06.03 13:09:07.
