data_PCOD9188106
_publ_section_title
;
Structure prediction by ZEFSAII (Michael W. Deem and Ramdas Pophale) SiO2 
 PCOD9188106
Probable space group: C 2/M
;
_chemical_formula_sum "Si O2"
_cell_formula_units_Z 58
_cell_length_a 25.297897
_cell_length_b 14.406943
_cell_length_c 18.354560
_cell_angle_alpha 90.000000
_cell_angle_beta 156.754144
_cell_angle_gamma 90.000000
_cell_volume 2640.234472
_symmetry_space_group_name_H-M "C 2/M"
_symmetry_group_IT_number 12
_symmetry_cell_setting 'monoclinic'
loop_
_space_group_symop_operation_xyz
x,y,z
-x,y,-z
-x,-y,-z
x,-y,z
1/2+x,1/2+y,z
1/2-x,1/2+y,-z
1/2-x,1/2-y,-z
1/2+x,1/2-y,z
loop_
_atom_site_type_symbol
_atom_site_label
_atom_site_fract_x
_atom_site_fract_y
_atom_site_fract_z
Si Si1 0.000000 0.000000 0.500000
Si Si2 0.352495 0.599871 0.077076
Si Si3 0.014792 0.687251 0.935665
Si Si4 0.529196 0.603048 0.153648
Si Si5 0.683982 0.667171 0.724700
Si Si6 0.436928 0.716567 0.581754
Si Si7 0.752943 0.108185 0.459218
Si Si8 0.571172 0.148532 0.660883
O O1 0.108937 0.919933 0.661672
O O2 0.386837 0.500000 0.154119
O O3 0.431223 0.603671 0.099912
O O4 0.417740 0.678807 0.209277
O O5 0.196711 0.603972 0.860400
O O6 0.000564 0.799311 0.921518
O O7 0.897816 0.642125 0.739553
O O8 0.157018 0.664154 0.080334
O O9 0.000000 0.651804 0.000000
O O10 0.511718 0.500000 0.097680
O O11 0.679742 0.608648 0.376272
O O12 0.630577 0.669752 0.573946
O O13 0.635856 0.758823 0.705827
O O14 0.339079 0.682883 0.521823
O O15 0.463273 0.819989 0.585149
O O16 0.767435 0.000000 0.451306
O O17 0.500000 0.103111 0.500000
#
# Coordination Sequence:
#
# PCOD9188106 Si02
#       8
#     2   8   8   8   8   8   8   8
#     4  12  24  40  62  80 122 168 186 238 296 368
#     4  10  20  34  60  86 111 150 196 245 286 354
#     4  12  23  37  60  89 122 150 196 255 291 345
#     4   9  20  40  62  82 114 159 203 237 298 357
#     4  11  23  36  56  86 117 155 193 235 295 346
#     4  10  19  36  56  82 114 152 193 228 294 358
#     4  10  22  37  58  87 119 158 190 244 295 355
#     4  10  20  38  57  81 116 150 189 248 288 349
#
# _framework density 21.967746000000002
#
# number of rings (size 3 to 8) (size 9 to 14) (size 15 to 20)
#    0.000    1.655    4.828    2.069    2.897    0.828 
#    0.000    0.000    0.000    0.828    0.000    0.000 
#    0.000    0.000    0.000    0.000    0.000    0.000 
#
# Total GULP energy -161435.973373 kJ/mol
# GULP energy per Si atom -5566.757703 kJ/mol
# Density = 2.191775 g / cm^3
# Si number density = 21.967746 Si / 1000 Ang^3
#
#
#
# Elastic Constant Matrix: (Units=GPa)
#
#
# Indices 1 2 3 4 5 6 
#
# 1 44.8794 13.4392 25.1240 0.0000 6.8909 0.0000
# 2 13.4392 87.5369 24.7450 0.0000 9.2823 0.0000
# 3 25.1240 24.7450 130.4170 0.0000 30.8035 0.0000
# 4 0.0000 0.0000 0.0000 23.1977 0.0000 4.2628
# 5 6.8909 9.2823 30.8035 0.0000 33.4820 0.0000
# 6 0.0000 0.0000 0.0000 4.2628 0.0000 8.1547
#
#
#
# Elastic Compliance Matrix: (Units=1/GPa)
#
#
# Indices 1 2 3 4 5 6 
#
# 1 0.025564 -0.002652 -0.004283 0.000000 -0.000585 0.000000
# 2 -0.002652 0.012412 -0.001483 0.000000 -0.001531 0.000000
# 3 -0.004283 -0.001483 0.010820 0.000000 -0.008662 0.000000
# 4 0.000000 0.000000 0.000000 0.047689 0.000000 -0.024929
# 5 -0.000585 -0.001531 -0.008662 0.000000 0.038381 0.000000
# 6 0.000000 0.000000 0.000000 -0.024929 0.000000 0.135660
#
#
# Mechanical properties :
#
#
# Convention : Reuss Voigt Hill
#
# Bulk Modulus (GPa) = 31.28824 43.27219 37.28021
# Shear Modulus (GPa) = 16.77773 26.26855 21.52314
#
# Velocity S-wave (km/s) = 2.76659 3.46175 3.13351
# Velocity P-wave (km/s) = 4.94763 5.97655 5.48627
#
# Compressibility (1/GPa) = 0.03196089
#
# Stress axis : x y z
#
# Youngs Moduli (GPa) = 39.11788 80.56492 92.42125
#
# Poissons Ratio (x) = 0.21364 0.39586
# Poissons Ratio (y) = 0.10373 0.13702
# Poissons Ratio (z) = 0.16755 0.11944
#
# Static dielectric constant tensor:
#      x y z
#    x 1.832040 0.000000 -0.007800 
#    y 0.000000 1.802230 0.000000 
#    z -0.007800 0.000000 1.822840 
# 
# From -- ./inp_files/330301.got.cif
#   From: 2010.05.17/outbox.cif.g08.bks.cpg/sg12_166_cif.got.tgz:330301.got - 2010.06.03 13:09:07.
