data_PCOD9188111
_publ_section_title
;
Structure prediction by ZEFSAII (Michael W. Deem and Ramdas Pophale) SiO2 
 PCOD9188111
Probable space group: C 2/M
;
_chemical_formula_sum "Si O2"
_cell_formula_units_Z 56
_cell_length_a 8.148815
_cell_length_b 26.636715
_cell_length_c 15.009372
_cell_angle_alpha 90.000000
_cell_angle_beta 116.393134
_cell_angle_gamma 90.000000
_cell_volume 2918.312200
_symmetry_space_group_name_H-M "C 2/M"
_symmetry_group_IT_number 12
_symmetry_cell_setting 'monoclinic'
loop_
_space_group_symop_operation_xyz
x,y,z
-x,y,-z
-x,-y,-z
x,-y,z
1/2+x,1/2+y,z
1/2-x,1/2+y,-z
1/2-x,1/2-y,-z
1/2+x,1/2-y,z
loop_
_atom_site_type_symbol
_atom_site_label
_atom_site_fract_x
_atom_site_fract_y
_atom_site_fract_z
Si Si1 0.325492 0.781786 0.896961
Si Si2 0.192842 0.893519 0.307257
Si Si3 0.614826 0.605373 0.619301
Si Si4 0.317513 0.000000 0.388367
Si Si5 0.048888 0.172198 0.108759
Si Si6 0.410296 0.500000 0.382632
Si Si7 0.130208 0.702939 0.610417
Si Si8 0.638935 0.799020 0.298091
O O1 0.135285 0.803822 0.889659
O O2 0.327476 0.721035 0.886998
O O3 0.368044 0.802094 0.809242
O O4 0.500000 0.794125 0.000000
O O5 0.304170 0.852869 0.392367
O O6 0.008785 0.895305 0.321825
O O7 0.139104 0.867057 0.200053
O O8 0.303261 0.946272 0.333118
O O9 0.500000 0.604633 0.500000
O O10 0.707555 0.550640 0.651126
O O11 0.733491 0.654954 0.643188
O O12 0.500000 0.000000 0.500000
O O13 0.104991 0.000000 0.375819
O O14 0.000000 0.149310 0.000000
O O15 0.500000 0.500000 0.500000
O O16 0.285008 0.744174 0.658572
O O17 0.000000 0.720552 0.500000
O O18 0.036136 0.698112 0.682963
#
# Coordination Sequence:
#
# PCOD9188111 Si02
#       8
#     8   8   8   4   8   4   8   8
#     4  11  22  37  60  87 119 152 199 245 297 353
#     4  11  22  39  59  87 117 155 204 245 300 356
#     4  10  19  36  56  83 113 153 194 242 290 353
#     4  10  22  40  63  87 120 158 201 252 294 352
#     4  11  22  38  62  88 119 157 198 249 302 359
#     4   8  18  34  60  79 110 147 202 236 280 341
#     4  12  24  36  53  82 123 161 192 236 294 363
#     4  12  22  36  56  84 119 153 196 239 300 360
#
# _framework density 19.189173
#
# number of rings (size 3 to 8) (size 9 to 14) (size 15 to 20)
#    0.000    1.143    2.857    5.571    2.000    2.286 
#    0.000    0.357    0.000    0.000    0.000    1.000 
#    0.000    0.000    0.000    0.000    0.000    0.000 
#
# Total GULP energy -155949.882500 kJ/mol
# GULP energy per Si atom -5569.638661 kJ/mol
# Density = 1.914550 g / cm^3
# Si number density = 19.189173 Si / 1000 Ang^3
#
#
#
# Elastic Constant Matrix: (Units=GPa)
#
#
# Indices 1 2 3 4 5 6 
#
# 1 37.5629 16.1766 4.3605 0.0000 0.7815 0.0000
# 2 16.1766 125.6787 23.1772 0.0000 13.1214 0.0000
# 3 4.3605 23.1772 111.3037 0.0000 -0.6435 0.0000
# 4 0.0000 0.0000 0.0000 14.7552 0.0000 2.6348
# 5 0.7815 13.1214 -0.6435 0.0000 25.7038 0.0000
# 6 0.0000 0.0000 0.0000 2.6348 0.0000 6.6506
#
#
#
# Elastic Compliance Matrix: (Units=1/GPa)
#
#
# Indices 1 2 3 4 5 6 
#
# 1 0.028223 -0.003677 -0.000334 0.000000 0.001010 0.000000
# 2 -0.003677 0.009250 -0.001809 0.000000 -0.004655 0.000000
# 3 -0.000334 -0.001809 0.009381 0.000000 0.001168 0.000000
# 4 0.000000 0.000000 0.000000 0.072932 0.000000 -0.028894
# 5 0.001010 -0.004655 0.001168 0.000000 0.041280 0.000000
# 6 0.000000 0.000000 0.000000 -0.028894 0.000000 0.161809
#
#
# Mechanical properties :
#
#
# Convention : Reuss Voigt Hill
#
# Bulk Modulus (GPa) = 28.39764 40.21931 34.30848
# Shear Modulus (GPa) = 14.44035 24.81066 19.62550
#
# Velocity S-wave (km/s) = 2.74620 3.59966 3.20150
# Velocity P-wave (km/s) = 4.98862 6.18722 5.61997
#
# Compressibility (1/GPa) = 0.03521419
#
# Stress axis : x y z
#
# Youngs Moduli (GPa) = 35.43196 108.11206 106.59879
#
# Poissons Ratio (x) = 0.39748 0.03563
# Poissons Ratio (y) = 0.13027 0.19283
# Poissons Ratio (z) = 0.01184 0.19557
#
# Static dielectric constant tensor:
#      x y z
#    x 1.714490 0.000000 0.022520 
#    y 0.000000 1.038050 0.000000 
#    z 0.022520 0.000000 1.708700 
# 
# From -- ./inp_files/199958.got.cif
#   From: 2010.05.17/outbox.cif.g08.bks.cpg/sg12_100_cif.got.tgz:199958.got - 2010.06.03 13:09:07.
