data_PCOD9188759
_publ_section_title
;
Structure prediction by ZEFSAII (Michael W. Deem and Ramdas Pophale) SiO2 
 PCOD9188759
Probable space group: C 2/M
;
_chemical_formula_sum "Si O2"
_cell_formula_units_Z 64
_cell_length_a 18.864504
_cell_length_b 8.996836
_cell_length_c 29.145853
_cell_angle_alpha 90.000000
_cell_angle_beta 136.093132
_cell_angle_gamma 90.000000
_cell_volume 3430.449558
_symmetry_space_group_name_H-M "C 2/M"
_symmetry_group_IT_number 12
_symmetry_cell_setting 'monoclinic'
loop_
_space_group_symop_operation_xyz
x,y,z
-x,y,-z
-x,-y,-z
x,-y,z
1/2+x,1/2+y,z
1/2-x,1/2+y,-z
1/2-x,1/2-y,-z
1/2+x,1/2-y,z
loop_
_atom_site_type_symbol
_atom_site_label
_atom_site_fract_x
_atom_site_fract_y
_atom_site_fract_z
Si Si1 0.935589 0.673035 0.848399
Si Si2 0.267285 0.823804 0.212665
Si Si3 0.922996 0.820037 0.357702
Si Si4 0.853244 0.173701 0.064933
Si Si5 0.849193 0.179630 0.522742
Si Si6 0.821469 0.819755 0.405496
Si Si7 0.907717 0.326269 0.725391
Si Si8 0.383988 0.671957 0.188636
O O1 0.935736 0.500000 0.861364
O O2 0.844982 0.759237 0.830921
O O3 0.912367 0.681470 0.782897
O O4 0.046186 0.745239 0.907428
O O5 0.344996 0.752441 0.285857
O O6 0.308549 0.772435 0.182743
O O7 0.267299 0.000000 0.217312
O O8 0.889632 0.774314 0.393812
O O9 0.041318 0.780271 0.404254
O O10 0.913880 0.000000 0.350659
O O11 0.861224 0.184285 0.123950
O O12 0.854226 0.000000 0.053110
O O13 0.750000 0.250000 0.000000
O O14 0.750000 0.250000 0.500000
O O15 0.854476 0.225924 0.471627
O O16 0.840008 0.000000 0.519928
O O17 0.703823 0.775465 0.342463
O O18 0.823865 0.000000 0.406163
O O19 0.921660 0.500000 0.719052
O O20 0.000628 0.229223 0.749989
O O21 0.374390 0.500000 0.198051
#
# Coordination Sequence:
#
# PCOD9188759 Si02
#       8
#     8   8   8   8   8   8   8   8
#     4  10  19  36  61  88 119 153 190 235 286 342
#     4  12  24  37  57  86 119 153 193 244 295 344
#     4  10  20  38  59  80 107 150 197 238 290 352
#     4  10  21  39  64  93 123 158 196 234 278 335
#     4  10  22  37  56  80 110 146 190 241 294 352
#     4   9  17  34  58  81 106 142 191 236 284 347
#     4   9  17  32  56  84 111 145 187 234 286 344
#     4  10  22  38  57  84 120 154 191 236 283 336
#
# _framework density 18.656445999999999
#
# number of rings (size 3 to 8) (size 9 to 14) (size 15 to 20)
#    0.000    2.000    1.250    2.625    1.750    4.000 
#    0.000    1.250    0.000    5.250    0.000    0.000 
#    0.000    0.000    0.000    0.000    0.000    0.000 
#
# Total GULP energy -178707.391721 kJ/mol
# GULP energy per Si atom -5584.605991 kJ/mol
# Density = 1.861398 g / cm^3
# Si number density = 18.656446 Si / 1000 Ang^3
#
#
#
# Elastic Constant Matrix: (Units=GPa)
#
#
# Indices 1 2 3 4 5 6 
#
# 1 92.5748 52.5753 35.3209 0.0000 32.6838 0.0000
# 2 52.5753 90.8007 43.3615 0.0000 21.7687 0.0000
# 3 35.3209 43.3615 87.4040 0.0000 39.7687 0.0000
# 4 0.0000 0.0000 0.0000 24.7222 0.0000 7.8480
# 5 32.6838 21.7687 39.7687 0.0000 30.8168 0.0000
# 6 0.0000 0.0000 0.0000 7.8480 0.0000 30.5964
#
#
#
# Elastic Compliance Matrix: (Units=1/GPa)
#
#
# Indices 1 2 3 4 5 6 
#
# 1 0.024157 -0.011346 0.009392 0.000000 -0.029727 0.000000
# 2 -0.011346 0.019830 -0.010547 0.000000 0.011637 0.000000
# 3 0.009392 -0.010547 0.033962 0.000000 -0.046338 0.000000
# 4 0.000000 0.000000 0.000000 0.044035 0.000000 -0.011295
# 5 -0.029727 0.011637 -0.046338 0.000000 0.115556 0.000000
# 6 0.000000 0.000000 0.000000 -0.011295 0.000000 0.035581
#
#
# Mechanical properties :
#
#
# Convention : Reuss Voigt Hill
#
# Bulk Modulus (GPa) = 18.88700 59.25498 39.07099
# Shear Modulus (GPa) = 15.83417 26.52851 21.18134
#
# Velocity S-wave (km/s) = 2.91645 3.77496 3.37313
# Velocity P-wave (km/s) = 4.63535 7.12956 6.01319
#
# Compressibility (1/GPa) = 0.05294646
#
# Stress axis : x y z
#
# Youngs Moduli (GPa) = 41.39532 50.42956 29.44449
#
# Poissons Ratio (x) = 0.57217 -0.27655
# Poissons Ratio (y) = 0.46967 0.31057
# Poissons Ratio (z) = -0.38879 0.53191
#
# Static dielectric constant tensor:
#      x y z
#    x 1.638080 0.000000 -0.008140 
#    y 0.000000 1.623700 0.000000 
#    z -0.008140 0.000000 1.630640 
# 
# From -- ./inp_files/378304.got.cif
#   From: 2010.05.17/outbox.cif.g08.bks.cpg/sg12_190_cif.got.tgz:378304.got - 2010.06.03 13:09:07.
