data_PCOD9188057
_publ_section_title
;
Structure prediction by ZEFSAII (Michael W. Deem and Ramdas Pophale) SiO2 
 PCOD9188057
Probable space group: C 2/M
;
_chemical_formula_sum "Si O2"
_cell_formula_units_Z 60
_cell_length_a 23.075793
_cell_length_b 17.086889
_cell_length_c 10.266484
_cell_angle_alpha 90.000000
_cell_angle_beta 117.105986
_cell_angle_gamma 90.000000
_cell_volume 3603.395920
_symmetry_space_group_name_H-M "C 2/M"
_symmetry_group_IT_number 12
_symmetry_cell_setting 'monoclinic'
loop_
_space_group_symop_operation_xyz
x,y,z
-x,y,-z
-x,-y,-z
x,-y,z
1/2+x,1/2+y,z
1/2-x,1/2+y,-z
1/2-x,1/2-y,-z
1/2+x,1/2-y,z
loop_
_atom_site_type_symbol
_atom_site_label
_atom_site_fract_x
_atom_site_fract_y
_atom_site_fract_z
Si Si1 0.970580 0.589042 0.194619
Si Si2 0.302862 0.170176 0.294836
Si Si3 0.000000 0.286240 0.000000
Si Si4 0.613271 0.273310 0.272310
Si Si5 0.771549 0.670179 0.726355
Si Si6 0.212643 0.091428 0.417433
Si Si7 0.685221 0.090416 0.959669
Si Si8 0.053954 0.308362 0.461465
O O1 0.988283 0.500000 0.174837
O O2 0.983185 0.654352 0.098706
O O3 0.015491 0.617871 0.359701
O O4 0.893175 0.590455 0.137231
O O5 0.276466 0.258314 0.286599
O O6 0.266914 0.118824 0.368221
O O7 0.287259 0.137936 0.135319
O O8 0.380217 0.168171 0.397485
O O9 0.940017 0.233039 0.895124
O O10 0.668336 0.209950 0.289415
O O11 0.649827 0.355040 0.324747
O O12 0.578529 0.246975 0.369831
O O13 0.737713 0.613345 0.587644
O O14 0.795749 0.628353 0.882441
O O15 0.200388 0.000000 0.393202
O O16 0.706733 0.000000 0.978257
O O17 0.000000 0.270139 0.500000
#
# Coordination Sequence:
#
# PCOD9188057 Si02
#       8
#     8   8   4   8   8   8   8   8
#     4  10  21  31  48  76 111 145 176 218 269 333
#     4  11  21  38  57  82 113 154 192 230 280 339
#     4  10  19  36  55  74 106 142 186 228 275 322
#     4  10  20  38  58  84 107 145 197 234 272 344
#     4  11  20  39  58  81 111 151 198 233 270 339
#     4  11  22  38  61  84 112 147 191 244 287 324
#     4  11  22  35  50  83 121 146 182 229 286 333
#     4  11  20  35  55  79 113 149 189 224 277 338
#
# _framework density 16.650960000000001
#
# number of rings (size 3 to 8) (size 9 to 14) (size 15 to 20)
#    0.000    1.333    5.333    2.200    0.000    1.333 
#    0.000    0.333    0.000    0.400    0.000    0.000 
#    0.000    0.000    0.000    0.000    0.000    0.000 
#
# Total GULP energy -167350.912563 kJ/mol
# GULP energy per Si atom -5578.363752 kJ/mol
# Density = 1.661306 g / cm^3
# Si number density = 16.650960 Si / 1000 Ang^3
#
#
#
# Elastic Constant Matrix: (Units=GPa)
#
#
# Indices 1 2 3 4 5 6 
#
# 1 90.7553 47.5010 52.2916 0.0000 -2.6323 0.0000
# 2 47.5010 92.9032 40.6482 0.0000 3.4744 0.0000
# 3 52.2916 40.6482 80.3920 0.0000 3.3493 0.0000
# 4 0.0000 0.0000 0.0000 15.1041 0.0000 -5.0568
# 5 -2.6323 3.4744 3.3493 0.0000 35.5229 0.0000
# 6 0.0000 0.0000 0.0000 -5.0568 0.0000 12.5437
#
#
#
# Elastic Compliance Matrix: (Units=1/GPa)
#
#
# Indices 1 2 3 4 5 6 
#
# 1 0.020077 -0.005919 -0.010193 0.000000 0.003028 0.000000
# 2 -0.005919 0.015584 -0.003963 0.000000 -0.001589 0.000000
# 3 -0.010193 -0.003963 0.021171 0.000000 -0.002364 0.000000
# 4 0.000000 0.000000 0.000000 0.076538 0.000000 0.030855
# 5 0.003028 -0.001589 -0.002364 0.000000 0.028753 0.000000
# 6 0.000000 0.000000 0.000000 0.030855 0.000000 0.092160
#
#
# Mechanical properties :
#
#
# Convention : Reuss Voigt Hill
#
# Bulk Modulus (GPa) = 59.94344 60.54799 60.24571
# Shear Modulus (GPa) = 16.66695 20.87480 18.77087
#
# Velocity S-wave (km/s) = 3.16723 3.54456 3.36119
# Velocity P-wave (km/s) = 7.03230 7.29341 7.16405
#
# Compressibility (1/GPa) = 0.01668239
#
# Stress axis : x y z
#
# Youngs Moduli (GPa) = 49.80740 64.16949 47.23343
#
# Poissons Ratio (x) = 0.37982 0.48144
# Poissons Ratio (y) = 0.29481 0.18720
# Poissons Ratio (z) = 0.50768 0.25432
#
# Static dielectric constant tensor:
#      x y z
#    x 1.562240 0.000000 -0.011310 
#    y 0.000000 1.527130 0.000000 
#    z -0.011310 0.000000 1.583060 
# 
# From -- ./inp_files/98142.got.cif
#   From: 2010.05.17/outbox.cif.g08.bks.cpg/sg12_50_cif.got.tgz:98142.got - 2010.06.03 13:09:07.
