data_PCOD9188200
_publ_section_title
;
Structure prediction by ZEFSAII (Michael W. Deem and Ramdas Pophale) SiO2 
 PCOD9188200
Probable space group: C 2/M
;
_chemical_formula_sum "Si O2"
_cell_formula_units_Z 52
_cell_length_a 9.686327
_cell_length_b 22.286178
_cell_length_c 22.017367
_cell_angle_alpha 90.000000
_cell_angle_beta 145.905607
_cell_angle_gamma 90.000000
_cell_volume 2664.284663
_symmetry_space_group_name_H-M "C 2/M"
_symmetry_group_IT_number 12
_symmetry_cell_setting 'monoclinic'
loop_
_space_group_symop_operation_xyz
x,y,z
-x,y,-z
-x,-y,-z
x,-y,z
1/2+x,1/2+y,z
1/2-x,1/2+y,-z
1/2-x,1/2-y,-z
1/2+x,1/2-y,z
loop_
_atom_site_type_symbol
_atom_site_label
_atom_site_fract_x
_atom_site_fract_y
_atom_site_fract_z
Si Si1 0.315328 0.630912 0.747795
Si Si2 0.749611 0.000000 0.871339
Si Si3 0.130289 0.771435 0.393782
Si Si4 0.708315 0.500000 0.254193
Si Si5 0.347750 0.105173 0.498736
Si Si6 0.250092 0.868921 0.130307
Si Si7 0.188093 0.000000 0.512410
Si Si8 0.109202 0.740603 0.255702
O O1 0.393781 0.563029 0.758336
O O2 0.300055 0.633589 0.815377
O O3 0.463481 0.689291 0.779457
O O4 0.040498 0.632282 0.618199
O O5 0.626183 0.065194 0.836357
O O6 0.837260 0.000000 0.833822
O O7 0.000000 0.000000 0.000000
O O8 0.250000 0.750000 0.500000
O O9 0.214493 0.839756 0.418243
O O10 0.201648 0.735955 0.359218
O O11 0.838589 0.767610 0.294853
O O12 0.011295 0.500000 0.366884
O O13 0.500000 0.073660 0.500000
O O14 0.162741 0.060307 0.464154
O O15 0.412319 0.811085 0.173534
O O16 0.000000 0.867052 0.000000
O O17 0.000000 0.000000 0.500000
#
# Coordination Sequence:
#
# PCOD9188200 Si02
#       8
#     8   4   8   4   8   8   4   8
#     4  10  19  36  57  85 112 150 205 233 294 357
#     4   8  16  34  59  83 109 145 189 232 299 360
#     4  12  22  36  56  82 119 157 199 243 295 355
#     4   8  18  33  57  77 112 151 184 251 279 344
#     4  11  20  37  57  80 116 161 198 242 298 361
#     4  10  21  38  61  89 120 153 194 253 306 358
#     4  10  23  35  52  86 117 154 202 249 299 351
#     4  12  22  37  57  88 120 152 202 245 296 363
#
# _framework density 19.517434000000002
#
# number of rings (size 3 to 8) (size 9 to 14) (size 15 to 20)
#    0.000    1.538    4.615    0.692    0.000    5.538 
#    0.000    0.000    0.000    0.000    0.000    0.538 
#    0.000    0.000    0.000    0.000    0.000    0.000 
#
# Total GULP energy -144827.260175 kJ/mol
# GULP energy per Si atom -5570.279237 kJ/mol
# Density = 1.947301 g / cm^3
# Si number density = 19.517434 Si / 1000 Ang^3
#
#
#
# Elastic Constant Matrix: (Units=GPa)
#
#
# Indices 1 2 3 4 5 6 
#
# 1 67.4263 23.8443 4.7879 -0.0006 -0.4973 0.0005
# 2 23.8443 181.8348 24.2444 -0.0002 15.8029 -0.0001
# 3 4.7879 24.2444 58.8276 -0.0001 -16.7097 0.0016
# 4 -0.0006 -0.0002 -0.0001 25.1289 -0.0014 -4.5268
# 5 -0.4973 15.8029 -16.7097 -0.0014 15.1660 0.0001
# 6 0.0005 -0.0001 0.0016 -4.5268 0.0001 30.7052
#
#
#
# Elastic Compliance Matrix: (Units=1/GPa)
#
#
# Indices 1 2 3 4 5 6 
#
# 1 0.015698 -0.002563 0.000995 0.000001 0.004282 0.000000
# 2 -0.002563 0.008586 -0.008580 -0.000001 -0.018484 0.000000
# 3 0.000995 -0.008580 0.033481 0.000002 0.045862 -0.000002
# 4 0.000001 -0.000001 0.000002 0.040881 0.000008 0.006027
# 5 0.004282 -0.018484 0.045862 0.000008 0.135868 -0.000002
# 6 0.000000 0.000000 -0.000002 0.006027 -0.000002 0.033456
#
#
# Mechanical properties :
#
#
# Convention : Reuss Voigt Hill
#
# Bulk Modulus (GPa) = 26.68928 45.98243 36.33585
# Shear Modulus (GPa) = 16.62469 31.21415 23.91942
#
# Velocity S-wave (km/s) = 2.92171 4.00346 3.50457
# Velocity P-wave (km/s) = 5.00860 6.70679 5.91892
#
# Compressibility (1/GPa) = 0.03746823
#
# Stress axis : x y z
#
# Youngs Moduli (GPa) = 63.70060 116.46705 29.86768
#
# Poissons Ratio (x) = 0.29855 -0.02972
# Poissons Ratio (y) = 0.16329 0.25628
# Poissons Ratio (z) = -0.06339 0.99933
#
# Static dielectric constant tensor:
#      x y z
#    x 1.693640 0.000000 -0.056620 
#    y 0.000000 1.796800 0.000000 
#    z -0.056620 0.000000 1.750080 
# 
# From -- ./inp_files/302394.got.cif
#   From: 2010.05.17/outbox.cif.g08.bks.cpg/sg12_152_cif.got.tgz:302394.got - 2010.06.03 13:09:07.
