data_PCOD9188253
_publ_section_title
;
Structure prediction by ZEFSAII (Michael W. Deem and Ramdas Pophale) SiO2 
 PCOD9188253
Probable space group: C 2/M
;
_chemical_formula_sum "Si O2"
_cell_formula_units_Z 64
_cell_length_a 25.599131
_cell_length_b 8.124485
_cell_length_c 14.970595
_cell_angle_alpha 90.000000
_cell_angle_beta 89.825283
_cell_angle_gamma 90.000000
_cell_volume 3113.566216
_symmetry_space_group_name_H-M "C 2/M"
_symmetry_group_IT_number 12
_symmetry_cell_setting 'monoclinic'
loop_
_space_group_symop_operation_xyz
x,y,z
-x,y,-z
-x,-y,-z
x,-y,z
1/2+x,1/2+y,z
1/2-x,1/2+y,-z
1/2-x,1/2-y,-z
1/2+x,1/2-y,z
loop_
_atom_site_type_symbol
_atom_site_label
_atom_site_fract_x
_atom_site_fract_y
_atom_site_fract_z
Si Si1 0.940567 0.201583 0.787601
Si Si2 0.806741 0.312363 0.971849
Si Si3 0.917212 0.808695 0.987818
Si Si4 0.144065 0.195946 0.356366
Si Si5 0.945182 0.801706 0.178828
Si Si6 0.227307 0.196214 0.209007
Si Si7 0.838317 0.301224 0.272163
Si Si8 0.307324 0.193606 0.467981
O O1 0.901604 0.257554 0.709584
O O2 0.001010 0.246891 0.773683
O O3 0.935701 0.000000 0.788762
O O4 0.926822 0.260173 0.888464
O O5 0.814244 0.500000 0.000170
O O6 0.804246 0.293337 0.865225
O O7 0.750000 0.250000 0.000000
O O8 0.855319 0.207573 0.005640
O O9 0.944474 0.738020 0.076060
O O10 0.932539 0.000000 0.982206
O O11 0.198452 0.220512 0.302884
O O12 0.151582 0.271127 0.453465
O O13 0.137149 0.000000 0.367300
O O14 0.892867 0.752516 0.230288
O O15 0.945492 0.000000 0.173005
O O16 0.287525 0.247025 0.214329
O O17 0.223863 0.000000 0.188033
O O18 0.838078 0.500000 0.273357
O O19 0.826919 0.237956 0.372633
O O20 0.250000 0.250000 0.500000
O O21 0.302560 0.000000 0.455180
#
# Coordination Sequence:
#
# PCOD9188253 Si02
#       8
#     8   8   8   8   8   8   8   8
#     4   9  18  36  61  86 116 150 189 236 287 336
#     4  12  24  35  50  78 115 153 193 232 282 339
#     4  10  19  36  59  83 113 149 191 238 286 333
#     4  10  19  36  61  87 114 147 182 230 291 339
#     4  10  21  36  59  88 112 147 198 240 276 332
#     4  10  19  36  58  80 111 149 185 225 287 347
#     4  10  22  39  57  80 116 154 184 228 292 346
#     4  11  22  38  60  87 116 149 191 235 287 346
#
# _framework density 20.555208
#
# number of rings (size 3 to 8) (size 9 to 14) (size 15 to 20)
#    0.000    1.750    2.500    2.625    0.000    6.000 
#    0.000    1.875    0.000    5.250    0.000    0.000 
#    0.000    0.000    0.000    0.000    0.000    0.000 
#
# Total GULP energy -178665.744947 kJ/mol
# GULP energy per Si atom -5583.304530 kJ/mol
# Density = 2.050842 g / cm^3
# Si number density = 20.555208 Si / 1000 Ang^3
#
#
#
# Elastic Constant Matrix: (Units=GPa)
#
#
# Indices 1 2 3 4 5 6 
#
# 1 133.8831 4.0108 37.4337 0.0000 17.1597 0.0000
# 2 4.0108 13.1389 5.5867 0.0000 -0.4354 0.0000
# 3 37.4337 5.5867 89.4907 0.0000 14.5448 0.0000
# 4 0.0000 0.0000 0.0000 22.5829 0.0000 -0.8608
# 5 17.1597 -0.4354 14.5448 0.0000 25.9638 0.0000
# 6 0.0000 0.0000 0.0000 -0.8608 0.0000 20.5024
#
#
#
# Elastic Compliance Matrix: (Units=1/GPa)
#
#
# Indices 1 2 3 4 5 6 
#
# 1 0.008880 -0.001610 -0.002922 0.000000 -0.004259 0.000000
# 2 -0.001610 0.078947 -0.005108 0.000000 0.005249 0.000000
# 3 -0.002922 -0.005108 0.013659 0.000000 -0.005806 0.000000
# 4 0.000000 0.000000 0.000000 0.044352 0.000000 0.001862
# 5 -0.004259 0.005249 -0.005806 0.000000 0.044671 0.000000
# 6 0.000000 0.000000 0.000000 0.001862 0.000000 0.048853
#
#
# Mechanical properties :
#
#
# Convention : Reuss Voigt Hill
#
# Bulk Modulus (GPa) = 12.16441 36.73057 24.44749
# Shear Modulus (GPa) = 17.47980 26.44192 21.96086
#
# Velocity S-wave (km/s) = 2.91930 3.59051 3.27216
# Velocity P-wave (km/s) = 4.15858 5.92428 5.11815
#
# Compressibility (1/GPa) = 0.08220701
#
# Stress axis : x y z
#
# Youngs Moduli (GPa) = 112.60911 12.66670 73.21098
#
# Poissons Ratio (x) = 0.02039 0.21391
# Poissons Ratio (y) = 0.18125 0.37399
# Poissons Ratio (z) = 0.32903 0.06471
#
# Static dielectric constant tensor:
#      x y z
#    x 1.733560 0.000000 -0.006580 
#    y 0.000000 1.747790 0.000000 
#    z -0.006580 0.000000 1.777480 
# 
# From -- ./inp_files/238748.got.cif
#   From: 2010.05.17/outbox.cif.g08.bks.cpg/sg12_120_cif.got.tgz:238748.got - 2010.06.03 13:09:07.
