data_PCOD9188980
_publ_section_title
;
Structure prediction by ZEFSAII (Michael W. Deem and Ramdas Pophale) SiO2 
 PCOD9188980
Probable space group: C 2/M
;
_chemical_formula_sum "Si O2"
_cell_formula_units_Z 56
_cell_length_a 26.140648
_cell_length_b 8.269823
_cell_length_c 11.730034
_cell_angle_alpha 90.000000
_cell_angle_beta 102.285921
_cell_angle_gamma 90.000000
_cell_volume 2477.706788
_symmetry_space_group_name_H-M "C 2/M"
_symmetry_group_IT_number 12
_symmetry_cell_setting 'monoclinic'
loop_
_space_group_symop_operation_xyz
x,y,z
-x,y,-z
-x,-y,-z
x,-y,z
1/2+x,1/2+y,z
1/2-x,1/2+y,-z
1/2-x,1/2-y,-z
1/2+x,1/2-y,z
loop_
_atom_site_type_symbol
_atom_site_label
_atom_site_fract_x
_atom_site_fract_y
_atom_site_fract_z
Si Si1 0.781313 0.816842 0.851749
Si Si2 0.047114 0.805003 0.305937
Si Si3 0.666364 0.309081 0.776262
Si Si4 0.938349 0.802574 0.152485
Si Si5 0.603601 0.697491 0.100646
Si Si6 0.211056 0.315739 0.387780
Si Si7 0.880482 0.682895 0.478275
O O1 0.723267 0.749237 0.845612
O O2 0.838203 0.742326 0.908261
O O3 0.786105 0.803367 0.716820
O O4 0.781185 0.000000 0.893858
O O5 0.082882 0.750298 0.214473
O O6 0.067417 0.755266 0.440453
O O7 0.988693 0.748173 0.246936
O O8 0.048249 0.000000 0.303845
O O9 0.667271 0.500000 0.790192
O O10 0.616282 0.244332 0.820734
O O11 0.651196 0.270491 0.637647
O O12 0.938727 0.000000 0.158092
O O13 0.936789 0.760279 0.018456
O O14 0.607397 0.500000 0.106181
O O15 0.223786 0.500000 0.356183
O O16 0.250000 0.250000 0.500000
O O17 0.157028 0.318529 0.429331
O O18 0.889365 0.500000 0.443787
#
# Coordination Sequence:
#
# PCOD9188980 Si02
#       7
#     8   8   8   8   8   8   8
#     4  11  21  34  56  87 118 148 186 233 286 345
#     4  10  19  36  64  90 112 144 190 241 289 334
#     4  11  23  38  57  82 117 157 194 231 277 340
#     4   9  20  38  59  85 114 149 196 240 277 331
#     4   9  18  34  60  90 115 142 185 241 290 333
#     4  11  21  33  54  82 115 151 187 235 287 341
#     4  11  23  37  56  84 119 151 186 233 287 345
#
# _framework density 22.601545000000002
#
# number of rings (size 3 to 8) (size 9 to 14) (size 15 to 20)
#    0.000    1.714    2.857    2.143    0.000    4.000 
#    0.000    4.286    0.000    7.714    0.000    0.000 
#    0.000    0.000    0.000    0.000    0.000    0.000 
#
# Total GULP energy -156201.147326 kJ/mol
# GULP energy per Si atom -5578.612404 kJ/mol
# Density = 2.255010 g / cm^3
# Si number density = 22.601545 Si / 1000 Ang^3
#
#
#
# Elastic Constant Matrix: (Units=GPa)
#
#
# Indices 1 2 3 4 5 6 
#
# 1 110.1275 15.2046 20.2855 0.0000 23.1254 0.0000
# 2 15.2046 22.4947 -0.1904 0.0000 4.5619 0.0000
# 3 20.2855 -0.1904 38.1856 0.0000 22.2321 0.0000
# 4 0.0000 0.0000 0.0000 10.6348 0.0000 4.1680
# 5 23.1254 4.5619 22.2321 0.0000 40.7212 0.0000
# 6 0.0000 0.0000 0.0000 4.1680 0.0000 20.9303
#
#
#
# Elastic Compliance Matrix: (Units=1/GPa)
#
#
# Indices 1 2 3 4 5 6 
#
# 1 0.011565 -0.007140 -0.004136 0.000000 -0.003510 0.000000
# 2 -0.007140 0.050475 0.007295 0.000000 -0.005582 0.000000
# 3 -0.004136 0.007295 0.040358 0.000000 -0.020502 0.000000
# 4 0.000000 0.000000 0.000000 0.101990 0.000000 -0.020310
# 5 -0.003510 -0.005582 -0.020502 0.000000 0.038369 0.000000
# 6 0.000000 0.000000 0.000000 -0.020310 0.000000 0.051822
#
#
# Mechanical properties :
#
#
# Convention : Reuss Voigt Hill
#
# Bulk Modulus (GPa) = 10.58921 26.82304 18.70612
# Shear Modulus (GPa) = 14.96914 23.49114 19.23014
#
# Velocity S-wave (km/s) = 2.57632 3.22741 2.92007
# Velocity P-wave (km/s) = 3.68039 5.07758 4.43436
#
# Compressibility (1/GPa) = 0.09443574
#
# Stress axis : x y z
#
# Youngs Moduli (GPa) = 86.46744 19.81178 24.77818
#
# Poissons Ratio (x) = 0.14146 0.10248
# Poissons Ratio (y) = 0.61740 -0.18076
# Poissons Ratio (z) = 0.35762 -0.14453
#
# Static dielectric constant tensor:
#      x y z
#    x 1.944900 0.000000 0.022190 
#    y 0.000000 1.846760 0.000000 
#    z 0.022190 0.000000 1.843490 
# 
# From -- ./inp_files/181086.got.cif
#   From: 2010.05.17/outbox.cif.g08.bks.cpg/sg12_91_cif.got.tgz:181086.got - 2010.06.03 13:09:07.
