data_PCOD9188431
_publ_section_title
;
Structure prediction by ZEFSAII (Michael W. Deem and Ramdas Pophale) SiO2 
 PCOD9188431
Probable space group: C 2/M
;
_chemical_formula_sum "Si O2"
_cell_formula_units_Z 56
_cell_length_a 21.092777
_cell_length_b 8.384798
_cell_length_c 28.624233
_cell_angle_alpha 90.000000
_cell_angle_beta 145.212408
_cell_angle_gamma 90.000000
_cell_volume 2888.305108
_symmetry_space_group_name_H-M "C 2/M"
_symmetry_group_IT_number 12
_symmetry_cell_setting 'monoclinic'
loop_
_space_group_symop_operation_xyz
x,y,z
-x,y,-z
-x,-y,-z
x,-y,z
1/2+x,1/2+y,z
1/2-x,1/2+y,-z
1/2-x,1/2-y,-z
1/2+x,1/2-y,z
loop_
_atom_site_type_symbol
_atom_site_label
_atom_site_fract_x
_atom_site_fract_y
_atom_site_fract_z
Si Si1 0.178090 0.190638 0.716675
Si Si2 0.968526 0.309798 0.532927
Si Si3 0.087853 0.305391 0.184555
Si Si4 0.532790 0.194897 0.255958
Si Si5 0.194388 0.309156 0.832317
Si Si6 0.756310 0.690192 0.556691
Si Si7 0.568701 0.807116 0.995182
O O1 0.288562 0.245012 0.755865
O O2 0.192104 0.234905 0.779283
O O3 0.068051 0.265667 0.628100
O O4 0.170144 0.000000 0.707582
O O5 0.956993 0.500000 0.524344
O O6 0.853224 0.239523 0.481396
O O7 0.000000 0.251496 0.500000
O O8 0.088444 0.500000 0.184705
O O9 0.055049 0.252311 0.216449
O O10 0.999804 0.255337 0.091837
O O11 0.414155 0.244280 0.204685
O O12 0.633076 0.249109 0.350005
O O13 0.533819 0.000000 0.256189
O O14 0.189922 0.500000 0.824822
O O15 0.308040 0.260738 0.926375
O O16 0.762060 0.500000 0.559002
O O17 0.750000 0.750000 0.500000
O O18 0.575290 0.000000 0.998911
O O19 0.500000 0.760797 0.000000
#
# Coordination Sequence:
#
# PCOD9188431 Si02
#       7
#     8   8   8   8   8   8   8
#     4  11  21  37  62  87 110 149 203 246 288 346
#     4  11  24  40  58  86 124 158 193 248 309 358
#     4   9  18  35  59  82 111 149 192 241 286 337
#     4   9  20  37  56  82 114 150 189 236 291 345
#     4  11  22  36  57  86 120 150 185 235 294 354
#     4  11  22  39  63  87 117 158 206 251 301 362
#     4  10  19  36  59  85 114 148 193 239 284 338
#
# _framework density 19.388534
#
# number of rings (size 3 to 8) (size 9 to 14) (size 15 to 20)
#    0.000    1.714    1.429    3.429    0.000    4.286 
#    0.000    2.143    0.000    6.000    0.000    0.000 
#    0.000    0.000    0.000    0.000    0.000    0.000 
#
# Total GULP energy -156499.257164 kJ/mol
# GULP energy per Si atom -5589.259184 kJ/mol
# Density = 1.934441 g / cm^3
# Si number density = 19.388534 Si / 1000 Ang^3
#
#
#
# Elastic Constant Matrix: (Units=GPa)
#
#
# Indices 1 2 3 4 5 6 
#
# 1 163.7935 14.6140 68.6677 0.0000 14.5192 0.0001
# 2 14.6140 19.5893 6.8328 -0.0001 1.2841 0.0008
# 3 68.6677 6.8328 142.3282 0.0000 15.7208 0.0000
# 4 0.0000 -0.0001 0.0000 29.5951 0.0000 3.2890
# 5 14.5192 1.2841 15.7208 0.0000 38.5620 0.0000
# 6 0.0001 0.0008 0.0000 3.2890 0.0000 22.2722
#
#
#
# Elastic Compliance Matrix: (Units=1/GPa)
#
#
# Indices 1 2 3 4 5 6 
#
# 1 0.008142 -0.004744 -0.003539 0.000000 -0.001465 0.000000
# 2 -0.004744 0.054702 -0.000349 0.000000 0.000107 -0.000002
# 3 -0.003539 -0.000349 0.009007 0.000000 -0.002328 0.000000
# 4 0.000000 0.000000 0.000000 0.034353 0.000000 -0.005073
# 5 -0.001465 0.000107 -0.002328 0.000000 0.027429 0.000000
# 6 0.000000 -0.000002 0.000000 -0.005073 0.000000 0.045648
#
#
# Mechanical properties :
#
#
# Convention : Reuss Voigt Hill
#
# Bulk Modulus (GPa) = 18.31908 56.21558 37.26733
# Shear Modulus (GPa) = 23.28390 33.79229 28.53810
#
# Velocity S-wave (km/s) = 3.46918 4.17934 3.84070
# Velocity P-wave (km/s) = 5.05132 7.23507 6.23948
#
# Compressibility (1/GPa) = 0.05458789
#
# Stress axis : x y z
#
# Youngs Moduli (GPa) = 122.82238 18.28088 111.02304
#
# Poissons Ratio (x) = 0.08672 0.39286
# Poissons Ratio (y) = 0.58263 0.03878
# Poissons Ratio (z) = 0.43462 0.00638
#
# Static dielectric constant tensor:
#      x y z
#    x 1.649190 0.000000 0.004070 
#    y 0.000000 1.676010 0.000000 
#    z 0.004070 0.000000 1.635900 
# 
# From -- ./inp_files/363246.got.cif
#   From: 2010.05.17/outbox.cif.g08.bks.cpg/sg12_182_cif.got.tgz:363246.got - 2010.06.03 13:09:07.
