data_PCOD9188242
_publ_section_title
;
Structure prediction by ZEFSAII (Michael W. Deem and Ramdas Pophale) SiO2 
 PCOD9188242
Probable space group: C 2/M
;
_chemical_formula_sum "Si O2"
_cell_formula_units_Z 40
_cell_length_a 20.533101
_cell_length_b 9.047437
_cell_length_c 18.351209
_cell_angle_alpha 90.000000
_cell_angle_beta 136.412993
_cell_angle_gamma 90.000000
_cell_volume 2350.449421
_symmetry_space_group_name_H-M "C 2/M"
_symmetry_group_IT_number 12
_symmetry_cell_setting 'monoclinic'
loop_
_space_group_symop_operation_xyz
x,y,z
-x,y,-z
-x,-y,-z
x,-y,z
1/2+x,1/2+y,z
1/2-x,1/2+y,-z
1/2-x,1/2-y,-z
1/2+x,1/2-y,z
loop_
_atom_site_type_symbol
_atom_site_label
_atom_site_fract_x
_atom_site_fract_y
_atom_site_fract_z
Si Si1 0.346238 0.324126 0.051071
Si Si2 0.300910 0.176268 0.708969
Si Si3 0.972970 0.323748 0.736697
Si Si4 0.891174 0.675487 0.934927
Si Si5 0.177716 0.676234 0.498520
O O1 0.339598 0.500000 0.048893
O O2 0.433661 0.266158 0.170321
O O3 0.250000 0.250000 0.000000
O O4 0.366669 0.269014 0.985685
O O5 0.393040 0.210192 0.733382
O O6 0.326874 0.211922 0.812912
O O7 0.210840 0.258898 0.602275
O O8 0.286547 0.000000 0.691130
O O9 0.991716 0.500000 0.756946
O O10 0.924660 0.292269 0.619309
O O11 0.880728 0.500000 0.942788
O O12 0.000000 0.698140 0.000000
O O13 0.189936 0.500000 0.507463
O O14 0.250000 0.750000 0.500000
#
# Coordination Sequence:
#
# PCOD9188242 Si02
#       5
#     8   8   8   8   8
#     4  12  25  38  55  79 108 144 184 226 269 321
#     4   9  17  30  52  79 108 141 173 214 267 318
#     4   9  17  33  52  74 106 144 179 215 267 318
#     4  10  19  36  58  79 110 146 177 218 273 323
#     4   9  17  28  46  73 107 141 173 216 265 313
#
# _framework density 17.018021999999998
#
# number of rings (size 3 to 8) (size 9 to 14) (size 15 to 20)
#    0.000    2.200    2.000    3.600    0.000    5.200 
#    0.000    0.000    0.000    1.200    0.000    8.400 
#    0.000    0.000    0.000    0.000    0.000    0.000 
#
# Total GULP energy -111537.402736 kJ/mol
# GULP energy per Si atom -5576.870137 kJ/mol
# Density = 1.697929 g / cm^3
# Si number density = 17.018022 Si / 1000 Ang^3
#
#
#
# Elastic Constant Matrix: (Units=GPa)
#
#
# Indices 1 2 3 4 5 6 
#
# 1 50.8656 49.9823 53.1710 0.0000 9.0129 0.0000
# 2 49.9823 92.3537 94.3191 0.0000 6.2338 0.0000
# 3 53.1710 94.3191 186.9474 0.0000 -0.7264 0.0000
# 4 0.0000 0.0000 0.0000 36.5149 0.0000 -1.1406
# 5 9.0129 6.2338 -0.7264 0.0000 14.0720 0.0000
# 6 0.0000 0.0000 0.0000 -1.1406 0.0000 22.0177
#
#
#
# Elastic Compliance Matrix: (Units=1/GPa)
#
#
# Indices 1 2 3 4 5 6 
#
# 1 0.047189 -0.021324 -0.002744 0.000000 -0.020918 0.000000
# 2 -0.021324 0.033634 -0.010911 0.000000 -0.001805 0.000000
# 3 -0.002744 -0.010911 0.011662 0.000000 0.007193 0.000000
# 4 0.000000 0.000000 0.000000 0.027430 0.000000 0.001421
# 5 -0.020918 -0.001805 0.007193 0.000000 0.085632 0.000000
# 6 0.000000 0.000000 0.000000 0.001421 0.000000 0.045492
#
#
# Mechanical properties :
#
#
# Convention : Reuss Voigt Hill
#
# Bulk Modulus (GPa) = 44.39297 80.56793 62.48045
# Shear Modulus (GPa) = 15.22044 23.36722 19.29383
#
# Velocity S-wave (km/s) = 2.99385 3.70954 3.37074
# Velocity P-wave (km/s) = 6.17198 8.11129 7.20716
#
# Compressibility (1/GPa) = 0.02252609
#
# Stress axis : x y z
#
# Youngs Moduli (GPa) = 21.19158 29.73193 85.74652
#
# Poissons Ratio (x) = 0.63402 0.23527
# Poissons Ratio (y) = 0.45190 0.93558
# Poissons Ratio (z) = 0.05815 0.32441
#
# Static dielectric constant tensor:
#      x y z
#    x 1.546820 0.000000 -0.014370 
#    y 0.000000 1.563920 0.000000 
#    z -0.014370 0.000000 1.614520 
# 
# From -- ./inp_files/221225.got.cif
#   From: 2010.05.17/outbox.cif.g08.bks.cpg/sg12_111_cif.got.tgz:221225.got - 2010.06.03 13:09:07.
