data_PCOD9188532
_publ_section_title
;
Structure prediction by ZEFSAII (Michael W. Deem and Ramdas Pophale) SiO2 
 PCOD9188532
Probable space group: C 2/M
;
_chemical_formula_sum "Si O2"
_cell_formula_units_Z 48
_cell_length_a 15.611968
_cell_length_b 8.021049
_cell_length_c 21.068220
_cell_angle_alpha 90.000000
_cell_angle_beta 111.622143
_cell_angle_gamma 90.000000
_cell_volume 2452.611356
_symmetry_space_group_name_H-M "C 2/M"
_symmetry_group_IT_number 12
_symmetry_cell_setting 'monoclinic'
loop_
_space_group_symop_operation_xyz
x,y,z
-x,y,-z
-x,-y,-z
x,-y,z
1/2+x,1/2+y,z
1/2-x,1/2+y,-z
1/2-x,1/2-y,-z
1/2+x,1/2-y,z
loop_
_atom_site_type_symbol
_atom_site_label
_atom_site_fract_x
_atom_site_fract_y
_atom_site_fract_z
Si Si1 0.281407 0.801512 0.578277
Si Si2 0.001482 0.700991 0.829516
Si Si3 0.702922 0.201244 0.921620
Si Si4 0.673242 0.799220 0.672131
Si Si5 0.195577 0.200721 0.177772
Si Si6 0.481486 0.795887 0.677501
O O1 0.250000 0.750000 0.500000
O O2 0.210554 0.747522 0.613511
O O3 0.383648 0.736759 0.623860
O O4 0.286625 0.000000 0.581419
O O5 0.004004 0.500000 0.829000
O O6 0.910331 0.753097 0.841737
O O7 0.993398 0.756627 0.753968
O O8 0.097477 0.760462 0.885633
O O9 0.760397 0.261035 0.876035
O O10 0.701118 0.000000 0.918281
O O11 0.750000 0.250000 0.000000
O O12 0.744390 0.737852 0.745727
O O13 0.570393 0.741523 0.661566
O O14 0.672186 0.000000 0.675526
O O15 0.202361 0.000000 0.179729
O O16 0.480911 0.000000 0.676988
#
# Coordination Sequence:
#
# PCOD9188532 Si02
#       6
#     8   8   8   8   8   8
#     4  11  23  39  58  84 117 150 185 231 283 334
#     4  10  19  36  60  84 110 147 193 233 272 333
#     4  10  22  39  58  82 117 153 187 232 283 335
#     4  10  19  36  61  85 109 144 190 233 278 334
#     4  10  20  35  58  86 113 144 184 236 286 329
#     4   9  18  35  60  83 108 147 190 226 273 337
#
# _framework density 19.570976999999999
#
# number of rings (size 3 to 8) (size 9 to 14) (size 15 to 20)
#    0.000    2.000    3.333    0.500    0.000    2.667 
#    0.000    9.167    0.000    0.000    0.000    0.000 
#    0.000    0.000    0.000    0.000    0.000    0.000 
#
# Total GULP energy -134028.821659 kJ/mol
# GULP energy per Si atom -5584.534236 kJ/mol
# Density = 1.952643 g / cm^3
# Si number density = 19.570977 Si / 1000 Ang^3
#
#
#
# Elastic Constant Matrix: (Units=GPa)
#
#
# Indices 1 2 3 4 5 6 
#
# 1 130.9632 9.6895 26.8656 0.0000 -1.0379 0.0000
# 2 9.6895 14.0333 6.8748 0.0000 0.8789 0.0000
# 3 26.8656 6.8748 94.0449 0.0000 -0.5387 0.0000
# 4 0.0000 0.0000 0.0000 26.8143 0.0000 -3.0491
# 5 -1.0379 0.8789 -0.5387 0.0000 35.4821 0.0000
# 6 0.0000 0.0000 0.0000 -3.0491 0.0000 27.8875
#
#
#
# Elastic Compliance Matrix: (Units=1/GPa)
#
#
# Indices 1 2 3 4 5 6 
#
# 1 0.008416 -0.004828 -0.002049 0.000000 0.000335 0.000000
# 2 -0.004828 0.076806 -0.004248 0.000000 -0.002108 0.000000
# 3 -0.002049 -0.004248 0.011530 0.000000 0.000220 0.000000
# 4 0.000000 0.000000 0.000000 0.037763 0.000000 0.004129
# 5 0.000335 -0.002108 0.000220 0.000000 0.028249 0.000000
# 6 0.000000 0.000000 0.000000 0.004129 0.000000 0.036310
#
#
# Mechanical properties :
#
#
# Convention : Reuss Voigt Hill
#
# Bulk Modulus (GPa) = 13.42236 36.21125 24.81681
# Shear Modulus (GPa) = 20.31223 31.07756 25.69489
#
# Velocity S-wave (km/s) = 3.22510 3.98922 3.62734
# Velocity P-wave (km/s) = 4.55429 6.30565 5.50013
#
# Compressibility (1/GPa) = 0.07450253
#
# Stress axis : x y z
#
# Youngs Moduli (GPa) = 118.82153 13.01987 86.72717
#
# Poissons Ratio (x) = 0.06286 0.17773
# Poissons Ratio (y) = 0.57366 0.36837
# Poissons Ratio (z) = 0.24350 0.05530
#
# Static dielectric constant tensor:
#      x y z
#    x 1.705500 0.000000 -0.092950 
#    y 0.000000 1.712440 0.000000 
#    z -0.092950 0.000000 2.014210 
# 
# From -- ./inp_files/261801.got.cif
#   From: 2010.05.17/outbox.cif.g08.bks.cpg/sg12_131_cif.got.tgz:261801.got - 2010.06.03 13:09:07.
