data_PCOD9188114
_publ_section_title
;
Structure prediction by ZEFSAII (Michael W. Deem and Ramdas Pophale) SiO2 
 PCOD9188114
Probable space group: C 2/M
;
_chemical_formula_sum "Si O2"
_cell_formula_units_Z 64
_cell_length_a 15.622410
_cell_length_b 19.905633
_cell_length_c 11.708291
_cell_angle_alpha 90.000000
_cell_angle_beta 110.113599
_cell_angle_gamma 90.000000
_cell_volume 3418.920318
_symmetry_space_group_name_H-M "C 2/M"
_symmetry_group_IT_number 12
_symmetry_cell_setting 'monoclinic'
loop_
_space_group_symop_operation_xyz
x,y,z
-x,y,-z
-x,-y,-z
x,-y,z
1/2+x,1/2+y,z
1/2-x,1/2+y,-z
1/2-x,1/2-y,-z
1/2+x,1/2-y,z
loop_
_atom_site_type_symbol
_atom_site_label
_atom_site_fract_x
_atom_site_fract_y
_atom_site_fract_z
Si Si1 0.230222 0.130418 0.801508
Si Si2 0.833967 0.717875 0.188974
Si Si3 0.364691 0.672151 0.917306
Si Si4 0.907913 0.681053 0.991139
Si Si5 0.111749 0.282779 0.534634
Si Si6 0.572668 0.426201 0.859404
Si Si7 0.125547 0.077798 0.297062
Si Si8 0.264554 0.649885 0.456763
O O1 0.180516 0.202695 0.799975
O O2 0.323473 0.137209 0.912600
O O3 0.161879 0.077590 0.823427
O O4 0.248053 0.121652 0.675939
O O5 0.739718 0.687660 0.098478
O O6 0.856131 0.692386 0.325365
O O7 0.904665 0.700957 0.122608
O O8 0.403317 0.747299 0.921384
O O9 0.358914 0.628074 0.801237
O O10 0.416366 0.630144 0.038170
O O11 0.000000 0.645700 0.000000
O O12 0.166205 0.328393 0.465851
O O13 0.163356 0.212064 0.529541
O O14 0.000000 0.278133 0.500000
O O15 0.564469 0.500000 0.910100
O O16 0.483982 0.416416 0.739935
O O17 0.184368 0.101447 0.431195
O O18 0.145729 0.000000 0.278318
#
# Coordination Sequence:
#
# PCOD9188114 Si02
#       8
#     8   8   8   8   8   8   8   8
#     4  10  21  37  53  82 118 147 190 233 281 344
#     4  10  19  36  56  84 116 147 181 227 292 339
#     4  11  19  37  56  84 119 146 183 235 285 337
#     4  11  21  32  59  89 116 147 180 234 294 341
#     4  10  22  36  61  87 115 150 191 236 283 343
#     4  11  22  36  57  83 113 155 195 230 280 343
#     4  11  24  38  57  83 114 153 195 233 278 339
#     4  10  23  39  55  85 118 152 189 236 286 334
#
# _framework density 18.719360000000002
#
# number of rings (size 3 to 8) (size 9 to 14) (size 15 to 20)
#    0.000    1.500    3.750    2.250    7.000    1.500 
#    0.000    1.250    0.000    0.750    0.000    0.000 
#    0.000    0.000    0.000    0.000    0.000    0.000 
#
# Total GULP energy -178295.307915 kJ/mol
# GULP energy per Si atom -5571.728372 kJ/mol
# Density = 1.867675 g / cm^3
# Si number density = 18.719360 Si / 1000 Ang^3
#
#
#
# Elastic Constant Matrix: (Units=GPa)
#
#
# Indices 1 2 3 4 5 6 
#
# 1 119.6411 16.7454 24.2103 0.0000 -3.5179 0.0000
# 2 16.7454 41.5105 4.5412 0.0000 -2.4846 0.0000
# 3 24.2103 4.5412 77.5534 0.0000 -19.2389 0.0000
# 4 0.0000 0.0000 0.0000 16.7842 0.0000 5.7194
# 5 -3.5179 -2.4846 -19.2389 0.0000 27.0207 0.0000
# 6 0.0000 0.0000 0.0000 5.7194 0.0000 16.7173
#
#
#
# Elastic Compliance Matrix: (Units=1/GPa)
#
#
# Indices 1 2 3 4 5 6 
#
# 1 0.009435 -0.003548 -0.003053 0.000000 -0.001272 0.000000
# 2 -0.003548 0.025629 0.000094 0.000000 0.001961 0.000000
# 3 -0.003053 0.000094 0.016694 0.000000 0.011498 0.000000
# 4 0.000000 0.000000 0.000000 0.067442 0.000000 -0.023074
# 5 -0.001272 0.001961 0.011498 0.000000 0.045210 0.000000
# 6 0.000000 0.000000 0.000000 -0.023074 0.000000 0.067712
#
#
# Mechanical properties :
#
#
# Convention : Reuss Voigt Hill
#
# Bulk Modulus (GPa) = 25.81153 36.63319 31.22236
# Shear Modulus (GPa) = 19.37585 24.98500 22.18042
#
# Velocity S-wave (km/s) = 3.22074 3.65734 3.44596
# Velocity P-wave (km/s) = 5.25828 6.11939 5.70511
#
# Compressibility (1/GPa) = 0.03874237
#
# Stress axis : x y z
#
# Youngs Moduli (GPa) = 105.98364 39.01854 59.90094
#
# Poissons Ratio (x) = 0.13845 0.18289
# Poissons Ratio (y) = 0.37607 -0.00560
# Poissons Ratio (z) = 0.32359 -0.00365
#
# Static dielectric constant tensor:
#      x y z
#    x 1.708920 0.000000 -0.002930 
#    y 0.000000 1.653860 0.000000 
#    z -0.002930 0.000000 1.640870 
# 
# From -- ./inp_files/147670.got.cif
#   From: 2010.05.17/outbox.cif.g08.bks.cpg/sg12_74_cif.got.tgz:147670.got - 2010.06.03 13:09:07.
