data_PCOD9188733
_publ_section_title
;
Structure prediction by ZEFSAII (Michael W. Deem and Ramdas Pophale) SiO2 
 PCOD9188733
Probable space group: C 2/M
;
_chemical_formula_sum "Si O2"
_cell_formula_units_Z 48
_cell_length_a 19.795539
_cell_length_b 14.168828
_cell_length_c 11.954022
_cell_angle_alpha 90.000000
_cell_angle_beta 132.741451
_cell_angle_gamma 90.000000
_cell_volume 2462.419509
_symmetry_space_group_name_H-M "C 2/M"
_symmetry_group_IT_number 12
_symmetry_cell_setting 'monoclinic'
loop_
_space_group_symop_operation_xyz
x,y,z
-x,y,-z
-x,-y,-z
x,-y,z
1/2+x,1/2+y,z
1/2-x,1/2+y,-z
1/2-x,1/2-y,-z
1/2+x,1/2-y,z
loop_
_atom_site_type_symbol
_atom_site_label
_atom_site_fract_x
_atom_site_fract_y
_atom_site_fract_z
Si Si1 0.681131 0.389616 0.460518
Si Si2 0.496732 0.614055 0.129312
Si Si3 0.357932 0.732133 0.128416
Si Si4 0.073155 0.611951 0.928813
Si Si5 0.135675 0.385394 0.236501
Si Si6 0.609128 0.601736 0.631641
O O1 0.690587 0.500000 0.436463
O O2 0.595567 0.353441 0.291182
O O3 0.784495 0.349437 0.591060
O O4 0.647604 0.386648 0.551161
O O5 0.488593 0.500000 0.138040
O O6 0.412921 0.665618 0.100158
O O7 0.500000 0.631830 0.000000
O O8 0.401609 0.833716 0.154119
O O9 0.371313 0.684959 0.262639
O O10 0.250000 0.750000 0.000000
O O11 0.082702 0.500000 0.930161
O O12 0.967313 0.633669 0.838679
O O13 0.135764 0.644301 0.105615
O O14 0.145198 0.500000 0.244308
O O15 0.500000 0.595966 0.500000
O O16 0.644227 0.500000 0.715277
#
# Coordination Sequence:
#
# PCOD9188733 Si02
#       6
#     8   8   8   8   8   8
#     4   9  16  32  61  88 109 144 194 249 304 355
#     4  10  22  40  61  89 124 155 192 255 325 374
#     4  12  24  36  57  87 121 161 206 248 298 370
#     4   9  19  35  54  82 120 155 190 242 294 353
#     4   8  15  31  57  83 108 145 194 242 295 349
#     4  10  19  36  61  87 116 150 198 256 303 345
#
# _framework density 19.493022
#
# number of rings (size 3 to 8) (size 9 to 14) (size 15 to 20)
#    0.000    2.333    1.667    2.500    2.333    2.667 
#    0.000    2.500    0.000    0.500    0.000    0.000 
#    0.000    0.000    0.000    0.000    0.000    0.000 
#
# Total GULP energy -133761.505890 kJ/mol
# GULP energy per Si atom -5573.396079 kJ/mol
# Density = 1.944865 g / cm^3
# Si number density = 19.493022 Si / 1000 Ang^3
#
#
#
# Elastic Constant Matrix: (Units=GPa)
#
#
# Indices 1 2 3 4 5 6 
#
# 1 50.6150 16.9027 40.0090 0.0000 13.2665 0.0000
# 2 16.9027 61.9590 45.9993 0.0000 -1.4582 0.0000
# 3 40.0090 45.9993 140.4667 0.0000 15.3285 0.0000
# 4 0.0000 0.0000 0.0000 28.9539 0.0000 -2.3829
# 5 13.2665 -1.4582 15.3285 0.0000 28.8009 0.0000
# 6 0.0000 0.0000 0.0000 -2.3829 0.0000 22.0351
#
#
#
# Elastic Compliance Matrix: (Units=1/GPa)
#
#
# Indices 1 2 3 4 5 6 
#
# 1 0.028149 -0.003679 -0.005709 0.000000 -0.010114 0.000000
# 2 -0.003679 0.022532 -0.007050 0.000000 0.006587 0.000000
# 3 -0.005709 -0.007050 0.011472 0.000000 -0.003833 0.000000
# 4 0.000000 0.000000 0.000000 0.034848 0.000000 0.003769
# 5 -0.010114 0.006587 -0.003833 0.000000 0.041753 0.000000
# 6 0.000000 0.000000 0.000000 0.003769 0.000000 0.045790
#
#
# Mechanical properties :
#
#
# Convention : Reuss Voigt Hill
#
# Bulk Modulus (GPa) = 34.15514 50.98476 42.56995
# Shear Modulus (GPa) = 22.00904 25.96664 23.98784
#
# Velocity S-wave (km/s) = 3.36381 3.65375 3.51178
# Velocity P-wave (km/s) = 5.71373 6.63416 6.19107
#
# Compressibility (1/GPa) = 0.02927817
#
# Stress axis : x y z
#
# Youngs Moduli (GPa) = 35.52475 44.38112 87.16710
#
# Poissons Ratio (x) = 0.16326 0.49768
# Poissons Ratio (y) = 0.13068 0.61451
# Poissons Ratio (z) = 0.20283 0.31288
#
# Static dielectric constant tensor:
#      x y z
#    x 1.701400 0.000000 0.048160 
#    y 0.000000 1.761680 0.000000 
#    z 0.048160 0.000000 1.718540 
# 
# From -- ./inp_files/167643.got.cif
#   From: 2010.05.17/outbox.cif.g08.bks.cpg/sg12_84_cif.got.tgz:167643.got - 2010.06.03 13:09:07.
