data_PCOD9188228
_publ_section_title
;
Structure prediction by ZEFSAII (Michael W. Deem and Ramdas Pophale) SiO2 
 PCOD9188228
Probable space group: C 2/M
;
_chemical_formula_sum "Si O2"
_cell_formula_units_Z 56
_cell_length_a 19.527075
_cell_length_b 7.635516
_cell_length_c 20.863322
_cell_angle_alpha 90.000000
_cell_angle_beta 54.541865
_cell_angle_gamma 90.000000
_cell_volume 2533.793719
_symmetry_space_group_name_H-M "C 2/M"
_symmetry_group_IT_number 12
_symmetry_cell_setting 'monoclinic'
loop_
_space_group_symop_operation_xyz
x,y,z
-x,y,-z
-x,-y,-z
x,-y,z
1/2+x,1/2+y,z
1/2-x,1/2+y,-z
1/2-x,1/2-y,-z
1/2+x,1/2-y,z
loop_
_atom_site_type_symbol
_atom_site_label
_atom_site_fract_x
_atom_site_fract_y
_atom_site_fract_z
Si Si1 0.665932 0.706158 0.190642
Si Si2 0.625304 0.700381 0.716403
Si Si3 0.301312 0.205255 0.581377
Si Si4 0.188041 0.207542 0.974105
Si Si5 0.546160 0.284190 0.139231
Si Si6 0.095321 0.707335 0.590299
Si Si7 0.413338 0.710614 0.636622
O O1 0.648780 0.500000 0.202459
O O2 0.761425 0.727472 0.114977
O O3 0.602409 0.774803 0.169993
O O4 0.643770 0.774994 0.272655
O O5 0.636160 0.500000 0.732982
O O6 0.717598 0.783319 0.659235
O O7 0.549271 0.776920 0.799522
O O8 0.593021 0.702420 0.660413
O O9 0.332612 0.277917 0.496489
O O10 0.376654 0.219223 0.590675
O O11 0.283217 0.000000 0.579911
O O12 0.182498 0.000000 0.970653
O O13 0.250000 0.250000 0.000000
O O14 0.097239 0.271225 0.047989
O O15 0.545554 0.500000 0.140477
O O16 0.107805 0.500000 0.594310
O O17 0.007319 0.733833 0.602335
O O18 0.410860 0.500000 0.633933
#
# Coordination Sequence:
#
# PCOD9188228 Si02
#       7
#     8   8   8   8   8   8   8
#     4   9  17  31  49  73 101 131 171 216 258 306
#     4  10  19  36  58  77 105 144 178 211 262 317
#     4  10  23  38  53  77 109 141 174 220 269 313
#     4   9  16  26  44  73 105 133 164 209 257 304
#     4   8  14  28  49  73 101 130 168 210 248 302
#     4  11  22  36  54  80 109 134 174 227 268 310
#     4  11  22  37  57  77 103 141 182 220 263 319
#
# _framework density 22.101244999999999
#
# number of rings (size 3 to 8) (size 9 to 14) (size 15 to 20)
#    0.000    2.286    1.429    3.000    0.000    4.571 
#    0.000    0.714    0.000    0.857    0.000    6.000 
#    0.000    0.000    0.000    0.000    0.000    0.000 
#
# Total GULP energy -156232.482075 kJ/mol
# GULP energy per Si atom -5579.731503 kJ/mol
# Density = 2.205094 g / cm^3
# Si number density = 22.101245 Si / 1000 Ang^3
#
#
#
# Elastic Constant Matrix: (Units=GPa)
#
#
# Indices 1 2 3 4 5 6 
#
# 1 49.3076 -19.5643 15.2234 0.0000 -19.8664 0.0006
# 2 -19.5643 59.9292 -31.7558 0.0000 13.9485 0.0006
# 3 15.2234 -31.7558 195.1034 0.0000 -49.4325 -0.0001
# 4 0.0000 0.0000 0.0000 15.4579 0.0000 3.0911
# 5 -19.8664 13.9485 -49.4325 0.0000 40.7039 0.0001
# 6 0.0006 0.0006 -0.0001 3.0911 0.0001 9.0889
#
#
#
# Elastic Compliance Matrix: (Units=1/GPa)
#
#
# Indices 1 2 3 4 5 6 
#
# 1 0.028168 0.007227 0.002650 0.000000 0.014489 -0.000002
# 2 0.007227 0.020538 0.002729 0.000000 -0.000196 -0.000002
# 3 0.002650 0.002729 0.007878 0.000000 0.009925 0.000000
# 4 0.000000 0.000000 0.000000 0.069413 0.000000 -0.023607
# 5 0.014489 -0.000196 0.009925 0.000000 0.043760 -0.000001
# 6 -0.000002 -0.000002 0.000000 -0.023607 -0.000001 0.118053
#
#
# Mechanical properties :
#
#
# Convention : Reuss Voigt Hill
#
# Bulk Modulus (GPa) = 12.22560 25.79408 19.00984
# Shear Modulus (GPa) = 17.24959 35.74591 26.49775
#
# Velocity S-wave (km/s) = 2.79674 4.02602 3.46631
# Velocity P-wave (km/s) = 3.99658 5.77131 4.96390
#
# Compressibility (1/GPa) = 0.08179559
#
# Stress axis : x y z
#
# Youngs Moduli (GPa) = 35.50087 48.69126 126.94293
#
# Poissons Ratio (x) = -0.35191 -0.33634
# Poissons Ratio (y) = -0.25658 -0.34645
# Poissons Ratio (z) = -0.09406 -0.13289
#
# Static dielectric constant tensor:
#      x y z
#    x 1.774410 0.000000 -0.041300 
#    y 0.000000 2.566920 0.000000 
#    z -0.041300 0.000000 1.868920 
# 
# From -- ./inp_files/348485.got.cif
#   From: 2010.05.17/outbox.cif.g08.bks.cpg/sg12_175_cif.got.tgz:348485.got - 2010.06.03 13:09:07.
