data_PCOD9188887
_publ_section_title
;
Structure prediction by ZEFSAII (Michael W. Deem and Ramdas Pophale) SiO2 
 PCOD9188887
Probable space group: C 2/M
;
_chemical_formula_sum "Si O2"
_cell_formula_units_Z 48
_cell_length_a 13.670629
_cell_length_b 13.877493
_cell_length_c 12.447239
_cell_angle_alpha 90.000000
_cell_angle_beta 76.863133
_cell_angle_gamma 90.000000
_cell_volume 2299.617789
_symmetry_space_group_name_H-M "C 2/M"
_symmetry_group_IT_number 12
_symmetry_cell_setting 'monoclinic'
loop_
_space_group_symop_operation_xyz
x,y,z
-x,y,-z
-x,-y,-z
x,-y,z
1/2+x,1/2+y,z
1/2-x,1/2+y,-z
1/2-x,1/2-y,-z
1/2+x,1/2-y,z
loop_
_atom_site_type_symbol
_atom_site_label
_atom_site_fract_x
_atom_site_fract_y
_atom_site_fract_z
Si Si1 0.174959 0.225204 0.877986
Si Si2 0.103683 0.261434 0.123771
Si Si3 0.919209 0.113478 0.681412
Si Si4 0.744431 0.117306 0.560990
Si Si5 0.856846 0.885941 0.333015
Si Si6 0.091733 0.385256 0.775520
O O1 0.286750 0.193747 0.880920
O O2 0.140093 0.166682 0.782080
O O3 0.167984 0.336679 0.841331
O O4 0.108550 0.222445 0.001338
O O5 0.095066 0.173583 0.207561
O O6 0.014407 0.335562 0.172021
O O7 0.837973 0.145795 0.613808
O O8 0.038065 0.125139 0.628943
O O9 0.902320 0.000000 0.702509
O O10 0.768224 0.150087 0.434028
O O11 0.640333 0.140914 0.647234
O O12 0.746975 0.000000 0.555599
O O13 0.844110 0.000000 0.316473
O O14 0.086772 0.500000 0.785989
#
# Coordination Sequence:
#
# PCOD9188887 Si02
#       6
#     8   8   8   8   8   8
#     4  11  24  41  62  88 126 163 208 260 312 378
#     4  11  24  41  59  93 126 157 210 266 310 372
#     4  10  19  36  62  92 124 159 204 260 314 367
#     4   9  19  38  63  92 124 160 212 261 304 372
#     4  10  21  38  62  93 127 163 204 259 319 372
#     4  11  23  42  66  91 123 168 213 258 312 372
#
# _framework density 20.873034000000001
#
# number of rings (size 3 to 8) (size 9 to 14) (size 15 to 20)
#    0.000    1.667    3.333    1.000    0.000    5.333 
#    0.000    5.833    0.000    3.000    0.000    0.000 
#    0.000    0.000    0.000    0.000    0.000    0.000 
#
# Total GULP energy -133935.113263 kJ/mol
# GULP energy per Si atom -5580.629719 kJ/mol
# Density = 2.082553 g / cm^3
# Si number density = 20.873034 Si / 1000 Ang^3
#
#
#
# Elastic Constant Matrix: (Units=GPa)
#
#
# Indices 1 2 3 4 5 6 
#
# 1 111.1440 34.2456 48.1529 0.0000 -12.2254 0.0000
# 2 34.2456 74.9746 61.7451 0.0000 -11.6815 0.0000
# 3 48.1529 61.7451 148.3834 0.0000 -13.9013 0.0000
# 4 0.0000 0.0000 0.0000 18.0928 0.0000 0.9630
# 5 -12.2254 -11.6815 -13.9013 0.0000 28.0003 0.0000
# 6 0.0000 0.0000 0.0000 0.9630 0.0000 23.2682
#
#
#
# Elastic Compliance Matrix: (Units=1/GPa)
#
#
# Indices 1 2 3 4 5 6 
#
# 1 0.011107 -0.002895 -0.002159 0.000000 0.002570 0.000000
# 2 -0.002895 0.021597 -0.007679 0.000000 0.003934 0.000000
# 3 -0.002159 -0.007679 0.010747 0.000000 0.001189 0.000000
# 4 0.000000 0.000000 0.000000 0.055393 0.000000 -0.002292
# 5 0.002570 0.003934 0.001189 0.000000 0.039067 0.000000
# 6 0.000000 0.000000 0.000000 -0.002292 0.000000 0.043072
#
#
# Mechanical properties :
#
#
# Convention : Reuss Voigt Hill
#
# Bulk Modulus (GPa) = 55.60121 69.19879 62.40000
# Shear Modulus (GPa) = 23.53558 26.56283 25.04920
#
# Velocity S-wave (km/s) = 3.36156 3.57121 3.46797
# Velocity P-wave (km/s) = 6.46238 7.08724 6.78201
#
# Compressibility (1/GPa) = 0.01798522
#
# Stress axis : x y z
#
# Youngs Moduli (GPa) = 90.02973 46.30280 93.05154
#
# Poissons Ratio (x) = 0.13404 0.20092
# Poissons Ratio (y) = 0.26062 0.71454
# Poissons Ratio (z) = 0.19439 0.35556
#
# Static dielectric constant tensor:
#      x y z
#    x 1.795860 0.000000 -0.046580 
#    y 0.000000 1.750780 0.000000 
#    z -0.046580 0.000000 1.768790 
# 
# From -- ./inp_files/142717.got.cif
#   From: 2010.05.17/outbox.cif.g08.bks.cpg/sg12_72_cif.got.tgz:142717.got - 2010.06.03 13:09:07.
