data_PCOD9188295
_publ_section_title
;
Structure prediction by ZEFSAII (Michael W. Deem and Ramdas Pophale) SiO2 
 PCOD9188295
Probable space group: C 2/M
;
_chemical_formula_sum "Si O2"
_cell_formula_units_Z 50
_cell_length_a 28.327938
_cell_length_b 7.824697
_cell_length_c 11.153191
_cell_angle_alpha 90.000000
_cell_angle_beta 70.591393
_cell_angle_gamma 90.000000
_cell_volume 2331.701095
_symmetry_space_group_name_H-M "C 2/M"
_symmetry_group_IT_number 12
_symmetry_cell_setting 'monoclinic'
loop_
_space_group_symop_operation_xyz
x,y,z
-x,y,-z
-x,-y,-z
x,-y,z
1/2+x,1/2+y,z
1/2-x,1/2+y,-z
1/2-x,1/2-y,-z
1/2+x,1/2-y,z
loop_
_atom_site_type_symbol
_atom_site_label
_atom_site_fract_x
_atom_site_fract_y
_atom_site_fract_z
Si Si1 0.474262 0.702854 0.647345
Si Si2 0.430452 0.201201 0.308348
Si Si3 0.074900 0.813910 0.949527
Si Si4 0.281362 0.206962 0.804193
Si Si5 0.000000 0.500000 0.000000
Si Si6 0.677348 0.799383 0.971374
Si Si7 0.621067 0.794653 0.401976
O O1 0.500000 0.758163 0.500000
O O2 0.478988 0.500000 0.655306
O O3 0.510044 0.785448 0.715544
O O4 0.416469 0.747137 0.675235
O O5 0.417285 0.302551 0.200779
O O6 0.402131 0.264763 0.451860
O O7 0.419656 0.000000 0.296842
O O8 0.128075 0.792925 0.968491
O O9 0.053848 0.000000 0.001310
O O10 0.040193 0.651835 0.003051
O O11 0.225107 0.274098 0.844100
O O12 0.322712 0.262727 0.672765
O O13 0.279026 0.000000 0.805428
O O14 0.303655 0.261597 0.914502
O O15 0.666260 0.000000 0.990108
O O16 0.620761 0.000000 0.408000
#
# Coordination Sequence:
#
# PCOD9188295 Si02
#       7
#     8   8   8   8   2   8   8
#     4   9  17  29  47  76 115 156 201 248 301 368
#     4  10  19  36  58  83 122 165 205 253 316 379
#     4  12  25  44  68  92 126 169 210 260 316 373
#     4   9  19  36  61  91 121 160 212 264 316 379
#     4  12  26  48  64  94 126 164 218 256 302 378
#     4  10  20  39  62  88 126 165 208 263 323 372
#     4   9  18  33  56  86 119 159 205 258 316 374
#
# _framework density 21.443572
#
# number of rings (size 3 to 8) (size 9 to 14) (size 15 to 20)
#    0.000    2.080    1.600    1.680    0.000    5.120 
#    2.880    2.400    0.000    0.000    0.000    0.000 
#    0.000    0.000    0.000    0.000    0.000    0.000 
#
# Total GULP energy -139385.113116 kJ/mol
# GULP energy per Si atom -5575.404525 kJ/mol
# Density = 2.139477 g / cm^3
# Si number density = 21.443572 Si / 1000 Ang^3
#
#
#
# Elastic Constant Matrix: (Units=GPa)
#
#
# Indices 1 2 3 4 5 6 
#
# 1 105.3381 35.9936 15.0289 0.0000 -8.0387 0.0000
# 2 35.9936 97.2908 10.8613 0.0000 -4.2901 0.0000
# 3 15.0289 10.8613 72.3554 0.0000 -7.3250 0.0000
# 4 0.0000 0.0000 0.0000 18.1380 0.0000 4.2180
# 5 -8.0387 -4.2901 -7.3250 0.0000 27.9244 0.0000
# 6 0.0000 0.0000 0.0000 4.2180 0.0000 42.0696
#
#
#
# Elastic Compliance Matrix: (Units=1/GPa)
#
#
# Indices 1 2 3 4 5 6 
#
# 1 0.011205 -0.003877 -0.001519 0.000000 0.002231 0.000000
# 2 -0.003877 0.011836 -0.000925 0.000000 0.000460 0.000000
# 3 -0.001519 -0.000925 0.014604 0.000000 0.003251 0.000000
# 4 0.000000 0.000000 0.000000 0.056449 0.000000 -0.005660
# 5 0.002231 0.000460 0.003251 0.000000 0.037377 0.000000
# 6 0.000000 0.000000 0.000000 -0.005660 0.000000 0.024338
#
#
# Mechanical properties :
#
#
# Convention : Reuss Voigt Hill
#
# Bulk Modulus (GPa) = 39.99617 44.30575 42.15096
# Shear Modulus (GPa) = 28.28261 31.83311 30.05786
#
# Velocity S-wave (km/s) = 3.63565 3.85711 3.74802
# Velocity P-wave (km/s) = 6.02630 6.36732 6.19915
#
# Compressibility (1/GPa) = 0.02500239
#
# Stress axis : x y z
#
# Youngs Moduli (GPa) = 89.24410 84.48464 68.47307
#
# Poissons Ratio (x) = 0.32758 0.10404
# Poissons Ratio (y) = 0.34604 0.06333
# Poissons Ratio (z) = 0.13561 0.07814
#
# Static dielectric constant tensor:
#      x y z
#    x 1.750220 0.000000 -0.022030 
#    y 0.000000 1.766810 0.000000 
#    z -0.022030 0.000000 1.853690 
# 
# From -- ./inp_files/179786.got.cif
#   From: 2010.05.17/outbox.cif.g08.bks.cpg/sg12_90_cif.got.tgz:179786.got - 2010.06.03 13:09:07.
