data_PCOD9188424
_publ_section_title
;
Structure prediction by ZEFSAII (Michael W. Deem and Ramdas Pophale) SiO2 
 PCOD9188424
Probable space group: C 2/M
;
_chemical_formula_sum "Si O2"
_cell_formula_units_Z 64
_cell_length_a 20.112132
_cell_length_b 8.757281
_cell_length_c 23.976131
_cell_angle_alpha 90.000000
_cell_angle_beta 49.695064
_cell_angle_gamma 90.000000
_cell_volume 3220.404902
_symmetry_space_group_name_H-M "C 2/M"
_symmetry_group_IT_number 12
_symmetry_cell_setting 'monoclinic'
loop_
_space_group_symop_operation_xyz
x,y,z
-x,y,-z
-x,-y,-z
x,-y,z
1/2+x,1/2+y,z
1/2-x,1/2+y,-z
1/2-x,1/2-y,-z
1/2+x,1/2-y,z
loop_
_atom_site_type_symbol
_atom_site_label
_atom_site_fract_x
_atom_site_fract_y
_atom_site_fract_z
Si Si1 0.425892 0.676683 0.829011
Si Si2 0.173454 0.182549 0.578933
Si Si3 0.272627 0.176071 0.046787
Si Si4 0.988881 0.317287 0.682338
Si Si5 0.814206 0.184311 0.297898
Si Si6 0.640255 0.317350 0.898275
Si Si7 0.468016 0.181405 0.137753
Si Si8 0.307118 0.184209 0.731469
O O1 0.454134 0.500000 0.812783
O O2 0.323194 0.682131 0.872711
O O3 0.474162 0.769183 0.754551
O O4 0.448248 0.746619 0.877225
O O5 0.250000 0.250000 0.500000
O O6 0.078756 0.245060 0.613229
O O7 0.186820 0.225190 0.636849
O O8 0.174058 0.000000 0.575237
O O9 0.341228 0.258318 0.049746
O O10 0.297917 0.000000 0.025850
O O11 0.250000 0.250000 0.000000
O O12 0.994119 0.500000 0.675545
O O13 0.902136 0.259693 0.697529
O O14 0.891020 0.265912 0.221992
O O15 0.725691 0.222895 0.312645
O O16 0.827196 0.000000 0.286023
O O17 0.632478 0.500000 0.902170
O O18 0.560244 0.247297 0.906874
O O19 0.727596 0.272116 0.815700
O O20 0.474568 0.000000 0.131635
O O21 0.311501 0.000000 0.733034
#
# Coordination Sequence:
#
# PCOD9188424 Si02
#       8
#     8   8   8   8   8   8   8   8
#     4  11  22  37  57  85 118 152 192 239 286 339
#     4  11  23  38  57  80 114 154 193 237 290 349
#     4  11  24  40  60  86 119 156 196 238 290 349
#     4  11  20  34  58  87 114 144 188 238 285 340
#     4   9  18  35  56  80 111 150 189 233 286 339
#     4  10  19  36  59  84 118 154 190 235 289 345
#     4  11  21  33  56  88 117 148 191 241 286 337
#     4   8  16  31  55  84 110 141 184 230 280 335
#
# _framework density 19.873276000000001
#
# number of rings (size 3 to 8) (size 9 to 14) (size 15 to 20)
#    0.000    1.750    2.500    3.750    0.000    2.000 
#    0.000    1.875    0.000    7.500    0.000    0.000 
#    0.000    0.000    0.000    0.000    0.000    0.000 
#
# Total GULP energy -178757.536407 kJ/mol
# GULP energy per Si atom -5586.173013 kJ/mol
# Density = 1.982804 g / cm^3
# Si number density = 19.873276 Si / 1000 Ang^3
#
#
#
# Elastic Constant Matrix: (Units=GPa)
#
#
# Indices 1 2 3 4 5 6 
#
# 1 153.0231 31.7114 20.8274 0.0001 11.8583 0.0002
# 2 31.7114 69.2678 14.1311 0.0002 8.2290 0.0006
# 3 20.8274 14.1311 55.9604 0.0000 -1.1357 -0.0001
# 4 0.0001 0.0002 0.0000 24.0210 0.0000 5.3897
# 5 11.8583 8.2290 -1.1357 0.0000 28.6218 0.0001
# 6 0.0002 0.0006 -0.0001 5.3897 0.0001 29.3998
#
#
#
# Elastic Compliance Matrix: (Units=1/GPa)
#
#
# Indices 1 2 3 4 5 6 
#
# 1 0.007589 -0.002739 -0.002182 0.000000 -0.002443 0.000000
# 2 -0.002739 0.016820 -0.003306 0.000000 -0.003832 0.000000
# 3 -0.002182 -0.003306 0.019570 0.000000 0.002631 0.000000
# 4 0.000000 0.000000 0.000000 0.043416 0.000000 -0.007959
# 5 -0.002443 -0.003832 0.002631 0.000000 0.037157 0.000000
# 6 0.000000 0.000000 0.000000 -0.007959 0.000000 0.035473
#
#
# Mechanical properties :
#
#
# Convention : Reuss Voigt Hill
#
# Bulk Modulus (GPa) = 36.33036 45.73235 41.03136
# Shear Modulus (GPa) = 26.93171 30.51395 28.72283
#
# Velocity S-wave (km/s) = 3.68526 3.92270 3.80583
# Velocity P-wave (km/s) = 6.03563 6.60142 6.32486
#
# Compressibility (1/GPa) = 0.02752519
#
# Stress axis : x y z
#
# Youngs Moduli (GPa) = 131.77121 59.45200 51.09801
#
# Poissons Ratio (x) = 0.16283 0.11152
# Poissons Ratio (y) = 0.36089 0.16893
# Poissons Ratio (z) = 0.28758 0.19654
#
# Static dielectric constant tensor:
#      x y z
#    x 1.742750 0.000000 -0.011750 
#    y 0.000000 1.670700 0.000000 
#    z -0.011750 0.000000 1.699940 
# 
# From -- ./inp_files/345512.got.cif
#   From: 2010.05.17/outbox.cif.g08.bks.cpg/sg12_173_cif.got.tgz:345512.got - 2010.06.03 13:09:07.
