data_PCOD9188474
_publ_section_title
;
Structure prediction by ZEFSAII (Michael W. Deem and Ramdas Pophale) SiO2 
 PCOD9188474
Probable space group: C 2/M
;
_chemical_formula_sum "Si O2"
_cell_formula_units_Z 48
_cell_length_a 9.782246
_cell_length_b 30.694014
_cell_length_c 18.504666
_cell_angle_alpha 90.000000
_cell_angle_beta 28.749444
_cell_angle_gamma 90.000000
_cell_volume 2672.395744
_symmetry_space_group_name_H-M "C 2/M"
_symmetry_group_IT_number 12
_symmetry_cell_setting 'monoclinic'
loop_
_space_group_symop_operation_xyz
x,y,z
-x,y,-z
-x,-y,-z
x,-y,z
1/2+x,1/2+y,z
1/2-x,1/2+y,-z
1/2-x,1/2-y,-z
1/2+x,1/2-y,z
loop_
_atom_site_type_symbol
_atom_site_label
_atom_site_fract_x
_atom_site_fract_y
_atom_site_fract_z
Si Si1 0.476452 0.651383 0.425957
Si Si2 0.713941 0.000000 0.678093
Si Si3 0.651128 0.500000 0.851284
Si Si4 0.291928 0.075302 0.199535
Si Si5 0.436785 0.745441 0.613394
Si Si6 0.430184 0.578876 0.853989
Si Si7 0.635835 0.159763 0.356536
O O1 0.500000 0.642586 0.500000
O O2 0.613373 0.614730 0.313945
O O3 0.643314 0.696381 0.328644
O O4 0.140073 0.653288 0.565664
O O5 0.692916 0.959869 0.743565
O O6 0.000000 0.000000 0.500000
O O7 0.474702 0.000000 0.727175
O O8 0.566846 0.541953 0.842117
O O9 0.500000 0.500000 0.000000
O O10 0.134030 0.061669 0.197965
O O11 0.614789 0.088339 0.030536
O O12 0.500000 0.742758 0.500000
O O13 0.264495 0.790153 0.705426
O O14 0.750000 0.750000 0.500000
O O15 0.630379 0.621844 0.759036
O O16 0.500000 0.158945 0.500000
#
# Coordination Sequence:
#
# PCOD9188474 Si02
#       7
#     8   4   4   8   8   8   8
#     4  10  20  35  59  89 122 157 201 251 292 338
#     4  12  27  43  65  89 119 152 195 250 293 349
#     4  12  25  45  63  87 116 154 194 235 296 363
#     4  11  23  42  59  88 122 159 195 239 305 353
#     4   8  16  31  54  83 118 156 193 243 294 339
#     4  11  24  40  64  85 120 161 192 240 298 363
#     4  10  19  36  59  89 119 154 206 243 288 352
#
# _framework density 17.961411999999999
#
# number of rings (size 3 to 8) (size 9 to 14) (size 15 to 20)
#    0.000    1.667    3.333    1.000    4.667    1.333 
#    0.000    2.083    0.000    0.000    4.333    0.000 
#    0.000    0.000    0.000    0.000    0.000    0.000 
#
# Total GULP energy -133617.642018 kJ/mol
# GULP energy per Si atom -5567.401751 kJ/mol
# Density = 1.792053 g / cm^3
# Si number density = 17.961412 Si / 1000 Ang^3
#
#
#
# Elastic Constant Matrix: (Units=GPa)
#
#
# Indices 1 2 3 4 5 6 
#
# 1 141.2532 23.2290 30.3173 0.0000 -6.9051 0.0000
# 2 23.2290 111.0318 33.7763 -0.0001 -0.4804 0.0000
# 3 30.3173 33.7763 78.4394 -0.0001 -3.8073 0.0000
# 4 0.0000 -0.0001 -0.0001 -45.3508 0.0000 -17.9782
# 5 -6.9051 -0.4804 -3.8073 0.0000 26.3579 0.0000
# 6 0.0000 0.0000 0.0000 -17.9782 0.0000 23.6448
#
#
#
# Elastic Compliance Matrix: (Units=1/GPa)
#
#
# Indices 1 2 3 4 5 6 
#
# 1 0.007857 -0.000848 -0.002590 0.000000 0.001669 0.000000
# 2 -0.000848 0.010461 -0.004208 0.000000 -0.000639 0.000000
# 3 -0.002590 -0.004208 0.015635 0.000000 0.001503 0.000000
# 4 0.000000 0.000000 0.000000 -0.016943 0.000000 -0.012883
# 5 0.001669 -0.000639 0.001503 0.000000 0.038582 0.000000
# 6 0.000000 0.000000 0.000000 -0.012883 0.000000 0.032497
#
#
# Mechanical properties :
#
#
# Convention : Reuss Voigt Hill
#
# Bulk Modulus (GPa) = 53.59207 56.15217 54.87212
# Shear Modulus (GPa) = 45.62009 17.15718 31.38863
#
# Velocity S-wave (km/s) = 5.04520 3.09402 4.18492
# Velocity P-wave (km/s) = 7.99005 6.64037 7.34627
#
# Compressibility (1/GPa) = 0.01865948
#
# Stress axis : x y z
#
# Youngs Moduli (GPa) = 127.28261 95.59153 63.96054
#
# Poissons Ratio (x) = 0.08111 0.16567
# Poissons Ratio (y) = 0.10800 0.26913
# Poissons Ratio (z) = 0.32969 0.40222
#
# Static dielectric constant tensor:
#      x y z
#    x 1.630540 0.000000 -0.013210 
#    y 0.000000 1.687270 0.000000 
#    z -0.013210 0.000000 1.610310 
# 
# From -- ./inp_files/260269.got.cif
#   From: 2010.05.17/outbox.cif.g08.bks.cpg/sg12_131_cif.got.tgz:260269.got - 2010.06.03 13:09:07.
