data_PCOD9188819
_publ_section_title
;
Structure prediction by ZEFSAII (Michael W. Deem and Ramdas Pophale) SiO2 
 PCOD9188819
Probable space group: C 2/M
;
_chemical_formula_sum "Si O2"
_cell_formula_units_Z 44
_cell_length_a 7.623111
_cell_length_b 22.624745
_cell_length_c 13.672791
_cell_angle_alpha 90.000000
_cell_angle_beta 89.846518
_cell_angle_gamma 90.000000
_cell_volume 2358.150689
_symmetry_space_group_name_H-M "C 2/M"
_symmetry_group_IT_number 12
_symmetry_cell_setting 'monoclinic'
loop_
_space_group_symop_operation_xyz
x,y,z
-x,y,-z
-x,-y,-z
x,-y,z
1/2+x,1/2+y,z
1/2-x,1/2+y,-z
1/2-x,1/2-y,-z
1/2+x,1/2-y,z
loop_
_atom_site_type_symbol
_atom_site_label
_atom_site_fract_x
_atom_site_fract_y
_atom_site_fract_z
Si Si1 0.297468 0.500000 0.380191
Si Si2 0.065827 0.332876 0.793368
Si Si3 0.500077 0.905277 0.616895
Si Si4 0.700990 0.500000 0.383742
Si Si5 0.178288 0.432538 0.937974
Si Si6 0.000000 0.143053 0.000000
Si Si7 0.336290 0.742483 0.892097
O O1 0.500503 0.500000 0.344125
O O2 0.310524 0.500000 0.498037
O O3 0.173361 0.443804 0.355695
O O4 0.009046 0.348047 0.684657
O O5 0.135754 0.392242 0.844534
O O6 0.212931 0.283079 0.808116
O O7 0.914396 0.304486 0.860207
O O8 0.500000 0.895131 0.500000
O O9 0.674851 0.944019 0.639278
O O10 0.228683 0.500000 0.913873
O O11 0.330826 0.398832 0.996969
O O12 0.000000 0.434139 0.000000
O O13 0.025784 0.188755 0.089920
O O14 0.250000 0.750000 0.000000
#
# Coordination Sequence:
#
# PCOD9188819 Si02
#       7
#     4   8   8   4   8   4   8
#     4   8  15  33  62  83 113 160 196 238 294 358
#     4  11  22  36  61  84 116 152 204 246 292 352
#     4   9  19  36  58  86 123 156 193 245 298 355
#     4   8  15  33  60  87 113 155 201 236 291 362
#     4  10  22  36  56  85 118 145 177 243 305 355
#     4  10  19  36  62  78 109 148 192 234 290 344
#     4  11  20  38  62  85 106 153 210 251 282 348
#
# _framework density 18.658688999999999
#
# number of rings (size 3 to 8) (size 9 to 14) (size 15 to 20)
#    0.000    2.182    1.818    3.545    2.545    0.000 
#    3.273    0.909    0.000    0.000    0.000    0.000 
#    0.000    0.000    0.000    0.000    0.000    0.000 
#
# Total GULP energy -122487.890494 kJ/mol
# GULP energy per Si atom -5567.631386 kJ/mol
# Density = 1.861622 g / cm^3
# Si number density = 18.658689 Si / 1000 Ang^3
#
#
#
# Elastic Constant Matrix: (Units=GPa)
#
#
# Indices 1 2 3 4 5 6 
#
# 1 124.2181 46.0731 41.4381 0.0000 15.8122 0.0000
# 2 46.0731 116.2601 48.8565 0.0000 7.2771 0.0000
# 3 41.4381 48.8565 74.8688 0.0000 10.4880 0.0000
# 4 0.0000 0.0000 0.0000 32.4904 0.0000 2.6800
# 5 15.8122 7.2771 10.4880 0.0000 19.3504 0.0000
# 6 0.0000 0.0000 0.0000 2.6800 0.0000 26.0637
#
#
#
# Elastic Compliance Matrix: (Units=1/GPa)
#
#
# Indices 1 2 3 4 5 6 
#
# 1 0.010929 -0.002434 -0.003612 0.000000 -0.006058 0.000000
# 2 -0.002434 0.012395 -0.006890 0.000000 0.001062 0.000000
# 3 -0.003612 -0.006890 0.020643 0.000000 -0.005646 0.000000
# 4 0.000000 0.000000 0.000000 0.031042 0.000000 -0.003192
# 5 -0.006058 0.001062 -0.005646 0.000000 0.059289 0.000000
# 6 0.000000 0.000000 0.000000 -0.003192 0.000000 0.038696
#
#
# Mechanical properties :
#
#
# Convention : Reuss Voigt Hill
#
# Bulk Modulus (GPa) = 55.26470 65.34248 60.30359
# Shear Modulus (GPa) = 24.40243 27.51286 25.95765
#
# Velocity S-wave (km/s) = 3.62032 3.84413 3.73390
# Velocity P-wave (km/s) = 6.86722 7.40264 7.13995
#
# Compressibility (1/GPa) = 0.01809473
#
# Stress axis : x y z
#
# Youngs Moduli (GPa) = 91.49771 80.67779 48.44258
#
# Poissons Ratio (x) = 0.19638 0.17498
# Poissons Ratio (y) = 0.22271 0.33377
# Poissons Ratio (z) = 0.33050 0.55588
#
# Static dielectric constant tensor:
#      x y z
#    x 1.762270 0.000000 0.011540 
#    y 0.000000 1.654860 0.000000 
#    z 0.011540 0.000000 1.635870 
# 
# From -- ./inp_files/196552.got.cif
#   From: 2010.05.17/outbox.cif.g08.bks.cpg/sg12_99_cif.got.tgz:196552.got - 2010.06.03 13:09:07.
