data_PCOD9188081
_publ_section_title
;
Structure prediction by ZEFSAII (Michael W. Deem and Ramdas Pophale) SiO2 
 PCOD9188081
Probable space group: C 2/M
;
_chemical_formula_sum "Si O2"
_cell_formula_units_Z 46
_cell_length_a 9.617790
_cell_length_b 25.816218
_cell_length_c 17.182599
_cell_angle_alpha 90.000000
_cell_angle_beta 144.940744
_cell_angle_gamma 90.000000
_cell_volume 2450.692476
_symmetry_space_group_name_H-M "C 2/M"
_symmetry_group_IT_number 12
_symmetry_cell_setting 'monoclinic'
loop_
_space_group_symop_operation_xyz
x,y,z
-x,y,-z
-x,-y,-z
x,-y,z
1/2+x,1/2+y,z
1/2-x,1/2+y,-z
1/2-x,1/2-y,-z
1/2+x,1/2-y,z
loop_
_atom_site_type_symbol
_atom_site_label
_atom_site_fract_x
_atom_site_fract_y
_atom_site_fract_z
Si Si1 0.500000 0.500000 0.000000
Si Si2 0.500000 0.868377 0.000000
Si Si3 0.139710 0.938253 0.489025
Si Si4 0.004910 0.717564 0.869138
Si Si5 0.242142 0.193915 0.164309
Si Si6 0.956439 0.060768 0.237449
Si Si7 0.789109 0.579533 0.245989
O O1 0.351407 0.545170 0.882223
O O2 0.496115 0.831214 0.922909
O O3 0.265362 0.904803 0.894038
O O4 0.425535 0.930598 0.626205
O O5 0.000000 0.916513 0.500000
O O6 0.036002 0.919805 0.358966
O O7 0.096970 0.000000 0.468270
O O8 0.036464 0.700936 0.794398
O O9 0.791817 0.756929 0.794801
O O10 0.250000 0.750000 0.000000
O O11 0.252120 0.140197 0.213566
O O12 0.000000 0.191948 0.000000
O O13 0.175959 0.065221 0.277481
O O14 0.884917 0.000000 0.208406
#
# Coordination Sequence:
#
# PCOD9188081 Si02
#       7
#     2   4   8   8   8   8   8
#     4  12  24  34  60 102 132 154 210 254 304 356
#     4  12  23  35  64  94 129 157 208 266 314 362
#     4  10  23  43  62  86 125 173 210 250 306 376
#     4  10  19  36  55  88 121 160 203 257 316 372
#     4  10  20  34  58  90 119 159 203 252 317 370
#     4  11  24  41  61  93 127 169 209 252 309 374
#     4  12  23  40  64  93 128 168 207 257 309 375
#
# _framework density 18.770204
#
# number of rings (size 3 to 8) (size 9 to 14) (size 15 to 20)
#    0.000    1.217    5.217    2.870    2.435    1.391 
#    3.130    0.000    0.000    1.043    4.522    0.000 
#    0.000    0.000    0.000    0.000    0.000    0.000 
#
# Total GULP energy -128111.537574 kJ/mol
# GULP energy per Si atom -5570.066851 kJ/mol
# Density = 1.872748 g / cm^3
# Si number density = 18.770204 Si / 1000 Ang^3
#
#
#
# Elastic Constant Matrix: (Units=GPa)
#
#
# Indices 1 2 3 4 5 6 
#
# 1 133.4929 48.7926 39.5447 0.0001 -0.4335 0.0000
# 2 48.7926 109.6989 30.3044 0.0001 -13.5974 0.0000
# 3 39.5447 30.3044 56.7625 0.0004 -4.2397 0.0000
# 4 0.0001 0.0001 0.0004 8.4726 0.0005 -6.2998
# 5 -0.4335 -13.5974 -4.2397 0.0005 17.6040 0.0000
# 6 0.0000 0.0000 0.0000 -6.2998 0.0000 32.0572
#
#
#
# Elastic Compliance Matrix: (Units=1/GPa)
#
#
# Indices 1 2 3 4 5 6 
#
# 1 0.010462 -0.003565 -0.005674 0.000000 -0.003862 0.000000
# 2 -0.003565 0.012830 -0.003699 0.000000 0.008932 0.000000
# 3 -0.005674 -0.003699 0.023749 -0.000001 0.002722 0.000000
# 4 0.000000 0.000000 -0.000001 0.138225 -0.000004 0.027164
# 5 -0.003862 0.008932 0.002722 -0.000004 0.064265 -0.000001
# 6 0.000000 0.000000 0.000000 0.027164 -0.000001 0.036532
#
#
# Mechanical properties :
#
#
# Convention : Reuss Voigt Hill
#
# Bulk Modulus (GPa) = 47.24796 59.69308 53.47052
# Shear Modulus (GPa) = 15.67424 23.71426 19.69425
#
# Velocity S-wave (km/s) = 2.89287 3.55829 3.24269
# Velocity P-wave (km/s) = 6.03198 6.98233 6.52448
#
# Compressibility (1/GPa) = 0.02116494
#
# Stress axis : x y z
#
# Youngs Moduli (GPa) = 95.58161 77.93963 42.10776
#
# Poissons Ratio (x) = 0.27784 0.23892
# Poissons Ratio (y) = 0.34072 0.15577
# Poissons Ratio (z) = 0.54234 0.28833
#
# Static dielectric constant tensor:
#      x y z
#    x 1.704400 0.000000 -0.010640 
#    y 0.000000 1.653420 0.000000 
#    z -0.010640 0.000000 1.624790 
# 
# From -- ./inp_files/200253.got.cif
#   From: 2010.05.17/outbox.cif.g08.bks.cpg/sg12_101_cif.got.tgz:200253.got - 2010.06.03 13:09:07.
