data_PCOD9188988
_publ_section_title
;
Structure prediction by ZEFSAII (Michael W. Deem and Ramdas Pophale) SiO2 
 PCOD9188988
Probable space group: C 2/M
;
_chemical_formula_sum "Si O2"
_cell_formula_units_Z 58
_cell_length_a 28.168139
_cell_length_b 16.601114
_cell_length_c 14.430183
_cell_angle_alpha 90.000000
_cell_angle_beta 21.763779
_cell_angle_gamma 90.000000
_cell_volume 2501.983592
_symmetry_space_group_name_H-M "C 2/M"
_symmetry_group_IT_number 12
_symmetry_cell_setting 'monoclinic'
loop_
_space_group_symop_operation_xyz
x,y,z
-x,y,-z
-x,-y,-z
x,-y,z
1/2+x,1/2+y,z
1/2-x,1/2+y,-z
1/2-x,1/2-y,-z
1/2+x,1/2-y,z
loop_
_atom_site_type_symbol
_atom_site_label
_atom_site_fract_x
_atom_site_fract_y
_atom_site_fract_z
Si Si1 0.287513 0.641222 0.529039
Si Si2 0.000000 0.500000 0.500000
Si Si3 0.212205 0.369400 0.179707
Si Si4 0.036596 0.305839 0.637677
Si Si5 0.729970 0.166444 0.433756
Si Si6 0.321464 0.092966 0.086651
Si Si7 0.560632 0.360235 0.098352
Si Si8 0.352419 0.405108 0.754485
O O1 0.299105 0.738262 0.500643
O O2 0.241511 0.619757 0.509381
O O3 0.188613 0.624797 0.791126
O O4 0.424276 0.603853 0.311932
O O5 0.098140 0.431062 0.365105
O O6 0.139331 0.299622 0.369338
O O7 0.332431 0.398485 0.026782
O O8 0.276187 0.351462 0.965587
O O9 0.113418 0.355807 0.578018
O O10 0.982740 0.221559 0.771172
O O11 0.913398 0.360935 0.849497
O O12 0.859959 0.158449 0.139275
O O13 0.184876 0.102671 0.284667
O O14 0.356463 0.000000 0.024283
O O15 0.500000 0.391189 0.500000
O O16 0.322825 0.500000 0.831727
#
# Coordination Sequence:
#
# PCOD9188988 Si02
#       8
#     8   2   8   8   8   8   8   8
#     4  10  19  36  64  91 126 161 214 260 322 392
#     4  12  24  44  66  96 122 174 234 256 322 424
#     4  11  23  40  68  92 129 171 218 273 324 394
#     4  10  22  38  63  93 130 163 219 267 329 390
#     4   9  19  36  63  93 118 166 210 266 318 382
#     4  11  23  38  61  89 127 170 208 271 329 390
#     4  10  20  40  64  93 127 164 213 274 324 385
#     4  10  21  39  62  90 121 165 222 267 321 394
#
# _framework density 23.181607
#
# number of rings (size 3 to 8) (size 9 to 14) (size 15 to 20)
#    0.000    1.793    2.069    2.069    2.897    0.552 
#    1.241    4.138    7.586    0.828    0.000    0.000 
#    0.000    0.000    0.000    0.000    0.000    0.000 
#
# Total GULP energy -161510.851995 kJ/mol
# GULP energy per Si atom -5569.339724 kJ/mol
# Density = 2.312884 g / cm^3
# Si number density = 23.181607 Si / 1000 Ang^3
#
#
#
# Elastic Constant Matrix: (Units=GPa)
#
#
# Indices 1 2 3 4 5 6 
#
# 1 121.8661 21.5264 50.4929 0.0001 13.4990 -0.0001
# 2 21.5264 42.3134 11.9503 0.0001 -1.9843 -0.0001
# 3 50.4929 11.9503 92.0137 0.0001 11.8383 -0.0001
# 4 0.0001 0.0001 0.0001 5.6912 -0.0001 -3.8262
# 5 13.4990 -1.9843 11.8383 -0.0001 39.8820 0.0001
# 6 -0.0001 -0.0001 -0.0001 -3.8262 0.0001 -14.4489
#
#
#
# Elastic Compliance Matrix: (Units=1/GPa)
#
#
# Indices 1 2 3 4 5 6 
#
# 1 0.011514 -0.004445 -0.005418 0.000000 -0.002510 0.000000
# 2 -0.004445 0.026445 -0.001412 0.000000 0.003239 0.000000
# 3 -0.005418 -0.001412 0.014345 0.000000 -0.002495 0.000000
# 4 0.000000 0.000000 0.000000 0.149155 0.000001 -0.039497
# 5 -0.002510 0.003239 -0.002495 0.000001 0.026825 0.000000
# 6 0.000000 0.000000 0.000000 -0.039497 0.000000 -0.058750
#
#
# Mechanical properties :
#
#
# Convention : Reuss Voigt Hill
#
# Bulk Modulus (GPa) = 33.60874 47.12582 40.36728
# Shear Modulus (GPa) = 24.75212 17.70644 21.22928
#
# Velocity S-wave (km/s) = 3.27119 2.76672 3.02947
# Velocity P-wave (km/s) = 5.36629 5.52986 5.44869
#
# Compressibility (1/GPa) = 0.02975416
#
# Stress axis : x y z
#
# Youngs Moduli (GPa) = 86.85248 37.81395 69.70848
#
# Poissons Ratio (x) = 0.16808 0.37768
# Poissons Ratio (y) = 0.38606 0.09844
# Poissons Ratio (z) = 0.47057 0.05340
#
# Static dielectric constant tensor:
#      x y z
#    x 1.948660 0.000000 -0.033500 
#    y 0.000000 1.871020 0.000000 
#    z -0.033500 0.000000 1.879460 
# 
# From -- ./inp_files/251839.got.cif
#   From: 2010.05.17/outbox.cif.g08.bks.cpg/sg12_126_cif.got.tgz:251839.got - 2010.06.03 13:09:07.
