data_PCOD9188484
_publ_section_title
;
Structure prediction by ZEFSAII (Michael W. Deem and Ramdas Pophale) SiO2 
 PCOD9188484
Probable space group: C 2/M
;
_chemical_formula_sum "Si O2"
_cell_formula_units_Z 50
_cell_length_a 17.006485
_cell_length_b 15.629967
_cell_length_c 11.522436
_cell_angle_alpha 90.000000
_cell_angle_beta 122.983744
_cell_angle_gamma 90.000000
_cell_volume 2569.143262
_symmetry_space_group_name_H-M "C 2/M"
_symmetry_group_IT_number 12
_symmetry_cell_setting 'monoclinic'
loop_
_space_group_symop_operation_xyz
x,y,z
-x,y,-z
-x,-y,-z
x,-y,z
1/2+x,1/2+y,z
1/2-x,1/2+y,-z
1/2-x,1/2-y,-z
1/2+x,1/2-y,z
loop_
_atom_site_type_symbol
_atom_site_label
_atom_site_fract_x
_atom_site_fract_y
_atom_site_fract_z
Si Si1 0.215696 0.400411 0.665992
Si Si2 0.896733 0.398726 0.658188
Si Si3 0.312936 0.328582 0.100040
Si Si4 0.393777 0.346671 0.933034
Si Si5 0.000000 0.500000 0.000000
Si Si6 0.443464 0.208679 0.337854
Si Si7 0.858446 0.353746 0.888609
O O1 0.204438 0.500000 0.685483
O O2 0.179564 0.389518 0.505386
O O3 0.321753 0.372235 0.774184
O O4 0.146290 0.345819 0.691483
O O5 0.918243 0.500000 0.692773
O O6 0.859207 0.365453 0.750274
O O7 0.987710 0.348206 0.686008
O O8 0.402700 0.288442 0.235696
O O9 0.242861 0.369857 0.136176
O O10 0.250000 0.250000 0.000000
O O11 0.348396 0.379733 0.016760
O O12 0.391421 0.242988 0.939892
O O13 0.500000 0.374795 0.000000
O O14 0.070149 0.424285 0.007950
O O15 0.500000 0.231819 0.500000
#
# Coordination Sequence:
#
# PCOD9188484 Si02
#       7
#     8   8   8   8   2   8   8
#     4  10  21  38  58  86 120 161 204 250 300 352
#     4  10  21  36  60  91 125 153 196 257 306 360
#     4  10  21  38  57  84 126 161 194 250 304 358
#     4  11  22  40  61  85 119 163 207 252 298 361
#     4  12  24  36  64 100 116 156 194 244 320 360
#     4  10  19  36  59  90 121 160 202 243 305 364
#     4  11  22  38  58  89 125 152 193 247 312 366
#
# _framework density 19.461742000000001
#
# number of rings (size 3 to 8) (size 9 to 14) (size 15 to 20)
#    0.000    1.600    4.800    1.440    2.240    2.880 
#    7.200    0.000    0.000    0.000    0.000    2.800 
#    0.000    0.000    0.000    0.000    0.000    0.000 
#
# Total GULP energy -139338.875563 kJ/mol
# GULP energy per Si atom -5573.555023 kJ/mol
# Density = 1.941745 g / cm^3
# Si number density = 19.461742 Si / 1000 Ang^3
#
#
#
# Elastic Constant Matrix: (Units=GPa)
#
#
# Indices 1 2 3 4 5 6 
#
# 1 140.1400 -4.4790 55.1136 0.0000 -2.4190 0.0000
# 2 -4.4790 22.1831 15.5424 0.0000 -0.2165 0.0000
# 3 55.1136 15.5424 77.5672 0.0000 8.9825 0.0000
# 4 0.0000 0.0000 0.0000 21.7381 0.0000 4.8781
# 5 -2.4190 -0.2165 8.9825 0.0000 40.7326 0.0000
# 6 0.0000 0.0000 0.0000 4.8781 0.0000 22.3247
#
#
#
# Elastic Compliance Matrix: (Units=1/GPa)
#
#
# Indices 1 2 3 4 5 6 
#
# 1 0.011685 0.009838 -0.010631 0.000000 0.003091 0.000000
# 2 0.009838 0.061008 -0.019826 0.000000 0.005281 0.000000
# 3 -0.010631 -0.019826 0.025146 0.000000 -0.006282 0.000000
# 4 0.000000 0.000000 0.000000 0.048374 0.000000 -0.010570
# 5 0.003091 0.005281 -0.006282 0.000000 0.026147 0.000000
# 6 0.000000 0.000000 0.000000 -0.010570 0.000000 0.047103
#
#
# Mechanical properties :
#
#
# Convention : Reuss Voigt Hill
#
# Bulk Modulus (GPa) = 17.66784 41.36049 29.51417
# Shear Modulus (GPa) = 17.88466 28.53997 23.21231
#
# Velocity S-wave (km/s) = 3.03473 3.83360 3.45732
# Velocity P-wave (km/s) = 4.62357 6.39482 5.57992
#
# Compressibility (1/GPa) = 0.05660002
#
# Stress axis : x y z
#
# Youngs Moduli (GPa) = 85.58289 16.39120 39.76763
#
# Poissons Ratio (x) = -0.16126 0.42279
# Poissons Ratio (y) = -0.84198 0.78844
# Poissons Ratio (z) = 0.90987 0.32498
#
# Static dielectric constant tensor:
#      x y z
#    x 1.689640 0.000000 0.010940 
#    y 0.000000 1.676280 0.000000 
#    z 0.010940 0.000000 1.659970 
# 
# From -- ./inp_files/145742.got.cif
#   From: 2010.05.17/outbox.cif.g08.bks.cpg/sg12_73_cif.got.tgz:145742.got - 2010.06.03 13:09:07.
