data_PCOD9188994
_publ_section_title
;
Structure prediction by ZEFSAII (Michael W. Deem and Ramdas Pophale) SiO2 
 PCOD9188994
Probable space group: C 2/M
;
_chemical_formula_sum "Si O2"
_cell_formula_units_Z 48
_cell_length_a 14.012602
_cell_length_b 13.747942
_cell_length_c 14.147687
_cell_angle_alpha 90.000000
_cell_angle_beta 54.822661
_cell_angle_gamma 90.000000
_cell_volume 2227.727739
_symmetry_space_group_name_H-M "C 2/M"
_symmetry_group_IT_number 12
_symmetry_cell_setting 'monoclinic'
loop_
_space_group_symop_operation_xyz
x,y,z
-x,y,-z
-x,-y,-z
x,-y,z
1/2+x,1/2+y,z
1/2-x,1/2+y,-z
1/2-x,1/2-y,-z
1/2+x,1/2-y,z
loop_
_atom_site_type_symbol
_atom_site_label
_atom_site_fract_x
_atom_site_fract_y
_atom_site_fract_z
Si Si1 0.772927 0.891274 0.295078
Si Si2 0.395384 0.220824 0.133619
Si Si3 0.022215 0.892408 0.670880
Si Si4 0.683947 0.274777 0.134980
Si Si5 0.003214 0.386875 0.253837
Si Si6 0.868964 0.281808 0.484905
O O1 0.853366 0.830743 0.177815
O O2 0.667404 0.823400 0.392789
O O3 0.859268 0.900248 0.336119
O O4 0.738080 0.000000 0.285720
O O5 0.279254 0.180014 0.151055
O O6 0.435182 0.166051 0.205715
O O7 0.500000 0.217386 0.000000
O O8 0.924217 0.849219 0.797727
O O9 0.047586 0.811676 0.576489
O O10 0.991025 0.000000 0.654151
O O11 0.623626 0.172212 0.197050
O O12 0.750000 0.250000 0.000000
O O13 0.019188 0.500000 0.225581
O O14 0.926959 0.367251 0.390356
O O15 0.750000 0.250000 0.500000
#
# Coordination Sequence:
#
# PCOD9188994 Si02
#       6
#     8   8   8   8   8   8
#     4  10  19  36  64  93 120 160 207 251 308 377
#     4  12  23  41  65  90 129 165 208 262 315 372
#     4   9  18  34  59  86 117 157 203 248 304 364
#     4  11  22  41  61  86 128 168 207 263 315 368
#     4  11  23  41  64  96 128 168 212 258 317 379
#     4   9  16  36  63  91 123 162 201 257 312 366
#
# _framework density 21.546617999999999
#
# number of rings (size 3 to 8) (size 9 to 14) (size 15 to 20)
#    0.000    1.667    6.667    0.500    0.000    3.333 
#    0.000    3.333    0.000    6.000    0.000    0.000 
#    0.000    0.000    0.000    0.000    0.000    0.000 
#
# Total GULP energy -133882.716144 kJ/mol
# GULP energy per Si atom -5578.446506 kJ/mol
# Density = 2.149758 g / cm^3
# Si number density = 21.546618 Si / 1000 Ang^3
#
#
#
# Elastic Constant Matrix: (Units=GPa)
#
#
# Indices 1 2 3 4 5 6 
#
# 1 83.0466 6.9423 19.4313 0.0000 -3.6608 0.0000
# 2 6.9423 140.5223 32.0252 0.0000 -15.9477 0.0000
# 3 19.4313 32.0252 94.4442 0.0000 -23.5616 0.0000
# 4 0.0000 0.0000 0.0000 7.4113 0.0000 -1.9866
# 5 -3.6608 -15.9477 -23.5616 0.0000 24.2302 0.0000
# 6 0.0000 0.0000 0.0000 -1.9866 0.0000 16.1919
#
#
#
# Elastic Compliance Matrix: (Units=1/GPa)
#
#
# Indices 1 2 3 4 5 6 
#
# 1 0.012664 -0.000087 -0.002790 0.000000 -0.000857 0.000000
# 2 -0.000087 0.007924 -0.001810 0.000000 0.003442 0.000000
# 3 -0.002790 -0.001810 0.015017 0.000000 0.012989 0.000000
# 4 0.000000 0.000000 0.000000 0.139517 0.000000 0.017118
# 5 -0.000857 0.003442 0.012989 0.000000 0.056037 0.000000
# 6 0.000000 0.000000 0.000000 0.017118 0.000000 0.063860
#
#
# Mechanical properties :
#
#
# Convention : Reuss Voigt Hill
#
# Bulk Modulus (GPa) = 38.12451 48.31229 43.21840
# Shear Modulus (GPa) = 15.96754 26.87431 21.42093
#
# Velocity S-wave (km/s) = 2.72521 3.53549 3.15646
# Velocity P-wave (km/s) = 5.25688 6.25597 5.77806
#
# Compressibility (1/GPa) = 0.02622985
#
# Stress axis : x y z
#
# Youngs Moduli (GPa) = 78.96601 126.20232 66.59298
#
# Poissons Ratio (x) = 0.01099 0.18577
# Poissons Ratio (y) = 0.00688 0.12056
# Poissons Ratio (z) = 0.22029 0.22847
#
# Static dielectric constant tensor:
#      x y z
#    x 1.933070 0.000000 -0.000880 
#    y 0.000000 1.782470 0.000000 
#    z -0.000880 0.000000 1.766250 
# 
# From -- ./inp_files/214641.got.cif
#   From: 2010.05.17/outbox.cif.g08.bks.cpg/sg12_108_cif.got.tgz:214641.got - 2010.06.03 13:09:07.
