data_PCOD9188174
_publ_section_title
;
Structure prediction by ZEFSAII (Michael W. Deem and Ramdas Pophale) SiO2 
 PCOD9188174
Probable space group: C 2/M
;
_chemical_formula_sum "Si O2"
_cell_formula_units_Z 56
_cell_length_a 18.255552
_cell_length_b 13.796986
_cell_length_c 22.620180
_cell_angle_alpha 90.000000
_cell_angle_beta 146.152580
_cell_angle_gamma 90.000000
_cell_volume 3173.345271
_symmetry_space_group_name_H-M "C 2/M"
_symmetry_group_IT_number 12
_symmetry_cell_setting 'monoclinic'
loop_
_space_group_symop_operation_xyz
x,y,z
-x,y,-z
-x,-y,-z
x,-y,z
1/2+x,1/2+y,z
1/2-x,1/2+y,-z
1/2-x,1/2-y,-z
1/2+x,1/2-y,z
loop_
_atom_site_type_symbol
_atom_site_label
_atom_site_fract_x
_atom_site_fract_y
_atom_site_fract_z
Si Si1 0.242067 0.612445 0.919943
Si Si2 0.759900 0.112880 0.793224
Si Si3 0.006415 0.720005 0.574009
Si Si4 0.973641 0.888694 0.634187
Si Si5 0.999812 0.252873 0.752654
Si Si6 0.660702 0.887711 0.442955
Si Si7 0.028096 0.112086 0.164237
O O1 0.198806 0.500000 0.895702
O O2 0.277773 0.629858 0.874845
O O3 0.124617 0.684708 0.856992
O O4 0.373984 0.623016 0.046302
O O5 0.642639 0.177434 0.689846
O O6 0.888677 0.126908 0.839657
O O7 0.721437 0.000000 0.760797
O O8 0.000000 0.708772 0.500000
O O9 0.994948 0.830654 0.587965
O O10 0.893573 0.660892 0.533591
O O11 0.041750 0.826503 0.731552
O O12 0.817771 0.884073 0.544276
O O13 0.014435 0.000000 0.659855
O O14 0.903454 0.326273 0.653368
O O15 0.936351 0.191101 0.762776
O O16 0.619008 0.000000 0.412044
O O17 0.051356 0.000000 0.199534
#
# Coordination Sequence:
#
# PCOD9188174 Si02
#       7
#     8   8   8   8   8   8   8
#     4  10  19  36  57  80 107 139 178 221 268 315
#     4  10  20  35  54  79 110 140 168 214 274 323
#     4  11  22  34  56  82 108 136 177 220 265 318
#     4  10  22  38  55  75 107 145 179 216 260 314
#     4  11  19  34  56  81 107 140 178 218 264 312
#     4  10  21  37  56  79 108 142 176 217 266 317
#     4  10  22  34  53  83 111 138 176 221 265 315
#
# _framework density 17.646992999999998
#
# number of rings (size 3 to 8) (size 9 to 14) (size 15 to 20)
#    0.000    1.714    2.857    3.857    4.000    3.143 
#    0.000    0.000    0.000    0.000    0.000    1.000 
#    0.000    0.000    0.000    0.000    0.000    0.000 
#
# Total GULP energy -156307.699430 kJ/mol
# GULP energy per Si atom -5582.417837 kJ/mol
# Density = 1.760683 g / cm^3
# Si number density = 17.646993 Si / 1000 Ang^3
#
#
#
# Elastic Constant Matrix: (Units=GPa)
#
#
# Indices 1 2 3 4 5 6 
#
# 1 30.2263 16.1762 -2.4350 -0.0001 -1.8817 0.0000
# 2 16.1762 107.9492 18.7655 -0.0002 -3.7176 -0.0001
# 3 -2.4350 18.7655 28.9953 -0.0002 1.6431 -0.0001
# 4 -0.0001 -0.0002 -0.0002 19.9920 -0.0001 4.4602
# 5 -1.8817 -3.7176 1.6431 -0.0001 25.0186 0.0000
# 6 0.0000 -0.0001 -0.0001 4.4602 0.0000 23.4515
#
#
#
# Elastic Compliance Matrix: (Units=1/GPa)
#
#
# Indices 1 2 3 4 5 6 
#
# 1 0.037449 -0.006874 0.007520 0.000000 0.001301 0.000000
# 2 -0.006874 0.011801 -0.008316 0.000000 0.001783 0.000000
# 3 0.007520 -0.008316 0.040691 0.000000 -0.003342 0.000000
# 4 0.000000 0.000000 0.000000 0.052236 0.000000 -0.009935
# 5 0.001301 0.001783 -0.003342 0.000000 0.040552 0.000000
# 6 0.000000 0.000000 0.000000 -0.009935 0.000000 0.044531
#
#
# Mechanical properties :
#
#
# Convention : Reuss Voigt Hill
#
# Bulk Modulus (GPa) = 13.40450 25.79825 19.60137
# Shear Modulus (GPa) = 18.69388 22.67005 20.68196
#
# Velocity S-wave (km/s) = 3.25826 3.58808 3.42714
# Velocity P-wave (km/s) = 4.66555 5.64061 5.17609
#
# Compressibility (1/GPa) = 0.07460183
#
# Stress axis : x y z
#
# Youngs Moduli (GPa) = 26.70263 84.74093 24.57544
#
# Poissons Ratio (x) = 0.58253 -0.18481
# Poissons Ratio (y) = 0.18356 0.20436
# Poissons Ratio (z) = -0.20081 0.70467
#
# Static dielectric constant tensor:
#      x y z
#    x 1.595370 0.000000 -0.004240 
#    y 0.000000 1.608760 0.000000 
#    z -0.004240 0.000000 1.608640 
# 
# From -- ./inp_files/310800.got.cif
#   From: 2010.05.17/outbox.cif.g08.bks.cpg/sg12_156_cif.got.tgz:310800.got - 2010.06.03 13:09:07.
