data_PCOD9188515
_publ_section_title
;
Structure prediction by ZEFSAII (Michael W. Deem and Ramdas Pophale) SiO2 
 PCOD9188515
Probable space group: C 2/M
;
_chemical_formula_sum "Si O2"
_cell_formula_units_Z 64
_cell_length_a 14.895012
_cell_length_b 8.724805
_cell_length_c 31.148828
_cell_angle_alpha 90.000000
_cell_angle_beta 57.017057
_cell_angle_gamma 90.000000
_cell_volume 3395.577397
_symmetry_space_group_name_H-M "C 2/M"
_symmetry_group_IT_number 12
_symmetry_cell_setting 'monoclinic'
loop_
_space_group_symop_operation_xyz
x,y,z
-x,y,-z
-x,-y,-z
x,-y,z
1/2+x,1/2+y,z
1/2-x,1/2+y,-z
1/2-x,1/2-y,-z
1/2+x,1/2-y,z
loop_
_atom_site_type_symbol
_atom_site_label
_atom_site_fract_x
_atom_site_fract_y
_atom_site_fract_z
Si Si1 0.442725 0.818777 0.321223
Si Si2 0.640481 0.316115 0.509747
Si Si3 0.307921 0.315530 0.943256
Si Si4 0.448466 0.685649 0.138663
Si Si5 0.984577 0.816915 0.785237
Si Si6 0.245788 0.315243 0.134599
Si Si7 0.041173 0.681651 0.381781
Si Si8 0.697121 0.680599 0.400993
O O1 0.456763 0.730543 0.273418
O O2 0.522669 0.766034 0.337903
O O3 0.324127 0.801206 0.371663
O O4 0.459380 0.000000 0.308553
O O5 0.642877 0.500000 0.510074
O O6 0.750000 0.250000 0.500000
O O7 0.544329 0.257109 0.563851
O O8 0.639059 0.270031 0.460018
O O9 0.302674 0.500000 0.943970
O O10 0.434141 0.270937 0.909851
O O11 0.254742 0.250989 0.913561
O O12 0.250000 0.250000 0.000000
O O13 0.443986 0.500000 0.139193
O O14 0.452398 0.732233 0.187839
O O15 0.347347 0.737781 0.136765
O O16 0.867082 0.740825 0.816556
O O17 0.971176 0.000000 0.791027
O O18 0.246833 0.500000 0.132525
O O19 0.023887 0.500000 0.386815
O O20 0.154495 0.726087 0.371826
O O21 0.674667 0.500000 0.400393
#
# Coordination Sequence:
#
# PCOD9188515 Si02
#       8
#     8   8   8   8   8   8   8   8
#     4  10  22  41  58  78 113 148 181 227 282 334
#     4  11  21  37  60  83 112 147 182 225 278 334
#     4  10  20  36  55  83 120 155 191 234 277 326
#     4   8  18  36  57  79 110 148 187 228 275 331
#     4  10  21  38  58  83 111 142 185 234 280 332
#     4  10  19  36  60  83 109 149 191 230 281 332
#     4  11  23  39  58  84 113 145 186 228 276 339
#     4  10  22  40  58  81 113 146 181 227 280 332
#
# _framework density 18.848044999999999
#
# number of rings (size 3 to 8) (size 9 to 14) (size 15 to 20)
#    0.000    2.000    1.250    3.000    0.000    5.500 
#    0.000   13.750    0.000    0.000    0.000    0.000 
#    0.000    0.000    0.000    0.000    0.000    0.000 
#
# Total GULP energy -178619.501842 kJ/mol
# GULP energy per Si atom -5581.859433 kJ/mol
# Density = 1.880515 g / cm^3
# Si number density = 18.848045 Si / 1000 Ang^3
#
#
#
# Elastic Constant Matrix: (Units=GPa)
#
#
# Indices 1 2 3 4 5 6 
#
# 1 119.7083 24.6198 24.1697 0.0000 21.6519 0.0000
# 2 24.6198 45.4630 22.6053 0.0000 7.0499 0.0000
# 3 24.1697 22.6053 91.2139 0.0000 18.2022 0.0000
# 4 0.0000 0.0000 0.0000 33.6112 0.0000 -0.2810
# 5 21.6519 7.0499 18.2022 0.0000 15.4801 0.0000
# 6 0.0000 0.0000 0.0000 -0.2810 0.0000 29.4418
#
#
#
# Elastic Compliance Matrix: (Units=1/GPa)
#
#
# Indices 1 2 3 4 5 6 
#
# 1 0.011953 -0.004568 0.001157 0.000000 -0.016000 0.000000
# 2 -0.004568 0.027180 -0.005658 0.000000 0.000663 0.000000
# 3 0.001157 -0.005658 0.015506 0.000000 -0.017275 0.000000
# 4 0.000000 0.000000 0.000000 0.029754 0.000000 0.000284
# 5 -0.016000 0.000663 -0.017275 0.000000 0.106988 0.000000
# 6 0.000000 0.000000 0.000000 0.000284 0.000000 0.033968
#
#
# Mechanical properties :
#
#
# Convention : Reuss Voigt Hill
#
# Bulk Modulus (GPa) = 27.39504 44.35275 35.87390
# Shear Modulus (GPa) = 19.55771 28.03930 23.79850
#
# Velocity S-wave (km/s) = 3.22476 3.86119 3.55724
# Velocity P-wave (km/s) = 5.33213 6.59251 5.99553
#
# Compressibility (1/GPa) = 0.03650295
#
# Stress axis : x y z
#
# Youngs Moduli (GPa) = 83.65923 36.79197 64.49102
#
# Poissons Ratio (x) = 0.16805 -0.07464
# Poissons Ratio (y) = 0.38212 0.36489
# Poissons Ratio (z) = -0.09683 0.20817
#
# Static dielectric constant tensor:
#      x y z
#    x 1.696320 0.000000 -0.001370 
#    y 0.000000 1.640790 0.000000 
#    z -0.001370 0.000000 1.640390 
# 
# From -- ./inp_files/375043.got.cif
#   From: 2010.05.17/outbox.cif.g08.bks.cpg/sg12_188_cif.got.tgz:375043.got - 2010.06.03 13:09:07.
