data_PCOD9188836
_publ_section_title
;
Structure prediction by ZEFSAII (Michael W. Deem and Ramdas Pophale) SiO2 
 PCOD9188836
Probable space group: C 2/M
;
_chemical_formula_sum "Si O2"
_cell_formula_units_Z 36
_cell_length_a 5.474720
_cell_length_b 28.825521
_cell_length_c 13.214423
_cell_angle_alpha 90.000000
_cell_angle_beta 42.771046
_cell_angle_gamma 90.000000
_cell_volume 1416.126676
_symmetry_space_group_name_H-M "C 2/M"
_symmetry_group_IT_number 12
_symmetry_cell_setting 'monoclinic'
loop_
_space_group_symop_operation_xyz
x,y,z
-x,y,-z
-x,-y,-z
x,-y,z
1/2+x,1/2+y,z
1/2-x,1/2+y,-z
1/2-x,1/2-y,-z
1/2+x,1/2-y,z
loop_
_atom_site_type_symbol
_atom_site_label
_atom_site_fract_x
_atom_site_fract_y
_atom_site_fract_z
Si Si1 0.922006 0.000000 0.402537
Si Si2 0.202955 0.099028 0.299218
Si Si3 0.880398 0.265312 0.334303
Si Si4 0.359383 0.865292 0.667483
Si Si5 0.744387 0.839851 0.002436
O O1 0.500000 0.000000 0.500000
O O2 0.000000 0.000000 0.500000
O O3 0.100829 0.953320 0.304133
O O4 0.362738 0.099403 0.364761
O O5 0.838046 0.128229 0.381465
O O6 0.510287 0.124492 0.139858
O O7 0.500000 0.249539 0.500000
O O8 0.725469 0.264586 0.266362
O O9 0.974080 0.315811 0.350010
O O10 0.007458 0.867995 0.847845
O O11 0.500000 0.812052 0.000000
O O12 0.000000 0.812159 0.000000
#
# Coordination Sequence:
#
# PCOD9188836 Si02
#       5
#     4   8   8   8   8
#     4  12  26  42  58  86 124 154 195 244 290 348
#     4  10  21  38  59  83 116 155 193 243 292 345
#     4  10  21  36  55  84 120 156 196 242 288 342
#     4  10  19  36  62  86 114 155 199 240 291 353
#     4   8  16  32  55  81 108 144 188 235 283 338
#
# _framework density 25.421451999999999
#
# number of rings (size 3 to 8) (size 9 to 14) (size 15 to 20)
#    0.000    2.222    0.000    2.667    0.000    2.667 
#    0.000   10.000    0.000   36.000    0.000    0.000 
#    0.000    0.000    0.000    0.000    0.000    0.000 
#
# Total GULP energy -100347.694485 kJ/mol
# GULP energy per Si atom -5574.871916 kJ/mol
# Density = 2.536359 g / cm^3
# Si number density = 25.421452 Si / 1000 Ang^3
#
#
#
# Elastic Constant Matrix: (Units=GPa)
#
#
# Indices 1 2 3 4 5 6 
#
# 1 315.0405 47.0783 27.4724 0.0000 -19.6176 0.0000
# 2 47.0783 142.9084 10.4724 0.0000 -9.9417 0.0000
# 3 27.4724 10.4724 35.4416 0.0000 -12.5342 0.0000
# 4 0.0000 0.0000 0.0000 30.5522 0.0000 -2.9442
# 5 -19.6176 -9.9417 -12.5342 0.0000 42.1310 0.0000
# 6 0.0000 0.0000 0.0000 -2.9442 0.0000 36.6920
#
#
#
# Elastic Compliance Matrix: (Units=1/GPa)
#
#
# Indices 1 2 3 4 5 6 
#
# 1 0.003557 -0.000957 -0.002200 0.000000 0.000776 0.000000
# 2 -0.000957 0.007463 -0.001116 0.000000 0.000984 0.000000
# 3 -0.002200 -0.001116 0.033299 0.000000 0.008619 0.000000
# 4 0.000000 0.000000 0.000000 0.032986 0.000000 0.002647
# 5 0.000776 0.000984 0.008619 0.000000 0.026893 0.000000
# 6 0.000000 0.000000 0.000000 0.002647 0.000000 0.027466
#
#
# Mechanical properties :
#
#
# Convention : Reuss Voigt Hill
#
# Bulk Modulus (GPa) = 27.95361 73.71519 50.83440
# Shear Modulus (GPa) = 32.86572 49.09955 40.98264
#
# Velocity S-wave (km/s) = 3.59950 4.39956 4.01949
# Velocity P-wave (km/s) = 5.31932 7.40732 6.44839
#
# Compressibility (1/GPa) = 0.03577356
#
# Stress axis : x y z
#
# Youngs Moduli (GPa) = 281.10761 133.99737 30.03112
#
# Poissons Ratio (x) = 0.12819 0.06608
# Poissons Ratio (y) = 0.26893 0.03351
# Poissons Ratio (z) = 0.61853 0.14950
#
# Static dielectric constant tensor:
#      x y z
#    x 2.255230 0.000000 0.141730 
#    y 0.000000 1.922920 0.000000 
#    z 0.141730 0.000000 2.238890 
# 
# From -- ./inp_files/192506.got.cif
#   From: 2010.05.17/outbox.cif.g08.bks.cpg/sg12_97_cif.got.tgz:192506.got - 2010.06.03 13:09:07.
