data_PCOD9188485
_publ_section_title
;
Structure prediction by ZEFSAII (Michael W. Deem and Ramdas Pophale) SiO2 
 PCOD9188485
Probable space group: C 2/M
;
_chemical_formula_sum "Si O2"
_cell_formula_units_Z 64
_cell_length_a 26.741383
_cell_length_b 18.245166
_cell_length_c 21.341475
_cell_angle_alpha 90.000000
_cell_angle_beta 19.457510
_cell_angle_gamma 90.000000
_cell_volume 3468.492860
_symmetry_space_group_name_H-M "C 2/M"
_symmetry_group_IT_number 12
_symmetry_cell_setting 'monoclinic'
loop_
_space_group_symop_operation_xyz
x,y,z
-x,y,-z
-x,-y,-z
x,-y,z
1/2+x,1/2+y,z
1/2-x,1/2+y,-z
1/2-x,1/2-y,-z
1/2+x,1/2-y,z
loop_
_atom_site_type_symbol
_atom_site_label
_atom_site_fract_x
_atom_site_fract_y
_atom_site_fract_z
Si Si1 0.176348 0.771533 0.789662
Si Si2 0.722273 0.204273 0.095598
Si Si3 0.334806 0.699479 0.717982
Si Si4 0.029912 0.583671 0.257649
Si Si5 0.185072 0.083884 0.704953
Si Si6 0.307808 0.815966 0.349817
Si Si7 0.579545 0.086744 0.051612
Si Si8 0.553008 0.671750 0.750448
O O1 0.257510 0.752152 0.757812
O O2 0.183628 0.856816 0.762151
O O3 0.243296 0.722186 0.654192
O O4 0.000000 0.752097 0.000000
O O5 0.657556 0.256249 0.226094
O O6 0.611550 0.139155 0.207359
O O7 0.750000 0.250000 0.000000
O O8 0.883236 0.175218 0.928586
O O9 0.500000 0.678680 0.500000
O O10 0.223567 0.630906 0.857586
O O11 0.077966 0.500000 0.212629
O O12 0.064138 0.600994 0.144655
O O13 0.851783 0.587641 0.478479
O O14 0.077055 0.114115 0.777948
O O15 0.153446 0.000000 0.759983
O O16 0.429047 0.880060 0.198488
O O17 0.397224 0.750809 0.280383
O O18 0.168756 0.841153 0.556672
O O19 0.590666 0.000000 0.028802
#
# Coordination Sequence:
#
# PCOD9188485 Si02
#       8
#     8   8   8   8   8   8   8   8
#     4  11  22  38  60  85 122 161 201 248 302 368
#     4  12  23  39  62  93 122 164 210 254 309 359
#     4  12  25  40  60  91 125 165 212 255 296 365
#     4  10  21  38  61  89 123 157 197 253 315 369
#     4  10  21  38  62  91 121 160 203 249 310 369
#     4  10  19  36  59  91 116 152 198 255 305 355
#     4  11  21  40  64  89 122 159 199 253 318 366
#     4  10  20  33  64  89 120 150 205 259 297 354
#
# _framework density 18.451816999999998
#
# number of rings (size 3 to 8) (size 9 to 14) (size 15 to 20)
#    0.000    1.250    5.000    1.500    5.250    1.000 
#    0.000    1.875    0.000    2.250    0.000    0.000 
#    0.000    0.000    0.000    0.000    0.000    0.000 
#
# Total GULP energy -178831.843345 kJ/mol
# GULP energy per Si atom -5588.495105 kJ/mol
# Density = 1.840982 g / cm^3
# Si number density = 18.451817 Si / 1000 Ang^3
#
#
#
# Elastic Constant Matrix: (Units=GPa)
#
#
# Indices 1 2 3 4 5 6 
#
# 1 81.0733 41.9065 8.0919 0.0013 4.3594 0.0001
# 2 41.9065 101.6267 20.4951 0.0080 4.2668 -0.0023
# 3 8.0919 20.4951 69.6799 0.0046 1.4272 0.0002
# 4 0.0013 0.0080 0.0046 23.1045 -0.0050 1.8456
# 5 4.3594 4.2668 1.4272 -0.0050 26.1598 0.0019
# 6 0.0001 -0.0023 0.0002 1.8456 0.0019 16.0711
#
#
#
# Elastic Compliance Matrix: (Units=1/GPa)
#
#
# Indices 1 2 3 4 5 6 
#
# 1 0.015741 -0.006445 0.000100 0.000001 -0.001577 -0.000001
# 2 -0.006445 0.013161 -0.003104 -0.000004 -0.000903 0.000003
# 3 0.000100 -0.003104 0.015260 -0.000002 -0.000343 0.000000
# 4 0.000001 -0.000004 -0.000002 0.043682 0.000009 -0.005017
# 5 -0.001577 -0.000903 -0.000343 0.000009 0.038655 -0.000006
# 6 -0.000001 0.000003 0.000000 -0.005017 -0.000006 0.062800
#
#
# Mechanical properties :
#
#
# Convention : Reuss Voigt Hill
#
# Bulk Modulus (GPa) = 39.58233 43.70746 41.64489
# Shear Modulus (GPa) = 23.08203 25.19283 24.13743
#
# Velocity S-wave (km/s) = 3.54069 3.69905 3.62074
# Velocity P-wave (km/s) = 6.18172 6.47941 6.33231
#
# Compressibility (1/GPa) = 0.02526380
#
# Stress axis : x y z
#
# Youngs Moduli (GPa) = 63.52997 75.97963 65.53157
#
# Poissons Ratio (x) = 0.48966 -0.00655
# Poissons Ratio (y) = 0.40943 0.20343
# Poissons Ratio (z) = -0.00635 0.23586
#
# Static dielectric constant tensor:
#      x y z
#    x 1.636650 0.000000 0.024920 
#    y 0.000000 1.633620 0.000000 
#    z 0.024920 0.000000 1.641670 
# 
# From -- ./inp_files/326114.got.cif
#   From: 2010.05.17/outbox.cif.g08.bks.cpg/sg12_164_cif.got.tgz:326114.got - 2010.06.03 13:09:07.
