data_PCOD9188041
_publ_section_title
;
Structure prediction by ZEFSAII (Michael W. Deem and Ramdas Pophale) SiO2 
 PCOD9188041
Probable space group: C 2/M
;
_chemical_formula_sum "Si O2"
_cell_formula_units_Z 56
_cell_length_a 13.707350
_cell_length_b 27.396045
_cell_length_c 11.791032
_cell_angle_alpha 90.000000
_cell_angle_beta 35.184494
_cell_angle_gamma 90.000000
_cell_volume 2551.378252
_symmetry_space_group_name_H-M "C 2/M"
_symmetry_group_IT_number 12
_symmetry_cell_setting 'monoclinic'
loop_
_space_group_symop_operation_xyz
x,y,z
-x,y,-z
-x,-y,-z
x,-y,z
1/2+x,1/2+y,z
1/2-x,1/2+y,-z
1/2-x,1/2-y,-z
1/2+x,1/2-y,z
loop_
_atom_site_type_symbol
_atom_site_label
_atom_site_fract_x
_atom_site_fract_y
_atom_site_fract_z
Si Si1 0.240152 0.942169 0.330582
Si Si2 0.220094 0.297803 0.952791
Si Si3 0.129330 0.443148 0.039335
Si Si4 0.067268 0.142776 0.629021
Si Si5 0.307582 0.269694 0.633289
Si Si6 0.248432 0.341221 0.332374
Si Si7 0.608355 0.134617 0.233230
O O1 0.428122 0.937155 0.206225
O O2 0.112982 0.905942 0.515653
O O3 0.193985 0.000000 0.380469
O O4 0.271408 0.928135 0.169231
O O5 0.382027 0.333817 0.796334
O O6 0.192646 0.283153 0.850069
O O7 0.250000 0.250000 0.000000
O O8 0.084575 0.327831 0.151741
O O9 0.162629 0.500000 0.021920
O O10 0.169428 0.414120 0.114629
O O11 0.181901 0.185692 0.463283
O O12 0.109890 0.136777 0.721015
O O13 0.500000 0.263007 0.500000
O O14 0.256025 0.216747 0.638639
O O15 0.238685 0.346859 0.205556
O O16 0.075860 0.367201 0.536842
#
# Coordination Sequence:
#
# PCOD9188041 Si02
#       7
#     8   8   8   8   8   8   8
#     4   9  18  36  60  91 123 150 197 262 310 354
#     4  11  22  39  58  82 121 158 194 247 300 358
#     4   9  18  35  62  91 119 154 201 255 306 360
#     4  11  22  36  59  88 116 161 205 238 306 369
#     4  10  19  36  54  78 115 149 189 247 296 346
#     4  11  21  37  56  81 119 160 201 247 291 362
#     4  11  20  37  58  79 121 157 196 247 302 346
#
# _framework density 21.948923000000001
#
# number of rings (size 3 to 8) (size 9 to 14) (size 15 to 20)
#    0.000    1.714    4.286    3.000    0.000    0.571 
#    0.000    4.286    0.000    5.571    0.000    2.000 
#    0.000    0.000    0.000    0.000    0.000    0.000 
#
# Total GULP energy -156427.763777 kJ/mol
# GULP energy per Si atom -5586.705849 kJ/mol
# Density = 2.189897 g / cm^3
# Si number density = 21.948923 Si / 1000 Ang^3
#
#
#
# Elastic Constant Matrix: (Units=GPa)
#
#
# Indices 1 2 3 4 5 6 
#
# 1 58.1330 35.7348 33.0431 0.0000 7.3972 0.0000
# 2 35.7348 106.9176 41.8508 0.0000 5.7249 0.0000
# 3 33.0431 41.8508 80.5323 0.0000 10.1013 0.0000
# 4 0.0000 0.0000 0.0000 36.2974 0.0000 8.6328
# 5 7.3972 5.7249 10.1013 0.0000 29.8072 0.0000
# 6 0.0000 0.0000 0.0000 8.6328 0.0000 22.3366
#
#
#
# Elastic Compliance Matrix: (Units=1/GPa)
#
#
# Indices 1 2 3 4 5 6 
#
# 1 0.024887 -0.005409 -0.007056 0.000000 -0.002746 0.000000
# 2 -0.005409 0.012918 -0.004544 0.000000 0.000401 0.000000
# 3 -0.007056 -0.004544 0.018115 0.000000 -0.003515 0.000000
# 4 0.000000 0.000000 0.000000 0.030339 0.000000 -0.011726
# 5 -0.002746 0.000401 -0.003515 0.000000 0.035345 0.000000
# 6 0.000000 0.000000 0.000000 -0.011726 0.000000 0.049301
#
#
# Mechanical properties :
#
#
# Convention : Reuss Voigt Hill
#
# Bulk Modulus (GPa) = 45.65860 51.87114 48.76487
# Shear Modulus (GPa) = 23.56004 26.68518 25.12261
#
# Velocity S-wave (km/s) = 3.27984 3.49059 3.38686
# Velocity P-wave (km/s) = 5.93216 6.31899 6.12863
#
# Compressibility (1/GPa) = 0.02190168
#
# Stress axis : x y z
#
# Youngs Moduli (GPa) = 40.18174 77.41101 55.20307
#
# Poissons Ratio (x) = 0.41871 0.38951
# Poissons Ratio (y) = 0.21734 0.25085
# Poissons Ratio (z) = 0.28352 0.35177
#
# Static dielectric constant tensor:
#      x y z
#    x 1.837260 0.000000 -0.021740 
#    y 0.000000 1.830120 0.000000 
#    z -0.021740 0.000000 1.845760 
# 
# From -- ./inp_files/149449.got.cif
#   From: 2010.05.17/outbox.cif.g08.bks.cpg/sg12_75_cif.got.tgz:149449.got - 2010.06.03 13:09:07.
