data_PCOD9188677
_publ_section_title
;
Structure prediction by ZEFSAII (Michael W. Deem and Ramdas Pophale) SiO2 
 PCOD9188677
Probable space group: C 2/M
;
_chemical_formula_sum "Si O2"
_cell_formula_units_Z 56
_cell_length_a 28.915960
_cell_length_b 8.821067
_cell_length_c 15.396626
_cell_angle_alpha 90.000000
_cell_angle_beta 131.733430
_cell_angle_gamma 90.000000
_cell_volume 2930.681296
_symmetry_space_group_name_H-M "C 2/M"
_symmetry_group_IT_number 12
_symmetry_cell_setting 'monoclinic'
loop_
_space_group_symop_operation_xyz
x,y,z
-x,y,-z
-x,-y,-z
x,-y,z
1/2+x,1/2+y,z
1/2-x,1/2+y,-z
1/2-x,1/2-y,-z
1/2+x,1/2-y,z
loop_
_atom_site_type_symbol
_atom_site_label
_atom_site_fract_x
_atom_site_fract_y
_atom_site_fract_z
Si Si1 0.542310 0.684859 0.470414
Si Si2 0.623614 0.822079 0.945173
Si Si3 0.063546 0.817170 0.127586
Si Si4 0.816634 0.178355 0.331816
Si Si5 0.687766 0.318671 0.186600
Si Si6 0.004219 0.181363 0.227482
Si Si7 0.689375 0.322568 0.882485
O O1 0.500000 0.735027 0.500000
O O2 0.543469 0.500000 0.477166
O O3 0.614057 0.736245 0.562160
O O4 0.517245 0.723727 0.343308
O O5 0.554911 0.770626 0.881590
O O6 0.634246 0.764634 0.860760
O O7 0.633747 0.000000 0.964844
O O8 0.670321 0.737484 0.068148
O O9 0.128844 0.762772 0.169896
O O10 0.057388 0.788827 0.222900
O O11 0.063929 0.000000 0.115953
O O12 0.000000 0.764003 0.000000
O O13 0.755804 0.256990 0.295124
O O14 0.811123 0.192229 0.220836
O O15 0.814328 0.000000 0.351467
O O16 0.689457 0.500000 0.190555
O O17 0.991220 0.000000 0.208874
O O18 0.685605 0.500000 0.899086
O O19 0.750000 0.250000 0.000000
#
# Coordination Sequence:
#
# PCOD9188677 Si02
#       7
#     8   8   8   8   8   8   8
#     4   9  18  35  60  86 109 143 190 234 277 333
#     4  12  23  34  51  81 117 147 183 231 288 343
#     4   9  17  32  55  84 111 142 189 237 279 336
#     4  10  21  37  56  82 115 145 184 236 283 334
#     4  11  21  35  56  80 111 148 188 230 283 345
#     4  10  19  36  61  82 107 147 193 236 279 331
#     4  11  21  33  52  78 111 146 184 226 277 336
#
# _framework density 19.108184999999999
#
# number of rings (size 3 to 8) (size 9 to 14) (size 15 to 20)
#    0.000    1.714    2.857    3.000    0.000    2.857 
#    0.000    3.571    0.000    1.714    0.000    0.000 
#    0.000    0.000    0.000    0.000    0.000    0.000 
#
# Total GULP energy -156151.141023 kJ/mol
# GULP energy per Si atom -5576.826465 kJ/mol
# Density = 1.906469 g / cm^3
# Si number density = 19.108185 Si / 1000 Ang^3
#
#
#
# Elastic Constant Matrix: (Units=GPa)
#
#
# Indices 1 2 3 4 5 6 
#
# 1 147.7385 22.2231 36.3041 0.0000 12.2127 0.0000
# 2 22.2231 23.4994 11.9746 0.0000 2.3032 0.0000
# 3 36.3041 11.9746 73.1165 0.0000 15.2154 0.0000
# 4 0.0000 0.0000 0.0000 12.5908 0.0000 8.9479
# 5 12.2127 2.3032 15.2154 0.0000 33.5592 0.0000
# 6 0.0000 0.0000 0.0000 8.9479 0.0000 24.2861
#
#
#
# Elastic Compliance Matrix: (Units=1/GPa)
#
#
# Indices 1 2 3 4 5 6 
#
# 1 0.008572 -0.006490 -0.002912 0.000000 -0.001354 0.000000
# 2 -0.006490 0.051346 -0.005460 0.000000 0.001313 0.000000
# 3 -0.002912 -0.005460 0.017356 0.000000 -0.006435 0.000000
# 4 0.000000 0.000000 0.000000 0.107595 0.000000 -0.039642
# 5 -0.001354 0.001313 -0.006435 0.000000 0.033118 0.000000
# 6 0.000000 0.000000 0.000000 -0.039642 0.000000 0.055781
#
#
# Mechanical properties :
#
#
# Convention : Reuss Voigt Hill
#
# Bulk Modulus (GPa) = 21.03049 42.81753 31.92401
# Shear Modulus (GPa) = 15.65720 25.67739 20.66730
#
# Velocity S-wave (km/s) = 2.86562 3.66975 3.29233
# Velocity P-wave (km/s) = 4.68817 6.35710 5.58532
#
# Compressibility (1/GPa) = 0.04755002
#
# Stress axis : x y z
#
# Youngs Moduli (GPa) = 116.65285 19.47587 57.61792
#
# Poissons Ratio (x) = 0.12641 0.16776
# Poissons Ratio (y) = 0.75713 0.31458
# Poissons Ratio (z) = 0.33965 0.10633
#
# Static dielectric constant tensor:
#      x y z
#    x 1.724710 0.000000 0.011440 
#    y 0.000000 1.645490 0.000000 
#    z 0.011440 0.000000 1.664200 
# 
# From -- ./inp_files/249274.got.cif
#   From: 2010.05.17/outbox.cif.g08.bks.cpg/sg12_125_cif.got.tgz:249274.got - 2010.06.03 13:09:07.
