data_PCOD9188789
_publ_section_title
;
Structure prediction by ZEFSAII (Michael W. Deem and Ramdas Pophale) SiO2 
 PCOD9188789
Probable space group: C 2/M
;
_chemical_formula_sum "Si O2"
_cell_formula_units_Z 56
_cell_length_a 28.747382
_cell_length_b 17.151249
_cell_length_c 9.712199
_cell_angle_alpha 90.000000
_cell_angle_beta 142.817474
_cell_angle_gamma 90.000000
_cell_volume 2894.040330
_symmetry_space_group_name_H-M "C 2/M"
_symmetry_group_IT_number 12
_symmetry_cell_setting 'monoclinic'
loop_
_space_group_symop_operation_xyz
x,y,z
-x,y,-z
-x,-y,-z
x,-y,z
1/2+x,1/2+y,z
1/2-x,1/2+y,-z
1/2-x,1/2-y,-z
1/2+x,1/2-y,z
loop_
_atom_site_type_symbol
_atom_site_label
_atom_site_fract_x
_atom_site_fract_y
_atom_site_fract_z
Si Si1 0.903749 0.000000 0.431774
Si Si2 0.326564 0.354316 0.908344
Si Si3 0.139040 0.405651 0.806587
Si Si4 0.574896 0.500000 0.851490
Si Si5 0.807879 0.851433 0.188917
Si Si6 0.917277 0.308344 0.082406
Si Si7 0.098232 0.294385 0.473393
Si Si8 0.689783 0.815698 0.414222
O O1 0.857998 0.923089 0.361097
O O2 0.916119 0.000000 0.294604
O O3 0.987681 0.000000 0.690568
O O4 0.251166 0.368447 0.638869
O O5 0.384932 0.421800 0.007338
O O6 0.303370 0.358748 0.013395
O O7 0.370926 0.272119 0.000257
O O8 0.142257 0.500000 0.818834
O O9 0.083798 0.366347 0.789953
O O10 0.116394 0.373211 0.602327
O O11 0.221768 0.366013 0.037737
O O12 0.853246 0.773033 0.333352
O O13 0.005658 0.287040 0.256146
O O14 0.865660 0.345037 0.837672
O O15 0.132156 0.289759 0.399856
O O16 0.750000 0.750000 0.500000
#
# Coordination Sequence:
#
# PCOD9188789 Si02
#       8
#     4   8   8   4   8   8   8   8
#     4   9  18  30  52  91 130 152 193 262 325 379
#     4  10  19  36  61  90 127 163 212 261 315 388
#     4  12  25  42  65  96 132 169 218 270 325 383
#     4   9  18  30  54  89 126 158 195 256 325 381
#     4  11  19  36  62  95 122 163 212 262 324 379
#     4  11  24  41  61  94 128 171 214 266 327 379
#     4  12  23  39  69  91 127 166 216 273 323 383
#     4  10  22  41  63  90 124 170 219 261 314 390
#
# _framework density 19.350110999999998
#
# number of rings (size 3 to 8) (size 9 to 14) (size 15 to 20)
#    0.000    1.286    3.571    3.857    0.000    2.286 
#    1.286    0.000    0.000    1.714    0.000    6.000 
#    0.000    0.000    0.000    0.000    0.000    0.000 
#
# Total GULP energy -156087.575320 kJ/mol
# GULP energy per Si atom -5574.556261 kJ/mol
# Density = 1.930607 g / cm^3
# Si number density = 19.350111 Si / 1000 Ang^3
#
#
#
# Elastic Constant Matrix: (Units=GPa)
#
#
# Indices 1 2 3 4 5 6 
#
# 1 99.4170 18.4616 31.1843 0.0000 15.2292 0.0000
# 2 18.4616 98.5733 31.9683 0.0000 8.3794 0.0000
# 3 31.1843 31.9683 79.8837 0.0000 8.5720 0.0000
# 4 0.0000 0.0000 0.0000 19.0507 0.0000 12.6476
# 5 15.2292 8.3794 8.5720 0.0000 37.0499 0.0000
# 6 0.0000 0.0000 0.0000 12.6476 0.0000 19.8067
#
#
#
# Elastic Compliance Matrix: (Units=1/GPa)
#
#
# Indices 1 2 3 4 5 6 
#
# 1 0.012032 -0.000616 -0.004035 0.000000 -0.003873 0.000000
# 2 -0.000616 0.011782 -0.004323 0.000000 -0.001411 0.000000
# 3 -0.004035 -0.004323 0.015936 0.000000 -0.001051 0.000000
# 4 0.000000 0.000000 0.000000 0.091120 0.000000 -0.058185
# 5 -0.003873 -0.001411 -0.001051 0.000000 0.029145 0.000000
# 6 0.000000 0.000000 0.000000 -0.058185 0.000000 0.087642
#
#
# Mechanical properties :
#
#
# Convention : Reuss Voigt Hill
#
# Bulk Modulus (GPa) = 45.86633 49.01137 47.43885
# Shear Modulus (GPa) = 18.32355 28.26544 23.29450
#
# Velocity S-wave (km/s) = 3.08059 3.82611 3.47341
# Velocity P-wave (km/s) = 6.03392 6.70093 6.37616
#
# Compressibility (1/GPa) = 0.02180249
#
# Stress axis : x y z
#
# Youngs Moduli (GPa) = 83.11252 84.87460 62.75030
#
# Poissons Ratio (x) = 0.05225 0.25319
# Poissons Ratio (y) = 0.05117 0.27128
# Poissons Ratio (z) = 0.33536 0.36693
#
# Static dielectric constant tensor:
#      x y z
#    x 1.704800 0.000000 -0.016940 
#    y 0.000000 1.661980 0.000000 
#    z -0.016940 0.000000 1.707330 
# 
# From -- ./inp_files/106066.got.cif
#   From: 2010.05.17/outbox.cif.g08.bks.cpg/sg12_54_cif.got.tgz:106066.got - 2010.06.03 13:09:07.
