data_PCOD9188286
_publ_section_title
;
Structure prediction by ZEFSAII (Michael W. Deem and Ramdas Pophale) SiO2 
 PCOD9188286
Probable space group: C 2/M
;
_chemical_formula_sum "Si O2"
_cell_formula_units_Z 56
_cell_length_a 27.643661
_cell_length_b 7.878512
_cell_length_c 13.072624
_cell_angle_alpha 90.000000
_cell_angle_beta 67.942860
_cell_angle_gamma 90.000000
_cell_volume 2638.719031
_symmetry_space_group_name_H-M "C 2/M"
_symmetry_group_IT_number 12
_symmetry_cell_setting 'monoclinic'
loop_
_space_group_symop_operation_xyz
x,y,z
-x,y,-z
-x,-y,-z
x,-y,z
1/2+x,1/2+y,z
1/2-x,1/2+y,-z
1/2-x,1/2-y,-z
1/2+x,1/2-y,z
loop_
_atom_site_type_symbol
_atom_site_label
_atom_site_fract_x
_atom_site_fract_y
_atom_site_fract_z
Si Si1 0.368832 0.699397 0.772028
Si Si2 0.053132 0.207643 0.905460
Si Si3 0.402096 0.702936 0.337466
Si Si4 0.942191 0.300393 0.527212
Si Si5 0.287001 0.704270 0.377415
Si Si6 0.749146 0.793911 0.184403
Si Si7 0.142143 0.207434 0.993641
O O1 0.380294 0.500000 0.763904
O O2 0.404146 0.773039 0.653690
O O3 0.307404 0.725592 0.799654
O O4 0.377852 0.766530 0.879872
O O5 0.059539 0.263555 0.783016
O O6 0.052092 0.000000 0.907627
O O7 0.103412 0.258026 0.933043
O O8 0.000000 0.266728 0.000000
O O9 0.399706 0.500000 0.328842
O O10 0.418215 0.736519 0.440230
O O11 0.344677 0.770660 0.356065
O O12 0.948101 0.500000 0.508187
O O13 0.000000 0.225761 0.500000
O O14 0.290173 0.500000 0.367451
O O15 0.250000 0.750000 0.500000
O O16 0.264188 0.762003 0.287264
O O17 0.746248 0.000000 0.184107
O O18 0.798085 0.740414 0.075145
O O19 0.142500 0.000000 0.994371
#
# Coordination Sequence:
#
# PCOD9188286 Si02
#       7
#     8   8   8   8   8   8   8
#     4  11  23  37  59  90 119 150 198 247 284 336
#     4   9  17  31  57  91 120 147 185 237 296 346
#     4  10  20  37  62  90 116 144 190 245 287 336
#     4  11  26  45  61  80 114 158 197 236 292 354
#     4  10  20  33  53  81 113 149 188 231 280 336
#     4  10  19  36  58  82 120 161 191 228 290 353
#     4   9  18  34  56  87 122 154 190 235 289 347
#
# _framework density 21.222418999999999
#
# number of rings (size 3 to 8) (size 9 to 14) (size 15 to 20)
#    0.000    2.000    1.429    2.143    2.000    4.571 
#    0.000    0.714    0.000    2.143    0.000    0.000 
#    0.000    0.000    0.000    0.000    0.000    0.000 
#
# Total GULP energy -156406.906826 kJ/mol
# GULP energy per Si atom -5585.960958 kJ/mol
# Density = 2.117412 g / cm^3
# Si number density = 21.222419 Si / 1000 Ang^3
#
#
#
# Elastic Constant Matrix: (Units=GPa)
#
#
# Indices 1 2 3 4 5 6 
#
# 1 50.2296 -10.2666 23.8215 0.0000 -6.1772 0.0000
# 2 -10.2666 13.7433 -10.0864 0.0000 0.7457 0.0000
# 3 23.8215 -10.0864 152.1012 0.0000 -2.1673 0.0000
# 4 0.0000 0.0000 0.0000 -2.1148 0.0000 1.9722
# 5 -6.1772 0.7457 -2.1673 0.0000 41.2131 0.0000
# 6 0.0000 0.0000 0.0000 1.9722 0.0000 11.5963
#
#
#
# Elastic Compliance Matrix: (Units=1/GPa)
#
#
# Indices 1 2 3 4 5 6 
#
# 1 0.024995 0.016455 -0.002776 0.000000 0.003303 0.000000
# 2 0.016455 0.087369 0.003232 0.000000 0.001055 0.000000
# 3 -0.002776 0.003232 0.007222 0.000000 -0.000095 0.000000
# 4 0.000000 0.000000 0.000000 -0.408135 0.000000 0.069412
# 5 0.003303 0.001055 -0.000095 0.000000 0.024735 0.000000
# 6 0.000000 0.000000 0.000000 0.069412 0.000000 0.074429
#
#
# Mechanical properties :
#
#
# Convention : Reuss Voigt Hill
#
# Bulk Modulus (GPa) = 6.51863 24.77901 15.64882
# Shear Modulus (GPa) = -29.05806 24.31263 -2.37271
#
# Velocity S-wave (km/s) = -3.70431 3.38836 -1.05851
# Velocity P-wave (km/s) = 3.90097 5.19704 2.42813
#
# Compressibility (1/GPa) = 0.15340646
#
# Stress axis : x y z
#
# Youngs Moduli (GPa) = 40.00857 11.44569 138.45920
#
# Poissons Ratio (x) = -0.18834 0.38441
# Poissons Ratio (y) = -0.65833 -0.44747
# Poissons Ratio (z) = 0.11108 -0.03699
#
# Static dielectric constant tensor:
#      x y z
#    x 1.781300 0.000000 -0.004630 
#    y 0.000000 1.770990 0.000000 
#    z -0.004630 0.000000 1.755800 
# 
# From -- ./inp_files/180866.got.cif
#   From: 2010.05.17/outbox.cif.g08.bks.cpg/sg12_91_cif.got.tgz:180866.got - 2010.06.03 13:09:07.
