data_PCOD9188050
_publ_section_title
;
Structure prediction by ZEFSAII (Michael W. Deem and Ramdas Pophale) SiO2 
 PCOD9188050
Probable space group: C 2/M
;
_chemical_formula_sum "Si O2"
_cell_formula_units_Z 58
_cell_length_a 7.873070
_cell_length_b 20.893555
_cell_length_c 15.779402
_cell_angle_alpha 90.000000
_cell_angle_beta 70.805188
_cell_angle_gamma 90.000000
_cell_volume 2451.352678
_symmetry_space_group_name_H-M "C 2/M"
_symmetry_group_IT_number 12
_symmetry_cell_setting 'monoclinic'
loop_
_space_group_symop_operation_xyz
x,y,z
-x,y,-z
-x,-y,-z
x,-y,z
1/2+x,1/2+y,z
1/2-x,1/2+y,-z
1/2-x,1/2-y,-z
1/2+x,1/2-y,z
loop_
_atom_site_type_symbol
_atom_site_label
_atom_site_fract_x
_atom_site_fract_y
_atom_site_fract_z
Si Si1 0.739253 0.651135 0.384610
Si Si2 0.397372 0.427762 0.234527
Si Si3 0.773321 0.115981 0.421738
Si Si4 0.385749 0.307846 0.139729
Si Si5 0.000000 0.500000 0.500000
Si Si6 0.017021 0.428122 0.765503
Si Si7 0.568567 0.825895 0.081643
Si Si8 0.390602 0.773785 0.663255
O O1 0.687424 0.630676 0.487222
O O2 0.823092 0.589530 0.324628
O O3 0.599973 0.699710 0.364002
O O4 0.912159 0.698731 0.354094
O O5 0.458311 0.500000 0.207700
O O6 0.417626 0.408917 0.329322
O O7 0.477095 0.370698 0.164689
O O8 0.181065 0.424944 0.246839
O O9 0.636457 0.056540 0.445108
O O10 0.684825 0.179834 0.397499
O O11 0.509510 0.247016 0.107319
O O12 0.234928 0.285049 0.233943
O O13 0.279261 0.326862 0.071770
O O14 0.036928 0.500000 0.794406
O O15 0.018943 0.375154 0.837940
O O16 0.500000 0.842739 0.000000
#
# Coordination Sequence:
#
# PCOD9188050 Si02
#       8
#     8   8   8   8   2   8   8   8
#     4  12  21  34  53  81 113 145 183 226 269 318
#     4   9  17  31  52  78 113 143 183 230 267 306
#     4  11  20  27  48  81 112 140 182 227 268 296
#     4  10  19  36  54  84 109 139 179 220 272 328
#     4  12  16  28  48  76 118 128 194 240 260 292
#     4  10  20  33  53  80 109 139 176 226 274 317
#     4  11  21  37  59  83 109 138 175 223 278 334
#     4  11  20  35  51  79 114 141 181 221 270 318
#
# _framework density 23.660404
#
# number of rings (size 3 to 8) (size 9 to 14) (size 15 to 20)
#    0.000    1.379    7.586    0.828    2.897    0.276 
#    0.000    0.000    0.000    1.241    1.793    0.966 
#    0.000    0.000    0.000    0.000    0.000    0.000 
#
# Total GULP energy -162002.798324 kJ/mol
# GULP energy per Si atom -5586.303390 kJ/mol
# Density = 2.360655 g / cm^3
# Si number density = 23.660404 Si / 1000 Ang^3
#
#
#
# Elastic Constant Matrix: (Units=GPa)
#
#
# Indices 1 2 3 4 5 6 
#
# 1 28.8361 -1.4159 -2.1515 0.0000 -4.6233 0.0000
# 2 -1.4159 143.0012 41.9367 0.0000 14.5010 0.0000
# 3 -2.1515 41.9367 88.7107 0.0000 13.6766 0.0000
# 4 0.0000 0.0000 0.0000 14.7252 0.0000 1.8838
# 5 -4.6233 14.5010 13.6766 0.0000 8.5705 0.0000
# 6 0.0000 0.0000 0.0000 1.8838 0.0000 18.8929
#
#
#
# Elastic Compliance Matrix: (Units=1/GPa)
#
#
# Indices 1 2 3 4 5 6 
#
# 1 0.038883 -0.001696 -0.002561 0.000000 0.027933 0.000000
# 2 -0.001696 0.008909 -0.002371 0.000000 -0.012205 0.000000
# 3 -0.002561 -0.002371 0.015817 0.000000 -0.022611 0.000000
# 4 0.000000 0.000000 0.000000 0.068788 0.000000 -0.006859
# 5 0.027933 -0.012205 -0.022611 0.000000 0.188481 0.000000
# 6 0.000000 0.000000 0.000000 -0.006859 0.000000 0.053614
#
#
# Mechanical properties :
#
#
# Convention : Reuss Voigt Hill
#
# Bulk Modulus (GPa) = 19.86038 37.47629 28.66833
# Shear Modulus (GPa) = 12.35991 23.24963 17.80477
#
# Velocity S-wave (km/s) = 2.28806 3.13811 2.74617
# Velocity P-wave (km/s) = 3.92332 5.38553 4.71149
#
# Compressibility (1/GPa) = 0.05035151
#
# Stress axis : x y z
#
# Youngs Moduli (GPa) = 25.71834 112.24369 63.22169
#
# Poissons Ratio (x) = 0.19040 0.16194
# Poissons Ratio (y) = 0.04363 0.14991
# Poissons Ratio (z) = 0.06588 0.26614
#
# Static dielectric constant tensor:
#      x y z
#    x 2.035810 0.000000 0.029980 
#    y 0.000000 1.844750 0.000000 
#    z 0.029980 0.000000 1.904160 
# 
# From -- ./inp_files/198428.got.cif
#   From: 2010.05.17/outbox.cif.g08.bks.cpg/sg12_100_cif.got.tgz:198428.got - 2010.06.03 13:09:07.
