data_PCOD9188893
_publ_section_title
;
Structure prediction by ZEFSAII (Michael W. Deem and Ramdas Pophale) SiO2 
 PCOD9188893
Probable space group: C 2/M
;
_chemical_formula_sum "Si O2"
_cell_formula_units_Z 48
_cell_length_a 25.802848
_cell_length_b 13.830881
_cell_length_c 11.879806
_cell_angle_alpha 90.000000
_cell_angle_beta 150.653367
_cell_angle_gamma 90.000000
_cell_volume 2077.803672
_symmetry_space_group_name_H-M "C 2/M"
_symmetry_group_IT_number 12
_symmetry_cell_setting 'monoclinic'
loop_
_space_group_symop_operation_xyz
x,y,z
-x,y,-z
-x,-y,-z
x,-y,z
1/2+x,1/2+y,z
1/2-x,1/2+y,-z
1/2-x,1/2-y,-z
1/2+x,1/2-y,z
loop_
_atom_site_type_symbol
_atom_site_label
_atom_site_fract_x
_atom_site_fract_y
_atom_site_fract_z
Si Si1 0.772263 0.634489 0.434770
Si Si2 0.680726 0.638876 0.493537
Si Si3 0.446760 0.673303 0.085719
Si Si4 0.493294 0.896722 0.122368
Si Si5 0.256129 0.390156 0.128938
Si Si6 0.092544 0.225697 0.747842
O O1 0.747904 0.600295 0.515651
O O2 0.795381 0.748080 0.472975
O O3 0.885163 0.598491 0.604613
O O4 0.661659 0.624297 0.160035
O O5 0.554238 0.629033 0.238497
O O6 0.711901 0.610467 0.678705
O O7 0.447242 0.790066 0.061172
O O8 0.451987 0.668286 0.229864
O O9 0.441759 0.000000 0.060498
O O10 0.500000 0.897375 0.000000
O O11 0.229402 0.500000 0.046518
O O12 0.347599 0.347743 0.221585
O O13 0.165700 0.310868 0.934497
O O14 0.000000 0.272157 0.500000
#
# Coordination Sequence:
#
# PCOD9188893 Si02
#       6
#     8   8   8   8   8   8
#     4  10  20  36  62  92 130 170 204 253 323 385
#     4  10  19  36  62  93 126 166 212 255 314 392
#     4  11  20  39  65  93 123 170 216 265 320 389
#     4  10  22  37  59  95 132 165 209 263 319 385
#     4  11  25  43  68  97 128 172 222 272 328 390
#     4  11  24  45  68  94 128 171 224 276 329 383
#
# _framework density 23.101317000000002
#
# number of rings (size 3 to 8) (size 9 to 14) (size 15 to 20)
#    0.000    1.500    3.333    3.500    0.000    2.000 
#    0.000    3.333    0.000    2.000    0.000    0.000 
#    0.000    0.667    0.000    0.000    0.000    0.000 
#
# Total GULP energy -133973.700952 kJ/mol
# GULP energy per Si atom -5582.237540 kJ/mol
# Density = 2.304874 g / cm^3
# Si number density = 23.101317 Si / 1000 Ang^3
#
#
#
# Elastic Constant Matrix: (Units=GPa)
#
#
# Indices 1 2 3 4 5 6 
#
# 1 77.2415 27.4389 20.5842 0.0000 -8.2057 0.0000
# 2 27.4389 103.3375 -8.9023 0.0000 -2.9472 0.0000
# 3 20.5842 -8.9023 115.5681 0.0000 4.5651 0.0000
# 4 0.0000 0.0000 0.0000 1.0394 0.0000 -4.1071
# 5 -8.2057 -2.9472 4.5651 0.0000 38.2977 0.0000
# 6 0.0000 0.0000 0.0000 -4.1071 0.0000 -21.6764
#
#
#
# Elastic Compliance Matrix: (Units=1/GPa)
#
#
# Indices 1 2 3 4 5 6 
#
# 1 0.015732 -0.004362 -0.003273 0.000000 0.003425 0.000000
# 2 -0.004362 0.010968 0.001633 0.000000 -0.000285 0.000000
# 3 -0.003273 0.001633 0.009429 0.000000 -0.001700 0.000000
# 4 0.000000 0.000000 0.000000 0.550199 0.000000 -0.104247
# 5 0.003425 -0.000285 -0.001700 0.000000 0.027026 0.000000
# 6 0.000000 0.000000 0.000000 -0.104247 0.000000 -0.026381
#
#
# Mechanical properties :
#
#
# Convention : Reuss Voigt Hill
#
# Bulk Modulus (GPa) = 41.45145 41.59877 41.52511
# Shear Modulus (GPa) = 8.23699 20.66722 14.45210
#
# Velocity S-wave (km/s) = 1.89033 2.99429 2.50391
# Velocity P-wave (km/s) = 4.76935 5.47727 5.13553
#
# Compressibility (1/GPa) = 0.02412461
#
# Stress axis : x y z
#
# Youngs Moduli (GPa) = 63.56470 91.17694 106.05740
#
# Poissons Ratio (x) = 0.39768 0.34716
# Poissons Ratio (y) = 0.27724 -0.17319
# Poissons Ratio (z) = 0.20807 -0.14889
#
# Static dielectric constant tensor:
#      x y z
#    x 1.872480 0.000000 0.047700 
#    y 0.000000 1.899290 0.000000 
#    z 0.047700 0.000000 1.896290 
# 
# From -- ./inp_files/183881.got.cif
#   From: 2010.05.17/outbox.cif.g08.bks.cpg/sg12_92_cif.got.tgz:183881.got - 2010.06.03 13:09:07.
