data_PCOD9188009
_publ_section_title
;
Structure prediction by ZEFSAII (Michael W. Deem and Ramdas Pophale) SiO2 
 PCOD9188009
Probable space group: C 2/M
;
_chemical_formula_sum "Si O2"
_cell_formula_units_Z 64
_cell_length_a 16.680562
_cell_length_b 23.827956
_cell_length_c 9.430410
_cell_angle_alpha 90.000000
_cell_angle_beta 97.297840
_cell_angle_gamma 90.000000
_cell_volume 3717.881959
_symmetry_space_group_name_H-M "C 2/M"
_symmetry_group_IT_number 12
_symmetry_cell_setting 'monoclinic'
loop_
_space_group_symop_operation_xyz
x,y,z
-x,y,-z
-x,-y,-z
x,-y,z
1/2+x,1/2+y,z
1/2-x,1/2+y,-z
1/2-x,1/2-y,-z
1/2+x,1/2-y,z
loop_
_atom_site_type_symbol
_atom_site_label
_atom_site_fract_x
_atom_site_fract_y
_atom_site_fract_z
Si Si1 0.912115 0.566042 0.051952
Si Si2 0.822190 0.192985 0.687602
Si Si3 0.095369 0.734878 0.541105
Si Si4 0.803746 0.622140 0.485825
Si Si5 0.434057 0.064496 0.373434
Si Si6 0.313020 0.267053 0.180169
Si Si7 0.410324 0.248342 0.920788
Si Si8 0.817117 0.643177 0.816832
O O1 0.889381 0.500000 0.054076
O O2 0.849126 0.599666 0.940495
O O3 0.923448 0.589886 0.214060
O O4 0.000000 0.569769 0.000000
O O5 0.855278 0.229373 0.564126
O O6 0.780439 0.138737 0.608627
O O7 0.751235 0.225466 0.758037
O O8 0.893591 0.197066 0.819401
O O9 0.135636 0.673494 0.541601
O O10 0.113290 0.764988 0.694051
O O11 0.000000 0.732364 0.500000
O O12 0.847686 0.568903 0.429461
O O13 0.803399 0.619758 0.655759
O O14 0.500000 0.087482 0.500000
O O15 0.459054 0.000000 0.353114
O O16 0.265979 0.325718 0.159860
O O17 0.347886 0.248597 0.038125
O O18 0.385661 0.192440 0.827774
O O19 0.500000 0.245315 0.000000
#
# Coordination Sequence:
#
# PCOD9188009 Si02
#       8
#     8   8   8   8   8   8   8   8
#     4  10  22  37  53  74 102 132 165 213 257 294
#     4  10  19  36  46  69 104 135 172 208 250 295
#     4  11  19  31  50  72 104 138 173 208 244 296
#     4  11  20  33  52  72  99 139 174 206 248 299
#     4  10  22  37  53  75 100 130 171 212 251 296
#     4  10  20  32  48  72 102 137 169 211 251 293
#     4  11  22  32  48  75 104 137 175 210 245 300
#     4  11  20  34  51  72 102 137 174 203 251 302
#
# _framework density 17.214103000000001
#
# number of rings (size 3 to 8) (size 9 to 14) (size 15 to 20)
#    0.000    1.500    3.750    4.500    5.250    1.500 
#    0.000    0.000    0.000    0.000    0.000    0.000 
#    0.000    6.000    0.000    0.000    0.000    0.000 
#
# Total GULP energy -178320.556302 kJ/mol
# GULP energy per Si atom -5572.517384 kJ/mol
# Density = 1.717492 g / cm^3
# Si number density = 17.214103 Si / 1000 Ang^3
#
#
#
# Elastic Constant Matrix: (Units=GPa)
#
#
# Indices 1 2 3 4 5 6 
#
# 1 35.1226 3.1668 2.1016 0.0000 15.6063 0.0000
# 2 3.1668 24.0903 14.0508 0.0000 9.5611 0.0000
# 3 2.1016 14.0508 122.0122 0.0000 10.6048 0.0000
# 4 0.0000 0.0000 0.0000 19.9319 0.0000 1.1649
# 5 15.6063 9.5611 10.6048 0.0000 36.0429 0.0000
# 6 0.0000 0.0000 0.0000 1.1649 0.0000 8.9954
#
#
#
# Elastic Compliance Matrix: (Units=1/GPa)
#
#
# Indices 1 2 3 4 5 6 
#
# 1 0.035353 0.001273 0.000620 0.000000 -0.015828 0.000000
# 2 0.001273 0.048846 -0.004590 0.000000 -0.012158 0.000000
# 3 0.000620 -0.004590 0.008858 0.000000 -0.001657 0.000000
# 4 0.000000 0.000000 0.000000 0.050553 0.000000 -0.006547
# 5 -0.015828 -0.012158 -0.001657 0.000000 0.038311 0.000000
# 6 0.000000 0.000000 0.000000 -0.006547 0.000000 0.112015
#
#
# Mechanical properties :
#
#
# Convention : Reuss Voigt Hill
#
# Bulk Modulus (GPa) = 11.40752 24.42927 17.91840
# Shear Modulus (GPa) = 15.21836 23.78779 19.50307
#
# Velocity S-wave (km/s) = 2.97655 3.72139 3.36961
# Velocity P-wave (km/s) = 4.29585 5.71728 5.05676
#
# Compressibility (1/GPa) = 0.08766144
#
# Stress axis : x y z
#
# Youngs Moduli (GPa) = 28.28644 20.47266 112.89412
#
# Poissons Ratio (x) = -0.02606 -0.07001
# Poissons Ratio (y) = -0.03600 0.51821
# Poissons Ratio (z) = -0.01754 0.09397
#
# Static dielectric constant tensor:
#      x y z
#    x 1.608860 0.000000 0.030820 
#    y 0.000000 1.621540 0.000000 
#    z 0.030820 0.000000 1.651670 
# 
# From -- ./inp_files/78776.got.cif
#   From: 2010.05.17/outbox.cif.g08.bks.cpg/sg12_40_cif.got.tgz:78776.got - 2010.06.03 13:09:07.
