data_PCOD9188288
_publ_section_title
;
Structure prediction by ZEFSAII (Michael W. Deem and Ramdas Pophale) SiO2 
 PCOD9188288
Probable space group: C 2/M
;
_chemical_formula_sum "Si O2"
_cell_formula_units_Z 46
_cell_length_a 15.210818
_cell_length_b 30.317917
_cell_length_c 16.139704
_cell_angle_alpha 90.000000
_cell_angle_beta 161.134590
_cell_angle_gamma 90.000000
_cell_volume 2406.662853
_symmetry_space_group_name_H-M "C 2/M"
_symmetry_group_IT_number 12
_symmetry_cell_setting 'monoclinic'
loop_
_space_group_symop_operation_xyz
x,y,z
-x,y,-z
-x,-y,-z
x,-y,z
1/2+x,1/2+y,z
1/2-x,1/2+y,-z
1/2-x,1/2-y,-z
1/2+x,1/2-y,z
loop_
_atom_site_type_symbol
_atom_site_label
_atom_site_fract_x
_atom_site_fract_y
_atom_site_fract_z
Si Si1 0.039627 0.823518 0.738679
Si Si2 0.192258 0.745981 0.751138
Si Si3 0.582182 0.835164 0.765104
Si Si4 0.686552 0.500000 0.748023
Si Si5 0.814515 0.096719 0.252352
Si Si6 0.818676 0.409172 0.265464
Si Si7 0.500000 0.000000 0.500000
O O1 0.095439 0.779867 0.735210
O O2 0.106809 0.865000 0.740033
O O3 0.728754 0.825567 0.490002
O O4 0.232630 0.825952 0.990387
O O5 0.176241 0.697455 0.775997
O O6 0.000000 0.749760 0.500000
O O7 0.500000 0.756511 0.000000
O O8 0.615290 0.884804 0.760844
O O9 0.500000 0.500000 0.500000
O O10 0.640928 0.547857 0.747509
O O11 0.000000 0.500000 0.000000
O O12 0.000000 0.099972 0.500000
O O13 0.500000 0.100650 0.000000
O O14 0.900816 0.460433 0.347088
O O15 0.000000 0.387112 0.500000
O O16 0.500000 0.405006 0.000000
#
# Coordination Sequence:
#
# PCOD9188288 Si02
#       7
#     8   8   8   4   8   8   2
#     4  12  24  39  58  90 127 158 190 256 319 354
#     4  12  24  42  65  88 114 163 212 252 289 371
#     4  12  24  40  60  90 126 158 195 253 313 366
#     4   8  16  30  54  78 102 140 192 238 276 326
#     4  10  19  36  58  83 111 155 202 242 285 364
#     4  10  20  39  63  91 116 161 208 248 295 357
#     4   8  22  36  70  88 122 152 222 250 290 346
#
# _framework density 19.113603000000001
#
# number of rings (size 3 to 8) (size 9 to 14) (size 15 to 20)
#    0.522    0.696    0.000    7.565    0.000    0.000 
#    0.000    1.739    0.000    0.000    0.000    0.000 
#    0.000    0.000    0.000    0.000    0.000    0.000 
#
# Total GULP energy -128175.509600 kJ/mol
# GULP energy per Si atom -5572.848243 kJ/mol
# Density = 1.907010 g / cm^3
# Si number density = 19.113603 Si / 1000 Ang^3
#
#
#
# Elastic Constant Matrix: (Units=GPa)
#
#
# Indices 1 2 3 4 5 6 
#
# 1 75.5302 28.7783 59.4362 0.0006 -4.4751 -0.0090
# 2 28.7783 99.9686 25.6803 0.0013 -9.7975 0.0018
# 3 59.4362 25.6803 182.9441 0.0131 -13.1340 -0.0311
# 4 0.0006 0.0013 0.0131 24.3761 0.0005 -7.8879
# 5 -4.4751 -9.7975 -13.1340 0.0005 41.4962 -0.0157
# 6 -0.0090 0.0018 -0.0311 -7.8879 -0.0157 27.7605
#
#
#
# Elastic Compliance Matrix: (Units=1/GPa)
#
#
# Indices 1 2 3 4 5 6 
#
# 1 0.019293 -0.004150 -0.005737 0.000003 -0.000715 0.000001
# 2 -0.004150 0.011441 -0.000098 -0.000001 0.002223 -0.000001
# 3 -0.005737 -0.000098 0.007467 -0.000002 0.001722 0.000007
# 4 0.000003 -0.000001 -0.000002 0.045178 0.000004 0.012837
# 5 -0.000715 0.002223 0.001722 0.000004 0.025091 0.000017
# 6 0.000001 -0.000001 0.000007 0.012837 0.000017 0.039670
#
#
# Mechanical properties :
#
#
# Convention : Reuss Voigt Hill
#
# Bulk Modulus (GPa) = 54.85167 65.13694 59.99431
# Shear Modulus (GPa) = 28.70469 35.02976 31.86722
#
# Velocity S-wave (km/s) = 3.87950 4.28566 4.08763
# Velocity P-wave (km/s) = 6.98766 7.65781 7.33040
#
# Compressibility (1/GPa) = 0.01823098
#
# Stress axis : x y z
#
# Youngs Moduli (GPa) = 51.83188 87.40544 133.91655
#
# Poissons Ratio (x) = 0.36276 0.76826
# Poissons Ratio (y) = 0.21512 0.01313
# Poissons Ratio (z) = 0.29735 0.00857
#
# Static dielectric constant tensor:
#      x y z
#    x 1.629100 0.000000 0.003100 
#    y 0.000000 1.689510 0.000000 
#    z 0.003100 0.000000 1.652310 
# 
# From -- ./inp_files/219622.got.cif
#   From: 2010.05.17/outbox.cif.g08.bks.cpg/sg12_110_cif.got.tgz:219622.got - 2010.06.03 13:09:07.
