data_PCOD9188612
_publ_section_title
;
Structure prediction by ZEFSAII (Michael W. Deem and Ramdas Pophale) SiO2 
 PCOD9188612
Probable space group: C 2/M
;
_chemical_formula_sum "Si O2"
_cell_formula_units_Z 48
_cell_length_a 15.292290
_cell_length_b 16.281971
_cell_length_c 17.074574
_cell_angle_alpha 90.000000
_cell_angle_beta 145.794262
_cell_angle_gamma 90.000000
_cell_volume 2389.979155
_symmetry_space_group_name_H-M "C 2/M"
_symmetry_group_IT_number 12
_symmetry_cell_setting 'monoclinic'
loop_
_space_group_symop_operation_xyz
x,y,z
-x,y,-z
-x,-y,-z
x,-y,z
1/2+x,1/2+y,z
1/2-x,1/2+y,-z
1/2-x,1/2-y,-z
1/2+x,1/2-y,z
loop_
_atom_site_type_symbol
_atom_site_label
_atom_site_fract_x
_atom_site_fract_y
_atom_site_fract_z
Si Si1 0.903485 0.400013 0.153421
Si Si2 0.969144 0.098328 0.389428
Si Si3 0.319194 0.600288 0.869590
Si Si4 0.156504 0.399682 0.070087
Si Si5 0.778203 0.345392 0.532252
Si Si6 0.820851 0.409053 0.389874
O O1 0.913359 0.500000 0.161993
O O2 0.777581 0.373404 0.125767
O O3 0.072074 0.366506 0.303850
O O4 0.854960 0.375117 0.029631
O O5 0.812758 0.129132 0.230351
O O6 0.000000 0.131607 0.500000
O O7 0.122968 0.115705 0.453441
O O8 0.949572 0.000000 0.381878
O O9 0.302559 0.500000 0.857271
O O10 0.252668 0.635306 0.739070
O O11 0.500000 0.619331 0.000000
O O12 0.159708 0.500000 0.072928
O O13 0.000000 0.374595 0.000000
O O14 0.750000 0.250000 0.500000
O O15 0.807540 0.376471 0.466520
O O16 0.748361 0.500000 0.339266
O O17 0.000000 0.415505 0.500000
#
# Coordination Sequence:
#
# PCOD9188612 Si02
#       6
#     8   8   8   8   8   8
#     4  10  19  36  60  87 118 150 192 243 295 346
#     4  10  21  39  64  90 114 148 198 248 292 345
#     4   9  18  31  56  91 116 140 180 239 297 344
#     4   9  18  33  59  90 115 144 187 246 303 345
#     4  12  25  38  56  84 121 161 197 237 288 349
#     4  10  19  36  61  85 111 148 195 241 292 345
#
# _framework density 20.083856999999998
#
# number of rings (size 3 to 8) (size 9 to 14) (size 15 to 20)
#    0.000    2.000    1.667    2.500    2.333    3.333 
#    0.000    0.833    0.000    0.000    0.000    0.000 
#    0.000    0.000    0.000    0.000    0.000    0.000 
#
# Total GULP energy -133893.851691 kJ/mol
# GULP energy per Si atom -5578.910487 kJ/mol
# Density = 2.003815 g / cm^3
# Si number density = 20.083857 Si / 1000 Ang^3
#
#
#
# Elastic Constant Matrix: (Units=GPa)
#
#
# Indices 1 2 3 4 5 6 
#
# 1 169.1266 11.5379 108.3741 0.0001 -18.4571 0.0006
# 2 11.5379 8.6366 11.5894 -0.0013 -10.0944 0.0014
# 3 108.3741 11.5894 207.2743 -0.0030 -15.0082 0.0032
# 4 0.0001 -0.0013 -0.0030 -0.5321 -0.0015 -0.0466
# 5 -18.4571 -10.0944 -15.0082 -0.0015 41.6987 0.0017
# 6 0.0006 0.0014 0.0032 -0.0466 0.0017 -22.0083
#
#
#
# Elastic Compliance Matrix: (Units=1/GPa)
#
#
# Indices 1 2 3 4 5 6 
#
# 1 0.009251 -0.004815 -0.004472 0.000036 0.001319 -0.000001
# 2 -0.004815 0.172592 -0.004376 -0.000495 0.038075 0.000014
# 3 -0.004472 -0.004376 0.007380 -0.000032 -0.000383 0.000001
# 4 0.000036 -0.000495 -0.000032 -1.879656 -0.000185 0.003984
# 5 0.001319 0.038075 -0.000383 -0.000185 0.033645 0.000005
# 6 -0.000001 0.000014 0.000001 0.003984 0.000005 -0.045446
#
#
# Mechanical properties :
#
#
# Convention : Reuss Voigt Hill
#
# Bulk Modulus (GPa) = 6.17678 72.00447 39.09063
# Shear Modulus (GPa) = -3.08463 20.73406 8.82472
#
# Velocity S-wave (km/s) = -1.24065 3.21654 2.09845
# Velocity P-wave (km/s) = 1.01484 7.05157 5.03758
#
# Compressibility (1/GPa) = 0.16189676
#
# Stress axis : x y z
#
# Youngs Moduli (GPa) = 108.09787 5.79401 135.50654
#
# Poissons Ratio (x) = 0.02790 0.60600
# Poissons Ratio (y) = 0.52052 0.59292
# Poissons Ratio (z) = 0.48342 0.02535
#
# Static dielectric constant tensor:
#      x y z
#    x 1.752950 0.000000 -0.010430 
#    y 0.000000 1.786830 0.000000 
#    z -0.010430 0.000000 1.674550 
# 
# From -- ./inp_files/208005.got.cif
#   From: 2010.05.17/outbox.cif.g08.bks.cpg/sg12_105_cif.got.tgz:208005.got - 2010.06.03 13:09:07.
