data_PCOD9188854
_publ_section_title
;
Structure prediction by ZEFSAII (Michael W. Deem and Ramdas Pophale) SiO2 
 PCOD9188854
Probable space group: C 2/M
;
_chemical_formula_sum "Si O2"
_cell_formula_units_Z 40
_cell_length_a 19.913250
_cell_length_b 12.753458
_cell_length_c 13.900726
_cell_angle_alpha 90.000000
_cell_angle_beta 27.097689
_cell_angle_gamma 90.000000
_cell_volume 1608.068512
_symmetry_space_group_name_H-M "C 2/M"
_symmetry_group_IT_number 12
_symmetry_cell_setting 'monoclinic'
loop_
_space_group_symop_operation_xyz
x,y,z
-x,y,-z
-x,-y,-z
x,-y,z
1/2+x,1/2+y,z
1/2-x,1/2+y,-z
1/2-x,1/2-y,-z
1/2+x,1/2-y,z
loop_
_atom_site_type_symbol
_atom_site_label
_atom_site_fract_x
_atom_site_fract_y
_atom_site_fract_z
Si Si1 0.051231 0.204066 0.750644
Si Si2 0.180403 0.384109 0.693908
Si Si3 0.266401 0.840372 0.830694
Si Si4 0.677640 0.387337 0.275319
Si Si5 0.456364 0.115543 0.399384
O O1 0.076909 0.283910 0.806762
O O2 0.191920 0.132458 0.548667
O O3 0.045815 0.287194 0.669609
O O4 0.904980 0.134876 0.944138
O O5 0.111115 0.500000 0.773893
O O6 0.259941 0.381449 0.696001
O O7 0.267444 0.715087 0.847109
O O8 0.383477 0.886443 0.754835
O O9 0.337413 0.863275 0.635857
O O10 0.500000 0.382285 0.500000
O O11 0.722308 0.500000 0.176994
O O12 0.427986 0.000000 0.394155
#
# Coordination Sequence:
#
# PCOD9188854 Si02
#       5
#     8   8   8   8   8
#     4  11  23  40  65  91 129 170 216 264 319 385
#     4  10  22  41  61  89 128 168 212 265 320 380
#     4  11  21  39  64  93 125 166 215 262 317 386
#     4  10  19  36  62  88 121 162 208 263 320 375
#     4  11  23  42  65  96 133 168 211 269 324 385
#
# _framework density 24.874561
#
# number of rings (size 3 to 8) (size 9 to 14) (size 15 to 20)
#    0.000    1.400    4.000    2.400    0.000    4.000 
#    0.000    4.000    0.000    3.600    0.000    0.000 
#    0.000    0.000    0.000    0.000    0.000    0.000 
#
# Total GULP energy -111954.520125 kJ/mol
# GULP energy per Si atom -5597.726006 kJ/mol
# Density = 2.481795 g / cm^3
# Si number density = 24.874561 Si / 1000 Ang^3
#
#
#
# Elastic Constant Matrix: (Units=GPa)
#
#
# Indices 1 2 3 4 5 6 
#
# 1 98.0051 0.8376 29.3003 0.0000 0.5555 0.0000
# 2 0.8376 122.7603 6.4355 0.0000 7.4439 0.0000
# 3 29.3003 6.4355 138.3292 0.0000 -12.7944 0.0000
# 4 0.0000 0.0000 0.0000 -9.0014 0.0000 -4.7358
# 5 0.5555 7.4439 -12.7944 0.0000 28.8877 0.0000
# 6 0.0000 0.0000 0.0000 -4.7358 0.0000 29.1542
#
#
#
# Elastic Compliance Matrix: (Units=1/GPa)
#
#
# Indices 1 2 3 4 5 6 
#
# 1 0.010941 0.000134 -0.002447 0.000000 -0.001329 0.000000
# 2 0.000134 0.008326 -0.000641 0.000000 -0.002432 0.000000
# 3 -0.002447 -0.000641 0.008130 0.000000 0.003813 0.000000
# 4 0.000000 0.000000 0.000000 -0.102347 0.000000 -0.016625
# 5 -0.001329 -0.002432 0.003813 0.000000 0.036958 0.000000
# 6 0.000000 0.000000 0.000000 -0.016625 0.000000 0.031600
#
#
# Mechanical properties :
#
#
# Convention : Reuss Voigt Hill
#
# Bulk Modulus (GPa) = 46.53131 48.02683 47.27907
# Shear Modulus (GPa) = 748.70786 31.30951 390.00868
#
# Velocity S-wave (km/s) = 17.36798 3.55166 12.53517
# Velocity P-wave (km/s) = 20.51689 6.01403 15.11806
#
# Compressibility (1/GPa) = 0.02149090
#
# Stress axis : x y z
#
# Youngs Moduli (GPa) = 91.39587 120.10443 123.00356
#
# Poissons Ratio (x) = -0.01611 0.30095
# Poissons Ratio (y) = -0.01226 0.07881
# Poissons Ratio (z) = 0.22362 0.07695
#
# Static dielectric constant tensor:
#      x y z
#    x 2.005420 0.000000 -0.028460 
#    y 0.000000 1.935110 0.000000 
#    z -0.028460 0.000000 1.977980 
# 
# From -- ./inp_files/233305.got.cif
#   From: 2010.05.17/outbox.cif.g08.bks.cpg/sg12_117_cif.got.tgz:233305.got - 2010.06.03 13:09:07.
