data_PCOD9188151
_publ_section_title
;
Structure prediction by ZEFSAII (Michael W. Deem and Ramdas Pophale) SiO2 
 PCOD9188151
Probable space group: C 2/M
;
_chemical_formula_sum "Si O2"
_cell_formula_units_Z 40
_cell_length_a 18.912792
_cell_length_b 15.424067
_cell_length_c 7.028539
_cell_angle_alpha 90.000000
_cell_angle_beta 68.498313
_cell_angle_gamma 90.000000
_cell_volume 1907.622662
_symmetry_space_group_name_H-M "C 2/M"
_symmetry_group_IT_number 12
_symmetry_cell_setting 'monoclinic'
loop_
_space_group_symop_operation_xyz
x,y,z
-x,y,-z
-x,-y,-z
x,-y,z
1/2+x,1/2+y,z
1/2-x,1/2+y,-z
1/2-x,1/2-y,-z
1/2+x,1/2-y,z
loop_
_atom_site_type_symbol
_atom_site_label
_atom_site_fract_x
_atom_site_fract_y
_atom_site_fract_z
Si Si1 0.495559 0.405110 0.275350
Si Si2 0.912082 0.262260 0.789081
Si Si3 0.533127 0.904006 0.753943
Si Si4 0.659499 0.673141 0.510784
Si Si5 0.182204 0.324024 0.767461
O O1 0.500000 0.405747 0.500000
O O2 0.519845 0.500000 0.183153
O O3 0.547717 0.324156 0.161661
O O4 0.406240 0.387299 0.339553
O O5 0.877856 0.232089 0.621065
O O6 0.979377 0.332653 0.711310
O O7 0.849297 0.304757 0.990294
O O8 0.619319 0.875114 0.706999
O O9 0.529587 0.000000 0.673382
O O10 0.500000 0.908321 0.000000
O O11 0.734736 0.634243 0.337682
O O12 0.685597 0.730842 0.662338
#
# Coordination Sequence:
#
# PCOD9188151 Si02
#       5
#     8   8   8   8   8
#     4   9  18  33  56  82 107 142 185 226 273 329
#     4  10  19  36  57  78 108 144 184 226 271 328
#     4   9  18  33  56  82 107 142 185 226 273 329
#     4  10  20  34  54  79 109 144 180 223 274 326
#     4  10  20  34  54  79 109 144 180 223 274 326
#
# _framework density 20.968506999999999
#
# number of rings (size 3 to 8) (size 9 to 14) (size 15 to 20)
#    0.000    2.400    2.000    0.600    0.000    0.800 
#    0.000    4.000    0.000    6.000    0.000    0.000 
#    0.000    0.000    0.000    0.000    0.000    0.000 
#
# Total GULP energy -111442.810640 kJ/mol
# GULP energy per Si atom -5572.140532 kJ/mol
# Density = 2.092078 g / cm^3
# Si number density = 20.968507 Si / 1000 Ang^3
#
#
#
# Elastic Constant Matrix: (Units=GPa)
#
#
# Indices 1 2 3 4 5 6 
#
# 1 51.1817 -7.2028 7.0907 0.0000 -15.4084 0.0000
# 2 -7.2028 73.2578 0.3202 0.0000 -9.5991 0.0000
# 3 7.0907 0.3202 66.3342 0.0000 3.9112 0.0000
# 4 0.0000 0.0000 0.0000 3.2543 0.0000 10.3267
# 5 -15.4084 -9.5991 3.9112 0.0000 34.8608 0.0000
# 6 0.0000 0.0000 0.0000 10.3267 0.0000 -12.6169
#
#
#
# Elastic Compliance Matrix: (Units=1/GPa)
#
#
# Indices 1 2 3 4 5 6 
#
# 1 0.024228 0.003993 -0.003327 0.000000 0.012182 0.000000
# 2 0.003993 0.014825 -0.000849 0.000000 0.005942 0.000000
# 3 -0.003327 -0.000849 0.015639 0.000000 -0.003459 0.000000
# 4 0.000000 0.000000 0.000000 0.085423 0.000000 0.069917
# 5 0.012182 0.005942 -0.003459 0.000000 0.036094 0.000000
# 6 0.000000 0.000000 0.000000 0.069917 0.000000 -0.022033
#
#
# Mechanical properties :
#
#
# Convention : Reuss Voigt Hill
#
# Bulk Modulus (GPa) = 18.40731 21.24334 19.82532
# Shear Modulus (GPa) = 28.95997 17.80400 23.38199
#
# Velocity S-wave (km/s) = 3.72037 2.91706 3.34293
# Velocity P-wave (km/s) = 5.22039 4.63667 4.93717
#
# Compressibility (1/GPa) = 0.05432625
#
# Stress axis : x y z
#
# Youngs Moduli (GPa) = 41.27371 67.45194 63.94306
#
# Poissons Ratio (x) = -0.26933 0.21277
# Poissons Ratio (y) = -0.16480 0.05427
# Poissons Ratio (z) = 0.13734 0.05725
#
# Static dielectric constant tensor:
#      x y z
#    x 1.804940 0.000000 -0.025020 
#    y 0.000000 1.776950 0.000000 
#    z -0.025020 0.000000 1.803910 
# 
# From -- ./inp_files/84959.got.cif
#   From: 2010.05.17/outbox.cif.g08.bks.cpg/sg12_43_cif.got.tgz:84959.got - 2010.06.03 13:09:07.
