data_PCOD9188617
_publ_section_title
;
Structure prediction by ZEFSAII (Michael W. Deem and Ramdas Pophale) SiO2 
 PCOD9188617
Probable space group: C 2/M
;
_chemical_formula_sum "Si O2"
_cell_formula_units_Z 64
_cell_length_a 15.861045
_cell_length_b 8.147368
_cell_length_c 34.286838
_cell_angle_alpha 90.000000
_cell_angle_beta 45.722862
_cell_angle_gamma 90.000000
_cell_volume 3172.285117
_symmetry_space_group_name_H-M "C 2/M"
_symmetry_group_IT_number 12
_symmetry_cell_setting 'monoclinic'
loop_
_space_group_symop_operation_xyz
x,y,z
-x,y,-z
-x,-y,-z
x,-y,z
1/2+x,1/2+y,z
1/2-x,1/2+y,-z
1/2-x,1/2-y,-z
1/2+x,1/2-y,z
loop_
_atom_site_type_symbol
_atom_site_label
_atom_site_fract_x
_atom_site_fract_y
_atom_site_fract_z
Si Si1 0.704111 0.193367 0.056703
Si Si2 0.614170 0.808261 0.939742
Si Si3 0.537647 0.699746 0.832198
Si Si4 0.007125 0.805826 0.240731
Si Si5 0.561265 0.197951 0.440050
Si Si6 0.830184 0.201339 0.364237
Si Si7 0.369948 0.303863 0.439868
Si Si8 0.765508 0.191742 0.175398
O O1 0.776165 0.288922 0.066579
O O2 0.567503 0.231978 0.107340
O O3 0.725108 0.000000 0.054708
O O4 0.750000 0.250000 0.000000
O O5 0.648165 0.716860 0.889337
O O6 0.594274 0.000000 0.936929
O O7 0.500000 0.745860 0.000000
O O8 0.530819 0.500000 0.835543
O O9 0.518863 0.759638 0.794164
O O10 0.662463 0.748428 0.810108
O O11 0.143382 0.780831 0.206894
O O12 0.922481 0.740373 0.301958
O O13 0.984210 0.000000 0.245840
O O14 0.500000 0.256138 0.500000
O O15 0.697111 0.252328 0.396502
O O16 0.481936 0.247666 0.428918
O O17 0.561907 0.000000 0.441009
O O18 0.864723 0.255568 0.396746
O O19 0.831355 0.000000 0.364287
O O20 0.370970 0.500000 0.438536
O O21 0.250000 0.250000 0.500000
O O22 0.738656 0.000000 0.188002
#
# Coordination Sequence:
#
# PCOD9188617 Si02
#       8
#     8   8   8   8   8   8   8   8
#     4  12  24  38  60  89 123 156 196 248 303 360
#     4  11  23  39  60  88 121 158 200 245 301 366
#     4  10  22  40  62  87 119 157 201 246 301 360
#     4  10  21  41  65  85 116 166 209 247 296 362
#     4  10  19  36  60  87 121 161 201 247 304 364
#     4   9  20  38  60  86 120 162 206 246 300 363
#     4  11  21  36  58  88 123 160 204 251 305 362
#     4  11  23  39  61  91 122 156 199 253 303 352
#
# _framework density 20.174731000000001
#
# number of rings (size 3 to 8) (size 9 to 14) (size 15 to 20)
#    0.000    1.500    2.500    3.000    0.000    5.250 
#    0.000    3.125    0.000    0.000    0.000    0.000 
#    0.000    0.000    0.000    0.000    0.000    0.000 
#
# Total GULP energy -178831.204595 kJ/mol
# GULP energy per Si atom -5588.475144 kJ/mol
# Density = 2.012881 g / cm^3
# Si number density = 20.174731 Si / 1000 Ang^3
#
#
#
# Elastic Constant Matrix: (Units=GPa)
#
#
# Indices 1 2 3 4 5 6 
#
# 1 154.0937 -0.7755 67.8500 -0.0011 11.8933 0.0058
# 2 -0.7755 15.6544 7.8221 -0.0038 3.4412 0.0133
# 3 67.8500 7.8221 145.4801 -0.0022 7.4204 0.0029
# 4 -0.0011 -0.0038 -0.0022 7.0389 -0.0024 0.8941
# 5 11.8933 3.4412 7.4204 -0.0024 26.9778 -0.0010
# 6 0.0058 0.0133 0.0029 0.8941 -0.0010 23.0654
#
#
#
# Elastic Compliance Matrix: (Units=1/GPa)
#
#
# Indices 1 2 3 4 5 6 
#
# 1 0.008487 0.003072 -0.003968 0.000001 -0.003042 -0.000004
# 2 0.003072 0.068290 -0.004656 0.000038 -0.008784 -0.000041
# 3 -0.003968 -0.004656 0.008981 -0.000001 -0.000127 0.000003
# 4 0.000001 0.000038 -0.000001 0.142770 0.000008 -0.005535
# 5 -0.003042 -0.008784 -0.000127 0.000008 0.039564 0.000007
# 6 -0.000004 -0.000041 0.000003 -0.005535 0.000007 0.043570
#
#
# Mechanical properties :
#
#
# Convention : Reuss Voigt Hill
#
# Bulk Modulus (GPa) = 13.39537 51.66903 32.53220
# Shear Modulus (GPa) = 14.38222 27.43854 20.91038
#
# Velocity S-wave (km/s) = 2.67288 3.69188 3.22291
# Velocity P-wave (km/s) = 4.02242 6.62115 5.47812
#
# Compressibility (1/GPa) = 0.07465266
#
# Stress axis : x y z
#
# Youngs Moduli (GPa) = 117.82581 14.64352 111.34136
#
# Poissons Ratio (x) = -0.04498 0.44183
# Poissons Ratio (y) = -0.36196 0.51845
# Poissons Ratio (z) = 0.46757 0.06819
#
# Static dielectric constant tensor:
#      x y z
#    x 1.695460 0.000030 0.013820 
#    y 0.000030 1.803550 -0.000020 
#    z 0.013820 -0.000020 1.697590 
# 
# From -- ./inp_files/375429.got.cif
#   From: 2010.05.17/outbox.cif.g08.bks.cpg/sg12_188_cif.got.tgz:375429.got - 2010.06.03 13:09:07.
