data_PCOD9188800
_publ_section_title
;
Structure prediction by ZEFSAII (Michael W. Deem and Ramdas Pophale) SiO2 
 PCOD9188800
Probable space group: C 2/M
;
_chemical_formula_sum "Si O2"
_cell_formula_units_Z 52
_cell_length_a 12.474303
_cell_length_b 29.856579
_cell_length_c 11.631060
_cell_angle_alpha 90.000000
_cell_angle_beta 34.324063
_cell_angle_gamma 90.000000
_cell_volume 2442.625490
_symmetry_space_group_name_H-M "C 2/M"
_symmetry_group_IT_number 12
_symmetry_cell_setting 'monoclinic'
loop_
_space_group_symop_operation_xyz
x,y,z
-x,y,-z
-x,-y,-z
x,-y,z
1/2+x,1/2+y,z
1/2-x,1/2+y,-z
1/2-x,1/2-y,-z
1/2+x,1/2-y,z
loop_
_atom_site_type_symbol
_atom_site_label
_atom_site_fract_x
_atom_site_fract_y
_atom_site_fract_z
Si Si1 0.497775 0.857258 0.632991
Si Si2 0.214137 0.418088 0.762836
Si Si3 0.562078 0.950607 0.660896
Si Si4 0.000000 0.837632 0.500000
Si Si5 0.632183 0.451357 0.144301
Si Si6 0.437658 0.635781 0.926693
Si Si7 0.673305 0.699808 0.568769
O O1 0.500000 0.840073 0.500000
O O2 0.569309 0.908690 0.569686
O O3 0.638888 0.830835 0.590867
O O4 0.286406 0.854913 0.869672
O O5 0.192899 0.439922 0.656191
O O6 0.319821 0.370656 0.669356
O O7 0.330966 0.446544 0.752646
O O8 0.000000 0.413463 0.000000
O O9 0.601324 0.000000 0.579412
O O10 0.344097 0.950861 0.900730
O O11 0.042285 0.808608 0.574325
O O12 0.546789 0.500000 0.192835
O O13 0.531371 0.407075 0.183976
O O14 0.550936 0.679250 0.782516
O O15 0.500000 0.623722 0.000000
O O16 0.750000 0.750000 0.500000
#
# Coordination Sequence:
#
# PCOD9188800 Si02
#       7
#     8   8   8   4   8   8   8
#     4  11  23  43  69  95 136 180 224 279 337 399
#     4  10  19  36  61  91 133 177 220 273 327 387
#     4   9  18  34  60  95 134 181 224 269 330 391
#     4  12  24  42  71  98 130 170 225 280 340 408
#     4   9  18  34  60  96 137 180 223 269 326 396
#     4  11  23  43  71  97 134 184 225 274 342 403
#     4  12  28  47  70 101 132 169 225 292 348 412
#
# _framework density 21.288568999999999
#
# number of rings (size 3 to 8) (size 9 to 14) (size 15 to 20)
#    0.000    1.538    4.615    0.462    1.077    3.077 
#    0.000    4.615    0.000    0.000    0.000    0.000 
#    0.000    0.000    0.000    0.000    0.000    0.000 
#
# Total GULP energy -145282.282691 kJ/mol
# GULP energy per Si atom -5587.780104 kJ/mol
# Density = 2.124011 g / cm^3
# Si number density = 21.288569 Si / 1000 Ang^3
#
#
#
# Elastic Constant Matrix: (Units=GPa)
#
#
# Indices 1 2 3 4 5 6 
#
# 1 95.8148 32.5805 14.6207 0.0000 -3.2943 0.0000
# 2 32.5805 143.9784 21.8834 0.0000 -6.0772 0.0000
# 3 14.6207 21.8834 70.0916 0.0000 -22.0156 0.0000
# 4 0.0000 0.0000 0.0000 20.2547 0.0000 2.2431
# 5 -3.2943 -6.0772 -22.0156 0.0000 32.6398 0.0000
# 6 0.0000 0.0000 0.0000 2.2431 0.0000 3.9747
#
#
#
# Elastic Compliance Matrix: (Units=1/GPa)
#
#
# Indices 1 2 3 4 5 6 
#
# 1 0.011495 -0.002345 -0.001825 0.000000 -0.000507 0.000000
# 2 -0.002345 0.007771 -0.001975 0.000000 -0.000122 0.000000
# 3 -0.001825 -0.001975 0.019148 0.000000 0.012363 0.000000
# 4 0.000000 0.000000 0.000000 0.052663 0.000000 -0.029720
# 5 -0.000507 -0.000122 0.012363 0.000000 0.038902 0.000000
# 6 0.000000 0.000000 0.000000 -0.029720 0.000000 0.268366
#
#
# Mechanical properties :
#
#
# Convention : Reuss Voigt Hill
#
# Bulk Modulus (GPa) = 38.28073 49.78379 44.03226
# Shear Modulus (GPa) = 11.92339 27.42718 19.67528
#
# Velocity S-wave (km/s) = 2.36918 3.59326 3.04339
# Velocity P-wave (km/s) = 5.05023 6.37584 5.75136
#
# Compressibility (1/GPa) = 0.02612280
#
# Stress axis : x y z
#
# Youngs Moduli (GPa) = 86.99193 128.67882 52.22555
#
# Poissons Ratio (x) = 0.30179 0.09531
# Poissons Ratio (y) = 0.20402 0.10317
# Poissons Ratio (z) = 0.15876 0.25420
#
# Static dielectric constant tensor:
#      x y z
#    x 1.756620 0.000000 -0.021760 
#    y 0.000000 1.755160 0.000000 
#    z -0.021760 0.000000 1.797630 
# 
# From -- ./inp_files/137562.got.cif
#   From: 2010.05.17/outbox.cif.g08.bks.cpg/sg12_69_cif.got.tgz:137562.got - 2010.06.03 13:09:07.
