data_PCOD9188778
_publ_section_title
;
Structure prediction by ZEFSAII (Michael W. Deem and Ramdas Pophale) SiO2 
 PCOD9188778
Probable space group: C 2/M
;
_chemical_formula_sum "Si O2"
_cell_formula_units_Z 52
_cell_length_a 20.277279
_cell_length_b 17.959926
_cell_length_c 10.002693
_cell_angle_alpha 90.000000
_cell_angle_beta 129.407069
_cell_angle_gamma 90.000000
_cell_volume 2814.601552
_symmetry_space_group_name_H-M "C 2/M"
_symmetry_group_IT_number 12
_symmetry_cell_setting 'monoclinic'
loop_
_space_group_symop_operation_xyz
x,y,z
-x,y,-z
-x,-y,-z
x,-y,z
1/2+x,1/2+y,z
1/2-x,1/2+y,-z
1/2-x,1/2-y,-z
1/2+x,1/2-y,z
loop_
_atom_site_type_symbol
_atom_site_label
_atom_site_fract_x
_atom_site_fract_y
_atom_site_fract_z
Si Si1 0.996609 0.733495 0.267942
Si Si2 0.769056 0.639099 0.466056
Si Si3 0.679132 0.689006 0.880935
Si Si4 0.841562 0.916073 0.899955
Si Si5 0.500000 0.680858 0.000000
Si Si6 0.171616 0.794578 0.573538
Si Si7 0.042161 0.588210 0.202847
O O1 0.910320 0.769388 0.208441
O O2 0.017449 0.766535 0.148110
O O3 0.075163 0.764723 0.453724
O O4 0.994748 0.644657 0.244178
O O5 0.734873 0.586219 0.305792
O O6 0.777882 0.718860 0.400896
O O7 0.698354 0.649604 0.490266
O O8 0.858496 0.614600 0.649894
O O9 0.690229 0.669389 0.740110
O O10 0.750000 0.750000 0.000000
O O11 0.684171 0.623074 0.994538
O O12 0.869521 0.000000 0.960108
O O13 0.919084 0.869020 0.935544
O O14 0.036575 0.500000 0.225919
O O15 0.000000 0.598095 0.000000
#
# Coordination Sequence:
#
# PCOD9188778 Si02
#       7
#     8   8   8   8   4   8   8
#     4  10  20  35  62  83 116 158 198 243 290 346
#     4  10  20  35  64  86 116 153 200 245 289 344
#     4  11  23  37  60  87 118 156 198 244 289 353
#     4  11  22  39  60  88 121 153 190 245 304 351
#     4  10  19  36  61  90 108 150 204 242 283 354
#     4  10  20  37  60  89 112 151 205 244 283 345
#     4  10  21  35  55  89 125 151 189 245 299 348
#
# _framework density 18.475083999999999
#
# number of rings (size 3 to 8) (size 9 to 14) (size 15 to 20)
#    0.000    1.692    3.846    1.154    2.154    0.000 
#    0.000    2.308    0.000    3.692    0.000    0.000 
#    0.000    0.000    0.000    0.000    0.000    0.000 
#
# Total GULP energy -144925.834393 kJ/mol
# GULP energy per Si atom -5574.070554 kJ/mol
# Density = 1.843303 g / cm^3
# Si number density = 18.475084 Si / 1000 Ang^3
#
#
#
# Elastic Constant Matrix: (Units=GPa)
#
#
# Indices 1 2 3 4 5 6 
#
# 1 68.9986 19.1052 31.9130 0.0000 -16.4820 0.0000
# 2 19.1052 94.0866 26.7432 0.0000 -13.9724 0.0000
# 3 31.9130 26.7432 104.0351 0.0000 -19.8151 0.0000
# 4 0.0000 0.0000 0.0000 19.3060 0.0000 0.7983
# 5 -16.4820 -13.9724 -19.8151 0.0000 30.1006 0.0000
# 6 0.0000 0.0000 0.0000 0.7983 0.0000 5.0091
#
#
#
# Elastic Compliance Matrix: (Units=1/GPa)
#
#
# Indices 1 2 3 4 5 6 
#
# 1 0.018366 -0.001612 -0.003941 0.000000 0.006714 0.000000
# 2 -0.001612 0.012016 -0.001944 0.000000 0.003415 0.000000
# 3 -0.003941 -0.001944 0.012277 0.000000 0.005022 0.000000
# 4 0.000000 0.000000 0.000000 0.052141 0.000000 -0.008310
# 5 0.006714 0.003415 0.005022 0.000000 0.041790 0.000000
# 6 0.000000 0.000000 0.000000 -0.008310 0.000000 0.200963
#
#
# Mechanical properties :
#
#
# Convention : Reuss Voigt Hill
#
# Bulk Modulus (GPa) = 36.14601 46.96034 41.55318
# Shear Modulus (GPa) = 13.82108 23.50706 18.66407
#
# Velocity S-wave (km/s) = 2.73810 3.57089 3.18186
# Velocity P-wave (km/s) = 5.44090 6.51729 6.00327
#
# Compressibility (1/GPa) = 0.02766557
#
# Stress axis : x y z
#
# Youngs Moduli (GPa) = 54.44891 83.22559 81.45273
#
# Poissons Ratio (x) = 0.13418 0.32097
# Poissons Ratio (y) = 0.08778 0.15832
# Poissons Ratio (z) = 0.21456 0.16176
#
# Static dielectric constant tensor:
#      x y z
#    x 1.620060 0.000000 0.011050 
#    y 0.000000 1.477930 0.000000 
#    z 0.011050 0.000000 1.700740 
# 
# From -- ./inp_files/88490.got.cif
#   From: 2010.05.17/outbox.cif.g08.bks.cpg/sg12_45_cif.got.tgz:88490.got - 2010.06.03 13:09:07.
