data_PCOD9188397
_publ_section_title
;
Structure prediction by ZEFSAII (Michael W. Deem and Ramdas Pophale) SiO2 
 PCOD9188397
Probable space group: C 2/M
;
_chemical_formula_sum "Si O2"
_cell_formula_units_Z 64
_cell_length_a 30.441074
_cell_length_b 9.490029
_cell_length_c 24.151291
_cell_angle_alpha 90.000000
_cell_angle_beta 28.792212
_cell_angle_gamma 90.000000
_cell_volume 3360.357633
_symmetry_space_group_name_H-M "C 2/M"
_symmetry_group_IT_number 12
_symmetry_cell_setting 'monoclinic'
loop_
_space_group_symop_operation_xyz
x,y,z
-x,y,-z
-x,-y,-z
x,-y,z
1/2+x,1/2+y,z
1/2-x,1/2+y,-z
1/2-x,1/2-y,-z
1/2+x,1/2-y,z
loop_
_atom_site_type_symbol
_atom_site_label
_atom_site_fract_x
_atom_site_fract_y
_atom_site_fract_z
Si Si1 0.731300 0.833812 0.257458
Si Si2 0.095451 0.668909 0.625387
Si Si3 0.259820 0.341499 0.043532
Si Si4 0.892866 0.831120 0.997395
Si Si5 0.575864 0.655396 0.369726
Si Si6 0.951726 0.341743 0.697813
Si Si7 0.579685 0.171367 0.769976
Si Si8 0.251924 0.669896 0.364508
O O1 0.658373 0.744628 0.303839
O O2 0.726839 0.804786 0.327958
O O3 0.711914 0.000000 0.270299
O O4 0.830764 0.807684 0.120494
O O5 0.102556 0.500000 0.621190
O O6 0.099267 0.717990 0.684355
O O7 0.173371 0.712441 0.495536
O O8 0.998294 0.700452 0.704021
O O9 0.287044 0.500000 0.997714
O O10 0.157147 0.346257 0.180006
O O11 0.250000 0.250000 0.000000
O O12 0.329126 0.294601 0.014730
O O13 0.983261 0.737962 0.894503
O O14 0.913107 0.000000 0.972435
O O15 0.500000 0.644187 0.500000
O O16 0.608169 0.500000 0.317283
O O17 0.527025 0.732872 0.373104
O O18 0.985683 0.500000 0.647041
O O19 0.658971 0.240991 0.718787
O O20 0.578800 0.000000 0.774030
O O21 0.267089 0.500000 0.353261
#
# Coordination Sequence:
#
# PCOD9188397 Si02
#       8
#     8   8   8   8   8   8   8   8
#     4  10  21  40  64  86 113 154 201 244 289 344
#     4   9  19  36  60  89 118 149 194 244 291 350
#     4  10  20  34  55  83 117 152 191 235 283 339
#     4  10  21  39  59  84 117 153 198 245 286 342
#     4  11  23  36  53  84 123 155 187 234 292 348
#     4  10  19  36  59  83 112 151 197 235 273 338
#     4  11  23  39  60  86 117 155 193 241 303 355
#     4  10  21  39  63  88 112 148 197 249 299 347
#
# _framework density 19.045591999999999
#
# number of rings (size 3 to 8) (size 9 to 14) (size 15 to 20)
#    0.000    1.875    1.250    2.625    0.000    5.500 
#    0.000    5.000    0.000    0.000    0.000    0.000 
#    0.000    0.000    0.000    0.000    0.000    0.000 
#
# Total GULP energy -178518.679567 kJ/mol
# GULP energy per Si atom -5578.708736 kJ/mol
# Density = 1.900224 g / cm^3
# Si number density = 19.045592 Si / 1000 Ang^3
#
#
#
# Elastic Constant Matrix: (Units=GPa)
#
#
# Indices 1 2 3 4 5 6 
#
# 1 71.2199 34.9875 8.3531 -0.0005 -0.4911 0.0007
# 2 34.9875 51.1483 21.9342 -0.0010 3.1231 0.0022
# 3 8.3531 21.9342 65.1076 0.0007 -1.5180 0.0012
# 4 -0.0005 -0.0010 0.0007 20.7738 0.0003 1.2534
# 5 -0.4911 3.1231 -1.5180 0.0003 37.2530 0.0000
# 6 0.0007 0.0022 0.0012 1.2534 0.0000 21.0427
#
#
#
# Elastic Compliance Matrix: (Units=1/GPa)
#
#
# Indices 1 2 3 4 5 6 
#
# 1 0.021620 -0.016040 0.002671 0.000000 0.001739 0.000001
# 2 -0.016040 0.034940 -0.009796 0.000002 -0.003540 -0.000003
# 3 0.002671 -0.009796 0.018354 -0.000001 0.001604 0.000000
# 4 0.000000 0.000002 -0.000001 0.048311 -0.000001 -0.002878
# 5 0.001739 -0.003540 0.001604 -0.000001 0.027229 0.000000
# 6 0.000001 -0.000003 0.000000 -0.002878 0.000000 0.047694
#
#
# Mechanical properties :
#
#
# Convention : Reuss Voigt Hill
#
# Bulk Modulus (GPa) = 34.98542 35.33615 35.16078
# Shear Modulus (GPa) = 19.68464 23.96064 21.82264
#
# Velocity S-wave (km/s) = 3.21838 3.55077 3.38865
# Velocity P-wave (km/s) = 5.67625 5.95016 5.81482
#
# Compressibility (1/GPa) = 0.02858334
#
# Stress axis : x y z
#
# Youngs Moduli (GPa) = 46.25415 28.62054 54.48399
#
# Poissons Ratio (x) = 0.45908 -0.14550
# Poissons Ratio (y) = 0.74192 0.53370
# Poissons Ratio (z) = -0.12353 0.28036
#
# Static dielectric constant tensor:
#      x y z
#    x 1.658620 0.000000 0.024640 
#    y 0.000000 1.678210 0.000000 
#    z 0.024640 0.000000 1.692470 
# 
# From -- ./inp_files/249878.got.cif
#   From: 2010.05.17/outbox.cif.g08.bks.cpg/sg12_125_cif.got.tgz:249878.got - 2010.06.03 13:09:07.
