data_PCOD9188169
_publ_section_title
;
Structure prediction by ZEFSAII (Michael W. Deem and Ramdas Pophale) SiO2 
 PCOD9188169
Probable space group: C 2/M
;
_chemical_formula_sum "Si O2"
_cell_formula_units_Z 52
_cell_length_a 22.546925
_cell_length_b 16.925040
_cell_length_c 13.927707
_cell_angle_alpha 90.000000
_cell_angle_beta 30.953671
_cell_angle_gamma 90.000000
_cell_volume 2733.700958
_symmetry_space_group_name_H-M "C 2/M"
_symmetry_group_IT_number 12
_symmetry_cell_setting 'monoclinic'
loop_
_space_group_symop_operation_xyz
x,y,z
-x,y,-z
-x,-y,-z
x,-y,z
1/2+x,1/2+y,z
1/2-x,1/2+y,-z
1/2-x,1/2-y,-z
1/2+x,1/2-y,z
loop_
_atom_site_type_symbol
_atom_site_label
_atom_site_fract_x
_atom_site_fract_y
_atom_site_fract_z
Si Si1 0.406459 0.235932 0.973076
Si Si2 0.090543 0.500000 0.461515
Si Si3 0.008734 0.334721 0.637673
Si Si4 0.865972 0.832300 0.309701
Si Si5 0.774746 0.237391 0.631501
Si Si6 0.237404 0.329195 0.083088
Si Si7 0.803158 0.000000 0.025281
Si Si8 0.526263 0.500000 0.849820
O O1 0.449992 0.183101 0.823333
O O2 0.521340 0.276065 0.854466
O O3 0.319156 0.196292 0.169758
O O4 0.322112 0.305797 0.051809
O O5 0.067459 0.420074 0.551991
O O6 0.212095 0.500000 0.239371
O O7 0.000000 0.500000 0.500000
O O8 0.104805 0.266577 0.490127
O O9 0.099481 0.334608 0.285410
O O10 0.803704 0.811283 0.495842
O O11 0.787566 0.814214 0.327006
O O12 0.903315 0.921153 0.263747
O O13 0.279046 0.418470 0.999608
O O14 0.250000 0.250000 0.000000
O O15 0.923932 0.000000 0.913275
O O16 0.500000 0.500000 0.000000
#
# Coordination Sequence:
#
# PCOD9188169 Si02
#       8
#     8   4   8   8   8   8   4   4
#     4  10  19  36  57  79 112 155 198 244 290 350
#     4  12  22  34  53  81 118 145 186 245 304 351
#     4  10  22  34  53  84 113 151 197 239 294 356
#     4  10  22  37  55  88 114 150 197 242 294 361
#     4  10  21  37  59  79 118 154 194 243 292 350
#     4  10  20  35  55  87 120 156 201 245 297 363
#     4  12  22  36  60  85 121 164 191 255 315 344
#     4  12  24  36  59  88 119 151 193 253 310 361
#
# _framework density 19.021832
#
# number of rings (size 3 to 8) (size 9 to 14) (size 15 to 20)
#    0.000    1.538    3.077    2.308    2.154    0.000 
#    0.000    0.769    0.000    0.000    0.000    8.615 
#    0.000    0.000    0.000    0.692    0.000    0.000 
#
# Total GULP energy -144857.335820 kJ/mol
# GULP energy per Si atom -5571.435993 kJ/mol
# Density = 1.897854 g / cm^3
# Si number density = 19.021832 Si / 1000 Ang^3
#
#
#
# Elastic Constant Matrix: (Units=GPa)
#
#
# Indices 1 2 3 4 5 6 
#
# 1 66.1170 16.5323 5.9701 0.0000 -12.8102 0.0000
# 2 16.5323 99.9932 29.2280 0.0000 5.6937 0.0000
# 3 5.9701 29.2280 116.2313 0.0000 9.8982 0.0000
# 4 0.0000 0.0000 0.0000 15.9819 0.0000 -9.5393
# 5 -12.8102 5.6937 9.8982 0.0000 30.6338 0.0000
# 6 0.0000 0.0000 0.0000 -9.5393 0.0000 15.9991
#
#
#
# Elastic Compliance Matrix: (Units=1/GPa)
#
#
# Indices 1 2 3 4 5 6 
#
# 1 0.017569 -0.003134 -0.000812 0.000000 0.008192 0.000000
# 2 -0.003134 0.011393 -0.002480 0.000000 -0.002627 0.000000
# 3 -0.000812 -0.002480 0.009521 0.000000 -0.002955 0.000000
# 4 0.000000 0.000000 0.000000 0.097142 0.000000 0.057920
# 5 0.008192 -0.002627 -0.002955 0.000000 0.037512 0.000000
# 6 0.000000 0.000000 0.000000 0.057920 0.000000 0.097037
#
#
# Mechanical properties :
#
#
# Convention : Reuss Voigt Hill
#
# Bulk Modulus (GPa) = 39.01613 42.86692 40.94153
# Shear Modulus (GPa) = 17.14854 27.89702 22.52278
#
# Velocity S-wave (km/s) = 3.00579 3.83375 3.44473
# Velocity P-wave (km/s) = 5.70983 6.49472 6.11488
#
# Compressibility (1/GPa) = 0.02563042
#
# Stress axis : x y z
#
# Youngs Moduli (GPa) = 56.91930 87.77018 105.03550
#
# Poissons Ratio (x) = 0.27506 0.08528
# Poissons Ratio (y) = 0.17838 0.26053
# Poissons Ratio (z) = 0.04622 0.21770
#
# Static dielectric constant tensor:
#      x y z
#    x 1.726370 0.000000 0.002220 
#    y 0.000000 1.666190 0.000000 
#    z 0.002220 0.000000 1.723670 
# 
# From -- ./inp_files/246809.got.cif
#   From: 2010.05.17/outbox.cif.g08.bks.cpg/sg12_124_cif.got.tgz:246809.got - 2010.06.03 13:09:07.
