data_PCOD9188857
_publ_section_title
;
Structure prediction by ZEFSAII (Michael W. Deem and Ramdas Pophale) SiO2 
 PCOD9188857
Probable space group: C 2/M
;
_chemical_formula_sum "Si O2"
_cell_formula_units_Z 50
_cell_length_a 26.558625
_cell_length_b 9.206771
_cell_length_c 11.812819
_cell_angle_alpha 90.000000
_cell_angle_beta 55.037673
_cell_angle_gamma 90.000000
_cell_volume 2367.177400
_symmetry_space_group_name_H-M "C 2/M"
_symmetry_group_IT_number 12
_symmetry_cell_setting 'monoclinic'
loop_
_space_group_symop_operation_xyz
x,y,z
-x,y,-z
-x,-y,-z
x,-y,z
1/2+x,1/2+y,z
1/2-x,1/2+y,-z
1/2-x,1/2-y,-z
1/2+x,1/2-y,z
loop_
_atom_site_type_symbol
_atom_site_label
_atom_site_fract_x
_atom_site_fract_y
_atom_site_fract_z
Si Si1 0.602122 0.675207 0.132219
Si Si2 0.500000 0.500000 0.500000
Si Si3 0.565305 0.779343 0.427143
Si Si4 0.809625 0.664926 0.619641
Si Si5 0.507131 0.168896 0.855303
Si Si6 0.853039 0.323911 0.328902
Si Si7 0.800267 0.674425 0.149736
O O1 0.603240 0.500000 0.138849
O O2 0.592412 0.741161 0.269014
O O3 0.544074 0.731024 0.134516
O O4 0.661866 0.742054 0.995094
O O5 0.541252 0.626826 0.507058
O O6 0.500000 0.858659 0.500000
O O7 0.620209 0.841667 0.428897
O O8 0.784474 0.500000 0.654104
O O9 0.812434 0.723763 0.487656
O O10 0.769052 0.768445 0.750441
O O11 0.576383 0.219235 0.743226
O O12 0.499093 0.000000 0.827555
O O13 0.500000 0.168269 0.000000
O O14 0.852606 0.500000 0.332537
O O15 0.830078 0.284634 0.233534
O O16 0.804130 0.500000 0.130109
#
# Coordination Sequence:
#
# PCOD9188857 Si02
#       7
#     8   2   8   8   8   8   8
#     4  12  23  39  62  92 129 159 204 260 303 358
#     4   8  20  44  62  88 118 156 202 242 298 366
#     4  10  22  42  67  88 123 160 201 248 309 362
#     4  11  24  41  64  92 124 158 208 261 304 358
#     4  10  19  36  62  88 124 163 200 241 302 369
#     4   9  19  39  62  91 124 162 204 252 303 362
#     4  11  24  41  64  88 123 169 207 247 309 373
#
# _framework density 21.122202999999999
#
# number of rings (size 3 to 8) (size 9 to 14) (size 15 to 20)
#    0.480    1.120    2.400    2.400    1.120    2.560 
#    0.000    1.600    0.000    0.000    0.000    0.000 
#    0.000    0.000    0.000    0.000    0.000    0.000 
#
# Total GULP energy -139279.044908 kJ/mol
# GULP energy per Si atom -5571.161796 kJ/mol
# Density = 2.107413 g / cm^3
# Si number density = 21.122203 Si / 1000 Ang^3
#
#
#
# Elastic Constant Matrix: (Units=GPa)
#
#
# Indices 1 2 3 4 5 6 
#
# 1 69.6343 12.9691 27.8335 0.0000 -12.8364 0.0000
# 2 12.9691 83.1695 30.5542 0.0000 0.0486 0.0000
# 3 27.8335 30.5542 120.6158 0.0000 -7.1705 0.0000
# 4 0.0000 0.0000 0.0000 32.3454 0.0000 16.7145
# 5 -12.8364 0.0486 -7.1705 0.0000 33.3519 0.0000
# 6 0.0000 0.0000 0.0000 16.7145 0.0000 23.0915
#
#
#
# Elastic Compliance Matrix: (Units=1/GPa)
#
#
# Indices 1 2 3 4 5 6 
#
# 1 0.016994 -0.001478 -0.003199 0.000000 0.005855 0.000000
# 2 -0.001478 0.013405 -0.003130 0.000000 -0.001261 0.000000
# 3 -0.003199 -0.003130 0.009875 0.000000 0.000896 0.000000
# 4 0.000000 0.000000 0.000000 0.049391 0.000000 -0.035751
# 5 0.005855 -0.001261 0.000896 0.000000 0.032431 0.000000
# 6 0.000000 0.000000 0.000000 -0.035751 0.000000 0.069184
#
#
# Mechanical properties :
#
#
# Convention : Reuss Voigt Hill
#
# Bulk Modulus (GPa) = 40.55110 46.23703 43.39406
# Shear Modulus (GPa) = 23.24363 31.22862 27.23612
#
# Velocity S-wave (km/s) = 3.32088 3.84926 3.59479
# Velocity P-wave (km/s) = 5.82618 6.45705 6.14971
#
# Compressibility (1/GPa) = 0.02466025
#
# Stress axis : x y z
#
# Youngs Moduli (GPa) = 58.84412 74.60145 101.26521
#
# Poissons Ratio (x) = 0.11027 0.32395
# Poissons Ratio (y) = 0.08698 0.31691
# Poissons Ratio (z) = 0.18825 0.23347
#
# Static dielectric constant tensor:
#      x y z
#    x 1.777730 0.000000 -0.015720 
#    y 0.000000 1.725390 0.000000 
#    z -0.015720 0.000000 1.803740 
# 
# From -- ./inp_files/180560.got.cif
#   From: 2010.05.17/outbox.cif.g08.bks.cpg/sg12_91_cif.got.tgz:180560.got - 2010.06.03 13:09:07.
