data_PCOD9188548
_publ_section_title
;
Structure prediction by ZEFSAII (Michael W. Deem and Ramdas Pophale) SiO2 
 PCOD9188548
Probable space group: C 2/M
;
_chemical_formula_sum "Si O2"
_cell_formula_units_Z 48
_cell_length_a 11.733999
_cell_length_b 13.922481
_cell_length_c 15.505139
_cell_angle_alpha 90.000000
_cell_angle_beta 105.372005
_cell_angle_gamma 90.000000
_cell_volume 2442.399772
_symmetry_space_group_name_H-M "C 2/M"
_symmetry_group_IT_number 12
_symmetry_cell_setting 'monoclinic'
loop_
_space_group_symop_operation_xyz
x,y,z
-x,y,-z
-x,-y,-z
x,-y,z
1/2+x,1/2+y,z
1/2-x,1/2+y,-z
1/2-x,1/2-y,-z
1/2+x,1/2-y,z
loop_
_atom_site_type_symbol
_atom_site_label
_atom_site_fract_x
_atom_site_fract_y
_atom_site_fract_z
Si Si1 0.927748 0.208161 0.571249
Si Si2 0.351589 0.239569 0.299299
Si Si3 0.896989 0.603213 0.166425
Si Si4 0.816859 0.387328 0.459656
Si Si5 0.635232 0.806401 0.016666
Si Si6 0.328623 0.109802 0.785420
O O1 0.877009 0.315431 0.541093
O O2 0.821989 0.134400 0.561094
O O3 0.000000 0.181594 0.500000
O O4 0.020575 0.211313 0.667232
O O5 0.334313 0.186810 0.205683
O O6 0.350180 0.159571 0.374045
O O7 0.251003 0.319379 0.287302
O O8 0.850013 0.500000 0.184008
O O9 0.035447 0.609652 0.216859
O O10 0.887188 0.615311 0.062347
O O11 0.845312 0.500000 0.473329
O O12 0.668666 0.851921 0.115316
O O13 0.500000 0.760382 0.000000
O O14 0.750000 0.750000 0.000000
O O15 0.285499 0.000000 0.773959
#
# Coordination Sequence:
#
# PCOD9188548 Si02
#       6
#     8   8   8   8   8   8
#     4   9  21  38  56  80 109 145 182 226 277 343
#     4  11  20  35  56  82 115 142 182 234 288 335
#     4  10  20  34  56  83 111 149 195 236 280 338
#     4  10  21  38  58  81 109 143 183 228 282 339
#     4  10  19  36  60  84 114 157 200 245 286 339
#     4  10  21  36  56  82 114 153 194 235 282 340
#
# _framework density 19.652802000000001
#
# number of rings (size 3 to 8) (size 9 to 14) (size 15 to 20)
#    0.000    2.000    1.667    2.000    0.000    6.667 
#    0.000   10.000    0.000    4.000    0.000    0.000 
#    0.000    0.000    0.000    0.000    0.000    0.000 
#
# Total GULP energy -133750.199967 kJ/mol
# GULP energy per Si atom -5572.924999 kJ/mol
# Density = 1.960807 g / cm^3
# Si number density = 19.652802 Si / 1000 Ang^3
#
#
#
# Elastic Constant Matrix: (Units=GPa)
#
#
# Indices 1 2 3 4 5 6 
#
# 1 80.1349 24.4694 -9.0266 0.0000 6.5517 0.0000
# 2 24.4694 87.9422 11.2462 0.0000 10.9127 0.0000
# 3 -9.0266 11.2462 44.6136 0.0000 6.1187 0.0000
# 4 0.0000 0.0000 0.0000 10.9838 0.0000 -6.6842
# 5 6.5517 10.9127 6.1187 0.0000 30.3336 0.0000
# 6 0.0000 0.0000 0.0000 -6.6842 0.0000 15.9980
#
#
#
# Elastic Compliance Matrix: (Units=1/GPa)
#
#
# Indices 1 2 3 4 5 6 
#
# 1 0.014476 -0.004278 0.004345 0.000000 -0.002464 0.000000
# 2 -0.004278 0.013440 -0.003823 0.000000 -0.003140 0.000000
# 3 0.004345 -0.003823 0.024886 0.000000 -0.004583 0.000000
# 4 0.000000 0.000000 0.000000 0.122084 0.000000 0.051009
# 5 -0.002464 -0.003140 -0.004583 0.000000 0.035553 0.000000
# 6 0.000000 0.000000 0.000000 0.051009 0.000000 0.083820
#
#
# Mechanical properties :
#
#
# Convention : Reuss Voigt Hill
#
# Bulk Modulus (GPa) = 22.07924 29.56317 25.82120
# Shear Modulus (GPa) = 15.77947 23.86319 19.82133
#
# Velocity S-wave (km/s) = 2.83664 3.48837 3.17925
# Velocity P-wave (km/s) = 4.68911 5.59467 5.16179
#
# Compressibility (1/GPa) = 0.04529142
#
# Stress axis : x y z
#
# Youngs Moduli (GPa) = 69.07921 74.40534 40.18311
#
# Poissons Ratio (x) = 0.31829 -0.17461
# Poissons Ratio (y) = 0.29551 0.15361
# Poissons Ratio (z) = -0.30017 0.28444
#
# Static dielectric constant tensor:
#      x y z
#    x 1.727820 0.000000 0.006380 
#    y 0.000000 1.669400 0.000000 
#    z 0.006380 0.000000 1.715040 
# 
# From -- ./inp_files/204267.got.cif
#   From: 2010.05.17/outbox.cif.g08.bks.cpg/sg12_103_cif.got.tgz:204267.got - 2010.06.03 13:09:07.
