data_PCOD9188565
_publ_section_title
;
Structure prediction by ZEFSAII (Michael W. Deem and Ramdas Pophale) SiO2 
 PCOD9188565
Probable space group: C 2/M
;
_chemical_formula_sum "Si O2"
_cell_formula_units_Z 64
_cell_length_a 26.214892
_cell_length_b 13.106611
_cell_length_c 9.792960
_cell_angle_alpha 90.000000
_cell_angle_beta 72.665231
_cell_angle_gamma 90.000000
_cell_volume 3211.921113
_symmetry_space_group_name_H-M "C 2/M"
_symmetry_group_IT_number 12
_symmetry_cell_setting 'monoclinic'
loop_
_space_group_symop_operation_xyz
x,y,z
-x,y,-z
-x,-y,-z
x,-y,z
1/2+x,1/2+y,z
1/2-x,1/2+y,-z
1/2-x,1/2-y,-z
1/2+x,1/2-y,z
loop_
_atom_site_type_symbol
_atom_site_label
_atom_site_fract_x
_atom_site_fract_y
_atom_site_fract_z
Si Si1 0.834124 0.242153 0.874356
Si Si2 0.488654 0.235979 0.256000
Si Si3 0.104512 0.613876 0.692561
Si Si4 0.081779 0.381408 0.031945
Si Si5 0.304355 0.279317 0.382623
Si Si6 0.760722 0.123092 0.141804
Si Si7 0.927580 0.119377 0.658645
Si Si8 0.407509 0.387939 0.356204
O O1 0.870487 0.311450 0.946276
O O2 0.796972 0.322273 0.823214
O O3 0.872848 0.172387 0.752122
O O4 0.795330 0.165338 0.987095
O O5 0.445194 0.158219 0.355706
O O6 0.527803 0.171908 0.128612
O O7 0.527264 0.306537 0.315611
O O8 0.443946 0.314724 0.233699
O O9 0.116430 0.500000 0.639569
O O10 0.157960 0.680004 0.649786
O O11 0.085083 0.614886 0.865654
O O12 0.084879 0.500000 0.076624
O O13 0.250000 0.250000 0.500000
O O14 0.289468 0.329436 0.250670
O O15 0.345556 0.358725 0.416721
O O16 0.757907 0.000000 0.147103
O O17 0.928723 0.117486 0.493999
O O18 0.932589 0.000000 0.699559
O O19 0.412847 0.500000 0.296255
#
# Coordination Sequence:
#
# PCOD9188565 Si02
#       8
#     8   8   8   8   8   8   8   8
#     4  10  21  37  59  88 118 155 197 245 297 356
#     4  10  20  32  57  85 115 144 190 242 298 340
#     4  10  21  38  59  85 116 154 200 241 287 353
#     4  10  19  36  60  85 115 154 196 239 290 349
#     4  11  23  40  61  87 120 157 199 246 298 352
#     4  11  22  38  59  86 123 158 195 251 305 348
#     4  10  20  37  60  85 115 155 202 243 288 350
#     4  10  21  38  59  83 116 159 201 241 289 351
#
# _framework density 19.925768999999999
#
# number of rings (size 3 to 8) (size 9 to 14) (size 15 to 20)
#    0.000    1.750    1.250    3.375    0.000    3.000 
#    0.000    0.625    0.000   30.750    0.000    0.000 
#    0.000    0.000    0.000    0.000    0.000    0.000 
#
# Total GULP energy -178379.104400 kJ/mol
# GULP energy per Si atom -5574.347012 kJ/mol
# Density = 1.988042 g / cm^3
# Si number density = 19.925769 Si / 1000 Ang^3
#
#
#
# Elastic Constant Matrix: (Units=GPa)
#
#
# Indices 1 2 3 4 5 6 
#
# 1 119.2991 48.0582 20.5373 0.0000 -19.6608 0.0000
# 2 48.0582 163.0535 28.3668 0.0000 -10.8557 0.0000
# 3 20.5373 28.3668 31.9665 0.0000 -20.4188 0.0000
# 4 0.0000 0.0000 0.0000 11.0287 0.0000 14.1082
# 5 -19.6608 -10.8557 -20.4188 0.0000 30.5933 0.0000
# 6 0.0000 0.0000 0.0000 14.1082 0.0000 12.5824
#
#
#
# Elastic Compliance Matrix: (Units=1/GPa)
#
#
# Indices 1 2 3 4 5 6 
#
# 1 0.010437 -0.002518 -0.001320 0.000000 0.004933 0.000000
# 2 -0.002518 0.008022 -0.008221 0.000000 -0.004259 0.000000
# 3 -0.001320 -0.008221 0.064533 0.000000 0.039306 0.000000
# 4 0.000000 0.000000 0.000000 -0.208760 0.000000 0.234074
# 5 0.004933 -0.004259 0.039306 0.000000 0.060579 0.000000
# 6 0.000000 0.000000 0.000000 0.234074 0.000000 -0.182981
#
#
# Mechanical properties :
#
#
# Convention : Reuss Voigt Hill
#
# Bulk Modulus (GPa) = 16.98560 56.47154 36.72857
# Shear Modulus (GPa) = -24.45849 25.33134 0.43642
#
# Velocity S-wave (km/s) = -3.50734 3.56938 0.46851
# Velocity P-wave (km/s) = 2.80339 6.73719 4.33190
#
# Compressibility (1/GPa) = 0.05887339
#
# Stress axis : x y z
#
# Youngs Moduli (GPa) = 95.81449 124.65978 15.49600
#
# Poissons Ratio (x) = 0.31391 0.02045
# Poissons Ratio (y) = 0.24127 0.12739
# Poissons Ratio (z) = 0.12647 1.02483
#
# Static dielectric constant tensor:
#      x y z
#    x 1.743640 0.000000 0.028830 
#    y 0.000000 1.750320 0.000000 
#    z 0.028830 0.000000 1.725420 
# 
# From -- ./inp_files/175234.got.cif
#   From: 2010.05.17/outbox.cif.g08.bks.cpg/sg12_88_cif.got.tgz:175234.got - 2010.06.03 13:09:07.
