data_PCOD9188052
_publ_section_title
;
Structure prediction by ZEFSAII (Michael W. Deem and Ramdas Pophale) SiO2 
 PCOD9188052
Probable space group: C 2/M
;
_chemical_formula_sum "Si O2"
_cell_formula_units_Z 64
_cell_length_a 21.586987
_cell_length_b 17.806881
_cell_length_c 21.450145
_cell_angle_alpha 90.000000
_cell_angle_beta 25.368990
_cell_angle_gamma 90.000000
_cell_volume 3532.696882
_symmetry_space_group_name_H-M "C 2/M"
_symmetry_group_IT_number 12
_symmetry_cell_setting 'monoclinic'
loop_
_space_group_symop_operation_xyz
x,y,z
-x,y,-z
-x,-y,-z
x,-y,z
1/2+x,1/2+y,z
1/2-x,1/2+y,-z
1/2-x,1/2-y,-z
1/2+x,1/2-y,z
loop_
_atom_site_type_symbol
_atom_site_label
_atom_site_fract_x
_atom_site_fract_y
_atom_site_fract_z
Si Si1 0.896369 0.841794 0.390561
Si Si2 0.891835 0.410844 0.738137
Si Si3 0.358241 0.760086 0.210751
Si Si4 0.821434 0.680867 0.517099
Si Si5 0.919969 0.583671 0.859161
Si Si6 0.790487 0.803803 0.905741
Si Si7 0.716530 0.086214 0.654871
Si Si8 0.190616 0.215059 0.884626
O O1 0.876980 0.754602 0.429084
O O2 0.787389 0.858365 0.432901
O O3 0.857140 0.890115 0.487291
O O4 0.060310 0.846539 0.218960
O O5 0.895849 0.500000 0.721947
O O6 0.883486 0.400046 0.820791
O O7 0.754581 0.369061 0.832238
O O8 0.044180 0.370216 0.583791
O O9 0.271121 0.712232 0.341098
O O10 0.328431 0.847533 0.256300
O O11 0.301556 0.743652 0.192960
O O12 0.526124 0.732272 0.057010
O O13 0.871706 0.500000 0.916595
O O14 0.089002 0.588775 0.719200
O O15 0.840070 0.638664 0.977711
O O16 0.793546 0.760055 0.838270
O O17 0.750000 0.750000 0.000000
O O18 0.724364 0.000000 0.671325
#
# Coordination Sequence:
#
# PCOD9188052 Si02
#       8
#     8   8   8   8   8   8   8   8
#     4  10  20  31  58  86 116 150 194 243 287 341
#     4  11  22  39  61  88 119 152 191 248 308 353
#     4  10  23  39  61  83 117 159 206 240 287 347
#     4  10  19  36  54  85 113 151 193 238 286 349
#     4  10  20  34  56  88 121 148 185 241 299 349
#     4  12  20  34  59  87 116 153 199 241 294 347
#     4  10  20  38  60  88 123 158 193 237 298 355
#     4  11  22  40  58  88 116 154 202 249 284 354
#
# _framework density 18.116471000000001
#
# number of rings (size 3 to 8) (size 9 to 14) (size 15 to 20)
#    0.000    1.500    5.000    0.750    1.750    1.000 
#    0.000    5.000    0.000    0.750    0.000    0.000 
#    0.000    0.000    0.000    0.000    0.000    0.000 
#
# Total GULP energy -178342.912226 kJ/mol
# GULP energy per Si atom -5573.216007 kJ/mol
# Density = 1.807524 g / cm^3
# Si number density = 18.116471 Si / 1000 Ang^3
#
#
#
# Elastic Constant Matrix: (Units=GPa)
#
#
# Indices 1 2 3 4 5 6 
#
# 1 80.5866 40.6772 18.3142 -0.0003 1.7377 0.0002
# 2 40.6772 114.9740 45.0802 -0.0038 3.0810 0.0008
# 3 18.3142 45.0802 86.1318 -0.0051 -0.0054 0.0007
# 4 -0.0003 -0.0038 -0.0051 20.3955 0.0018 -6.7380
# 5 1.7377 3.0810 -0.0054 0.0018 20.3115 0.0000
# 6 0.0002 0.0008 0.0007 -6.7380 0.0000 21.0949
#
#
#
# Elastic Compliance Matrix: (Units=1/GPa)
#
#
# Indices 1 2 3 4 5 6 
#
# 1 0.015131 -0.005131 -0.000532 -0.000001 -0.000516 0.000000
# 2 -0.005131 0.012740 -0.005577 0.000001 -0.001495 0.000000
# 3 -0.000532 -0.005577 0.014642 0.000003 0.000895 0.000001
# 4 -0.000001 0.000001 0.000003 0.054815 -0.000005 0.017508
# 5 -0.000516 -0.001495 0.000895 -0.000005 0.049504 -0.000001
# 6 0.000000 0.000000 0.000001 0.017508 -0.000001 0.052997
#
#
# Mechanical properties :
#
#
# Convention : Reuss Voigt Hill
#
# Bulk Modulus (GPa) = 49.91664 54.42618 52.17141
# Shear Modulus (GPa) = 21.83541 24.20176 23.01859
#
# Velocity S-wave (km/s) = 3.47548 3.65896 3.56840
# Velocity P-wave (km/s) = 6.61198 6.92519 6.77040
#
# Compressibility (1/GPa) = 0.02003340
#
# Stress axis : x y z
#
# Youngs Moduli (GPa) = 66.09000 78.49557 68.29616
#
# Poissons Ratio (x) = 0.40275 0.03633
# Poissons Ratio (y) = 0.33910 0.38088
# Poissons Ratio (z) = 0.03515 0.43776
#
# Static dielectric constant tensor:
#      x y z
#    x 1.609550 0.000000 -0.026560 
#    y 0.000000 1.528620 0.000010 
#    z -0.026560 0.000010 1.663740 
# 
# From -- ./inp_files/326113.got.cif
#   From: 2010.05.17/outbox.cif.g08.bks.cpg/sg12_164_cif.got.tgz:326113.got - 2010.06.03 13:09:07.
