data_PCOD9188869
_publ_section_title
;
Structure prediction by ZEFSAII (Michael W. Deem and Ramdas Pophale) SiO2 
 PCOD9188869
Probable space group: C 2/M
;
_chemical_formula_sum "Si O2"
_cell_formula_units_Z 52
_cell_length_a 19.697301
_cell_length_b 28.587565
_cell_length_c 6.116742
_cell_angle_alpha 90.000000
_cell_angle_beta 41.129268
_cell_angle_gamma 90.000000
_cell_volume 2265.539158
_symmetry_space_group_name_H-M "C 2/M"
_symmetry_group_IT_number 12
_symmetry_cell_setting 'monoclinic'
loop_
_space_group_symop_operation_xyz
x,y,z
-x,y,-z
-x,-y,-z
x,-y,z
1/2+x,1/2+y,z
1/2-x,1/2+y,-z
1/2-x,1/2-y,-z
1/2+x,1/2-y,z
loop_
_atom_site_type_symbol
_atom_site_label
_atom_site_fract_x
_atom_site_fract_y
_atom_site_fract_z
Si Si1 0.692695 0.329924 0.171351
Si Si2 0.547067 0.252557 0.635320
Si Si3 0.616159 0.848970 0.557330
Si Si4 0.500000 0.609305 0.500000
Si Si5 0.169984 0.946978 0.873233
Si Si6 0.364549 0.947714 0.698817
Si Si7 0.179919 0.392573 0.808142
O O1 0.655582 0.280173 0.351630
O O2 0.587165 0.358739 0.397444
O O3 0.765784 0.356929 0.161025
O O4 0.762843 0.334024 0.783975
O O5 0.500000 0.262516 0.500000
O O6 0.559406 0.196866 0.613071
O O7 0.500000 0.264738 0.000000
O O8 0.608090 0.861318 0.830692
O O9 0.593164 0.899720 0.507596
O O10 0.438466 0.576440 0.814774
O O11 0.244550 0.947450 0.907740
O O12 0.158732 0.000000 0.826212
O O13 0.233743 0.916753 0.548507
O O14 0.370851 0.935473 0.938132
O O15 0.403365 0.000000 0.551193
#
# Coordination Sequence:
#
# PCOD9188869 Si02
#       7
#     8   8   8   4   8   8   8
#     4  11  24  41  65  88 137 176 224 267 329 394
#     4  12  30  47  73 103 133 170 226 288 346 402
#     4  10  23  45  67  95 132 175 217 275 337 402
#     4  12  19  38  52  86 128 176 217 268 314 378
#     4  10  20  33  50  82 128 172 217 266 315 374
#     4   9  18  36  62  92 126 170 218 267 328 399
#     4  10  19  36  62  89 124 174 220 265 316 399
#
# _framework density 22.952594000000001
#
# number of rings (size 3 to 8) (size 9 to 14) (size 15 to 20)
#    0.000    1.538    5.385    1.154    8.615    1.231 
#    0.000    0.769    0.000    0.923    0.000    0.000 
#    0.000    0.000    0.000    0.000    0.000    0.000 
#
# Total GULP energy -144913.717193 kJ/mol
# GULP energy per Si atom -5573.604507 kJ/mol
# Density = 2.290035 g / cm^3
# Si number density = 22.952594 Si / 1000 Ang^3
#
#
#
# Elastic Constant Matrix: (Units=GPa)
#
#
# Indices 1 2 3 4 5 6 
#
# 1 52.9942 4.9478 28.3660 0.0000 11.9772 0.0000
# 2 4.9478 161.7749 50.4640 0.0000 2.4741 0.0000
# 3 28.3660 50.4640 72.2039 0.0000 -5.2599 0.0000
# 4 0.0000 0.0000 0.0000 30.8827 0.0000 -5.1952
# 5 11.9772 2.4741 -5.2599 0.0000 31.6088 0.0000
# 6 0.0000 0.0000 0.0000 -5.1952 0.0000 27.9020
#
#
#
# Elastic Compliance Matrix: (Units=1/GPa)
#
#
# Indices 1 2 3 4 5 6 
#
# 1 0.030257 0.004261 -0.015917 0.000000 -0.014447 0.000000
# 2 0.004261 0.008581 -0.007934 0.000000 -0.003606 0.000000
# 3 -0.015917 -0.007934 0.026453 0.000000 0.011054 0.000000
# 4 0.000000 0.000000 0.000000 0.033428 0.000000 0.006224
# 5 -0.014447 -0.003606 0.011054 0.000000 0.039233 0.000000
# 6 0.000000 0.000000 0.000000 0.006224 0.000000 0.036999
#
#
# Mechanical properties :
#
#
# Convention : Reuss Voigt Hill
#
# Bulk Modulus (GPa) = 38.29825 50.50318 44.40072
# Shear Modulus (GPa) = 22.43799 31.62503 27.03151
#
# Velocity S-wave (km/s) = 3.13002 3.71596 3.43550
# Velocity P-wave (km/s) = 5.45754 6.36098 5.92650
#
# Compressibility (1/GPa) = 0.02611085
#
# Stress axis : x y z
#
# Youngs Moduli (GPa) = 33.04976 116.53320 37.80222
#
# Poissons Ratio (x) = -0.49652 0.60171
# Poissons Ratio (y) = -0.14082 0.29993
# Poissons Ratio (z) = 0.52606 0.92459
#
# Static dielectric constant tensor:
#      x y z
#    x 1.923100 0.000000 0.033900 
#    y 0.000000 1.850240 0.000000 
#    z 0.033900 0.000000 1.950280 
# 
# From -- ./inp_files/22416.got.cif
#   From: 2010.05.17/outbox.cif.g08.bks.cpg/sg12_12_cif.got.tgz:22416.got - 2010.06.03 13:09:07.
