data_PCOD9188317
_publ_section_title
;
Structure prediction by ZEFSAII (Michael W. Deem and Ramdas Pophale) SiO2 
 PCOD9188317
Probable space group: C 2/M
;
_chemical_formula_sum "Si O2"
_cell_formula_units_Z 60
_cell_length_a 21.579312
_cell_length_b 7.946117
_cell_length_c 21.368300
_cell_angle_alpha 90.000000
_cell_angle_beta 139.242339
_cell_angle_gamma 90.000000
_cell_volume 2392.121722
_symmetry_space_group_name_H-M "C 2/M"
_symmetry_group_IT_number 12
_symmetry_cell_setting 'monoclinic'
loop_
_space_group_symop_operation_xyz
x,y,z
-x,y,-z
-x,-y,-z
x,-y,z
1/2+x,1/2+y,z
1/2-x,1/2+y,-z
1/2-x,1/2-y,-z
1/2+x,1/2-y,z
loop_
_atom_site_type_symbol
_atom_site_label
_atom_site_fract_x
_atom_site_fract_y
_atom_site_fract_z
Si Si1 0.788846 0.198549 0.383519
Si Si2 0.424000 0.702815 0.387222
Si Si3 0.190400 0.500000 0.047217
Si Si4 0.355830 0.298141 0.562262
Si Si5 0.556918 0.809375 0.741232
Si Si6 0.390249 0.823057 0.895612
Si Si7 0.626115 0.695269 0.918604
Si Si8 0.412827 0.686834 0.786323
O O1 0.825070 0.256040 0.343865
O O2 0.855755 0.264407 0.490072
O O3 0.679633 0.230700 0.314105
O O4 0.804496 0.000000 0.395929
O O5 0.500000 0.747340 0.500000
O O6 0.430239 0.500000 0.384612
O O7 0.428929 0.771783 0.321108
O O8 0.189128 0.347510 0.993432
O O9 0.171962 0.353762 0.090104
O O10 0.250000 0.250000 0.500000
O O11 0.444420 0.218953 0.665184
O O12 0.132856 0.000000 0.426888
O O13 0.613795 0.695352 0.833586
O O14 0.582634 0.000000 0.774802
O O15 0.385080 0.685108 0.838601
O O16 0.375833 0.000000 0.847277
O O17 0.500000 0.819226 0.000000
O O18 0.640208 0.500000 0.950590
O O19 0.519252 0.754516 0.860367
O O20 0.417817 0.500000 0.763790
#
# Coordination Sequence:
#
# PCOD9188317 Si02
#       8
#     8   8   4   8   8   8   8   8
#     4  10  22  37  58  78 111 157 194 247 303 347
#     4  10  20  41  63  81 107 148 203 254 302 352
#     4  10  19  36  58  86 123 160 194 242 297 359
#     4  11  22  38  55  81 113 157 199 236 291 354
#     4  12  24  37  58  84 116 156 198 249 298 351
#     4   9  16  31  53  78 113 154 187 233 285 354
#     4  11  22  36  56  87 124 161 200 244 292 355
#     4  11  22  33  53  86 124 156 196 242 292 359
#
# _framework density 25.082336000000002
#
# number of rings (size 3 to 8) (size 9 to 14) (size 15 to 20)
#    0.400    1.067    3.333    2.800    0.933    4.800 
#    0.000    0.000    0.000    0.000    0.000    0.933 
#    0.000    0.000    0.000    0.000    0.000    0.000 
#
# Total GULP energy -167015.735068 kJ/mol
# GULP energy per Si atom -5567.191169 kJ/mol
# Density = 2.502525 g / cm^3
# Si number density = 25.082336 Si / 1000 Ang^3
#
#
#
# Elastic Constant Matrix: (Units=GPa)
#
#
# Indices 1 2 3 4 5 6 
#
# 1 105.2936 7.1760 31.3380 0.0000 -12.8781 0.0000
# 2 7.1760 88.7312 20.3579 0.0000 -5.7018 0.0000
# 3 31.3380 20.3579 105.0843 0.0000 -6.9247 0.0000
# 4 0.0000 0.0000 0.0000 17.1395 0.0000 -6.3600
# 5 -12.8781 -5.7018 -6.9247 0.0000 45.3182 0.0000
# 6 0.0000 0.0000 0.0000 -6.3600 0.0000 19.5487
#
#
#
# Elastic Compliance Matrix: (Units=1/GPa)
#
#
# Indices 1 2 3 4 5 6 
#
# 1 0.010713 -0.000007 -0.003023 0.000000 0.002582 0.000000
# 2 -0.000007 0.011853 -0.002219 0.000000 0.001150 0.000000
# 3 -0.003023 -0.002219 0.010882 0.000000 0.000525 0.000000
# 4 0.000000 0.000000 0.000000 0.066355 0.000000 0.021588
# 5 0.002582 0.001150 0.000525 0.000000 0.023025 0.000000
# 6 0.000000 0.000000 0.000000 0.021588 0.000000 0.058178
#
#
# Mechanical properties :
#
#
# Convention : Reuss Voigt Hill
#
# Bulk Modulus (GPa) = 43.57048 46.31699 44.94373
# Shear Modulus (GPa) = 25.10609 32.41711 28.76160
#
# Velocity S-wave (km/s) = 3.16721 3.59894 3.38995
# Velocity P-wave (km/s) = 5.54830 5.98129 5.76886
#
# Compressibility (1/GPa) = 0.02295132
#
# Stress axis : x y z
#
# Youngs Moduli (GPa) = 93.34174 84.36346 91.89343
#
# Poissons Ratio (x) = 0.00058 0.27784
# Poissons Ratio (y) = 0.00064 0.20387
# Poissons Ratio (z) = 0.28221 0.18716
#
# Static dielectric constant tensor:
#      x y z
#    x 2.097920 0.000000 0.059980 
#    y 0.000000 1.901330 0.000000 
#    z 0.059980 0.000000 2.029510 
# 
# From -- ./inp_files/320565.got.cif
#   From: 2010.05.17/outbox.cif.g08.bks.cpg/sg12_161_cif.got.tgz:320565.got - 2010.06.03 13:09:07.
