data_PCOD9188876
_publ_section_title
;
Structure prediction by ZEFSAII (Michael W. Deem and Ramdas Pophale) SiO2 
 PCOD9188876
Probable space group: C 2/M
;
_chemical_formula_sum "Si O2"
_cell_formula_units_Z 56
_cell_length_a 28.530825
_cell_length_b 19.649843
_cell_length_c 9.465920
_cell_angle_alpha 90.000000
_cell_angle_beta 144.454736
_cell_angle_gamma 90.000000
_cell_volume 3085.111617
_symmetry_space_group_name_H-M "C 2/M"
_symmetry_group_IT_number 12
_symmetry_cell_setting 'monoclinic'
loop_
_space_group_symop_operation_xyz
x,y,z
-x,y,-z
-x,-y,-z
x,-y,z
1/2+x,1/2+y,z
1/2-x,1/2+y,-z
1/2-x,1/2-y,-z
1/2+x,1/2-y,z
loop_
_atom_site_type_symbol
_atom_site_label
_atom_site_fract_x
_atom_site_fract_y
_atom_site_fract_z
Si Si1 0.160199 0.311016 0.159987
Si Si2 0.428138 0.686742 0.647091
Si Si3 0.664756 0.077757 0.680701
Si Si4 0.982435 0.657935 0.791664
Si Si5 0.893849 0.161445 0.887757
Si Si6 0.744369 0.077955 0.568055
Si Si7 0.242569 0.180950 0.893358
O O1 0.151247 0.233321 0.192495
O O2 0.200050 0.365077 0.364683
O O3 0.212462 0.310851 0.146299
O O4 0.067194 0.334376 0.919532
O O5 0.438005 0.768645 0.683413
O O6 0.408711 0.660202 0.756391
O O7 0.352314 0.668246 0.365266
O O8 0.517570 0.662083 0.824937
O O9 0.576124 0.106086 0.429172
O O10 0.710331 0.082225 0.642332
O O11 0.661540 0.000000 0.718840
O O12 0.712236 0.122803 0.909279
O O13 0.000000 0.640742 0.000000
O O14 0.837401 0.100116 0.795077
O O15 0.732908 0.000000 0.489525
O O16 0.250000 0.250000 0.000000
#
# Coordination Sequence:
#
# PCOD9188876 Si02
#       7
#     8   8   8   8   8   8   8
#     4  11  22  36  66  91 120 154 203 253 301 354
#     4  10  19  36  62  91 120 150 195 250 308 348
#     4  11  25  42  59  85 128 167 196 245 310 370
#     4  11  19  38  64  95 120 150 202 258 303 360
#     4  10  19  37  63  92 116 147 199 261 295 345
#     4  11  22  38  62  90 116 157 209 248 299 359
#     4  12  24  39  61  89 125 164 201 242 303 367
#
# _framework density 18.151695
#
# number of rings (size 3 to 8) (size 9 to 14) (size 15 to 20)
#    0.000    1.143    7.143    1.286    0.000    2.000 
#    0.000    5.000    0.000    1.714    0.000    0.000 
#    0.000    0.000    0.000    0.000    0.000    0.000 
#
# Total GULP energy -156328.294707 kJ/mol
# GULP energy per Si atom -5583.153382 kJ/mol
# Density = 1.811038 g / cm^3
# Si number density = 18.151695 Si / 1000 Ang^3
#
#
#
# Elastic Constant Matrix: (Units=GPa)
#
#
# Indices 1 2 3 4 5 6 
#
# 1 45.1376 5.6117 8.1280 0.0000 17.8559 0.0000
# 2 5.6117 42.6954 28.5308 0.0000 11.8839 0.0000
# 3 8.1280 28.5308 115.1506 0.0000 17.4694 0.0000
# 4 0.0000 0.0000 0.0000 23.7510 0.0000 -2.0046
# 5 17.8559 11.8839 17.4694 0.0000 24.9607 0.0000
# 6 0.0000 0.0000 0.0000 -2.0046 0.0000 8.4746
#
#
#
# Elastic Compliance Matrix: (Units=1/GPa)
#
#
# Indices 1 2 3 4 5 6 
#
# 1 0.031197 0.001917 0.000948 0.000000 -0.023893 0.000000
# 2 0.001917 0.030359 -0.005881 0.000000 -0.011709 0.000000
# 3 0.000948 -0.005881 0.010911 0.000000 -0.005515 0.000000
# 4 0.000000 0.000000 0.000000 0.042961 0.000000 0.010162
# 5 -0.023893 -0.011709 -0.005515 0.000000 0.066590 0.000000
# 6 0.000000 0.000000 0.000000 0.010162 0.000000 0.120404
#
#
# Mechanical properties :
#
#
# Convention : Reuss Voigt Hill
#
# Bulk Modulus (GPa) = 15.05240 31.94717 23.49978
# Shear Modulus (GPa) = 15.12404 22.15146 18.63775
#
# Velocity S-wave (km/s) = 2.88966 3.49714 3.20781
# Velocity P-wave (km/s) = 4.40954 5.82623 5.16667
#
# Compressibility (1/GPa) = 0.06643460
#
# Stress axis : x y z
#
# Youngs Moduli (GPa) = 32.05392 32.93940 91.64991
#
# Poissons Ratio (x) = -0.06313 -0.08687
# Poissons Ratio (y) = -0.06144 0.53898
# Poissons Ratio (z) = -0.03038 0.19371
#
# Static dielectric constant tensor:
#      x y z
#    x 1.622280 0.000000 0.016330 
#    y 0.000000 1.608250 0.000000 
#    z 0.016330 0.000000 1.643420 
# 
# From -- ./inp_files/106048.got.cif
#   From: 2010.05.17/outbox.cif.g08.bks.cpg/sg12_54_cif.got.tgz:106048.got - 2010.06.03 13:09:07.
