data_PCOD9188043
_publ_section_title
;
Structure prediction by ZEFSAII (Michael W. Deem and Ramdas Pophale) SiO2 
 PCOD9188043
Probable space group: C 2/M
;
_chemical_formula_sum "Si O2"
_cell_formula_units_Z 56
_cell_length_a 20.228481
_cell_length_b 18.495304
_cell_length_c 12.889804
_cell_angle_alpha 90.000000
_cell_angle_beta 142.362228
_cell_angle_gamma 90.000000
_cell_volume 2944.935291
_symmetry_space_group_name_H-M "C 2/M"
_symmetry_group_IT_number 12
_symmetry_cell_setting 'monoclinic'
loop_
_space_group_symop_operation_xyz
x,y,z
-x,y,-z
-x,-y,-z
x,-y,z
1/2+x,1/2+y,z
1/2-x,1/2+y,-z
1/2-x,1/2-y,-z
1/2+x,1/2-y,z
loop_
_atom_site_type_symbol
_atom_site_label
_atom_site_fract_x
_atom_site_fract_y
_atom_site_fract_z
Si Si1 0.072574 0.583082 0.348175
Si Si2 0.099640 0.144053 0.487990
Si Si3 0.324677 0.080167 0.748076
Si Si4 0.367452 0.332770 0.227800
Si Si5 0.872731 0.314554 0.132601
Si Si6 0.607727 0.772597 0.070615
Si Si7 0.708794 0.217631 0.559024
O O1 0.077529 0.500000 0.388482
O O2 0.097531 0.583560 0.255412
O O3 0.166010 0.636894 0.503162
O O4 0.961114 0.622222 0.240966
O O5 0.198781 0.097990 0.562982
O O6 0.125435 0.144425 0.643071
O O7 0.114685 0.226419 0.470452
O O8 0.973588 0.128054 0.311968
O O9 0.362737 0.143670 0.869949
O O10 0.330710 0.000000 0.800686
O O11 0.378311 0.245088 0.230511
O O12 0.249190 0.345571 0.031967
O O13 0.896262 0.267364 0.057259
O O14 0.701177 0.727576 0.241814
O O15 0.500000 0.755942 0.000000
O O16 0.750000 0.250000 0.500000
#
# Coordination Sequence:
#
# PCOD9188043 Si02
#       7
#     8   8   8   8   8   8   8
#     4  11  22  36  58  86 119 150 179 234 299 341
#     4  10  19  36  54  80 106 149 196 224 273 327
#     4  10  20  33  52  80 116 144 172 223 290 350
#     4  10  21  33  55  76 109 147 191 234 260 323
#     4  11  20  35  51  85 110 143 189 232 284 325
#     4  11  20  32  55  87 111 141 182 234 291 326
#     4  11  18  35  57  80 112 144 190 236 270 339
#
# _framework density 19.015698
#
# number of rings (size 3 to 8) (size 9 to 14) (size 15 to 20)
#    0.000    1.429    8.571    0.000    0.000    0.857 
#    0.000    2.143    0.000    2.143    0.000    2.000 
#    0.000    0.000    0.000    0.000    0.000    0.000 
#
# Total GULP energy -156060.577045 kJ/mol
# GULP energy per Si atom -5573.592037 kJ/mol
# Density = 1.897242 g / cm^3
# Si number density = 19.015698 Si / 1000 Ang^3
#
#
#
# Elastic Constant Matrix: (Units=GPa)
#
#
# Indices 1 2 3 4 5 6 
#
# 1 57.5507 11.8505 11.0349 0.0000 33.8644 0.0000
# 2 11.8505 99.7904 30.6706 0.0000 12.6906 0.0000
# 3 11.0349 30.6706 61.2243 0.0000 25.2626 0.0000
# 4 0.0000 0.0000 0.0000 16.1949 0.0000 4.2535
# 5 33.8644 12.6906 25.2626 0.0000 35.5926 0.0000
# 6 0.0000 0.0000 0.0000 4.2535 0.0000 14.9703
#
#
#
# Elastic Compliance Matrix: (Units=1/GPa)
#
#
# Indices 1 2 3 4 5 6 
#
# 1 0.047712 -0.003550 0.016104 0.000000 -0.055560 0.000000
# 2 -0.003550 0.012109 -0.007125 0.000000 0.004117 0.000000
# 3 0.016104 -0.007125 0.031499 0.000000 -0.035139 0.000000
# 4 0.000000 0.000000 0.000000 0.066728 0.000000 -0.018959
# 5 -0.055560 0.004117 -0.035139 0.000000 0.104430 0.000000
# 6 0.000000 0.000000 0.000000 -0.018959 0.000000 0.072186
#
#
# Mechanical properties :
#
#
# Convention : Reuss Voigt Hill
#
# Bulk Modulus (GPa) = 9.78681 36.18640 22.98661
# Shear Modulus (GPa) = 13.97175 24.35218 19.16196
#
# Velocity S-wave (km/s) = 2.71356 3.58248 3.17786
# Velocity P-wave (km/s) = 3.86986 6.01525 5.05762
#
# Compressibility (1/GPa) = 0.10217831
#
# Stress axis : x y z
#
# Youngs Moduli (GPa) = 20.95915 82.58423 31.74673
#
# Poissons Ratio (x) = 0.29317 -0.51125
# Poissons Ratio (y) = 0.07440 0.22620
# Poissons Ratio (z) = -0.33753 0.58842
#
# Static dielectric constant tensor:
#      x y z
#    x 1.744020 0.000000 0.034980 
#    y 0.000000 1.642880 0.000000 
#    z 0.034980 0.000000 1.708700 
# 
# From -- ./inp_files/169500.got.cif
#   From: 2010.05.17/outbox.cif.g08.bks.cpg/sg12_85_cif.got.tgz:169500.got - 2010.06.03 13:09:07.
