data_PCOD9188509
_publ_section_title
;
Structure prediction by ZEFSAII (Michael W. Deem and Ramdas Pophale) SiO2 
 PCOD9188509
Probable space group: C 2/M
;
_chemical_formula_sum "Si O2"
_cell_formula_units_Z 52
_cell_length_a 22.311634
_cell_length_b 16.469821
_cell_length_c 10.482405
_cell_angle_alpha 90.000000
_cell_angle_beta 133.402776
_cell_angle_gamma 90.000000
_cell_volume 2798.604617
_symmetry_space_group_name_H-M "C 2/M"
_symmetry_group_IT_number 12
_symmetry_cell_setting 'monoclinic'
loop_
_space_group_symop_operation_xyz
x,y,z
-x,y,-z
-x,-y,-z
x,-y,z
1/2+x,1/2+y,z
1/2-x,1/2+y,-z
1/2-x,1/2-y,-z
1/2+x,1/2-y,z
loop_
_atom_site_type_symbol
_atom_site_label
_atom_site_fract_x
_atom_site_fract_y
_atom_site_fract_z
Si Si1 0.669413 0.091149 0.824087
Si Si2 0.167408 0.594972 0.323309
Si Si3 0.750994 0.846998 0.195831
Si Si4 0.226547 0.906725 0.285325
Si Si5 0.500000 0.813002 0.000000
Si Si6 0.908582 0.768163 0.316272
Si Si7 0.611745 0.709162 0.996413
O O1 0.724665 0.094733 0.777591
O O2 0.612876 0.172047 0.735496
O O3 0.630800 0.000000 0.771811
O O4 0.724359 0.102434 0.031665
O O5 0.150850 0.500000 0.319863
O O6 0.228482 0.606530 0.292266
O O7 0.214428 0.628222 0.517360
O O8 0.079661 0.636380 0.163158
O O9 0.841486 0.810297 0.309547
O O10 0.689395 0.770325 0.107783
O O11 0.141773 0.860194 0.135798
O O12 0.210254 0.000000 0.295602
O O13 0.533747 0.757294 0.935609
O O14 0.000000 0.774940 0.500000
O O15 0.901420 0.812675 0.169274
#
# Coordination Sequence:
#
# PCOD9188509 Si02
#       7
#     8   8   8   8   4   8   8
#     4  10  19  36  60  82 112 154 192 234 288 344
#     4  10  22  38  60  89 119 150 192 240 288 348
#     4  10  19  38  59  81 114 158 196 232 282 349
#     4  10  20  36  60  82 110 153 197 237 279 339
#     4  10  23  34  61  88 120 154 180 238 303 342
#     4  11  22  35  58  87 120 146 195 247 288 341
#     4  10  20  38  56  83 117 152 197 238 283 347
#
# _framework density 18.580689
#
# number of rings (size 3 to 8) (size 9 to 14) (size 15 to 20)
#    0.000    1.846    3.077    1.615    2.154    4.000 
#    0.000    1.154    0.000    4.154    0.000    0.000 
#    0.000    0.000    0.000    0.000    0.000    0.000 
#
# Total GULP energy -144947.688316 kJ/mol
# GULP energy per Si atom -5574.911089 kJ/mol
# Density = 1.853840 g / cm^3
# Si number density = 18.580689 Si / 1000 Ang^3
#
#
#
# Elastic Constant Matrix: (Units=GPa)
#
#
# Indices 1 2 3 4 5 6 
#
# 1 102.5414 22.3907 41.7944 0.0000 7.4451 0.0000
# 2 22.3907 50.3594 39.4184 0.0000 9.0503 0.0000
# 3 41.7944 39.4184 94.1631 0.0000 -0.7205 0.0000
# 4 0.0000 0.0000 0.0000 18.2767 0.0000 -3.1380
# 5 7.4451 9.0503 -0.7205 0.0000 31.2226 0.0000
# 6 0.0000 0.0000 0.0000 -3.1380 0.0000 21.5001
#
#
#
# Elastic Compliance Matrix: (Units=1/GPa)
#
#
# Indices 1 2 3 4 5 6 
#
# 1 0.012218 -0.001011 -0.005021 0.000000 -0.002736 0.000000
# 2 -0.001011 0.032283 -0.013138 0.000000 -0.009420 0.000000
# 3 -0.005021 -0.013138 0.018390 0.000000 0.005430 0.000000
# 4 0.000000 0.000000 0.000000 0.056121 0.000000 0.008191
# 5 -0.002736 -0.009420 0.005430 0.000000 0.035536 0.000000
# 6 0.000000 0.000000 0.000000 0.008191 0.000000 0.047707
#
#
# Mechanical properties :
#
#
# Convention : Reuss Voigt Hill
#
# Bulk Modulus (GPa) = 40.72956 50.47454 45.60205
# Shear Modulus (GPa) = 20.09833 23.76391 21.93112
#
# Velocity S-wave (km/s) = 3.29246 3.58013 3.43930
# Velocity P-wave (km/s) = 6.03503 6.65686 6.35356
#
# Compressibility (1/GPa) = 0.02455219
#
# Stress axis : x y z
#
# Youngs Moduli (GPa) = 81.84707 30.97611 54.37841
#
# Poissons Ratio (x) = 0.03130 0.27303
# Poissons Ratio (y) = 0.08271 0.71441
# Poissons Ratio (z) = 0.41094 0.40696
#
# Static dielectric constant tensor:
#      x y z
#    x 1.635150 0.000000 -0.027930 
#    y 0.000000 1.690370 0.000000 
#    z -0.027930 0.000000 1.650940 
# 
# From -- ./inp_files/88498.got.cif
#   From: 2010.05.17/outbox.cif.g08.bks.cpg/sg12_45_cif.got.tgz:88498.got - 2010.06.03 13:09:07.
