data_PCOD9188993
_publ_section_title
;
Structure prediction by ZEFSAII (Michael W. Deem and Ramdas Pophale) SiO2 
 PCOD9188993
Probable space group: C 2/M
;
_chemical_formula_sum "Si O2"
_cell_formula_units_Z 64
_cell_length_a 10.606674
_cell_length_b 25.100385
_cell_length_c 12.210679
_cell_angle_alpha 90.000000
_cell_angle_beta 82.940043
_cell_angle_gamma 90.000000
_cell_volume 3226.220788
_symmetry_space_group_name_H-M "C 2/M"
_symmetry_group_IT_number 12
_symmetry_cell_setting 'monoclinic'
loop_
_space_group_symop_operation_xyz
x,y,z
-x,y,-z
-x,-y,-z
x,-y,z
1/2+x,1/2+y,z
1/2-x,1/2+y,-z
1/2-x,1/2-y,-z
1/2+x,1/2-y,z
loop_
_atom_site_type_symbol
_atom_site_label
_atom_site_fract_x
_atom_site_fract_y
_atom_site_fract_z
Si Si1 0.247687 0.437857 0.729180
Si Si2 0.137548 0.147379 0.429502
Si Si3 0.173872 0.937174 0.048733
Si Si4 0.739812 0.138003 0.354511
Si Si5 0.086361 0.884659 0.853696
Si Si6 0.982764 0.559380 0.632909
Si Si7 0.784756 0.243901 0.735717
Si Si8 0.521921 0.259308 0.873795
O O1 0.285029 0.500000 0.720044
O O2 0.348968 0.400978 0.657045
O O3 0.235522 0.423965 0.858887
O O4 0.114800 0.431860 0.680754
O O5 0.232121 0.135992 0.520089
O O6 0.177219 0.199293 0.356485
O O7 0.000000 0.153701 0.500000
O O8 0.035170 0.921726 0.112371
O O9 0.180727 0.000000 0.023437
O O10 0.185270 0.902873 0.937323
O O11 0.854326 0.112689 0.272321
O O12 0.616173 0.105587 0.333692
O O13 0.727822 0.199294 0.321831
O O14 0.048480 0.823122 0.875136
O O15 0.935472 0.500000 0.668987
O O16 0.000000 0.559058 0.500000
O O17 0.647736 0.233586 0.806324
O O18 0.896655 0.247707 0.813484
O O19 0.500000 0.240522 0.000000
#
# Coordination Sequence:
#
# PCOD9188993 Si02
#       8
#     8   8   8   8   8   8   8   8
#     4  10  22  40  64  95 124 167 221 265 324 388
#     4  12  24  41  65  92 132 170 211 275 330 380
#     4  10  19  36  64  92 125 164 206 262 328 388
#     4  11  24  40  61  92 124 170 219 261 320 391
#     4  10  20  38  61  90 125 160 206 264 322 383
#     4  10  21  40  61  85 123 169 213 264 316 374
#     4  11  26  41  63  97 129 173 223 271 330 394
#     4  11  22  43  65  90 129 168 216 271 324 388
#
# _framework density 19.837451999999999
#
# number of rings (size 3 to 8) (size 9 to 14) (size 15 to 20)
#    0.000    1.375    2.500    4.500    1.750    1.750 
#    0.000    0.625    0.000    2.250    0.000    0.000 
#    0.000    0.000    0.000    0.000    0.000    0.000 
#
# Total GULP energy -178717.740747 kJ/mol
# GULP energy per Si atom -5584.929398 kJ/mol
# Density = 1.979230 g / cm^3
# Si number density = 19.837452 Si / 1000 Ang^3
#
#
#
# Elastic Constant Matrix: (Units=GPa)
#
#
# Indices 1 2 3 4 5 6 
#
# 1 65.4472 10.4100 17.8160 0.0000 6.1507 0.0000
# 2 10.4100 41.1264 7.9382 0.0000 -4.9438 0.0000
# 3 17.8160 7.9382 86.5598 0.0000 24.2304 0.0000
# 4 0.0000 0.0000 0.0000 -3.5457 0.0000 44.3014
# 5 6.1507 -4.9438 24.2304 0.0000 37.5608 0.0000
# 6 0.0000 0.0000 0.0000 44.3014 0.0000 -31.5265
#
#
#
# Elastic Compliance Matrix: (Units=1/GPa)
#
#
# Indices 1 2 3 4 5 6 
#
# 1 0.016772 -0.003918 -0.002660 0.000000 -0.001546 0.000000
# 2 -0.003918 0.026735 -0.003429 0.000000 0.006373 0.000000
# 3 -0.002660 -0.003429 0.015156 0.000000 -0.009793 0.000000
# 4 0.000000 0.000000 0.000000 0.017034 0.000000 0.023936
# 5 -0.001546 0.006373 -0.009793 0.000000 0.034033 0.000000
# 6 0.000000 0.000000 0.000000 0.023936 0.000000 0.001916
#
#
# Mechanical properties :
#
#
# Convention : Reuss Voigt Hill
#
# Bulk Modulus (GPa) = 25.87402 29.49577 27.68489
# Shear Modulus (GPa) = 34.59190 10.96231 22.77711
#
# Velocity S-wave (km/s) = 4.18037 2.35331 3.39217
# Velocity P-wave (km/s) = 6.03092 4.72071 5.41559
#
# Compressibility (1/GPa) = 0.03864880
#
# Stress axis : x y z
#
# Youngs Moduli (GPa) = 59.62296 37.40417 65.98067
#
# Poissons Ratio (x) = 0.14654 0.17550
# Poissons Ratio (y) = 0.23359 0.22627
# Poissons Ratio (z) = 0.15859 0.12827
#
# Static dielectric constant tensor:
#      x y z
#    x 1.712250 0.000000 0.019720 
#    y 0.000000 1.684820 0.000000 
#    z 0.019720 0.000000 1.703870 
# 
# From -- ./inp_files/135372.got.cif
#   From: 2010.05.17/outbox.cif.g08.bks.cpg/sg12_68_cif.got.tgz:135372.got - 2010.06.03 13:09:07.
