data_PCOD9188626
_publ_section_title
;
Structure prediction by ZEFSAII (Michael W. Deem and Ramdas Pophale) SiO2 
 PCOD9188626
Probable space group: C 2/M
;
_chemical_formula_sum "Si O2"
_cell_formula_units_Z 52
_cell_length_a 10.505615
_cell_length_b 22.049516
_cell_length_c 19.205079
_cell_angle_alpha 90.000000
_cell_angle_beta 35.883454
_cell_angle_gamma 90.000000
_cell_volume 2607.575065
_symmetry_space_group_name_H-M "C 2/M"
_symmetry_group_IT_number 12
_symmetry_cell_setting 'monoclinic'
loop_
_space_group_symop_operation_xyz
x,y,z
-x,y,-z
-x,-y,-z
x,-y,z
1/2+x,1/2+y,z
1/2-x,1/2+y,-z
1/2-x,1/2-y,-z
1/2+x,1/2-y,z
loop_
_atom_site_type_symbol
_atom_site_label
_atom_site_fract_x
_atom_site_fract_y
_atom_site_fract_z
Si Si1 0.641545 0.132970 0.661842
Si Si2 0.789394 0.666569 0.048082
Si Si3 0.000000 0.297764 0.500000
Si Si4 0.250605 0.690111 0.092129
Si Si5 0.532803 0.314455 0.580769
Si Si6 0.912948 0.127407 0.301937
Si Si7 0.737374 0.000000 0.430825
Si Si8 0.242806 0.500000 0.595124
O O1 0.415807 0.165684 0.776491
O O2 0.819197 0.160243 0.636497
O O3 0.757552 0.147061 0.536866
O O4 0.636129 0.060967 0.671800
O O5 0.738581 0.737187 0.088488
O O6 0.582418 0.628639 0.164632
O O7 0.818218 0.663100 0.952375
O O8 0.000000 0.649482 0.000000
O O9 0.934057 0.252046 0.466768
O O10 0.186162 0.340012 0.386702
O O11 0.500000 0.675528 0.000000
O O12 0.496613 0.328303 0.677067
O O13 0.864590 0.060487 0.351196
O O14 0.500000 0.000000 0.500000
O O15 0.717930 0.000000 0.522821
O O16 0.500000 0.500000 0.500000
#
# Coordination Sequence:
#
# PCOD9188626 Si02
#       8
#     8   8   4   8   8   8   4   4
#     4  10  19  36  60  88 118 152 211 260 300 357
#     4  10  22  39  61  85 119 161 203 252 306 364
#     4  10  22  33  58  93 124 156 200 264 322 370
#     4  10  22  39  59  86 119 161 203 251 310 363
#     4  10  20  35  61  94 120 150 206 268 319 361
#     4  12  22  40  60  88 131 165 204 247 317 380
#     4  12  26  42  58  92 134 172 196 240 320 388
#     4  12  20  40  64  90 116 166 214 258 300 356
#
# _framework density 19.9419
#
# number of rings (size 3 to 8) (size 9 to 14) (size 15 to 20)
#    0.000    1.538    3.846    3.231    0.000    4.923 
#    0.000    1.538    0.000    0.000    0.000    0.000 
#    0.000    0.000    0.000    0.000    0.000    0.000 
#
# Total GULP energy -145249.471523 kJ/mol
# GULP energy per Si atom -5586.518136 kJ/mol
# Density = 1.989651 g / cm^3
# Si number density = 19.941900 Si / 1000 Ang^3
#
#
#
# Elastic Constant Matrix: (Units=GPa)
#
#
# Indices 1 2 3 4 5 6 
#
# 1 77.7757 -1.4591 9.1081 0.0016 -5.2310 -0.0023
# 2 -1.4591 80.4827 17.0334 0.0008 -13.1271 -0.0007
# 3 9.1081 17.0334 87.3441 -0.0053 -13.8501 -0.0035
# 4 0.0016 0.0008 -0.0053 28.4182 0.0004 3.1552
# 5 -5.2310 -13.1271 -13.8501 0.0004 26.4329 0.0010
# 6 -0.0023 -0.0007 -0.0035 3.1552 0.0010 11.7033
#
#
#
# Elastic Compliance Matrix: (Units=1/GPa)
#
#
# Indices 1 2 3 4 5 6 
#
# 1 0.013174 0.000882 -0.001159 -0.000001 0.002438 0.000002
# 2 0.000882 0.013819 -0.001822 -0.000001 0.006082 0.000000
# 3 -0.001159 -0.001822 0.012810 0.000002 0.005578 0.000002
# 4 -0.000001 -0.000001 0.000002 0.036274 0.000000 -0.009779
# 5 0.002438 0.006082 0.005578 0.000000 0.044257 -0.000001
# 6 0.000002 0.000000 0.000002 -0.009779 -0.000001 0.088082
#
#
# Mechanical properties :
#
#
# Convention : Reuss Voigt Hill
#
# Bulk Modulus (GPa) = 28.08787 32.77414 30.43101
# Shear Modulus (GPa) = 22.27338 28.03888 25.15613
#
# Velocity S-wave (km/s) = 3.34565 3.75377 3.55557
# Velocity P-wave (km/s) = 5.38887 5.93786 5.67002
#
# Compressibility (1/GPa) = 0.03560256
#
# Stress axis : x y z
#
# Youngs Moduli (GPa) = 75.90871 72.36553 78.06609
#
# Poissons Ratio (x) = -0.06381 0.09049
# Poissons Ratio (y) = -0.06693 0.14226
# Poissons Ratio (z) = 0.08799 0.13187
#
# Static dielectric constant tensor:
#      x y z
#    x 1.755890 0.000000 -0.014720 
#    y 0.000000 1.682820 0.000000 
#    z -0.014720 0.000000 1.674840 
# 
# From -- ./inp_files/134071.got.cif
#   From: 2010.05.17/outbox.cif.g08.bks.cpg/sg12_68_cif.got.tgz:134071.got - 2010.06.03 13:09:07.
