data_PCOD9188468
_publ_section_title
;
Structure prediction by ZEFSAII (Michael W. Deem and Ramdas Pophale) SiO2 
 PCOD9188468
Probable space group: C 2/M
;
_chemical_formula_sum "Si O2"
_cell_formula_units_Z 64
_cell_length_a 31.386555
_cell_length_b 13.814346
_cell_length_c 21.255283
_cell_angle_alpha 90.000000
_cell_angle_beta 163.837963
_cell_angle_gamma 90.000000
_cell_volume 2565.308176
_symmetry_space_group_name_H-M "C 2/M"
_symmetry_group_IT_number 12
_symmetry_cell_setting 'monoclinic'
loop_
_space_group_symop_operation_xyz
x,y,z
-x,y,-z
-x,-y,-z
x,-y,z
1/2+x,1/2+y,z
1/2-x,1/2+y,-z
1/2-x,1/2-y,-z
1/2+x,1/2-y,z
loop_
_atom_site_type_symbol
_atom_site_label
_atom_site_fract_x
_atom_site_fract_y
_atom_site_fract_z
Si Si1 0.727776 0.748824 0.746523
Si Si2 0.036022 0.608719 0.625393
Si Si3 0.167909 0.386594 0.351412
Si Si4 0.617265 0.384227 0.844102
Si Si5 0.561745 0.885472 0.334744
Si Si6 0.163716 0.754557 0.230197
Si Si7 0.013071 0.884874 0.827851
Si Si8 0.289514 0.384313 0.158037
O O1 0.584652 0.814190 0.522744
O O2 0.796660 0.705430 0.780454
O O3 0.854472 0.824079 0.952115
O O4 0.684733 0.675810 0.741825
O O5 0.012234 0.500000 0.617587
O O6 0.000000 0.604432 0.500000
O O7 0.211744 0.635039 0.887127
O O8 0.148276 0.500000 0.310411
O O9 0.064293 0.360113 0.263871
O O10 0.144105 0.324818 0.256146
O O11 0.347187 0.371217 0.623100
O O12 0.600378 0.500000 0.816098
O O13 0.614169 0.353748 0.766930
O O14 0.507425 0.354100 0.745621
O O15 0.700343 0.827305 0.560605
O O16 0.389445 0.868512 0.114177
O O17 0.591598 0.000000 0.381233
O O18 0.000000 0.808207 0.000000
O O19 0.049916 0.000000 0.881884
O O20 0.309291 0.500000 0.197245
#
# Coordination Sequence:
#
# PCOD9188468 Si02
#       8
#     8   8   8   8   8   8   8   8
#     4  12  23  35  58  89 120 157 194 238 298 354
#     4  10  19  36  59  88 122 148 186 242 298 354
#     4  10  22  41  64  86 113 157 205 243 287 348
#     4   9  18  36  60  84 114 154 192 240 297 343
#     4  10  21  41  66  87 113 152 200 250 297 350
#     4  12  25  39  58  89 126 154 188 243 303 356
#     4  10  20  37  60  87 116 147 192 246 297 351
#     4  10  22  40  60  84 115 158 209 247 282 341
#
# _framework density 24.948270000000001
#
# number of rings (size 3 to 8) (size 9 to 14) (size 15 to 20)
#    0.000    1.625    1.250    3.750    0.000    3.500 
#    2.250    0.000    0.000    0.375    0.000    0.000 
#    0.000    0.000    0.000    0.000    0.000    0.000 
#
# Total GULP energy -179337.054338 kJ/mol
# GULP energy per Si atom -5604.282948 kJ/mol
# Density = 2.489149 g / cm^3
# Si number density = 24.948270 Si / 1000 Ang^3
#
#
#
# Elastic Constant Matrix: (Units=GPa)
#
#
# Indices 1 2 3 4 5 6 
#
# 1 134.2224 -5.0968 8.3552 -0.0001 0.5442 -0.0001
# 2 -5.0968 76.0728 23.4743 0.0000 -2.3481 0.0000
# 3 8.3552 23.4743 81.3220 -0.0002 0.8347 -0.0001
# 4 -0.0001 0.0000 -0.0002 14.2568 -0.0001 3.5637
# 5 0.5442 -2.3481 0.8347 -0.0001 34.5269 -0.0001
# 6 -0.0001 0.0000 -0.0001 3.5637 -0.0001 21.5504
#
#
#
# Elastic Compliance Matrix: (Units=1/GPa)
#
#
# Indices 1 2 3 4 5 6 
#
# 1 0.007544 0.000816 -0.001010 0.000000 -0.000039 0.000000
# 2 0.000816 0.014560 -0.004298 0.000000 0.001081 0.000000
# 3 -0.001010 -0.004298 0.013647 0.000000 -0.000606 0.000000
# 4 0.000000 0.000000 0.000000 0.073166 0.000000 -0.012099
# 5 -0.000039 0.001081 -0.000606 0.000000 0.029052 0.000000
# 6 0.000000 0.000000 0.000000 -0.012099 0.000000 0.048404
#
#
# Mechanical properties :
#
#
# Convention : Reuss Voigt Hill
#
# Bulk Modulus (GPa) = 37.35891 38.34252 37.85071
# Shear Modulus (GPa) = 24.47635 31.72580 28.10107
#
# Velocity S-wave (km/s) = 3.13562 3.56991 3.35979
# Velocity P-wave (km/s) = 5.30251 5.69162 5.50050
#
# Compressibility (1/GPa) = 0.02676737
#
# Stress axis : x y z
#
# Youngs Moduli (GPa) = 132.54948 68.68367 73.27417
#
# Poissons Ratio (x) = -0.05605 0.07403
# Poissons Ratio (y) = -0.10816 0.31491
# Poissons Ratio (z) = 0.13391 0.29518
#
# Static dielectric constant tensor:
#      x y z
#    x 1.997500 0.000000 -0.013910 
#    y 0.000000 1.946510 0.000000 
#    z -0.013910 0.000000 1.966270 
# 
# From -- ./inp_files/330388.got.cif
#   From: 2010.05.17/outbox.cif.g08.bks.cpg/sg12_166_cif.got.tgz:330388.got - 2010.06.03 13:09:07.
