data_PCOD9188946
_publ_section_title
;
Structure prediction by ZEFSAII (Michael W. Deem and Ramdas Pophale) SiO2 
 PCOD9188946
Probable space group: C 2/M
;
_chemical_formula_sum "Si O2"
_cell_formula_units_Z 48
_cell_length_a 11.910131
_cell_length_b 14.495795
_cell_length_c 15.536933
_cell_angle_alpha 90.000000
_cell_angle_beta 50.865302
_cell_angle_gamma 90.000000
_cell_volume 2080.643580
_symmetry_space_group_name_H-M "C 2/M"
_symmetry_group_IT_number 12
_symmetry_cell_setting 'monoclinic'
loop_
_space_group_symop_operation_xyz
x,y,z
-x,y,-z
-x,-y,-z
x,-y,z
1/2+x,1/2+y,z
1/2-x,1/2+y,-z
1/2-x,1/2-y,-z
1/2+x,1/2-y,z
loop_
_atom_site_type_symbol
_atom_site_label
_atom_site_fract_x
_atom_site_fract_y
_atom_site_fract_z
Si Si1 0.869724 0.840647 0.391239
Si Si2 0.561582 0.145999 0.563581
Si Si3 0.387458 0.393294 0.958493
Si Si4 0.902753 0.395897 0.811896
Si Si5 0.384378 0.248491 0.203571
Si Si6 0.188481 0.897146 0.200671
O O1 0.726199 0.890518 0.494501
O O2 0.913065 0.755147 0.431507
O O3 0.826825 0.799071 0.317777
O O4 0.018109 0.894962 0.306544
O O5 0.500000 0.125958 0.500000
O O6 0.451691 0.112361 0.689588
O O7 0.436524 0.500000 0.939934
O O8 0.263997 0.376087 0.088237
O O9 0.479867 0.323406 0.107185
O O10 0.308651 0.383447 0.903570
O O11 0.928928 0.500000 0.829140
O O12 0.000129 0.324865 0.816272
O O13 0.268252 0.187611 0.208516
O O14 0.246328 0.000000 0.193367
#
# Coordination Sequence:
#
# PCOD9188946 Si02
#       6
#     8   8   8   8   8   8
#     4   9  20  37  59  89 125 161 208 266 310 353
#     4  10  20  37  61  86 117 168 219 255 303 370
#     4   9  20  39  62  93 129 162 204 258 313 371
#     4  10  21  37  58  91 130 162 204 263 313 364
#     4  10  19  36  63  92 125 166 206 254 315 373
#     4  10  20  36  63  95 126 165 209 252 308 380
#
# _framework density 23.069785
#
# number of rings (size 3 to 8) (size 9 to 14) (size 15 to 20)
#    0.000    2.333    0.000    2.000    0.000    1.667 
#    0.000    7.500    0.000   36.500    0.000   60.667 
#    0.000    0.000    0.000    0.000    0.000    0.000 
#
# Total GULP energy -134248.174902 kJ/mol
# GULP energy per Si atom -5593.673954 kJ/mol
# Density = 2.301728 g / cm^3
# Si number density = 23.069785 Si / 1000 Ang^3
#
#
#
# Elastic Constant Matrix: (Units=GPa)
#
#
# Indices 1 2 3 4 5 6 
#
# 1 101.2461 53.4489 52.7581 0.0000 6.1544 0.0000
# 2 53.4489 102.9064 45.7599 0.0000 -8.7687 0.0000
# 3 52.7581 45.7599 158.4534 0.0000 -25.0958 0.0000
# 4 0.0000 0.0000 0.0000 12.4970 0.0000 -19.3825
# 5 6.1544 -8.7687 -25.0958 0.0000 25.4791 0.0000
# 6 0.0000 0.0000 0.0000 -19.3825 0.0000 33.3477
#
#
#
# Elastic Compliance Matrix: (Units=1/GPa)
#
#
# Indices 1 2 3 4 5 6 
#
# 1 0.017636 -0.007725 -0.005612 0.000000 -0.012447 0.000000
# 2 -0.007725 0.014546 -0.000640 0.000000 0.006241 0.000000
# 3 -0.005612 -0.000640 0.010124 0.000000 0.011107 0.000000
# 4 0.000000 0.000000 0.000000 0.812029 0.000000 0.471970
# 5 -0.012447 0.006241 0.011107 0.000000 0.055342 0.000000
# 6 0.000000 0.000000 0.000000 0.471970 0.000000 0.304307
#
#
# Mechanical properties :
#
#
# Convention : Reuss Voigt Hill
#
# Bulk Modulus (GPa) = 69.68210 74.05996 71.87103
# Shear Modulus (GPa) = 4.01051 28.30737 16.15894
#
# Velocity S-wave (km/s) = 1.31992 3.50670 2.64945
# Velocity P-wave (km/s) = 5.70907 6.96909 6.37031
#
# Compressibility (1/GPa) = 0.01435089
#
# Stress axis : x y z
#
# Youngs Moduli (GPa) = 56.70165 68.74544 98.77824
#
# Poissons Ratio (x) = 0.53106 0.55439
# Poissons Ratio (y) = 0.43802 0.06325
# Poissons Ratio (z) = 0.31824 0.04402
#
# Static dielectric constant tensor:
#      x y z
#    x 1.852250 0.000000 0.000680 
#    y 0.000000 1.894150 0.000000 
#    z 0.000680 0.000000 1.883710 
# 
# From -- ./inp_files/204873.got.cif
#   From: 2010.05.17/outbox.cif.g08.bks.cpg/sg12_103_cif.got.tgz:204873.got - 2010.06.03 13:09:07.
