data_PCOD9188908
_publ_section_title
;
Structure prediction by ZEFSAII (Michael W. Deem and Ramdas Pophale) SiO2 
 PCOD9188908
Probable space group: C 2/M
;
_chemical_formula_sum "Si O2"
_cell_formula_units_Z 44
_cell_length_a 14.872955
_cell_length_b 10.314596
_cell_length_c 16.906059
_cell_angle_alpha 90.000000
_cell_angle_beta 66.898384
_cell_angle_gamma 90.000000
_cell_volume 2385.559192
_symmetry_space_group_name_H-M "C 2/M"
_symmetry_group_IT_number 12
_symmetry_cell_setting 'monoclinic'
loop_
_space_group_symop_operation_xyz
x,y,z
-x,y,-z
-x,-y,-z
x,-y,z
1/2+x,1/2+y,z
1/2-x,1/2+y,-z
1/2-x,1/2-y,-z
1/2+x,1/2-y,z
loop_
_atom_site_type_symbol
_atom_site_label
_atom_site_fract_x
_atom_site_fract_y
_atom_site_fract_z
Si Si1 0.099222 0.743476 0.705797
Si Si2 0.253005 0.500000 0.905990
Si Si3 0.127759 0.500000 0.104642
Si Si4 0.406148 0.000000 0.175701
Si Si5 0.187203 0.350203 0.337806
Si Si6 0.619485 0.268471 0.201962
Si Si7 0.340252 0.847853 0.479147
O O1 0.109701 0.624091 0.762756
O O2 0.197480 0.827649 0.682473
O O3 0.092495 0.687691 0.618496
O O4 0.994767 0.806762 0.759533
O O5 0.165967 0.500000 0.872468
O O6 0.317473 0.374206 0.865134
O O7 0.208028 0.500000 0.008672
O O8 0.133240 0.629411 0.155214
O O9 0.017881 0.500000 0.108214
O O10 0.172459 0.500000 0.319159
O O11 0.154940 0.254181 0.279697
O O12 0.128921 0.329605 0.440328
O O13 0.250000 0.750000 0.500000
O O14 0.312822 0.000000 0.481327
#
# Coordination Sequence:
#
# PCOD9188908 Si02
#       7
#     8   4   4   4   8   8   8
#     4  10  20  36  57  85 118 149 192 228 279 337
#     4  12  23  40  61  86 113 146 192 242 295 340
#     4  10  23  42  60  86 113 146 188 240 294 352
#     4  10  19  36  63  83 107 149 191 233 280 345
#     4  10  20  36  57  83 117 155 190 227 281 337
#     4  11  23  38  62  85 114 151 187 239 287 341
#     4   9  18  32  56  84 116 154 190 235 276 328
#
# _framework density 18.444313000000001
#
# number of rings (size 3 to 8) (size 9 to 14) (size 15 to 20)
#    0.000    1.818    3.636    0.818    1.273    0.727 
#    0.000    1.818    0.000    2.182    0.000    0.000 
#    0.000    0.000    0.000    0.000    0.000    0.000 
#
# Total GULP energy -122691.236525 kJ/mol
# GULP energy per Si atom -5576.874388 kJ/mol
# Density = 1.840233 g / cm^3
# Si number density = 18.444313 Si / 1000 Ang^3
#
#
#
# Elastic Constant Matrix: (Units=GPa)
#
#
# Indices 1 2 3 4 5 6 
#
# 1 67.0638 5.3562 23.1127 0.0000 -0.3149 0.0000
# 2 5.3562 52.3226 7.9448 0.0000 -8.1557 0.0000
# 3 23.1127 7.9448 80.9169 0.0000 2.9189 0.0000
# 4 0.0000 0.0000 0.0000 22.1262 0.0000 -1.0117
# 5 -0.3149 -8.1557 2.9189 0.0000 16.8059 0.0000
# 6 0.0000 0.0000 0.0000 -1.0117 0.0000 18.0861
#
#
#
# Elastic Compliance Matrix: (Units=1/GPa)
#
#
# Indices 1 2 3 4 5 6 
#
# 1 0.016597 -0.000880 -0.004680 0.000000 0.000697 0.000000
# 2 -0.000880 0.021200 -0.002215 0.000000 0.010656 0.000000
# 3 -0.004680 -0.002215 0.014042 0.000000 -0.003601 0.000000
# 4 0.000000 0.000000 0.000000 0.045311 0.000000 0.002535
# 5 0.000697 0.010656 -0.003601 0.000000 0.065313 0.000000
# 6 0.000000 0.000000 0.000000 0.002535 0.000000 0.055433
#
#
# Mechanical properties :
#
#
# Convention : Reuss Voigt Hill
#
# Bulk Modulus (GPa) = 27.55476 30.34785 28.95131
# Shear Modulus (GPa) = 20.36317 22.32961 21.34639
#
# Velocity S-wave (km/s) = 3.32631 3.48321 3.40566
# Velocity P-wave (km/s) = 5.45200 5.71546 5.58529
#
# Compressibility (1/GPa) = 0.03629137
#
# Stress axis : x y z
#
# Youngs Moduli (GPa) = 60.25007 47.17085 71.21314
#
# Poissons Ratio (x) = 0.04151 0.33325
# Poissons Ratio (y) = 0.05301 0.15770
# Poissons Ratio (z) = 0.28194 0.10446
#
# Static dielectric constant tensor:
#      x y z
#    x 1.635640 0.000000 -0.000870 
#    y 0.000000 1.601580 0.000000 
#    z -0.000870 0.000000 1.638730 
# 
# From -- ./inp_files/245582.got.cif
#   From: 2010.05.17/outbox.cif.g08.bks.cpg/sg12_123_cif.got.tgz:245582.got - 2010.06.03 13:09:07.
