data_PCOD9188900
_publ_section_title
;
Structure prediction by ZEFSAII (Michael W. Deem and Ramdas Pophale) SiO2 
 PCOD9188900
Probable space group: C 2/M
;
_chemical_formula_sum "Si O2"
_cell_formula_units_Z 52
_cell_length_a 11.957541
_cell_length_b 20.006117
_cell_length_c 16.154507
_cell_angle_alpha 90.000000
_cell_angle_beta 39.126885
_cell_angle_gamma 90.000000
_cell_volume 2438.682157
_symmetry_space_group_name_H-M "C 2/M"
_symmetry_group_IT_number 12
_symmetry_cell_setting 'monoclinic'
loop_
_space_group_symop_operation_xyz
x,y,z
-x,y,-z
-x,-y,-z
x,-y,z
1/2+x,1/2+y,z
1/2-x,1/2+y,-z
1/2-x,1/2-y,-z
1/2+x,1/2-y,z
loop_
_atom_site_type_symbol
_atom_site_label
_atom_site_fract_x
_atom_site_fract_y
_atom_site_fract_z
Si Si1 0.579281 0.574213 0.688010
Si Si2 0.548661 0.775199 0.625069
Si Si3 0.250380 0.072978 0.003788
Si Si4 0.071140 0.857747 0.367497
Si Si5 0.500000 0.612661 0.000000
Si Si6 0.781830 0.817546 0.268530
Si Si7 0.560453 0.169446 0.792912
O O1 0.652748 0.500000 0.660619
O O2 0.548930 0.587696 0.608462
O O3 0.684970 0.631725 0.675310
O O4 0.385025 0.576609 0.842038
O O5 0.750000 0.750000 0.500000
O O6 0.444299 0.704284 0.688034
O O7 0.426858 0.808387 0.625432
O O8 0.546581 0.826249 0.701973
O O9 0.126928 0.075527 0.992474
O O10 0.381775 0.136014 0.928364
O O11 0.340964 0.000000 0.953497
O O12 0.275655 0.872945 0.265799
O O13 0.000000 0.838578 0.500000
O O14 0.630165 0.653966 0.865505
O O15 0.883227 0.746713 0.222539
#
# Coordination Sequence:
#
# PCOD9188900 Si02
#       7
#     8   8   8   8   4   8   8
#     4  10  23  43  64  91 135 177 214 266 328 388
#     4  11  21  40  63  95 128 164 216 270 331 381
#     4  10  22  40  63  93 130 172 212 261 329 394
#     4  11  23  39  63  92 123 170 221 268 322 382
#     4  10  19  36  62  94 131 164 212 264 327 384
#     4  10  22  37  64  97 127 166 214 269 326 387
#     4  11  22  38  65  96 126 168 213 270 323 387
#
# _framework density 21.322991999999999
#
# number of rings (size 3 to 8) (size 9 to 14) (size 15 to 20)
#    0.000    1.538    4.615    0.231    0.000    7.077 
#    0.000    1.538    0.000    1.846    0.000    0.000 
#    0.000    0.000    0.000    0.000    0.000    0.000 
#
# Total GULP energy -144872.107249 kJ/mol
# GULP energy per Si atom -5572.004125 kJ/mol
# Density = 2.127446 g / cm^3
# Si number density = 21.322992 Si / 1000 Ang^3
#
#
#
# Elastic Constant Matrix: (Units=GPa)
#
#
# Indices 1 2 3 4 5 6 
#
# 1 125.6253 51.4872 36.8166 0.0005 -12.3646 -0.0002
# 2 51.4872 95.5233 15.6798 0.0007 -11.2030 -0.0001
# 3 36.8166 15.6798 46.2994 0.0019 -9.2803 -0.0008
# 4 0.0005 0.0007 0.0019 1.0152 -0.0007 6.2760
# 5 -12.3646 -11.2030 -9.2803 -0.0007 37.5800 0.0006
# 6 -0.0002 -0.0001 -0.0008 6.2760 0.0006 4.7156
#
#
#
# Elastic Compliance Matrix: (Units=1/GPa)
#
#
# Indices 1 2 3 4 5 6 
#
# 1 0.012593 -0.005399 -0.008077 -0.000003 0.000539 0.000003
# 2 -0.005399 0.013627 0.000143 0.000000 0.002322 -0.000001
# 3 -0.008077 0.000143 0.028878 0.000010 0.004516 -0.000009
# 4 -0.000003 0.000000 0.000010 -0.136283 -0.000003 0.181381
# 5 0.000539 0.002322 0.004516 -0.000003 0.028595 0.000002
# 6 0.000003 -0.000001 -0.000009 0.181381 0.000002 -0.029339
#
#
# Mechanical properties :
#
#
# Convention : Reuss Voigt Hill
#
# Bulk Modulus (GPa) = 35.17028 52.82390 43.99709
# Shear Modulus (GPa) = -109.20462 19.55978 -44.82242
#
# Velocity S-wave (km/s) = -7.16419 3.03200 -4.58981
# Velocity P-wave (km/s) = 7.20447 6.08969 2.72213
#
# Compressibility (1/GPa) = 0.02843310
#
# Stress axis : x y z
#
# Youngs Moduli (GPa) = 79.40871 73.38238 34.62790
#
# Poissons Ratio (x) = 0.39616 0.27971
# Poissons Ratio (y) = 0.42869 -0.00496
# Poissons Ratio (z) = 0.64142 -0.01051
#
# Static dielectric constant tensor:
#      x y z
#    x 1.813620 0.000000 0.029410 
#    y 0.000000 1.822130 0.000000 
#    z 0.029410 0.000000 1.785180 
# 
# From -- ./inp_files/264992.got.cif
#   From: 2010.05.17/outbox.cif.g08.bks.cpg/sg12_133_cif.got.tgz:264992.got - 2010.06.03 13:09:07.
