data_PCOD9188010
_publ_section_title
;
Structure prediction by ZEFSAII (Michael W. Deem and Ramdas Pophale) SiO2 
 PCOD9188010
Probable space group: C 2/M
;
_chemical_formula_sum "Si O2"
_cell_formula_units_Z 64
_cell_length_a 22.274030
_cell_length_b 23.833895
_cell_length_c 9.647971
_cell_angle_alpha 90.000000
_cell_angle_beta 51.244813
_cell_angle_gamma 90.000000
_cell_volume 3994.188279
_symmetry_space_group_name_H-M "C 2/M"
_symmetry_group_IT_number 12
_symmetry_cell_setting 'monoclinic'
loop_
_space_group_symop_operation_xyz
x,y,z
-x,y,-z
-x,-y,-z
x,-y,z
1/2+x,1/2+y,z
1/2-x,1/2+y,-z
1/2-x,1/2-y,-z
1/2+x,1/2-y,z
loop_
_atom_site_type_symbol
_atom_site_label
_atom_site_fract_x
_atom_site_fract_y
_atom_site_fract_z
Si Si1 0.273779 0.691328 0.299944
Si Si2 0.453489 0.063854 0.209413
Si Si3 0.925828 0.765008 0.193546
Si Si4 0.337178 0.844330 0.296347
Si Si5 0.679529 0.841619 0.203441
Si Si6 0.080446 0.762340 0.463669
Si Si7 0.741416 0.310111 0.196820
Si Si8 0.437143 0.064226 0.711869
O O1 0.357387 0.693393 0.245987
O O2 0.215324 0.684485 0.510839
O O3 0.244959 0.648234 0.225000
O O4 0.263488 0.750609 0.235741
O O5 0.378505 0.101057 0.295750
O O6 0.514320 0.088710 0.230190
O O7 0.434765 0.000000 0.281321
O O8 0.500000 0.061281 0.000000
O O9 0.902443 0.702430 0.175658
O O10 0.932747 0.762674 0.350746
O O11 0.000000 0.781845 0.000000
O O12 0.283660 0.853444 0.239555
O O13 0.618231 0.796753 0.356505
O O14 0.632982 0.896667 0.228908
O O15 0.721034 0.816374 0.007829
O O16 0.148509 0.807415 0.331150
O O17 0.000000 0.771177 0.500000
O O18 0.500000 0.062452 0.500000
O O19 0.413430 0.000000 0.778249
#
# Coordination Sequence:
#
# PCOD9188010 Si02
#       8
#     8   8   8   8   8   8   8   8
#     4  10  19  36  48  66 100 131 170 210 243 292
#     4  10  21  34  50  75 102 130 170 216 248 283
#     4  11  22  32  49  72  99 134 170 203 247 297
#     4  11  18  34  52  65  99 139 170 200 250 298
#     4  11  21  32  53  71  97 139 173 198 250 297
#     4  11  22  32  47  73 103 130 167 208 242 300
#     4  10  20  34  47  71  98 132 167 212 247 292
#     4  10  21  36  50  73 107 134 168 211 245 282
#
# _framework density 16.02328
#
# number of rings (size 3 to 8) (size 9 to 14) (size 15 to 20)
#    0.000    1.500    3.750    4.500    7.000    0.000 
#    0.000    0.000    0.000    0.000    0.000    0.000 
#    0.000    6.000    0.000    0.000    0.000    0.000 
#
# Total GULP energy -178346.639189 kJ/mol
# GULP energy per Si atom -5573.332475 kJ/mol
# Density = 1.598681 g / cm^3
# Si number density = 16.023280 Si / 1000 Ang^3
#
#
#
# Elastic Constant Matrix: (Units=GPa)
#
#
# Indices 1 2 3 4 5 6 
#
# 1 151.4965 35.6754 47.0357 0.0000 -0.0094 0.0000
# 2 35.6754 44.4043 10.7547 0.0000 -11.5933 0.0000
# 3 47.0357 10.7547 98.3276 0.0000 2.2197 0.0000
# 4 0.0000 0.0000 0.0000 21.4851 0.0000 -5.4818
# 5 -0.0094 -11.5933 2.2197 0.0000 30.7747 0.0000
# 6 0.0000 0.0000 0.0000 -5.4818 0.0000 29.6846
#
#
#
# Elastic Compliance Matrix: (Units=1/GPa)
#
#
# Indices 1 2 3 4 5 6 
#
# 1 0.009479 -0.007383 -0.003670 0.000000 -0.002514 0.000000
# 2 -0.007383 0.031611 -0.000195 0.000000 0.011920 0.000000
# 3 -0.003670 -0.000195 0.011968 0.000000 -0.000938 0.000000
# 4 0.000000 0.000000 0.000000 0.048845 0.000000 0.009020
# 5 -0.002514 0.011920 -0.000938 0.000000 0.037052 0.000000
# 6 0.000000 0.000000 0.000000 0.009020 0.000000 0.035353
#
#
# Mechanical properties :
#
#
# Convention : Reuss Voigt Hill
#
# Bulk Modulus (GPa) = 32.71973 53.46222 43.09097
# Shear Modulus (GPa) = 24.15565 29.77306 26.96436
#
# Velocity S-wave (km/s) = 3.88691 4.31526 4.10667
# Velocity P-wave (km/s) = 6.37248 7.63324 7.03118
#
# Compressibility (1/GPa) = 0.03056260
#
# Stress axis : x y z
#
# Youngs Moduli (GPa) = 105.50076 31.63433 83.55534
#
# Poissons Ratio (x) = 0.23355 0.30664
# Poissons Ratio (y) = 0.77888 0.01630
# Poissons Ratio (z) = 0.38718 0.00617
#
# Static dielectric constant tensor:
#      x y z
#    x 1.592240 0.000000 0.010570 
#    y 0.000000 1.553550 0.000000 
#    z 0.010570 0.000000 1.538380 
# 
# From -- ./inp_files/78814.got.cif
#   From: 2010.05.17/outbox.cif.g08.bks.cpg/sg12_40_cif.got.tgz:78814.got - 2010.06.03 13:09:07.
