data_PCOD9188514
_publ_section_title
;
Structure prediction by ZEFSAII (Michael W. Deem and Ramdas Pophale) SiO2 
 PCOD9188514
Probable space group: C 2/M
;
_chemical_formula_sum "Si O2"
_cell_formula_units_Z 64
_cell_length_a 20.806966
_cell_length_b 7.597837
_cell_length_c 21.651993
_cell_angle_alpha 90.000000
_cell_angle_beta 123.075370
_cell_angle_gamma 90.000000
_cell_volume 2868.246500
_symmetry_space_group_name_H-M "C 2/M"
_symmetry_group_IT_number 12
_symmetry_cell_setting 'monoclinic'
loop_
_space_group_symop_operation_xyz
x,y,z
-x,y,-z
-x,-y,-z
x,-y,z
1/2+x,1/2+y,z
1/2-x,1/2+y,-z
1/2-x,1/2-y,-z
1/2+x,1/2-y,z
loop_
_atom_site_type_symbol
_atom_site_label
_atom_site_fract_x
_atom_site_fract_y
_atom_site_fract_z
Si Si1 0.671590 0.297112 0.594686
Si Si2 0.233286 0.788286 0.062943
Si Si3 0.622829 0.798242 0.437616
Si Si4 0.660466 0.216134 0.319158
Si Si5 0.452865 0.297876 0.381105
Si Si6 0.620158 0.213654 0.783093
Si Si7 0.063610 0.206039 0.988221
Si Si8 0.503965 0.787246 0.179417
O O1 0.672018 0.500000 0.615624
O O2 0.662865 0.292724 0.516473
O O3 0.754805 0.221723 0.654684
O O4 0.595929 0.220245 0.587566
O O5 0.301693 0.726445 0.143008
O O6 0.232269 0.000000 0.067637
O O7 0.250000 0.750000 0.000000
O O8 0.149181 0.717973 0.035707
O O9 0.641197 0.727651 0.379235
O O10 0.531753 0.792370 0.402630
O O11 0.648728 0.000000 0.452486
O O12 0.590685 0.270407 0.238681
O O13 0.661053 0.000000 0.319922
O O14 0.474911 0.500000 0.406729
O O15 0.396526 0.288548 0.292873
O O16 0.550117 0.262593 0.791613
O O17 0.620982 0.000000 0.778757
O O18 0.032199 0.218423 0.902379
O O19 0.071329 0.000000 0.008900
O O20 0.000000 0.285601 0.000000
O O21 0.502989 0.000000 0.175481
#
# Coordination Sequence:
#
# PCOD9188514 Si02
#       8
#     8   8   8   8   8   8   8   8
#     4  10  22  39  56  80 115 148 182 231 281 329
#     4  10  20  35  57  82 110 146 185 229 275 324
#     4  11  21  37  61  85 110 147 189 230 276 329
#     4   9  19  37  59  81 110 146 185 230 278 326
#     4  11  23  37  56  83 114 148 185 227 280 335
#     4  10  20  36  58  83 111 144 187 236 279 323
#     4  10  22  38  55  82 119 151 180 223 280 334
#     4  10  19  36  60  83 109 145 187 230 275 326
#
# _framework density 22.313283999999999
#
# number of rings (size 3 to 8) (size 9 to 14) (size 15 to 20)
#    0.000    1.875    2.500    1.500    0.000    4.750 
#    0.000    1.250    0.000    0.000    0.000    0.000 
#    0.000    0.000    0.000    0.000    0.000    0.000 
#
# Total GULP energy -178846.093869 kJ/mol
# GULP energy per Si atom -5588.940433 kJ/mol
# Density = 2.226250 g / cm^3
# Si number density = 22.313284 Si / 1000 Ang^3
#
#
#
# Elastic Constant Matrix: (Units=GPa)
#
#
# Indices 1 2 3 4 5 6 
#
# 1 71.9996 4.2066 -9.6039 0.0000 24.3961 0.0000
# 2 4.2066 49.5487 -8.2119 0.0000 1.8596 0.0000
# 3 -9.6039 -8.2119 70.4256 0.0000 24.4898 0.0000
# 4 0.0000 0.0000 0.0000 46.3868 0.0000 13.2176
# 5 24.3961 1.8596 24.4898 0.0000 38.8655 0.0000
# 6 0.0000 0.0000 0.0000 13.2176 0.0000 22.7858
#
#
#
# Elastic Compliance Matrix: (Units=1/GPa)
#
#
# Indices 1 2 3 4 5 6 
#
# 1 0.022070 0.000564 0.010119 0.000000 -0.020257 0.000000
# 2 0.000564 0.020909 0.003824 0.000000 -0.003764 0.000000
# 3 0.010119 0.003824 0.023432 0.000000 -0.021300 0.000000
# 4 0.000000 0.000000 0.000000 0.025827 0.000000 -0.014982
# 5 -0.020257 -0.003764 -0.021300 0.000000 0.052046 0.000000
# 6 0.000000 0.000000 0.000000 -0.014982 0.000000 0.052577
#
#
# Mechanical properties :
#
#
# Convention : Reuss Voigt Hill
#
# Bulk Modulus (GPa) = 10.47948 18.30615 14.39281
# Shear Modulus (GPa) = 25.04308 35.31315 30.17811
#
# Velocity S-wave (km/s) = 3.35377 3.98251 3.68159
# Velocity P-wave (km/s) = 4.43889 5.41933 4.95343
#
# Compressibility (1/GPa) = 0.09542460
#
# Stress axis : x y z
#
# Youngs Moduli (GPa) = 45.31137 47.82557 42.67663
#
# Poissons Ratio (x) = -0.02696 -0.43186
# Poissons Ratio (y) = -0.02554 -0.16319
# Poissons Ratio (z) = -0.45852 -0.18288
#
# Static dielectric constant tensor:
#      x y z
#    x 1.833040 0.000000 0.030960 
#    y 0.000000 1.873440 0.000000 
#    z 0.030960 0.000000 1.783430 
# 
# From -- ./inp_files/346146.got.cif
#   From: 2010.05.17/outbox.cif.g08.bks.cpg/sg12_174_cif.got.tgz:346146.got - 2010.06.03 13:09:07.
