data_PCOD9188991
_publ_section_title
;
Structure prediction by ZEFSAII (Michael W. Deem and Ramdas Pophale) SiO2 
 PCOD9188991
Probable space group: C 2/M
;
_chemical_formula_sum "Si O2"
_cell_formula_units_Z 48
_cell_length_a 12.498376
_cell_length_b 16.174835
_cell_length_c 12.535920
_cell_angle_alpha 90.000000
_cell_angle_beta 110.934627
_cell_angle_gamma 90.000000
_cell_volume 2366.961981
_symmetry_space_group_name_H-M "C 2/M"
_symmetry_group_IT_number 12
_symmetry_cell_setting 'monoclinic'
loop_
_space_group_symop_operation_xyz
x,y,z
-x,y,-z
-x,-y,-z
x,-y,z
1/2+x,1/2+y,z
1/2-x,1/2+y,-z
1/2-x,1/2-y,-z
1/2+x,1/2-y,z
loop_
_atom_site_type_symbol
_atom_site_label
_atom_site_fract_x
_atom_site_fract_y
_atom_site_fract_z
Si Si1 0.886519 0.334501 0.257840
Si Si2 0.377430 0.097468 0.608677
Si Si3 0.119723 0.402644 0.978760
Si Si4 0.717793 0.600178 0.358645
Si Si5 0.759396 0.594849 0.775585
Si Si6 0.023228 0.157521 0.634718
O O1 0.883811 0.352521 0.131590
O O2 0.767207 0.359596 0.269230
O O3 0.987393 0.390218 0.345946
O O4 0.927412 0.243254 0.302692
O O5 0.306111 0.129503 0.483076
O O6 0.329858 0.134443 0.702912
O O7 0.352588 0.000000 0.602177
O O8 0.137870 0.500000 0.957126
O O9 0.213645 0.371194 0.097693
O O10 0.000000 0.397069 0.000000
O O11 0.719461 0.500000 0.351568
O O12 0.592550 0.630000 0.348438
O O13 0.800806 0.500000 0.799074
O O14 0.627889 0.596057 0.695337
O O15 0.000000 0.163004 0.500000
#
# Coordination Sequence:
#
# PCOD9188991 Si02
#       6
#     8   8   8   8   8   8
#     4  12  25  38  62  96 135 164 209 268 328 376
#     4  10  19  36  64  92 121 158 209 266 313 368
#     4  10  20  39  67  93 122 166 218 268 312 372
#     4  11  24  41  64  95 131 172 215 263 322 382
#     4  10  21  39  66  94 119 161 223 266 301 371
#     4  12  26  41  64  92 135 175 209 255 324 394
#
# _framework density 20.279157999999999
#
# number of rings (size 3 to 8) (size 9 to 14) (size 15 to 20)
#    0.000    1.167    3.333    3.500    2.333    4.000 
#    0.000    0.833    0.000    3.000    0.000    0.000 
#    0.000    0.000    0.000    0.000    0.000    0.000 
#
# Total GULP energy -134073.060487 kJ/mol
# GULP energy per Si atom -5586.377520 kJ/mol
# Density = 2.023300 g / cm^3
# Si number density = 20.279158 Si / 1000 Ang^3
#
#
#
# Elastic Constant Matrix: (Units=GPa)
#
#
# Indices 1 2 3 4 5 6 
#
# 1 117.4523 12.6357 34.4479 0.0000 -17.9154 0.0000
# 2 12.6357 46.3667 45.8122 0.0000 -12.3797 0.0000
# 3 34.4479 45.8122 111.7330 0.0000 -8.7112 0.0000
# 4 0.0000 0.0000 0.0000 39.8509 0.0000 19.1368
# 5 -17.9154 -12.3797 -8.7112 0.0000 26.1924 0.0000
# 6 0.0000 0.0000 0.0000 19.1368 0.0000 23.7669
#
#
#
# Elastic Compliance Matrix: (Units=1/GPa)
#
#
# Indices 1 2 3 4 5 6 
#
# 1 0.010429 0.002867 -0.003828 0.000000 0.007215 0.000000
# 2 0.002867 0.041534 -0.016662 0.000000 0.016050 0.000000
# 3 -0.003828 -0.016662 0.016573 0.000000 -0.004982 0.000000
# 4 0.000000 0.000000 0.000000 0.040913 0.000000 -0.032942
# 5 0.007215 0.016050 -0.004982 0.000000 0.049043 0.000000
# 6 0.000000 0.000000 0.000000 -0.032942 0.000000 0.068600
#
#
# Mechanical properties :
#
#
# Convention : Reuss Voigt Hill
#
# Bulk Modulus (GPa) = 30.03952 51.26039 40.64996
# Shear Modulus (GPa) = 18.28580 30.13912 24.21246
#
# Velocity S-wave (km/s) = 3.00610 3.85932 3.45912
# Velocity P-wave (km/s) = 5.18594 6.72246 6.00356
#
# Compressibility (1/GPa) = 0.03328948
#
# Stress axis : x y z
#
# Youngs Moduli (GPa) = 95.88625 24.07662 60.33730
#
# Poissons Ratio (x) = -0.06902 0.23098
# Poissons Ratio (y) = -0.27488 1.00535
# Poissons Ratio (z) = 0.36707 0.40117
#
# Static dielectric constant tensor:
#      x y z
#    x 1.739490 0.000000 -0.015110 
#    y 0.000000 1.764640 0.000000 
#    z -0.015110 0.000000 1.742360 
# 
# From -- ./inp_files/131242.got.cif
#   From: 2010.05.17/outbox.cif.g08.bks.cpg/sg12_66_cif.got.tgz:131242.got - 2010.06.03 13:09:07.
