data_PCOD9188047
_publ_section_title
;
Structure prediction by ZEFSAII (Michael W. Deem and Ramdas Pophale) SiO2 
 PCOD9188047
Probable space group: C 2/M
;
_chemical_formula_sum "Si O2"
_cell_formula_units_Z 48
_cell_length_a 17.227484
_cell_length_b 12.712029
_cell_length_c 11.827426
_cell_angle_alpha 90.000000
_cell_angle_beta 67.452383
_cell_angle_gamma 90.000000
_cell_volume 2392.173293
_symmetry_space_group_name_H-M "C 2/M"
_symmetry_group_IT_number 12
_symmetry_cell_setting 'monoclinic'
loop_
_space_group_symop_operation_xyz
x,y,z
-x,y,-z
-x,-y,-z
x,-y,z
1/2+x,1/2+y,z
1/2-x,1/2+y,-z
1/2-x,1/2-y,-z
1/2+x,1/2-y,z
loop_
_atom_site_type_symbol
_atom_site_label
_atom_site_fract_x
_atom_site_fract_y
_atom_site_fract_z
Si Si1 0.032244 0.380593 0.300883
Si Si2 0.209696 0.613100 0.107426
Si Si3 0.085533 0.825233 0.404408
Si Si4 0.346487 0.830016 0.324395
Si Si5 0.803453 0.120038 0.442673
Si Si6 0.261407 0.657739 0.826550
O O1 0.028362 0.500000 0.348751
O O2 0.108478 0.379201 0.168435
O O3 0.058764 0.290810 0.375797
O O4 0.943484 0.352706 0.293423
O O5 0.232482 0.500000 0.147355
O O6 0.240992 0.715655 0.155235
O O7 0.241850 0.615790 0.961370
O O8 0.146359 0.834341 0.477258
O O9 0.144962 0.869833 0.271417
O O10 0.000000 0.875765 0.500000
O O11 0.292494 0.874486 0.460511
O O12 0.326627 0.705059 0.336065
O O13 0.306023 0.873419 0.231459
O O14 0.826207 0.000000 0.406146
#
# Coordination Sequence:
#
# PCOD9188047 Si02
#       6
#     8   8   8   8   8   8
#     4  10  20  35  57  84 111 139 179 228 272 318
#     4   9  19  37  58  80 102 139 184 220 269 321
#     4  10  19  36  54  81 110 143 186 215 264 320
#     4  10  20  36  53  82 112 139 180 222 274 322
#     4  10  21  36  53  76 112 151 181 215 264 325
#     4   9  20  35  56  78 109 141 172 226 267 317
#
# _framework density 20.065435999999998
#
# number of rings (size 3 to 8) (size 9 to 14) (size 15 to 20)
#    0.000    2.333    1.667    0.500    0.000    5.333 
#    0.000    5.833    0.000    0.000    0.000    4.667 
#    0.000    0.000    0.000    0.000    0.000    0.000 
#
# Total GULP energy -133717.981272 kJ/mol
# GULP energy per Si atom -5571.582553 kJ/mol
# Density = 2.001977 g / cm^3
# Si number density = 20.065436 Si / 1000 Ang^3
#
#
#
# Elastic Constant Matrix: (Units=GPa)
#
#
# Indices 1 2 3 4 5 6 
#
# 1 70.4807 36.7571 33.6596 0.0000 -15.8651 0.0000
# 2 36.7571 132.6648 10.5617 0.0000 0.0614 0.0000
# 3 33.6596 10.5617 99.5139 0.0000 -25.4050 0.0000
# 4 0.0000 0.0000 0.0000 3.9232 0.0000 -6.5342
# 5 -15.8651 0.0614 -25.4050 0.0000 24.0587 0.0000
# 6 0.0000 0.0000 0.0000 -6.5342 0.0000 3.5732
#
#
#
# Elastic Compliance Matrix: (Units=1/GPa)
#
#
# Indices 1 2 3 4 5 6 
#
# 1 0.021232 -0.005559 -0.004126 0.000000 0.009658 0.000000
# 2 -0.005559 0.009082 -0.000035 0.000000 -0.003726 0.000000
# 3 -0.004126 -0.000035 0.014722 0.000000 0.012826 0.000000
# 4 0.000000 0.000000 0.000000 -0.124600 0.000000 -0.227854
# 5 0.009658 -0.003726 0.012826 0.000000 0.061487 0.000000
# 6 0.000000 0.000000 0.000000 -0.227854 0.000000 -0.136807
#
#
# Mechanical properties :
#
#
# Convention : Reuss Voigt Hill
#
# Bulk Modulus (GPa) = 39.06577 51.62402 45.34489
# Shear Modulus (GPa) = -39.39690 21.08976 -9.15357
#
# Velocity S-wave (km/s) = -4.43586 3.24551 -2.13817
# Velocity P-wave (km/s) = 2.59313 6.31095 4.06840
#
# Compressibility (1/GPa) = 0.02559786
#
# Stress axis : x y z
#
# Youngs Moduli (GPa) = 47.09957 110.10307 67.92430
#
# Poissons Ratio (x) = 0.61202 0.28024
# Poissons Ratio (y) = 0.26181 0.00237
# Poissons Ratio (z) = 0.19432 0.00384
#
# Static dielectric constant tensor:
#      x y z
#    x 1.709570 0.000000 -0.035390 
#    y 0.000000 1.767010 0.000000 
#    z -0.035390 0.000000 1.720900 
# 
# From -- ./inp_files/154180.got.cif
#   From: 2010.05.17/outbox.cif.g08.bks.cpg/sg12_78_cif.got.tgz:154180.got - 2010.06.03 13:09:07.
