data_PCOD9188743
_publ_section_title
;
Structure prediction by ZEFSAII (Michael W. Deem and Ramdas Pophale) SiO2 
 PCOD9188743
Probable space group: C 2/M
;
_chemical_formula_sum "Si O2"
_cell_formula_units_Z 60
_cell_length_a 24.239111
_cell_length_b 15.035984
_cell_length_c 11.113189
_cell_angle_alpha 90.000000
_cell_angle_beta 128.192870
_cell_angle_gamma 90.000000
_cell_volume 3183.268217
_symmetry_space_group_name_H-M "C 2/M"
_symmetry_group_IT_number 12
_symmetry_cell_setting 'monoclinic'
loop_
_space_group_symop_operation_xyz
x,y,z
-x,y,-z
-x,-y,-z
x,-y,z
1/2+x,1/2+y,z
1/2-x,1/2+y,-z
1/2-x,1/2-y,-z
1/2+x,1/2-y,z
loop_
_atom_site_type_symbol
_atom_site_label
_atom_site_fract_x
_atom_site_fract_y
_atom_site_fract_z
Si Si1 0.930098 0.790477 0.323490
Si Si2 0.409775 0.164624 0.687942
Si Si3 0.175100 0.768168 0.616112
Si Si4 0.029149 0.402823 0.675799
Si Si5 0.418357 0.397468 0.067963
Si Si6 0.732255 0.399112 0.255849
Si Si7 0.757580 0.601116 0.560180
Si Si8 0.000000 0.232189 0.000000
O O1 0.864451 0.805877 0.322523
O O2 0.928157 0.690069 0.264277
O O3 0.929695 0.861370 0.216972
O O4 0.000000 0.795343 0.500000
O O5 0.382976 0.241742 0.561697
O O6 0.464952 0.108516 0.683253
O O7 0.339078 0.115565 0.635432
O O8 0.448006 0.206376 0.853445
O O9 0.212339 0.676006 0.702814
O O10 0.230400 0.831257 0.623716
O O11 0.063365 0.500000 0.743956
O O12 0.000000 0.405170 0.500000
O O13 0.440950 0.500000 0.086198
O O14 0.459818 0.331630 0.037234
O O15 0.337300 0.392698 0.916832
O O16 0.760616 0.500000 0.285179
O O17 0.717374 0.384004 0.378540
O O18 0.745855 0.500000 0.582578
#
# Coordination Sequence:
#
# PCOD9188743 Si02
#       8
#     8   8   8   8   8   8   8   4
#     4  11  22  40  58  88 121 154 195 244 294 358
#     4  11  20  37  61  90 121 153 192 246 293 352
#     4  11  20  37  62  83 118 154 196 241 298 344
#     4  10  19  36  61  87 118 153 192 238 290 350
#     4  11  23  39  58  84 117 155 200 244 291 349
#     4   9  20  37  59  86 111 146 199 249 289 339
#     4  10  21  37  59  88 117 152 198 241 290 349
#     4  12  21  36  63  84 122 156 191 240 301 352
#
# _framework density 18.848552000000002
#
# number of rings (size 3 to 8) (size 9 to 14) (size 15 to 20)
#    0.000    1.467    4.000    3.800    0.000    2.400 
#    0.000    4.667    0.000    0.000    0.000    0.000 
#    0.000    0.000    0.000    0.000    0.000    0.000 
#
# Total GULP energy -167430.098452 kJ/mol
# GULP energy per Si atom -5581.003282 kJ/mol
# Density = 1.880565 g / cm^3
# Si number density = 18.848552 Si / 1000 Ang^3
#
#
#
# Elastic Constant Matrix: (Units=GPa)
#
#
# Indices 1 2 3 4 5 6 
#
# 1 86.6571 21.4270 23.0718 0.0000 -20.3651 0.0000
# 2 21.4270 72.3982 40.0851 0.0000 -9.4497 0.0000
# 3 23.0718 40.0851 75.2631 0.0000 -3.7576 0.0000
# 4 0.0000 0.0000 0.0000 53.6965 0.0000 -28.7017
# 5 -20.3651 -9.4497 -3.7576 0.0000 14.2752 0.0000
# 6 0.0000 0.0000 0.0000 -28.7017 0.0000 31.4049
#
#
#
# Elastic Compliance Matrix: (Units=1/GPa)
#
#
# Indices 1 2 3 4 5 6 
#
# 1 0.018741 0.000406 -0.004674 0.000000 0.025774 0.000000
# 2 0.000406 0.021235 -0.010846 0.000000 0.011781 0.000000
# 3 -0.004674 -0.010846 0.020069 0.000000 -0.008565 0.000000
# 4 0.000000 0.000000 0.000000 0.036409 0.000000 0.033275
# 5 0.025774 0.011781 -0.008565 0.000000 0.112366 0.000000
# 6 0.000000 0.000000 0.000000 0.033275 0.000000 0.062253
#
#
# Mechanical properties :
#
#
# Convention : Reuss Voigt Hill
#
# Bulk Modulus (GPa) = 33.53958 44.83178 39.18568
# Shear Modulus (GPa) = 16.06470 29.85762 22.96116
#
# Velocity S-wave (km/s) = 2.92259 3.98437 3.49405
# Velocity P-wave (km/s) = 5.40570 6.70849 6.09202
#
# Compressibility (1/GPa) = 0.02981552
#
# Stress axis : x y z
#
# Youngs Moduli (GPa) = 53.35860 47.09132 49.82918
#
# Poissons Ratio (x) = -0.01910 0.23291
# Poissons Ratio (y) = -0.02164 0.54045
# Poissons Ratio (z) = 0.24941 0.51076
#
# Static dielectric constant tensor:
#      x y z
#    x 1.656950 0.000000 0.013110 
#    y 0.000000 1.662350 0.000000 
#    z 0.013110 0.000000 1.647090 
# 
# From -- ./inp_files/176472.got.cif
#   From: 2010.05.17/outbox.cif.g08.bks.cpg/sg12_89_cif.got.tgz:176472.got - 2010.06.03 13:09:07.
