data_PCOD9188910
_publ_section_title
;
Structure prediction by ZEFSAII (Michael W. Deem and Ramdas Pophale) SiO2 
 PCOD9188910
Probable space group: C 2/M
;
_chemical_formula_sum "Si O2"
_cell_formula_units_Z 28
_cell_length_a 19.819934
_cell_length_b 7.961165
_cell_length_c 14.520721
_cell_angle_alpha 90.000000
_cell_angle_beta 34.874974
_cell_angle_gamma 90.000000
_cell_volume 1310.091816
_symmetry_space_group_name_H-M "C 2/M"
_symmetry_group_IT_number 12
_symmetry_cell_setting 'monoclinic'
loop_
_space_group_symop_operation_xyz
x,y,z
-x,y,-z
-x,-y,-z
x,-y,z
1/2+x,1/2+y,z
1/2-x,1/2+y,-z
1/2-x,1/2-y,-z
1/2+x,1/2-y,z
loop_
_atom_site_type_symbol
_atom_site_label
_atom_site_fract_x
_atom_site_fract_y
_atom_site_fract_z
Si Si1 0.732484 0.692550 0.124658
Si Si2 0.348267 0.500000 0.250321
Si Si3 0.409275 0.000000 0.405802
Si Si4 0.495209 0.817544 0.145072
Si Si5 0.846158 0.500000 0.677953
O O1 0.689783 0.500000 0.176356
O O2 0.653432 0.829411 0.264585
O O3 0.750000 0.750000 0.000000
O O4 0.864688 0.695850 0.018700
O O5 0.232779 0.500000 0.446118
O O6 0.425967 0.663625 0.180734
O O7 0.285012 0.500000 0.222758
O O8 0.463293 0.157286 0.289742
O O9 0.426788 0.000000 0.495903
O O10 0.456531 0.000000 0.149783
#
# Coordination Sequence:
#
# PCOD9188910 Si02
#       5
#     8   4   4   8   4
#     4  11  22  40  60  80 115 156 199 238 285 337
#     4  10  19  36  63  84 124 145 190 228 294 346
#     4   8  20  39  56  90 117 149 186 236 284 347
#     4   9  20  36  59  88 113 157 185 227 292 348
#     4  10  23  37  60  90 116 149 189 247 283 331
#
# _framework density 21.372547999999998
#
# number of rings (size 3 to 8) (size 9 to 14) (size 15 to 20)
#    1.714    0.571    1.429    1.714    0.000    3.429 
#    2.571    5.714    0.000    1.714    0.000    0.000 
#    0.000    0.000    0.000    0.000    0.000    0.000 
#
# Total GULP energy -78078.554835 kJ/mol
# GULP energy per Si atom -5577.039631 kJ/mol
# Density = 2.132390 g / cm^3
# Si number density = 21.372548 Si / 1000 Ang^3
#
#
#
# Elastic Constant Matrix: (Units=GPa)
#
#
# Indices 1 2 3 4 5 6 
#
# 1 49.9630 48.3472 20.6372 0.0000 9.5165 0.0000
# 2 48.3472 200.6363 60.5711 0.0002 4.1386 -0.0001
# 3 20.6372 60.5711 94.9233 0.0001 12.6375 0.0000
# 4 0.0000 0.0002 0.0001 34.4574 0.0000 0.3259
# 5 9.5165 4.1386 12.6375 0.0000 48.1641 0.0000
# 6 0.0000 -0.0001 0.0000 0.3259 0.0000 25.9516
#
#
#
# Elastic Compliance Matrix: (Units=1/GPa)
#
#
# Indices 1 2 3 4 5 6 
#
# 1 0.027334 -0.006045 -0.001487 0.000000 -0.004491 0.000000
# 2 -0.006045 0.007523 -0.003688 0.000000 0.001516 0.000000
# 3 -0.001487 -0.003688 0.013605 0.000000 -0.002959 0.000000
# 4 0.000000 0.000000 0.000000 0.029025 0.000000 -0.000364
# 5 -0.004491 0.001516 -0.002959 0.000000 0.022296 0.000000
# 6 0.000000 0.000000 0.000000 -0.000364 0.000000 0.038538
#
#
# Mechanical properties :
#
#
# Convention : Reuss Voigt Hill
#
# Bulk Modulus (GPa) = 38.42945 67.18151 52.80548
# Shear Modulus (GPa) = 29.50974 36.11244 32.81109
#
# Velocity S-wave (km/s) = 3.71985 4.11501 3.92241
# Velocity P-wave (km/s) = 6.03900 7.35388 6.72864
#
# Compressibility (1/GPa) = 0.02602171
#
# Stress axis : x y z
#
# Youngs Moduli (GPa) = 36.58438 132.92727 73.49992
#
# Poissons Ratio (x) = 0.80354 0.10933
# Poissons Ratio (y) = 0.22115 0.27106
# Poissons Ratio (z) = 0.05442 0.49023
#
# Static dielectric constant tensor:
#      x y z
#    x 1.843260 0.000000 0.011830 
#    y 0.000000 1.721970 0.000000 
#    z 0.011830 0.000000 1.790250 
# 
# From -- ./inp_files/236459.got.cif
#   From: 2010.05.17/outbox.cif.g08.bks.cpg/sg12_119_cif.got.tgz:236459.got - 2010.06.03 13:09:07.
