data_PCOD9188916
_publ_section_title
;
Structure prediction by ZEFSAII (Michael W. Deem and Ramdas Pophale) SiO2 
 PCOD9188916
Probable space group: C 2/M
;
_chemical_formula_sum "Si O2"
_cell_formula_units_Z 48
_cell_length_a 20.931382
_cell_length_b 8.654374
_cell_length_c 21.676402
_cell_angle_alpha 90.000000
_cell_angle_beta 138.215004
_cell_angle_gamma 90.000000
_cell_volume 2616.464454
_symmetry_space_group_name_H-M "C 2/M"
_symmetry_group_IT_number 12
_symmetry_cell_setting 'monoclinic'
loop_
_space_group_symop_operation_xyz
x,y,z
-x,y,-z
-x,-y,-z
x,-y,z
1/2+x,1/2+y,z
1/2-x,1/2+y,-z
1/2-x,1/2-y,-z
1/2+x,1/2-y,z
loop_
_atom_site_type_symbol
_atom_site_label
_atom_site_fract_x
_atom_site_fract_y
_atom_site_fract_z
Si Si1 0.039713 0.313296 0.236155
Si Si2 0.795550 0.687924 0.742375
Si Si3 0.889566 0.686547 0.936611
Si Si4 0.901889 0.812868 0.462716
Si Si5 0.356059 0.814658 0.563437
Si Si6 0.153359 0.816398 0.959716
O O1 0.032416 0.500000 0.227744
O O2 0.121510 0.265162 0.245912
O O3 0.076035 0.270296 0.330340
O O4 0.938900 0.242647 0.144433
O O5 0.795451 0.500000 0.742478
O O6 0.824301 0.736695 0.831845
O O7 0.691976 0.737919 0.643312
O O8 0.884230 0.500000 0.938402
O O9 0.859250 0.759078 0.979210
O O10 0.000000 0.724474 0.000000
O O11 0.893291 0.748654 0.525387
O O12 0.000000 0.765955 0.500000
O O13 0.900077 0.000000 0.464538
O O14 0.250000 0.750000 0.500000
O O15 0.350954 0.000000 0.558095
O O16 0.156503 0.000000 0.960546
O O17 0.250000 0.750000 0.000000
#
# Coordination Sequence:
#
# PCOD9188916 Si02
#       6
#     8   8   8   8   8   8
#     4  10  20  39  63  87 119 160 204 248 300 356
#     4   9  17  34  60  87 117 158 199 239 292 355
#     4  10  19  36  63  88 115 157 202 241 294 359
#     4  10  21  38  59  87 124 161 201 247 297 356
#     4  11  22  37  62  91 123 159 202 251 300 356
#     4  12  26  42  61  89 125 158 198 250 305 360
#
# _framework density 18.345367
#
# number of rings (size 3 to 8) (size 9 to 14) (size 15 to 20)
#    0.000    1.667    3.333    2.000    0.000    3.333 
#    0.000    2.500    0.000    0.000    0.000    0.000 
#    0.000    0.000    0.000    0.000    0.000    0.000 
#
# Total GULP energy -134086.257878 kJ/mol
# GULP energy per Si atom -5586.927412 kJ/mol
# Density = 1.830361 g / cm^3
# Si number density = 18.345367 Si / 1000 Ang^3
#
#
#
# Elastic Constant Matrix: (Units=GPa)
#
#
# Indices 1 2 3 4 5 6 
#
# 1 192.5786 54.4415 131.1905 0.0000 0.5849 0.0000
# 2 54.4415 37.1750 55.2703 0.0000 -1.7877 0.0000
# 3 131.1905 55.2703 220.4581 0.0000 -7.8253 0.0000
# 4 0.0000 0.0000 0.0000 27.1571 0.0000 -4.7696
# 5 0.5849 -1.7877 -7.8253 0.0000 37.2555 0.0000
# 6 0.0000 0.0000 0.0000 -4.7696 0.0000 29.8924
#
#
#
# Elastic Compliance Matrix: (Units=1/GPa)
#
#
# Indices 1 2 3 4 5 6 
#
# 1 0.010650 -0.009832 -0.003925 0.000000 -0.001463 0.000000
# 2 -0.009832 0.051963 -0.007136 0.000000 0.001149 0.000000
# 3 -0.003925 -0.007136 0.008716 0.000000 0.001550 0.000000
# 4 0.000000 0.000000 0.000000 0.037884 0.000000 0.006045
# 5 -0.001463 0.001149 0.001550 0.000000 0.027245 0.000000
# 6 0.000000 0.000000 0.000000 0.006045 0.000000 0.034418
#
#
# Mechanical properties :
#
#
# Convention : Reuss Voigt Hill
#
# Bulk Modulus (GPa) = 33.84824 103.55736 68.70280
# Shear Modulus (GPa) = 22.47086 32.81495 27.64291
#
# Velocity S-wave (km/s) = 3.50362 4.23393 3.88597
# Velocity P-wave (km/s) = 5.90405 8.97067 7.59377
#
# Compressibility (1/GPa) = 0.02954363
#
# Stress axis : x y z
#
# Youngs Moduli (GPa) = 93.89349 19.24433 114.73762
#
# Poissons Ratio (x) = 0.18922 0.45032
# Poissons Ratio (y) = 0.92319 0.81874
# Poissons Ratio (z) = 0.36851 0.13732
#
# Static dielectric constant tensor:
#      x y z
#    x 1.592780 0.000000 -0.003310 
#    y 0.000000 1.625260 0.000000 
#    z -0.003310 0.000000 1.622070 
# 
# From -- ./inp_files/319567.got.cif
#   From: 2010.05.17/outbox.cif.g08.bks.cpg/sg12_160_cif.got.tgz:319567.got - 2010.06.03 13:09:07.
