data_PCOD9188153
_publ_section_title
;
Structure prediction by ZEFSAII (Michael W. Deem and Ramdas Pophale) SiO2 
 PCOD9188153
Probable space group: C 2/M
;
_chemical_formula_sum "Si O2"
_cell_formula_units_Z 36
_cell_length_a 20.366697
_cell_length_b 15.612687
_cell_length_c 16.890134
_cell_angle_alpha 90.000000
_cell_angle_beta 160.559010
_cell_angle_gamma 90.000000
_cell_volume 1787.563316
_symmetry_space_group_name_H-M "C 2/M"
_symmetry_group_IT_number 12
_symmetry_cell_setting 'monoclinic'
loop_
_space_group_symop_operation_xyz
x,y,z
-x,y,-z
-x,-y,-z
x,-y,z
1/2+x,1/2+y,z
1/2-x,1/2+y,-z
1/2-x,1/2-y,-z
1/2+x,1/2-y,z
loop_
_atom_site_type_symbol
_atom_site_label
_atom_site_fract_x
_atom_site_fract_y
_atom_site_fract_z
Si Si1 0.500000 0.643061 0.500000
Si Si2 0.498926 0.777689 0.367416
Si Si3 0.065537 0.593918 0.983219
Si Si4 0.343710 0.399710 0.751038
Si Si5 0.033681 0.766876 0.851290
O O1 0.567373 0.704100 0.504926
O O2 0.304369 0.593995 0.251914
O O3 0.631369 0.860851 0.532088
O O4 0.519294 0.746689 0.300322
O O5 0.266732 0.789021 0.119564
O O6 0.993914 0.500000 0.873651
O O7 0.001901 0.676690 0.860801
O O8 0.000000 0.603188 0.000000
O O9 0.333171 0.500000 0.721144
O O10 0.418820 0.342593 0.763546
O O11 0.500000 0.386865 0.000000
#
# Coordination Sequence:
#
# PCOD9188153 Si02
#       5
#     4   8   8   8   8
#     4  10  19  36  57  78 110 146 183 232 285 342
#     4  10  21  38  61  82 111 155 195 239 293 342
#     4  10  20  34  56  84 112 145 184 228 283 344
#     4  11  23  38  59  87 119 157 199 239 284 343
#     4  10  21  39  60  85 116 152 192 241 293 342
#
# _framework density 20.139147999999999
#
# number of rings (size 3 to 8) (size 9 to 14) (size 15 to 20)
#    0.000    1.778    0.000    5.667    0.000    1.778 
#    0.000   15.000    0.000    0.000    0.000    0.000 
#    0.000    0.000    0.000    0.000    0.000    0.000 
#
# Total GULP energy -100584.650518 kJ/mol
# GULP energy per Si atom -5588.036140 kJ/mol
# Density = 2.009331 g / cm^3
# Si number density = 20.139148 Si / 1000 Ang^3
#
#
#
# Elastic Constant Matrix: (Units=GPa)
#
#
# Indices 1 2 3 4 5 6 
#
# 1 89.9507 67.0664 10.4895 -0.0015 1.5716 -0.0004
# 2 67.0664 157.1207 49.6825 -0.0053 4.1269 -0.0035
# 3 10.4895 49.6825 74.0124 -0.0036 6.3123 -0.0034
# 4 -0.0015 -0.0053 -0.0036 27.1676 -0.0026 17.2684
# 5 1.5716 4.1269 6.3123 -0.0026 26.8247 -0.0020
# 6 -0.0004 -0.0035 -0.0034 17.2684 -0.0020 12.3339
#
#
#
# Elastic Compliance Matrix: (Units=1/GPa)
#
#
# Indices 1 2 3 4 5 6 
#
# 1 0.016854 -0.008174 0.003138 0.000003 -0.000468 -0.000005
# 2 -0.008174 0.012044 -0.006949 0.000002 0.000261 -0.000001
# 3 0.003138 -0.006949 0.018017 -0.000007 -0.003355 0.000012
# 4 0.000003 0.000002 -0.000007 0.334409 -0.000002 -0.468200
# 5 -0.000468 0.000261 -0.003355 -0.000002 0.038056 0.000008
# 6 -0.000005 -0.000001 0.000012 -0.468200 0.000008 0.736597
#
#
# Mechanical properties :
#
#
# Convention : Reuss Voigt Hill
#
# Bulk Modulus (GPa) = 43.58019 63.95118 53.76569
# Shear Modulus (GPa) = 4.21019 26.18825 15.19922
#
# Velocity S-wave (km/s) = 1.44744 3.60997 2.75018
# Velocity P-wave (km/s) = 4.94772 7.01423 6.06957
#
# Compressibility (1/GPa) = 0.02294620
#
# Stress axis : x y z
#
# Youngs Moduli (GPa) = 59.33332 83.02939 55.50337
#
# Poissons Ratio (x) = 0.67869 -0.17419
# Poissons Ratio (y) = 0.48500 0.38567
# Poissons Ratio (z) = -0.18621 0.57693
#
# Static dielectric constant tensor:
#      x y z
#    x 1.691900 0.000000 0.015820 
#    y 0.000000 1.677330 0.000000 
#    z 0.015820 0.000000 1.765130 
# 
# From -- ./inp_files/284341.got.cif
#   From: 2010.05.17/outbox.cif.g08.bks.cpg/sg12_143_cif.got.tgz:284341.got - 2010.06.03 13:09:07.
