data_PCOD9188506
_publ_section_title
;
Structure prediction by ZEFSAII (Michael W. Deem and Ramdas Pophale) SiO2 
 PCOD9188506
Probable space group: C 2/M
;
_chemical_formula_sum "Si O2"
_cell_formula_units_Z 48
_cell_length_a 19.409496
_cell_length_b 12.802128
_cell_length_c 12.299726
_cell_angle_alpha 90.000000
_cell_angle_beta 67.733077
_cell_angle_gamma 90.000000
_cell_volume 2828.360668
_symmetry_space_group_name_H-M "C 2/M"
_symmetry_group_IT_number 12
_symmetry_cell_setting 'monoclinic'
loop_
_space_group_symop_operation_xyz
x,y,z
-x,y,-z
-x,-y,-z
x,-y,z
1/2+x,1/2+y,z
1/2-x,1/2+y,-z
1/2-x,1/2-y,-z
1/2+x,1/2-y,z
loop_
_atom_site_type_symbol
_atom_site_label
_atom_site_fract_x
_atom_site_fract_y
_atom_site_fract_z
Si Si1 0.669101 0.375160 0.875452
Si Si2 0.831986 0.720779 0.493521
Si Si3 0.591265 0.622666 0.147518
Si Si4 0.403306 0.000000 0.439042
Si Si5 0.332479 0.205244 0.754082
Si Si6 0.583121 0.623260 0.704770
Si Si7 0.074558 0.500000 0.312236
O O1 0.682962 0.500000 0.865391
O O2 0.747929 0.318900 0.837744
O O3 0.629903 0.349311 0.784877
O O4 0.616314 0.352810 0.009394
O O5 0.750000 0.750000 0.500000
O O6 0.857924 0.605196 0.440580
O O7 0.833875 0.720779 0.623077
O O8 0.888664 0.804775 0.409465
O O9 0.606919 0.500000 0.156509
O O10 0.636012 0.695182 0.202832
O O11 0.503573 0.638727 0.217739
O O12 0.486564 0.000000 0.340019
O O13 0.415725 0.000000 0.562314
O O14 0.383728 0.104583 0.750975
O O15 0.595122 0.500000 0.674601
#
# Coordination Sequence:
#
# PCOD9188506 Si02
#       7
#     8   8   8   4   8   8   4
#     4  10  19  36  60  82 106 145 191 231 264 314
#     4  11  22  35  56  82 112 147 181 225 278 327
#     4  10  22  37  55  83 114 146 180 223 279 332
#     4   9  20  34  52  77 110 139 185 220 265 327
#     4  11  20  35  58  81 112 141 183 229 276 324
#     4  10  21  37  59  82 111 144 184 227 273 329
#     4   9  18  34  56  79  99 141 183 231 265 309
#
# _framework density 16.970960999999999
#
# number of rings (size 3 to 8) (size 9 to 14) (size 15 to 20)
#    0.000    1.833    2.500    2.000    1.167    4.667 
#    0.000    1.667    0.000    0.000    0.000    3.500 
#    0.000    0.000    0.000    0.000    0.000    0.000 
#
# Total GULP energy -133954.418034 kJ/mol
# GULP energy per Si atom -5581.434085 kJ/mol
# Density = 1.693233 g / cm^3
# Si number density = 16.970961 Si / 1000 Ang^3
#
#
#
# Elastic Constant Matrix: (Units=GPa)
#
#
# Indices 1 2 3 4 5 6 
#
# 1 75.9779 42.9684 10.7123 0.0000 -13.9907 0.0000
# 2 42.9684 71.0470 35.5386 0.0000 -12.8589 0.0000
# 3 10.7123 35.5386 59.7372 0.0000 -19.0037 0.0000
# 4 0.0000 0.0000 0.0000 29.2797 0.0000 -1.7632
# 5 -13.9907 -12.8589 -19.0037 0.0000 27.2300 0.0000
# 6 0.0000 0.0000 0.0000 -1.7632 0.0000 32.3177
#
#
#
# Elastic Compliance Matrix: (Units=1/GPa)
#
#
# Indices 1 2 3 4 5 6 
#
# 1 0.023255 -0.016730 0.009088 0.000000 0.010391 0.000000
# 2 -0.016730 0.032120 -0.018018 0.000000 -0.006002 0.000000
# 3 0.009088 -0.018018 0.031631 0.000000 0.018236 0.000000
# 4 0.000000 0.000000 0.000000 0.034266 0.000000 0.001869
# 5 0.010391 -0.006002 0.018236 0.000000 0.051955 0.000000
# 6 0.000000 0.000000 0.000000 0.001869 0.000000 0.031045
#
#
# Mechanical properties :
#
#
# Convention : Reuss Voigt Hill
#
# Bulk Modulus (GPa) = 28.02219 42.80008 35.41113
# Shear Modulus (GPa) = 18.69263 25.60166 22.14714
#
# Velocity S-wave (km/s) = 3.32241 3.88823 3.61640
# Velocity P-wave (km/s) = 5.59156 6.74033 6.19264
#
# Compressibility (1/GPa) = 0.03568601
#
# Stress axis : x y z
#
# Youngs Moduli (GPa) = 43.00146 31.13368 31.61500
#
# Poissons Ratio (x) = 0.52086 -0.28732
# Poissons Ratio (y) = 0.71940 0.56964
# Poissons Ratio (z) = -0.39080 0.56096
#
# Static dielectric constant tensor:
#      x y z
#    x 1.557880 0.000000 -0.014950 
#    y 0.000000 1.559240 0.000000 
#    z -0.014950 0.000000 1.559770 
# 
# From -- ./inp_files/154229.got.cif
#   From: 2010.05.17/outbox.cif.g08.bks.cpg/sg12_78_cif.got.tgz:154229.got - 2010.06.03 13:09:07.
