data_PCOD9188845
_publ_section_title
;
Structure prediction by ZEFSAII (Michael W. Deem and Ramdas Pophale) SiO2 
 PCOD9188845
Probable space group: C 2/M
;
_chemical_formula_sum "Si O2"
_cell_formula_units_Z 64
_cell_length_a 29.974766
_cell_length_b 8.393294
_cell_length_c 13.053651
_cell_angle_alpha 90.000000
_cell_angle_beta 101.411379
_cell_angle_gamma 90.000000
_cell_volume 3219.208209
_symmetry_space_group_name_H-M "C 2/M"
_symmetry_group_IT_number 12
_symmetry_cell_setting 'monoclinic'
loop_
_space_group_symop_operation_xyz
x,y,z
-x,y,-z
-x,-y,-z
x,-y,z
1/2+x,1/2+y,z
1/2-x,1/2+y,-z
1/2-x,1/2-y,-z
1/2+x,1/2-y,z
loop_
_atom_site_type_symbol
_atom_site_label
_atom_site_fract_x
_atom_site_fract_y
_atom_site_fract_z
Si Si1 0.051196 0.195030 0.043319
Si Si2 0.695065 0.189296 0.821842
Si Si3 0.352839 0.809723 0.411173
Si Si4 0.547856 0.307164 0.476427
Si Si5 0.081612 0.806810 0.278150
Si Si6 0.317731 0.690372 0.604346
Si Si7 0.790064 0.686171 0.799435
Si Si8 0.855302 0.189494 0.001152
O O1 0.065545 0.251919 0.162129
O O2 0.092068 0.241463 0.986321
O O3 0.050910 0.000000 0.042967
O O4 0.000000 0.248199 0.000000
O O5 0.665650 0.238021 0.708756
O O6 0.743042 0.277958 0.835736
O O7 0.703589 0.000000 0.819103
O O8 0.669656 0.227652 0.915742
O O9 0.404470 0.748811 0.452595
O O10 0.319930 0.749874 0.488449
O O11 0.353519 0.000000 0.416856
O O12 0.500000 0.250462 0.500000
O O13 0.548447 0.500000 0.482480
O O14 0.550361 0.259059 0.358631
O O15 0.132618 0.760020 0.329977
O O16 0.081709 0.000000 0.274191
O O17 0.313731 0.500000 0.600615
O O18 0.285545 0.755932 0.679393
O O19 0.800233 0.500000 0.804397
O O20 0.829201 0.774723 0.882535
O O21 0.854007 0.000000 0.016994
#
# Coordination Sequence:
#
# PCOD9188845 Si02
#       8
#     8   8   8   8   8   8   8   8
#     4   9  17  30  53  86 117 149 191 239 291 344
#     4  11  25  43  60  83 121 162 199 246 305 363
#     4  10  22  39  58  84 119 156 196 246 305 362
#     4   9  18  32  55  84 114 153 200 245 291 354
#     4   8  14  28  49  76 111 146 183 232 285 333
#     4  10  19  36  62  87 116 153 193 243 295 350
#     4  12  24  39  63  91 118 154 203 247 297 362
#     4  11  22  39  62  88 120 157 202 251 299 352
#
# _framework density 19.880662999999998
#
# number of rings (size 3 to 8) (size 9 to 14) (size 15 to 20)
#    0.000    2.000    1.250    3.750    0.000    3.750 
#    0.000    2.500    0.000    1.500    0.000    0.000 
#    0.000    0.000    0.000    0.000    0.000    0.000 
#
# Total GULP energy -178605.783757 kJ/mol
# GULP energy per Si atom -5581.430742 kJ/mol
# Density = 1.983541 g / cm^3
# Si number density = 19.880663 Si / 1000 Ang^3
#
#
#
# Elastic Constant Matrix: (Units=GPa)
#
#
# Indices 1 2 3 4 5 6 
#
# 1 84.8819 -1.5884 19.7759 0.0000 -15.9962 0.0000
# 2 -1.5884 28.3711 1.1030 0.0000 -1.0922 0.0000
# 3 19.7759 1.1030 77.7683 0.0000 -10.6995 0.0000
# 4 0.0000 0.0000 0.0000 24.9363 0.0000 -4.2669
# 5 -15.9962 -1.0922 -10.6995 0.0000 33.0988 0.0000
# 6 0.0000 0.0000 0.0000 -4.2669 0.0000 18.1132
#
#
#
# Elastic Compliance Matrix: (Units=1/GPa)
#
#
# Indices 1 2 3 4 5 6 
#
# 1 0.013495 0.001078 -0.002663 0.000000 0.005697 0.000000
# 2 0.001078 0.035388 -0.000569 0.000000 0.001505 0.000000
# 3 -0.002663 -0.000569 0.013986 0.000000 0.003215 0.000000
# 4 0.000000 0.000000 0.000000 0.041787 0.000000 0.009844
# 5 0.005697 0.001505 0.003215 0.000000 0.034055 0.000000
# 6 0.000000 0.000000 0.000000 0.009844 0.000000 0.057527
#
#
# Mechanical properties :
#
#
# Convention : Reuss Voigt Hill
#
# Bulk Modulus (GPa) = 17.07608 25.51135 21.29372
# Shear Modulus (GPa) = 22.72045 26.67840 24.69942
#
# Velocity S-wave (km/s) = 3.38426 3.66721 3.52857
# Velocity P-wave (km/s) = 4.88661 5.54899 5.22830
#
# Compressibility (1/GPa) = 0.05856144
#
# Stress axis : x y z
#
# Youngs Moduli (GPa) = 74.09984 28.25850 71.49801
#
# Poissons Ratio (x) = -0.03047 0.19042
# Poissons Ratio (y) = -0.07991 0.04069
# Poissons Ratio (z) = 0.19735 0.01608
#
# Static dielectric constant tensor:
#      x y z
#    x 1.706420 0.000000 -0.011240 
#    y 0.000000 1.685300 0.000000 
#    z -0.011240 0.000000 1.703530 
# 
# From -- ./inp_files/187606.got.cif
#   From: 2010.05.17/outbox.cif.g08.bks.cpg/sg12_94_cif.got.tgz:187606.got - 2010.06.03 13:09:07.
