data_PCOD9188918
_publ_section_title
;
Structure prediction by ZEFSAII (Michael W. Deem and Ramdas Pophale) SiO2 
 PCOD9188918
Probable space group: C 2/M
;
_chemical_formula_sum "Si O2"
_cell_formula_units_Z 56
_cell_length_a 18.479013
_cell_length_b 18.667514
_cell_length_c 17.760614
_cell_angle_alpha 90.000000
_cell_angle_beta 22.241551
_cell_angle_gamma 90.000000
_cell_volume 2319.012206
_symmetry_space_group_name_H-M "C 2/M"
_symmetry_group_IT_number 12
_symmetry_cell_setting 'monoclinic'
loop_
_space_group_symop_operation_xyz
x,y,z
-x,y,-z
-x,-y,-z
x,-y,z
1/2+x,1/2+y,z
1/2-x,1/2+y,-z
1/2-x,1/2-y,-z
1/2+x,1/2-y,z
loop_
_atom_site_type_symbol
_atom_site_label
_atom_site_fract_x
_atom_site_fract_y
_atom_site_fract_z
Si Si1 0.725953 0.713825 0.293648
Si Si2 0.922286 0.421709 0.160514
Si Si3 0.501840 0.311435 0.764371
Si Si4 0.740382 0.417119 0.899878
Si Si5 0.828341 0.687083 0.024985
Si Si6 0.192268 0.419701 0.492496
Si Si7 0.727622 0.125450 0.297894
O O1 0.500000 0.711678 0.500000
O O2 0.781271 0.645775 0.290777
O O3 0.774514 0.793015 0.275180
O O4 0.823949 0.708401 0.116953
O O5 0.847639 0.500000 0.253633
O O6 0.092602 0.394036 0.050085
O O7 0.000000 0.427733 0.000000
O O8 0.466872 0.236982 0.841846
O O9 0.703344 0.352801 0.567541
O O10 0.372020 0.366353 0.936642
O O11 0.387271 0.303948 0.796802
O O12 0.698112 0.500000 0.952696
O O13 0.690859 0.396833 0.861239
O O14 0.966137 0.406823 0.699880
O O15 0.223522 0.500000 0.494203
O O16 0.267882 0.419755 0.333186
O O17 0.500000 0.121091 0.500000
#
# Coordination Sequence:
#
# PCOD9188918 Si02
#       7
#     8   8   8   8   8   8   8
#     4  10  19  36  63  89 113 145 193 250 297 341
#     4   9  19  36  58  81 108 143 186 245 302 345
#     4  11  22  39  58  83 121 162 199 237 285 351
#     4  10  20  36  57  85 122 160 197 238 288 343
#     4  10  22  40  58  84 113 153 200 237 293 355
#     4  10  21  36  57  89 123 159 199 237 284 344
#     4   9  17  32  57  84 119 153 192 240 288 332
#
# _framework density 24.148212999999998
#
# number of rings (size 3 to 8) (size 9 to 14) (size 15 to 20)
#    0.000    2.143    1.429    1.714    0.000    3.714 
#    2.571    2.857    0.000    0.000    0.000    0.000 
#    0.000    0.000    0.000    0.000    0.000    0.000 
#
# Total GULP energy -156576.424569 kJ/mol
# GULP energy per Si atom -5592.015163 kJ/mol
# Density = 2.409325 g / cm^3
# Si number density = 24.148213 Si / 1000 Ang^3
#
#
#
# Elastic Constant Matrix: (Units=GPa)
#
#
# Indices 1 2 3 4 5 6 
#
# 1 95.2425 29.3891 9.6006 0.0020 -15.7504 -0.0068
# 2 29.3891 156.2221 22.3886 -0.0363 -10.9041 0.0038
# 3 9.6006 22.3886 67.6071 -0.0383 -5.7908 -0.0034
# 4 0.0020 -0.0363 -0.0383 32.2281 0.0044 -11.9692
# 5 -15.7504 -10.9041 -5.7908 0.0044 28.6695 0.0081
# 6 -0.0068 0.0038 -0.0034 -11.9692 0.0081 13.4654
#
#
#
# Elastic Compliance Matrix: (Units=1/GPa)
#
#
# Indices 1 2 3 4 5 6 
#
# 1 0.012075 -0.001775 -0.000628 -0.000005 0.005832 -0.000001
# 2 -0.001775 0.007113 -0.001990 0.000006 0.001329 0.000001
# 3 -0.000628 -0.001990 0.015717 0.000026 0.002073 0.000026
# 4 -0.000005 0.000006 0.000026 0.046320 -0.000014 0.041174
# 5 0.005832 0.001329 0.002073 -0.000014 0.039008 -0.000033
# 6 -0.000001 0.000001 0.000026 0.041174 -0.000033 0.110863
#
#
# Mechanical properties :
#
#
# Convention : Reuss Voigt Hill
#
# Bulk Modulus (GPa) = 38.28327 49.09203 43.68765
# Shear Modulus (GPa) = 20.11370 32.05216 26.08293
#
# Velocity S-wave (km/s) = 2.88918 3.64718 3.29008
# Velocity P-wave (km/s) = 5.19785 6.17329 5.70645
#
# Compressibility (1/GPa) = 0.02612107
#
# Stress axis : x y z
#
# Youngs Moduli (GPa) = 82.81720 140.59052 63.62570
#
# Poissons Ratio (x) = 0.24949 0.03993
# Poissons Ratio (y) = 0.14696 0.12659
# Poissons Ratio (z) = 0.05197 0.27973
#
# Static dielectric constant tensor:
#      x y z
#    x 1.937050 -0.000010 -0.034160 
#    y -0.000010 1.887320 0.000030 
#    z -0.034160 0.000030 1.995200 
# 
# From -- ./inp_files/322644.got.cif
#   From: 2010.05.17/outbox.cif.g08.bks.cpg/sg12_162_cif.got.tgz:322644.got - 2010.06.03 13:09:07.
