data_PCOD9188154
_publ_section_title
;
Structure prediction by ZEFSAII (Michael W. Deem and Ramdas Pophale) SiO2 
 PCOD9188154
Probable space group: C 2/M
;
_chemical_formula_sum "Si O2"
_cell_formula_units_Z 56
_cell_length_a 25.190548
_cell_length_b 13.019604
_cell_length_c 13.948137
_cell_angle_alpha 90.000000
_cell_angle_beta 150.337369
_cell_angle_gamma 90.000000
_cell_volume 2263.925106
_symmetry_space_group_name_H-M "C 2/M"
_symmetry_group_IT_number 12
_symmetry_cell_setting 'monoclinic'
loop_
_space_group_symop_operation_xyz
x,y,z
-x,y,-z
-x,-y,-z
x,-y,z
1/2+x,1/2+y,z
1/2-x,1/2+y,-z
1/2-x,1/2-y,-z
1/2+x,1/2-y,z
loop_
_atom_site_type_symbol
_atom_site_label
_atom_site_fract_x
_atom_site_fract_y
_atom_site_fract_z
Si Si1 0.653963 0.294213 0.564173
Si Si2 0.233532 0.385066 0.570913
Si Si3 0.002580 0.337447 0.116278
Si Si4 0.724182 0.608941 0.032595
Si Si5 0.058823 0.110820 0.236532
Si Si6 0.678992 0.831763 0.016899
Si Si7 0.430194 0.891302 0.483750
O O1 0.738145 0.218146 0.642092
O O2 0.603886 0.375878 0.414636
O O3 0.562305 0.210476 0.443840
O O4 0.711338 0.335513 0.748222
O O5 0.233367 0.500000 0.615600
O O6 0.119898 0.371106 0.338168
O O7 0.333953 0.384397 0.658867
O O8 0.994964 0.212818 0.109150
O O9 0.911074 0.371225 0.049370
O O10 0.000000 0.368672 0.000000
O O11 0.664248 0.500000 0.937515
O O12 0.661115 0.712951 0.955583
O O13 0.791861 0.616624 0.039310
O O14 0.810493 0.605734 0.253849
O O15 0.005395 0.000000 0.137631
O O16 0.500000 0.880877 0.500000
O O17 0.458753 0.000000 0.574962
#
# Coordination Sequence:
#
# PCOD9188154 Si02
#       7
#     8   8   8   8   8   8   8
#     4  10  19  36  57  78 110 146 186 225 281 330
#     4  10  21  37  58  84 114 146 185 231 283 339
#     4  11  22  37  59  87 118 147 186 235 287 342
#     4   9  20  37  55  81 115 151 189 232 282 331
#     4  10  22  38  55  79 113 153 192 227 270 334
#     4  10  21  36  58  85 114 150 189 232 283 339
#     4   9  18  31  54  84 110 137 179 232 284 333
#
# _framework density 24.735800999999999
#
# number of rings (size 3 to 8) (size 9 to 14) (size 15 to 20)
#    0.000    2.143    0.000    3.857    4.000    2.857 
#    0.000    0.000    0.000    0.429    0.000    0.000 
#    0.000    0.000    0.000    0.000    0.000    0.000 
#
# Total GULP energy -156409.035418 kJ/mol
# GULP energy per Si atom -5586.036979 kJ/mol
# Density = 2.467950 g / cm^3
# Si number density = 24.735801 Si / 1000 Ang^3
#
#
#
# Elastic Constant Matrix: (Units=GPa)
#
#
# Indices 1 2 3 4 5 6 
#
# 1 140.2344 10.7089 17.8950 0.0000 -0.4644 0.0000
# 2 10.7089 100.7582 2.1756 0.0000 0.4713 0.0000
# 3 17.8950 2.1756 73.7996 0.0000 -15.5148 0.0000
# 4 0.0000 0.0000 0.0000 8.9924 0.0000 0.5436
# 5 -0.4644 0.4713 -15.5148 0.0000 40.2877 0.0000
# 6 0.0000 0.0000 0.0000 0.5436 0.0000 11.4856
#
#
#
# Elastic Compliance Matrix: (Units=1/GPa)
#
#
# Indices 1 2 3 4 5 6 
#
# 1 0.007430 -0.000745 -0.001915 0.000000 -0.000643 0.000000
# 2 -0.000745 0.010008 -0.000153 0.000000 -0.000185 0.000000
# 3 -0.001915 -0.000153 0.015249 0.000000 0.005852 0.000000
# 4 0.000000 0.000000 0.000000 0.111524 0.000000 -0.005278
# 5 -0.000643 -0.000185 0.005852 0.000000 0.027070 0.000000
# 6 0.000000 0.000000 0.000000 -0.005278 0.000000 0.087315
#
#
# Mechanical properties :
#
#
# Convention : Reuss Voigt Hill
#
# Bulk Modulus (GPa) = 36.95369 41.81680 39.38525
# Shear Modulus (GPa) = 18.29872 31.08734 24.69303
#
# Velocity S-wave (km/s) = 2.72282 3.54895 3.16297
# Velocity P-wave (km/s) = 4.98566 5.80822 5.41259
#
# Compressibility (1/GPa) = 0.02706089
#
# Stress axis : x y z
#
# Youngs Moduli (GPa) = 134.58848 99.91873 65.57653
#
# Poissons Ratio (x) = 0.07447 0.12557
# Poissons Ratio (y) = 0.10031 0.01004
# Poissons Ratio (z) = 0.25772 0.01530
#
# Static dielectric constant tensor:
#      x y z
#    x 1.980210 0.000000 0.004340 
#    y 0.000000 2.015260 0.000000 
#    z 0.004340 0.000000 1.918130 
# 
# From -- ./inp_files/246615.got.cif
#   From: 2010.05.17/outbox.cif.g08.bks.cpg/sg12_124_cif.got.tgz:246615.got - 2010.06.03 13:09:07.
