data_PCOD9188862
_publ_section_title
;
Structure prediction by ZEFSAII (Michael W. Deem and Ramdas Pophale) SiO2 
 PCOD9188862
Probable space group: C 2/M
;
_chemical_formula_sum "Si O2"
_cell_formula_units_Z 54
_cell_length_a 11.017708
_cell_length_b 14.608181
_cell_length_c 16.449957
_cell_angle_alpha 90.000000
_cell_angle_beta 75.737927
_cell_angle_gamma 90.000000
_cell_volume 2565.997158
_symmetry_space_group_name_H-M "C 2/M"
_symmetry_group_IT_number 12
_symmetry_cell_setting 'monoclinic'
loop_
_space_group_symop_operation_xyz
x,y,z
-x,y,-z
-x,-y,-z
x,-y,z
1/2+x,1/2+y,z
1/2-x,1/2+y,-z
1/2-x,1/2-y,-z
1/2+x,1/2-y,z
loop_
_atom_site_type_symbol
_atom_site_label
_atom_site_fract_x
_atom_site_fract_y
_atom_site_fract_z
Si Si1 0.500000 0.000000 0.500000
Si Si2 0.380433 0.901850 0.843733
Si Si3 0.500000 0.328970 0.500000
Si Si4 0.673849 0.103729 0.799360
Si Si5 0.143225 0.318249 0.984301
Si Si6 0.839730 0.328879 0.578442
Si Si7 0.631166 0.257959 0.265356
Si Si8 0.936769 0.105971 0.337342
O O1 0.605817 0.081004 0.471226
O O2 0.528314 0.896909 0.799996
O O3 0.368164 0.893232 0.942432
O O4 0.326310 0.812145 0.810791
O O5 0.330828 0.000000 0.823178
O O6 0.620528 0.260941 0.478835
O O7 0.501767 0.386028 0.582586
O O8 0.753819 0.174775 0.734170
O O9 0.721883 0.000000 0.784080
O O10 0.679197 0.137406 0.892197
O O11 0.250000 0.250000 0.000000
O O12 0.000000 0.279003 0.000000
O O13 0.908161 0.305078 0.652742
O O14 0.699538 0.350669 0.628582
O O15 0.518807 0.328335 0.265548
O O16 0.931788 0.000000 0.312989
#
# Coordination Sequence:
#
# PCOD9188862 Si02
#       8
#     2   8   4   8   8   8   8   8
#     4  10  20  40  58  82 106 148 190 232 280 354
#     4  10  21  36  58  85 117 157 206 245 285 345
#     4   9  21  37  59  80 108 142 184 238 284 340
#     4  10  20  37  59  84 120 160 201 238 295 353
#     4  10  19  36  62  89 118 163 207 254 293 349
#     4  10  21  37  59  81 112 147 189 232 291 351
#     4  11  22  36  57  85 120 149 189 244 298 344
#     4  11  21  37  58  83 113 146 187 233 292 354
#
# _framework density 21.044450999999999
#
# number of rings (size 3 to 8) (size 9 to 14) (size 15 to 20)
#    0.000    1.778    2.222    2.444    1.037    1.778 
#    0.000    0.000    0.000    3.556    0.000    0.000 
#    0.000    0.000    0.000    0.000    0.000    0.000 
#
# Total GULP energy -150303.090960 kJ/mol
# GULP energy per Si atom -5566.781147 kJ/mol
# Density = 2.099655 g / cm^3
# Si number density = 21.044451 Si / 1000 Ang^3
#
#
#
# Elastic Constant Matrix: (Units=GPa)
#
#
# Indices 1 2 3 4 5 6 
#
# 1 53.1273 31.8601 -16.4146 0.0000 -13.0566 0.0000
# 2 31.8601 132.9059 5.8118 0.0000 -2.4223 0.0000
# 3 -16.4146 5.8118 32.4099 0.0000 0.6503 0.0000
# 4 0.0000 0.0000 0.0000 13.7609 0.0000 -1.1706
# 5 -13.0566 -2.4223 0.6503 0.0000 27.4908 0.0000
# 6 0.0000 0.0000 0.0000 -1.1706 0.0000 15.6666
#
#
#
# Elastic Compliance Matrix: (Units=1/GPa)
#
#
# Indices 1 2 3 4 5 6 
#
# 1 0.032973 -0.008424 0.017919 0.000000 0.014494 0.000000
# 2 -0.008424 0.009749 -0.005954 0.000000 -0.003001 0.000000
# 3 0.017919 -0.005954 0.040857 0.000000 0.007020 0.000000
# 4 0.000000 0.000000 0.000000 0.073134 0.000000 0.005464
# 5 0.014494 -0.003001 0.007020 0.000000 0.042829 0.000000
# 6 0.000000 0.000000 0.000000 0.005464 0.000000 0.064239
#
#
# Mechanical properties :
#
#
# Convention : Reuss Voigt Hill
#
# Bulk Modulus (GPa) = 11.02996 28.99530 20.01263
# Shear Modulus (GPa) = 17.42650 24.52937 20.97794
#
# Velocity S-wave (km/s) = 2.88076 3.41779 3.16070
# Velocity P-wave (km/s) = 4.03952 5.42062 4.78021
#
# Compressibility (1/GPa) = 0.09066220
#
# Stress axis : x y z
#
# Youngs Moduli (GPa) = 30.32791 102.57340 24.47545
#
# Poissons Ratio (x) = 0.86404 -0.43859
# Poissons Ratio (y) = 0.25547 0.14573
# Poissons Ratio (z) = -0.54346 0.61075
#
# Static dielectric constant tensor:
#      x y z
#    x 1.794470 0.000000 0.006340 
#    y 0.000000 1.758180 0.000000 
#    z 0.006340 0.000000 1.800530 
# 
# From -- ./inp_files/262863.got.cif
#   From: 2010.05.17/outbox.cif.g08.bks.cpg/sg12_132_cif.got.tgz:262863.got - 2010.06.03 13:09:07.
