data_PCOD9188126
_publ_section_title
;
Structure prediction by ZEFSAII (Michael W. Deem and Ramdas Pophale) SiO2 
 PCOD9188126
Probable space group: C 2/M
;
_chemical_formula_sum "Si O2"
_cell_formula_units_Z 58
_cell_length_a 8.942223
_cell_length_b 21.298169
_cell_length_c 16.495586
_cell_angle_alpha 90.000000
_cell_angle_beta 104.886554
_cell_angle_gamma 90.000000
_cell_volume 3036.188914
_symmetry_space_group_name_H-M "C 2/M"
_symmetry_group_IT_number 12
_symmetry_cell_setting 'monoclinic'
loop_
_space_group_symop_operation_xyz
x,y,z
-x,y,-z
-x,-y,-z
x,-y,z
1/2+x,1/2+y,z
1/2-x,1/2+y,-z
1/2-x,1/2-y,-z
1/2+x,1/2-y,z
loop_
_atom_site_type_symbol
_atom_site_label
_atom_site_fract_x
_atom_site_fract_y
_atom_site_fract_z
Si Si1 0.909338 0.771168 0.678539
Si Si2 0.233758 0.390238 0.071790
Si Si3 0.065793 0.673005 0.190211
Si Si4 0.252120 0.301833 0.930253
Si Si5 0.000000 0.500000 0.000000
Si Si6 0.114649 0.425116 0.736017
Si Si7 0.402916 0.175876 0.405340
Si Si8 0.940046 0.863506 0.825825
O O1 0.850950 0.717887 0.734088
O O2 0.773072 0.802004 0.607253
O O3 0.969611 0.826210 0.746262
O O4 0.023118 0.731816 0.638079
O O5 0.163080 0.338571 0.123293
O O6 0.408725 0.400882 0.125746
O O7 0.239860 0.365268 0.981043
O O8 0.114846 0.446269 0.053904
O O9 0.900673 0.704119 0.145345
O O10 0.014063 0.607112 0.223916
O O11 0.395590 0.312837 0.890015
O O12 0.250000 0.250000 0.000000
O O13 0.100521 0.500000 0.729028
O O14 0.097236 0.387169 0.649139
O O15 0.285309 0.405138 0.792601
O O16 0.500000 0.167950 0.500000
#
# Coordination Sequence:
#
# PCOD9188126 Si02
#       8
#     8   8   8   8   2   8   8   8
#     4  10  19  36  56  88 110 139 179 220 280 341
#     4  12  23  38  52  79 108 153 198 239 294 325
#     4  10  20  35  56  75 109 148 183 238 277 334
#     4  11  21  37  56  82 112 143 188 245 302 338
#     4  12  28  40  50  76 116 156 208 250 290 340
#     4   9  21  38  56  81 108 146 192 225 274 337
#     4  10  20  35  59  87 117 142 168 217 280 342
#     4  10  22  36  58  82 108 148 192 241 285 337
#
# _framework density 19.102896999999999
#
# number of rings (size 3 to 8) (size 9 to 14) (size 15 to 20)
#    0.000    1.655    1.379    4.138    1.931    1.379 
#    0.000    0.690    0.000    0.000    0.000    0.000 
#    0.000   13.241    0.000    0.000    0.000    0.000 
#
# Total GULP energy -161624.422815 kJ/mol
# GULP energy per Si atom -5573.255959 kJ/mol
# Density = 1.905942 g / cm^3
# Si number density = 19.102897 Si / 1000 Ang^3
#
#
#
# Elastic Constant Matrix: (Units=GPa)
#
#
# Indices 1 2 3 4 5 6 
#
# 1 56.2650 11.6901 36.1563 0.0000 12.9854 0.0000
# 2 11.6901 88.1436 38.2126 0.0000 14.3803 0.0000
# 3 36.1563 38.2126 98.4441 0.0000 23.3393 0.0000
# 4 0.0000 0.0000 0.0000 8.1798 0.0000 -0.3759
# 5 12.9854 14.3803 23.3393 0.0000 29.9300 0.0000
# 6 0.0000 0.0000 0.0000 -0.3759 0.0000 -14.8956
#
#
#
# Elastic Compliance Matrix: (Units=1/GPa)
#
#
# Indices 1 2 3 4 5 6 
#
# 1 0.023789 0.001090 -0.008084 0.000000 -0.004541 0.000000
# 2 0.001090 0.013910 -0.005034 0.000000 -0.003231 0.000000
# 3 -0.008084 -0.005034 0.016778 0.000000 -0.007158 0.000000
# 4 0.000000 0.000000 0.000000 0.122110 0.000000 -0.003082
# 5 -0.004541 -0.003231 -0.007158 0.000000 0.042515 0.000000
# 6 0.000000 0.000000 0.000000 -0.003082 0.000000 -0.067056
#
#
# Mechanical properties :
#
#
# Convention : Reuss Voigt Hill
#
# Bulk Modulus (GPa) = 32.87026 46.10784 39.48905
# Shear Modulus (GPa) = 26.84673 15.09574 20.97124
#
# Velocity S-wave (km/s) = 3.75290 2.81416 3.31691
# Velocity P-wave (km/s) = 6.00194 5.89477 5.94860
#
# Compressibility (1/GPa) = 0.03042264
#
# Stress axis : x y z
#
# Youngs Moduli (GPa) = 42.03560 71.89105 59.60202
#
# Poissons Ratio (x) = -0.07839 0.48182
# Poissons Ratio (y) = -0.04584 0.30003
# Poissons Ratio (z) = 0.33981 0.36189
#
# Static dielectric constant tensor:
#      x y z
#    x 1.689330 0.000000 -0.004500 
#    y 0.000000 1.668380 0.000000 
#    z -0.004500 0.000000 1.657930 
# 
# From -- ./inp_files/258171.got.cif
#   From: 2010.05.17/outbox.cif.g08.bks.cpg/sg12_130_cif.got.tgz:258171.got - 2010.06.03 13:09:07.
