data_PCOD9188540
_publ_section_title
;
Structure prediction by ZEFSAII (Michael W. Deem and Ramdas Pophale) SiO2 
 PCOD9188540
Probable space group: C 2/M
;
_chemical_formula_sum "Si O2"
_cell_formula_units_Z 64
_cell_length_a 20.375110
_cell_length_b 8.015613
_cell_length_c 31.992694
_cell_angle_alpha 90.000000
_cell_angle_beta 142.164784
_cell_angle_gamma 90.000000
_cell_volume 3204.985314
_symmetry_space_group_name_H-M "C 2/M"
_symmetry_group_IT_number 12
_symmetry_cell_setting 'monoclinic'
loop_
_space_group_symop_operation_xyz
x,y,z
-x,y,-z
-x,-y,-z
x,-y,z
1/2+x,1/2+y,z
1/2-x,1/2+y,-z
1/2-x,1/2-y,-z
1/2+x,1/2-y,z
loop_
_atom_site_type_symbol
_atom_site_label
_atom_site_fract_x
_atom_site_fract_y
_atom_site_fract_z
Si Si1 0.242021 0.700283 0.448044
Si Si2 0.471659 0.700869 0.531941
Si Si3 0.011774 0.804961 0.303007
Si Si4 0.019645 0.702094 0.962474
Si Si5 0.625016 0.802415 0.685638
Si Si6 0.980742 0.795361 0.193262
Si Si7 0.248997 0.700498 0.047334
Si Si8 0.629315 0.298660 0.190296
O O1 0.233455 0.500000 0.439612
O O2 0.250000 0.750000 0.500000
O O3 0.352191 0.758913 0.482728
O O4 0.134929 0.780976 0.376923
O O5 0.500000 0.763974 0.500000
O O6 0.467934 0.500000 0.528308
O O7 0.554590 0.741868 0.610757
O O8 0.002304 0.736872 0.251200
O O9 0.937254 0.732884 0.302301
O O10 0.984664 0.000000 0.287811
O O11 0.019451 0.500000 0.962295
O O12 0.934699 0.753890 0.884262
O O13 0.138112 0.763482 0.010300
O O14 0.000000 0.757958 0.000000
O O15 0.747543 0.736431 0.747768
O O16 0.632326 0.000000 0.684814
O O17 0.062201 0.740734 0.197502
O O18 0.860293 0.740620 0.122456
O O19 0.984740 0.000000 0.194970
O O20 0.248356 0.500000 0.051041
O O21 0.250000 0.750000 0.000000
O O22 0.632255 0.500000 0.193692
#
# Coordination Sequence:
#
# PCOD9188540 Si02
#       8
#     8   8   8   8   8   8   8   8
#     4  11  22  39  63  89 120 154 195 246 292 347
#     4  10  23  42  63  88 118 157 198 239 294 350
#     4  11  23  39  63  88 116 158 199 240 296 351
#     4  10  22  37  58  88 117 151 196 240 287 346
#     4  11  24  40  60  87 120 156 196 243 294 350
#     4   9  20  38  60  84 114 153 196 239 289 349
#     4  10  19  36  60  84 112 149 193 242 290 340
#     4  10  22  41  60  83 117 155 194 240 293 349
#
# _framework density 19.968889999999998
#
# number of rings (size 3 to 8) (size 9 to 14) (size 15 to 20)
#    0.000    1.750    2.500    1.125    3.500    2.000 
#    0.000    2.500    0.000    0.000    0.000    0.000 
#    0.000    0.000    0.000    0.000    0.000    0.000 
#
# Total GULP energy -178628.249576 kJ/mol
# GULP energy per Si atom -5582.132799 kJ/mol
# Density = 1.992344 g / cm^3
# Si number density = 19.968890 Si / 1000 Ang^3
#
#
#
# Elastic Constant Matrix: (Units=GPa)
#
#
# Indices 1 2 3 4 5 6 
#
# 1 210.8916 1.9217 110.6248 0.0000 3.3729 -0.0002
# 2 1.9217 11.5840 -10.2171 0.0001 2.7698 -0.0005
# 3 110.6248 -10.2171 178.6270 0.0000 0.5309 -0.0001
# 4 0.0000 0.0001 0.0000 20.1065 0.0000 2.0534
# 5 3.3729 2.7698 0.5309 0.0000 43.9139 0.0001
# 6 -0.0002 -0.0005 -0.0001 2.0534 0.0001 10.8713
#
#
#
# Elastic Compliance Matrix: (Units=1/GPa)
#
#
# Indices 1 2 3 4 5 6 
#
# 1 0.007344 -0.005467 -0.004860 0.000000 -0.000160 0.000000
# 2 -0.005467 0.096482 0.008921 -0.000001 -0.005773 0.000005
# 3 -0.004860 0.008921 0.009119 0.000000 -0.000300 0.000000
# 4 0.000000 -0.000001 0.000000 0.050713 0.000000 -0.009579
# 5 -0.000160 -0.005773 -0.000300 0.000000 0.023152 0.000000
# 6 0.000000 0.000005 0.000000 -0.009579 0.000000 0.093795
#
#
# Mechanical properties :
#
#
# Convention : Reuss Voigt Hill
#
# Bulk Modulus (GPa) = 9.07983 67.30682 38.19332
# Shear Modulus (GPa) = 15.61877 34.89655 25.25766
#
# Velocity S-wave (km/s) = 2.79974 4.18490 3.56033
# Velocity P-wave (km/s) = 3.87405 7.55845 6.00577
#
# Compressibility (1/GPa) = 0.11013428
#
# Stress axis : x y z
#
# Youngs Moduli (GPa) = 136.17374 10.36460 109.65733
#
# Poissons Ratio (x) = 0.05666 0.53295
# Poissons Ratio (y) = 0.74440 -0.97828
# Poissons Ratio (z) = 0.66182 -0.09246
#
# Static dielectric constant tensor:
#      x y z
#    x 1.702300 0.000000 -0.008070 
#    y 0.000000 1.717280 0.000000 
#    z -0.008070 0.000000 1.663730 
# 
# From -- ./inp_files/378513.got.cif
#   From: 2010.05.17/outbox.cif.g08.bks.cpg/sg12_190_cif.got.tgz:378513.got - 2010.06.03 13:09:07.
