data_PCOD9188706
_publ_section_title
;
Structure prediction by ZEFSAII (Michael W. Deem and Ramdas Pophale) SiO2 
 PCOD9188706
Probable space group: C 2/M
;
_chemical_formula_sum "Si O2"
_cell_formula_units_Z 40
_cell_length_a 12.401251
_cell_length_b 13.537811
_cell_length_c 18.182881
_cell_angle_alpha 90.000000
_cell_angle_beta 35.450136
_cell_angle_gamma 90.000000
_cell_volume 1770.517832
_symmetry_space_group_name_H-M "C 2/M"
_symmetry_group_IT_number 12
_symmetry_cell_setting 'monoclinic'
loop_
_space_group_symop_operation_xyz
x,y,z
-x,y,-z
-x,-y,-z
x,-y,z
1/2+x,1/2+y,z
1/2-x,1/2+y,-z
1/2-x,1/2-y,-z
1/2+x,1/2-y,z
loop_
_atom_site_type_symbol
_atom_site_label
_atom_site_fract_x
_atom_site_fract_y
_atom_site_fract_z
Si Si1 0.573995 0.695280 0.229664
Si Si2 0.774077 0.111731 0.705908
Si Si3 0.302355 0.825109 0.633785
Si Si4 0.705859 0.612905 0.849823
Si Si5 0.604178 0.884067 0.016868
O O1 0.642970 0.625316 0.258112
O O2 0.358705 0.676132 0.337263
O O3 0.643673 0.805811 0.208222
O O4 0.696997 0.665729 0.090271
O O5 0.838965 0.209345 0.629644
O O6 0.550829 0.127161 0.835475
O O7 0.810618 0.000000 0.659626
O O8 0.500000 0.869802 0.500000
O O9 0.216010 0.873032 0.755679
O O10 0.755905 0.500000 0.840928
O O11 0.500000 0.629932 0.000000
O O12 0.635831 0.000000 0.991018
O O13 0.500000 0.848522 0.000000
#
# Coordination Sequence:
#
# PCOD9188706 Si02
#       5
#     8   8   8   8   8
#     4  10  19  36  61  85 117 161 198 235 293 355
#     4   9  19  36  59  88 118 148 191 246 297 349
#     4  11  25  41  58  86 122 159 201 244 288 347
#     4  10  23  42  62  89 123 154 192 246 301 352
#     4   8  14  28  54  86 112 138 182 236 286 340
#
# _framework density 22.59226
#
# number of rings (size 3 to 8) (size 9 to 14) (size 15 to 20)
#    0.000    2.400    0.000    4.800    0.000    9.600 
#    0.000    6.000    0.000    0.000    0.000    0.000 
#    0.000    0.000    0.000    0.000    0.000    0.000 
#
# Total GULP energy -111554.110668 kJ/mol
# GULP energy per Si atom -5577.705533 kJ/mol
# Density = 2.254084 g / cm^3
# Si number density = 22.592260 Si / 1000 Ang^3
#
#
#
# Elastic Constant Matrix: (Units=GPa)
#
#
# Indices 1 2 3 4 5 6 
#
# 1 68.6136 -4.4280 68.1160 0.0001 -13.2025 -0.0001
# 2 -4.4280 106.0877 51.2309 -0.0003 10.0783 0.0001
# 3 68.1160 51.2309 419.2668 -0.0002 109.1652 0.0001
# 4 0.0001 -0.0003 -0.0002 -5.8942 0.0009 1.6068
# 5 -13.2025 10.0783 109.1652 0.0009 84.2172 -0.0004
# 6 -0.0001 0.0001 0.0001 1.6068 -0.0004 2.4254
#
#
#
# Elastic Compliance Matrix: (Units=1/GPa)
#
#
# Indices 1 2 3 4 5 6 
#
# 1 0.026134 0.003819 -0.008544 0.000003 0.014715 0.000001
# 2 0.003819 0.010594 -0.002628 0.000000 0.002737 0.000000
# 3 -0.008544 -0.002628 0.006583 -0.000002 -0.009558 -0.000001
# 4 0.000003 0.000000 -0.000002 -0.143706 0.000005 0.095203
# 5 0.014715 0.002737 -0.009558 0.000005 0.026242 0.000001
# 6 0.000001 0.000000 -0.000001 0.095203 0.000001 0.349233
#
#
# Mechanical properties :
#
#
# Convention : Reuss Voigt Hill
#
# Bulk Modulus (GPa) = 34.95744 91.53402 63.24573
# Shear Modulus (GPa) = 16.70446 48.08629 32.39537
#
# Velocity S-wave (km/s) = 2.72212 4.61851 3.79081
# Velocity P-wave (km/s) = 5.03852 8.30930 6.87136
#
# Compressibility (1/GPa) = 0.02860622
#
# Stress axis : x y z
#
# Youngs Moduli (GPa) = 38.26437 94.38925 151.91061
#
# Poissons Ratio (x) = -0.36045 1.29789
# Poissons Ratio (y) = -0.14612 0.39915
# Poissons Ratio (z) = 0.32692 0.24801
#
# Static dielectric constant tensor:
#      x y z
#    x 1.907700 0.000000 0.027090 
#    y 0.000000 1.826480 0.000000 
#    z 0.027090 0.000000 1.935380 
# 
# From -- ./inp_files/310484.got.cif
#   From: 2010.05.17/outbox.cif.g08.bks.cpg/sg12_156_cif.got.tgz:310484.got - 2010.06.03 13:09:07.
