data_PCOD9188671
_publ_section_title
;
Structure prediction by ZEFSAII (Michael W. Deem and Ramdas Pophale) SiO2 
 PCOD9188671
Probable space group: C 2/M
;
_chemical_formula_sum "Si O2"
_cell_formula_units_Z 48
_cell_length_a 22.677934
_cell_length_b 17.934812
_cell_length_c 22.349140
_cell_angle_alpha 90.000000
_cell_angle_beta 161.064728
_cell_angle_gamma 90.000000
_cell_volume 2949.684301
_symmetry_space_group_name_H-M "C 2/M"
_symmetry_group_IT_number 12
_symmetry_cell_setting 'monoclinic'
loop_
_space_group_symop_operation_xyz
x,y,z
-x,y,-z
-x,-y,-z
x,-y,z
1/2+x,1/2+y,z
1/2-x,1/2+y,-z
1/2-x,1/2-y,-z
1/2+x,1/2-y,z
loop_
_atom_site_type_symbol
_atom_site_label
_atom_site_fract_x
_atom_site_fract_y
_atom_site_fract_z
Si Si1 0.693180 0.587074 0.969433
Si Si2 0.397211 0.295439 0.723639
Si Si3 0.161600 0.849897 0.808267
Si Si4 0.998942 0.299939 0.291453
Si Si5 0.471980 0.808050 0.904201
Si Si6 0.622318 0.587578 0.558017
O O1 0.686745 0.500000 0.976594
O O2 0.523966 0.633411 0.833791
O O3 0.688499 0.601433 0.893547
O O4 0.874256 0.627784 0.166918
O O5 0.459106 0.232245 0.734712
O O6 0.423786 0.260600 0.814352
O O7 0.188830 0.312171 0.507228
O O8 0.109953 0.766632 0.780543
O O9 0.996198 0.881877 0.610800
O O10 0.343593 0.844939 0.943972
O O11 0.306739 0.866253 0.741254
O O12 0.500000 0.786267 0.000000
O O13 0.500000 0.597081 0.500000
O O14 0.659710 0.500000 0.586261
#
# Coordination Sequence:
#
# PCOD9188671 Si02
#       6
#     8   8   8   8   8   8
#     4  11  22  35  57  86 115 145 181 237 293 331
#     4  10  20  37  57  84 108 145 193 234 274 334
#     4  11  20  38  56  81 111 150 192 227 269 334
#     4  10  19  36  61  77 111 146 187 237 278 327
#     4  12  22  36  60  82 109 153 197 227 268 328
#     4  11  24  37  50  79 120 155 188 227 268 321
#
# _framework density 16.272928
#
# number of rings (size 3 to 8) (size 9 to 14) (size 15 to 20)
#    0.000    1.167    6.667    1.500    0.000    2.333 
#    0.000    0.000    0.000    0.500    0.000    1.167 
#    0.000    0.000    0.000    0.000    0.000    0.000 
#
# Total GULP energy -134061.968548 kJ/mol
# GULP energy per Si atom -5585.915356 kJ/mol
# Density = 1.623589 g / cm^3
# Si number density = 16.272928 Si / 1000 Ang^3
#
#
#
# Elastic Constant Matrix: (Units=GPa)
#
#
# Indices 1 2 3 4 5 6 
#
# 1 103.8654 50.0433 57.8503 0.0080 -10.8310 0.0032
# 2 50.0433 120.3218 68.7100 0.0202 -5.8233 0.0096
# 3 57.8503 68.7100 140.4677 0.0217 0.2645 0.0113
# 4 0.0080 0.0202 0.0217 22.5745 0.0026 -1.9671
# 5 -10.8310 -5.8233 0.2645 0.0026 27.1527 0.0023
# 6 0.0032 0.0096 0.0113 -1.9671 0.0023 9.2816
#
#
#
# Elastic Compliance Matrix: (Units=1/GPa)
#
#
# Indices 1 2 3 4 5 6 
#
# 1 0.014035 -0.003179 -0.004234 0.000002 0.004958 0.000003
# 2 -0.003179 0.012429 -0.004773 -0.000006 0.001444 -0.000008
# 3 -0.004234 -0.004773 0.011203 -0.000005 -0.002822 -0.000008
# 4 0.000002 -0.000006 -0.000005 0.045131 -0.000006 0.009565
# 5 0.004958 0.001444 -0.002822 -0.000006 0.039144 -0.000011
# 6 0.000003 -0.000008 -0.000008 0.009565 -0.000011 0.109767
#
#
# Mechanical properties :
#
#
# Convention : Reuss Voigt Hill
#
# Bulk Modulus (GPa) = 75.22419 79.76246 77.49332
# Shear Modulus (GPa) = 19.19284 24.33850 21.76567
#
# Velocity S-wave (km/s) = 3.43801 3.87155 3.66120
# Velocity P-wave (km/s) = 7.87952 8.31306 8.09919
#
# Compressibility (1/GPa) = 0.01329360
#
# Stress axis : x y z
#
# Youngs Moduli (GPa) = 71.24976 80.45800 89.26221
#
# Poissons Ratio (x) = 0.25581 0.37797
# Poissons Ratio (y) = 0.22653 0.42604
# Poissons Ratio (z) = 0.30170 0.38402
#
# Static dielectric constant tensor:
#      x y z
#    x 1.542220 0.000000 0.001840 
#    y 0.000000 1.511400 0.000000 
#    z 0.001840 0.000000 1.551210 
# 
# From -- ./inp_files/322533.got.cif
#   From: 2010.05.17/outbox.cif.g08.bks.cpg/sg12_162_cif.got.tgz:322533.got - 2010.06.03 13:09:07.
