data_PCOD9188976
_publ_section_title
;
Structure prediction by ZEFSAII (Michael W. Deem and Ramdas Pophale) SiO2 
 PCOD9188976
Probable space group: C 2/M
;
_chemical_formula_sum "Si O2"
_cell_formula_units_Z 56
_cell_length_a 18.173559
_cell_length_b 14.655198
_cell_length_c 19.707068
_cell_angle_alpha 90.000000
_cell_angle_beta 32.107056
_cell_angle_gamma 90.000000
_cell_volume 2789.711729
_symmetry_space_group_name_H-M "C 2/M"
_symmetry_group_IT_number 12
_symmetry_cell_setting 'monoclinic'
loop_
_space_group_symop_operation_xyz
x,y,z
-x,y,-z
-x,-y,-z
x,-y,z
1/2+x,1/2+y,z
1/2-x,1/2+y,-z
1/2-x,1/2-y,-z
1/2+x,1/2-y,z
loop_
_atom_site_type_symbol
_atom_site_label
_atom_site_fract_x
_atom_site_fract_y
_atom_site_fract_z
Si Si1 0.761173 0.610062 0.510023
Si Si2 0.027561 0.392211 0.766133
Si Si3 0.778661 0.164608 0.025639
Si Si4 0.781576 0.242413 0.801603
Si Si5 0.554283 0.605609 0.227569
Si Si6 0.391789 0.894022 0.146471
Si Si7 0.491617 0.895635 0.587027
O O1 0.752156 0.500000 0.510634
O O2 0.847730 0.645879 0.377486
O O3 0.603623 0.638991 0.642894
O O4 0.859962 0.627736 0.496512
O O5 0.047032 0.500000 0.751758
O O6 0.038898 0.365372 0.836207
O O7 0.876089 0.377730 0.852142
O O8 0.818506 0.200627 0.068909
O O9 0.750000 0.250000 0.000000
O O10 0.889136 0.110361 0.894090
O O11 0.856504 0.169566 0.792724
O O12 0.716553 0.182052 0.792791
O O13 0.885283 0.318460 0.692775
O O14 0.566178 0.500000 0.240091
O O15 0.339763 0.000000 0.193759
O O16 0.500000 0.896200 0.000000
O O17 0.500000 0.896900 0.500000
O O18 0.455821 0.000000 0.637934
#
# Coordination Sequence:
#
# PCOD9188976 Si02
#       7
#     8   8   8   8   8   8   8
#     4   9  19  38  62  88 115 155 207 253 307 372
#     4  10  19  36  64  88 115 161 207 249 302 367
#     4  10  20  35  55  87 121 157 202 249 295 361
#     4  11  22  38  59  93 124 160 208 256 307 373
#     4  10  21  37  61  92 127 157 196 259 322 371
#     4  10  21  38  61  92 131 169 201 247 314 381
#     4  10  22  42  62  83 118 165 214 258 308 369
#
# _framework density 20.073758000000002
#
# number of rings (size 3 to 8) (size 9 to 14) (size 15 to 20)
#    0.000    2.000    1.429    2.571    0.000    3.429 
#    7.714    0.000    0.000    4.714    0.000    0.000 
#    0.000    0.000    0.000    0.000    0.000    0.000 
#
# Total GULP energy -156072.742526 kJ/mol
# GULP energy per Si atom -5574.026519 kJ/mol
# Density = 2.002807 g / cm^3
# Si number density = 20.073758 Si / 1000 Ang^3
#
#
#
# Elastic Constant Matrix: (Units=GPa)
#
#
# Indices 1 2 3 4 5 6 
#
# 1 88.9698 23.3351 23.1887 -0.0001 15.1156 0.0003
# 2 23.3351 89.6984 21.5296 -0.0005 -2.0434 0.0006
# 3 23.1887 21.5296 101.6181 -0.0004 4.4704 0.0011
# 4 -0.0001 -0.0005 -0.0004 87.9792 0.0001 1.3438
# 5 15.1156 -2.0434 4.4704 0.0001 21.4855 -0.0003
# 6 0.0003 0.0006 0.0011 1.3438 -0.0003 -0.4447
#
#
#
# Elastic Compliance Matrix: (Units=1/GPa)
#
#
# Indices 1 2 3 4 5 6 
#
# 1 0.014403 -0.003469 -0.002111 0.000000 -0.010023 0.000007
# 2 -0.003469 0.012639 -0.002066 0.000000 0.004072 0.000007
# 3 -0.002111 -0.002066 0.010802 0.000000 -0.000959 0.000021
# 4 0.000000 0.000000 0.000000 0.010865 0.000001 0.032834
# 5 -0.010023 0.004072 -0.000959 0.000001 0.054181 -0.000038
# 6 0.000007 0.000007 0.000021 0.032834 -0.000038 -2.149626
#
#
# Mechanical properties :
#
#
# Convention : Reuss Voigt Hill
#
# Bulk Modulus (GPa) = 44.33708 46.26592 45.30150
# Shear Modulus (GPa) = -2.47044 35.95288 16.74122
#
# Velocity S-wave (km/s) = -1.11057 4.23666 2.89101
# Velocity P-wave (km/s) = 4.52665 6.85787 5.81038
#
# Compressibility (1/GPa) = 0.02255448
#
# Stress axis : x y z
#
# Youngs Moduli (GPa) = 69.43222 79.11798 92.57340
#
# Poissons Ratio (x) = 0.27442 0.19540
# Poissons Ratio (y) = 0.24083 0.19121
# Poissons Ratio (z) = 0.14656 0.16342
#
# Static dielectric constant tensor:
#      x y z
#    x 1.694010 0.000000 0.042240 
#    y 0.000000 1.752830 0.000000 
#    z 0.042240 0.000000 1.687090 
# 
# From -- ./inp_files/316681.got.cif
#   From: 2010.05.17/outbox.cif.g08.bks.cpg/sg12_159_cif.got.tgz:316681.got - 2010.06.03 13:09:07.
