data_PCOD9188493
_publ_section_title
;
Structure prediction by ZEFSAII (Michael W. Deem and Ramdas Pophale) SiO2 
 PCOD9188493
Probable space group: C 2/M
;
_chemical_formula_sum "Si O2"
_cell_formula_units_Z 48
_cell_length_a 16.853465
_cell_length_b 17.011043
_cell_length_c 19.063531
_cell_angle_alpha 90.000000
_cell_angle_beta 156.889461
_cell_angle_gamma 90.000000
_cell_volume 2145.211543
_symmetry_space_group_name_H-M "C 2/M"
_symmetry_group_IT_number 12
_symmetry_cell_setting 'monoclinic'
loop_
_space_group_symop_operation_xyz
x,y,z
-x,y,-z
-x,-y,-z
x,-y,z
1/2+x,1/2+y,z
1/2-x,1/2+y,-z
1/2-x,1/2-y,-z
1/2+x,1/2-y,z
loop_
_atom_site_type_symbol
_atom_site_label
_atom_site_fract_x
_atom_site_fract_y
_atom_site_fract_z
Si Si1 0.341264 0.410195 0.196938
Si Si2 0.677682 0.085403 0.419294
Si Si3 0.819759 0.336785 0.074127
Si Si4 0.980966 0.839264 0.905438
Si Si5 0.899904 0.622766 0.488404
Si Si6 0.844368 0.783581 0.317687
O O1 0.292153 0.500000 0.177940
O O2 0.583824 0.403692 0.386885
O O3 0.289643 0.343776 0.212125
O O4 0.245197 0.390660 0.043621
O O5 0.556158 0.152327 0.280044
O O6 0.601104 0.085360 0.436884
O O7 0.629596 0.000000 0.348434
O O8 0.750000 0.250000 0.000000
O O9 0.698031 0.350107 0.047133
O O10 0.831120 0.873818 0.725208
O O11 0.863123 0.755273 0.821361
O O12 0.000000 0.872073 0.000000
O O13 0.000000 0.586927 0.500000
O O14 0.018007 0.707049 0.592116
O O15 0.000000 0.822835 0.500000
#
# Coordination Sequence:
#
# PCOD9188493 Si02
#       6
#     8   8   8   8   8   8
#     4  11  24  43  65  95 138 175 212 265 331 399
#     4  11  24  40  61  93 136 175 212 261 329 401
#     4  12  24  38  69  96 124 169 224 278 322 376
#     4  10  19  36  59  93 126 156 212 276 317 369
#     4   9  18  36  60  87 123 163 215 269 312 375
#     4   9  21  39  65  91 123 168 220 271 318 378
#
# _framework density 22.375415
#
# number of rings (size 3 to 8) (size 9 to 14) (size 15 to 20)
#    0.000    2.000    1.667    4.500    4.667    2.000 
#    0.000    0.000    0.000    7.000    0.000    0.000 
#    0.000    0.000    0.000    0.000    0.000    0.000 
#
# Total GULP energy -133826.652567 kJ/mol
# GULP energy per Si atom -5576.110524 kJ/mol
# Density = 2.232449 g / cm^3
# Si number density = 22.375415 Si / 1000 Ang^3
#
#
#
# Elastic Constant Matrix: (Units=GPa)
#
#
# Indices 1 2 3 4 5 6 
#
# 1 52.7516 5.9434 4.0599 -0.0051 -14.3087 -0.1429
# 2 5.9434 66.1065 11.9983 -0.0385 -12.8589 -0.1498
# 3 4.0599 11.9983 92.1574 -0.0162 -27.3830 0.1183
# 4 -0.0051 -0.0385 -0.0162 21.8658 0.0057 -17.9376
# 5 -14.3087 -12.8589 -27.3830 0.0057 28.1749 0.0139
# 6 -0.1429 -0.1498 0.1183 -17.9376 0.0139 -124.7330
#
#
#
# Elastic Compliance Matrix: (Units=1/GPa)
#
#
# Indices 1 2 3 4 5 6 
#
# 1 0.022728 0.000250 0.003416 -0.000012 0.014977 -0.000020
# 2 0.000250 0.016605 0.000164 0.000010 0.007864 -0.000021
# 3 0.003416 0.000164 0.015771 0.000017 0.017138 0.000010
# 4 -0.000012 0.000010 0.000017 0.040908 0.000010 -0.005883
# 5 0.014977 0.007864 0.017138 0.000010 0.063344 -0.000005
# 6 -0.000020 -0.000021 0.000010 -0.005883 -0.000005 -0.007171
#
#
# Mechanical properties :
#
#
# Convention : Reuss Voigt Hill
#
# Bulk Modulus (GPa) = 15.93265 28.33542 22.13403
# Shear Modulus (GPa) = 30.22137 -2.33753 13.94192
#
# Velocity S-wave (km/s) = 3.67911 -1.02321 2.49889
# Velocity P-wave (km/s) = 5.01835 3.36083 4.27077
#
# Compressibility (1/GPa) = 0.06276419
#
# Stress axis : x y z
#
# Youngs Moduli (GPa) = 43.99841 60.22425 63.40608
#
# Poissons Ratio (x) = -0.01504 -0.21662
# Poissons Ratio (y) = -0.01099 -0.01040
# Poissons Ratio (z) = -0.15031 -0.00988
#
# Static dielectric constant tensor:
#      x y z
#    x 1.806920 -0.000020 0.027390 
#    y -0.000020 1.881880 -0.000010 
#    z 0.027390 -0.000010 1.891470 
# 
# From -- ./inp_files/317533.got.cif
#   From: 2010.05.17/outbox.cif.g08.bks.cpg/sg12_159_cif.got.tgz:317533.got - 2010.06.03 13:09:07.
