data_PCOD9188811
_publ_section_title
;
Structure prediction by ZEFSAII (Michael W. Deem and Ramdas Pophale) SiO2 
 PCOD9188811
Probable space group: C 2/M
;
_chemical_formula_sum "Si O2"
_cell_formula_units_Z 56
_cell_length_a 8.798466
_cell_length_b 16.903837
_cell_length_c 22.691322
_cell_angle_alpha 90.000000
_cell_angle_beta 121.713352
_cell_angle_gamma 90.000000
_cell_volume 2870.930535
_symmetry_space_group_name_H-M "C 2/M"
_symmetry_group_IT_number 12
_symmetry_cell_setting 'monoclinic'
loop_
_space_group_symop_operation_xyz
x,y,z
-x,y,-z
-x,-y,-z
x,-y,z
1/2+x,1/2+y,z
1/2-x,1/2+y,-z
1/2-x,1/2-y,-z
1/2+x,1/2-y,z
loop_
_atom_site_type_symbol
_atom_site_label
_atom_site_fract_x
_atom_site_fract_y
_atom_site_fract_z
Si Si1 0.453489 0.712625 0.224541
Si Si2 0.683188 0.162354 0.002069
Si Si3 0.233171 0.412852 0.255182
Si Si4 0.787694 0.315703 0.639421
Si Si5 0.507761 0.589223 0.140416
Si Si6 0.346971 0.130121 0.137720
Si Si7 0.939930 0.293143 0.548800
O O1 0.319178 0.657706 0.234305
O O2 0.585997 0.757620 0.295913
O O3 0.550316 0.651574 0.200628
O O4 0.359660 0.779064 0.164549
O O5 0.653153 0.123712 0.932385
O O6 0.500000 0.166938 0.000000
O O7 0.750000 0.250000 0.000000
O O8 0.828940 0.117612 0.071089
O O9 0.305994 0.500000 0.256984
O O10 0.254200 0.389895 0.327723
O O11 0.023575 0.410492 0.198528
O O12 0.897007 0.335820 0.602061
O O13 0.601339 0.269539 0.590637
O O14 0.486733 0.500000 0.158099
O O15 0.668001 0.593988 0.126993
O O16 0.750000 0.250000 0.500000
O O17 0.000000 0.336055 0.500000
#
# Coordination Sequence:
#
# PCOD9188811 Si02
#       7
#     8   8   8   8   8   8   8
#     4  11  22  38  62  88 124 162 211 254 297 366
#     4  12  25  42  66  88 116 161 210 259 316 376
#     4  11  23  38  59  89 128 164 201 252 308 358
#     4  10  19  36  61  95 119 162 204 245 291 356
#     4  12  26  41  62  93 124 159 205 264 318 364
#     4  11  23  41  64  88 119 162 209 258 306 372
#     4   9  18  34  62  97 123 150 200 253 286 339
#
# _framework density 19.505870000000002
#
# number of rings (size 3 to 8) (size 9 to 14) (size 15 to 20)
#    0.000    1.143    2.857    4.714    2.000    2.000 
#    0.000    0.000    0.000    4.286    0.000    0.000 
#    0.000    0.000    0.000    0.000    0.000    0.000 
#
# Total GULP energy -156342.227768 kJ/mol
# GULP energy per Si atom -5583.650992 kJ/mol
# Density = 1.946147 g / cm^3
# Si number density = 19.505870 Si / 1000 Ang^3
#
#
#
# Elastic Constant Matrix: (Units=GPa)
#
#
# Indices 1 2 3 4 5 6 
#
# 1 137.8301 11.0028 30.0970 0.0000 -12.8049 0.0000
# 2 11.0028 90.5030 6.2484 0.0000 -4.0952 0.0000
# 3 30.0970 6.2484 72.4481 0.0000 -6.4048 0.0000
# 4 0.0000 0.0000 0.0000 2.9764 0.0000 3.2067
# 5 -12.8049 -4.0952 -6.4048 0.0000 48.5508 0.0000
# 6 0.0000 0.0000 0.0000 3.2067 0.0000 4.1976
#
#
#
# Elastic Compliance Matrix: (Units=1/GPa)
#
#
# Indices 1 2 3 4 5 6 
#
# 1 0.008161 -0.000697 -0.003182 0.000000 0.001674 0.000000
# 2 -0.000697 0.011207 -0.000617 0.000000 0.000680 0.000000
# 3 -0.003182 -0.000617 0.015278 0.000000 0.001124 0.000000
# 4 0.000000 0.000000 0.000000 1.898484 0.000000 -1.450307
# 5 0.001674 0.000680 0.001124 0.000000 0.021244 0.000000
# 6 0.000000 0.000000 0.000000 -1.450307 0.000000 1.346161
#
#
# Mechanical properties :
#
#
# Convention : Reuss Voigt Hill
#
# Bulk Modulus (GPa) = 38.98011 43.94194 41.46103
# Shear Modulus (GPa) = 1.50690 28.04051 14.77370
#
# Velocity S-wave (km/s) = 0.87989 3.79561 2.75507
# Velocity P-wave (km/s) = 4.58906 6.46415 5.60557
#
# Compressibility (1/GPa) = 0.02565411
#
# Stress axis : x y z
#
# Youngs Moduli (GPa) = 122.52864 89.22643 65.45516
#
# Poissons Ratio (x) = 0.06217 0.20830
# Poissons Ratio (y) = 0.08537 0.04039
# Poissons Ratio (z) = 0.38993 0.05506
#
# Static dielectric constant tensor:
#      x y z
#    x 1.696450 0.000000 -0.040920 
#    y 0.000000 1.690180 0.000000 
#    z -0.040920 0.000000 1.708140 
# 
# From -- ./inp_files/333398.got.cif
#   From: 2010.05.17/outbox.cif.g08.bks.cpg/sg12_167_cif.got.tgz:333398.got - 2010.06.03 13:09:07.
