data_PCOD9188389
_publ_section_title
;
Structure prediction by ZEFSAII (Michael W. Deem and Ramdas Pophale) SiO2 
 PCOD9188389
Probable space group: C 2/M
;
_chemical_formula_sum "Si O2"
_cell_formula_units_Z 40
_cell_length_a 15.277274
_cell_length_b 17.340726
_cell_length_c 13.835859
_cell_angle_alpha 90.000000
_cell_angle_beta 28.467609
_cell_angle_gamma 90.000000
_cell_volume 1747.147927
_symmetry_space_group_name_H-M "C 2/M"
_symmetry_group_IT_number 12
_symmetry_cell_setting 'monoclinic'
loop_
_space_group_symop_operation_xyz
x,y,z
-x,y,-z
-x,-y,-z
x,-y,z
1/2+x,1/2+y,z
1/2-x,1/2+y,-z
1/2-x,1/2-y,-z
1/2+x,1/2-y,z
loop_
_atom_site_type_symbol
_atom_site_label
_atom_site_fract_x
_atom_site_fract_y
_atom_site_fract_z
Si Si1 0.319765 0.500000 0.048112
Si Si2 0.256844 0.000000 0.650151
Si Si3 0.303556 0.084889 0.140372
Si Si4 0.975844 0.383336 0.718867
Si Si5 0.549163 0.713433 0.337548
Si Si6 0.782220 0.086371 0.561570
O O1 0.252309 0.500000 0.225248
O O2 0.217307 0.427006 0.100801
O O3 0.539814 0.500000 0.833570
O O4 0.374003 0.073095 0.496604
O O5 0.189765 0.081885 0.351181
O O6 0.232061 0.160940 0.157585
O O7 0.283663 0.000000 0.112789
O O8 0.500000 0.091372 0.000000
O O9 0.947374 0.296161 0.715040
O O10 0.076920 0.396058 0.723418
O O11 0.500000 0.725969 0.500000
O O12 0.405504 0.659704 0.418072
O O13 0.826788 0.000000 0.482724
#
# Coordination Sequence:
#
# PCOD9188389 Si02
#       6
#     4   4   8   8   8   8
#     4  10  21  39  60  85 115 161 199 228 279 362
#     4  10  21  39  62  83 113 165 196 225 289 353
#     4   9  19  38  58  83 115 156 195 238 284 347
#     4  11  20  39  58  89 120 147 191 250 293 332
#     4  10  20  35  58  84 113 154 195 236 287 347
#     4  10  19  36  59  82 114 154 195 234 292 349
#
# _framework density 22.894456000000002
#
# number of rings (size 3 to 8) (size 9 to 14) (size 15 to 20)
#    0.000    2.000    2.000    3.600    0.000    2.400 
#   14.400    1.000    0.000    0.000    0.000    0.000 
#    0.000    0.000    0.000    0.000    0.000    0.000 
#
# Total GULP energy -111596.934147 kJ/mol
# GULP energy per Si atom -5579.846707 kJ/mol
# Density = 2.284235 g / cm^3
# Si number density = 22.894456 Si / 1000 Ang^3
#
#
#
# Elastic Constant Matrix: (Units=GPa)
#
#
# Indices 1 2 3 4 5 6 
#
# 1 109.8220 56.8690 41.6864 0.0045 -23.0438 0.0007
# 2 56.8690 256.9265 45.5415 0.0261 -31.6031 -0.0118
# 3 41.6864 45.5415 69.4928 0.0110 -22.2020 -0.0060
# 4 0.0045 0.0261 0.0110 20.0345 -0.0066 -3.8381
# 5 -23.0438 -31.6031 -22.2020 -0.0066 51.0273 0.0020
# 6 0.0007 -0.0118 -0.0060 -3.8381 0.0020 40.3123
#
#
#
# Elastic Compliance Matrix: (Units=1/GPa)
#
#
# Indices 1 2 3 4 5 6 
#
# 1 0.012555 -0.001468 -0.005863 0.000003 0.002210 -0.000001
# 2 -0.001468 0.004708 -0.001725 -0.000004 0.001502 0.000001
# 3 -0.005863 -0.001725 0.020732 -0.000006 0.005305 0.000002
# 4 0.000003 -0.000004 -0.000006 0.050841 0.000003 0.004841
# 5 0.002210 0.001502 0.005305 0.000003 0.023834 0.000000
# 6 -0.000001 0.000001 0.000002 0.004841 0.000000 0.025267
#
#
# Mechanical properties :
#
#
# Convention : Reuss Voigt Hill
#
# Bulk Modulus (GPa) = 50.29429 80.49279 65.39354
# Shear Modulus (GPa) = 30.73586 41.75111 36.24349
#
# Velocity S-wave (km/s) = 3.66799 4.27504 3.98310
# Velocity P-wave (km/s) = 6.32096 7.72026 7.05538
#
# Compressibility (1/GPa) = 0.01988297
#
# Stress axis : x y z
#
# Youngs Moduli (GPa) = 79.64930 212.42500 48.23411
#
# Poissons Ratio (x) = 0.31181 0.28282
# Poissons Ratio (y) = 0.11691 0.08318
# Poissons Ratio (z) = 0.46702 0.36634
#
# Static dielectric constant tensor:
#      x y z
#    x 1.901380 -0.000010 0.088980 
#    y -0.000010 1.806240 0.000000 
#    z 0.088980 0.000000 2.003450 
# 
# From -- ./inp_files/216668.got.cif
#   From: 2010.05.17/outbox.cif.g08.bks.cpg/sg12_109_cif.got.tgz:216668.got - 2010.06.03 13:09:07.
