data_PCOD9188890
_publ_section_title
;
Structure prediction by ZEFSAII (Michael W. Deem and Ramdas Pophale) SiO2 
 PCOD9188890
Probable space group: C 2/M
;
_chemical_formula_sum "Si O2"
_cell_formula_units_Z 50
_cell_length_a 9.888630
_cell_length_b 16.051487
_cell_length_c 15.980434
_cell_angle_alpha 90.000000
_cell_angle_beta 111.534926
_cell_angle_gamma 90.000000
_cell_volume 2359.464762
_symmetry_space_group_name_H-M "C 2/M"
_symmetry_group_IT_number 12
_symmetry_cell_setting 'monoclinic'
loop_
_space_group_symop_operation_xyz
x,y,z
-x,y,-z
-x,-y,-z
x,-y,z
1/2+x,1/2+y,z
1/2-x,1/2+y,-z
1/2-x,1/2-y,-z
1/2+x,1/2-y,z
loop_
_atom_site_type_symbol
_atom_site_label
_atom_site_fract_x
_atom_site_fract_y
_atom_site_fract_z
Si Si1 0.267653 0.904805 0.973504
Si Si2 0.660647 0.667674 0.499054
Si Si3 0.500000 0.500000 0.000000
Si Si4 0.542164 0.343191 0.123496
Si Si5 0.225350 0.401675 0.306036
Si Si6 0.039003 0.901426 0.303701
Si Si7 0.960099 0.344184 0.874838
O O1 0.133319 0.847137 0.921208
O O2 0.366435 0.905042 0.912779
O O3 0.206363 0.000000 0.974098
O O4 0.374395 0.869758 0.068606
O O5 0.500000 0.685442 0.500000
O O6 0.750000 0.750000 0.500000
O O7 0.745621 0.618503 0.590813
O O8 0.634566 0.618714 0.406740
O O9 0.421284 0.423171 0.924264
O O10 0.587004 0.357206 0.229635
O O11 0.579289 0.249575 0.105840
O O12 0.206008 0.500000 0.291778
O O13 0.373416 0.376936 0.290470
O O14 0.091011 0.356364 0.231418
O O15 0.037129 0.000000 0.287540
#
# Coordination Sequence:
#
# PCOD9188890 Si02
#       7
#     8   8   2   8   8   8   8
#     4  11  21  40  58  80 116 162 199 249 310 373
#     4  10  21  37  63  96 127 162 208 266 318 380
#     4  12  24  40  60  82 120 166 208 260 308 392
#     4  12  23  39  58  87 121 160 207 256 314 374
#     4  10  19  36  62  93 120 157 213 261 306 373
#     4  10  19  37  62  86 117 162 202 253 309 368
#     4  11  22  34  61  88 117 155 204 256 309 361
#
# _framework density 21.191248000000002
#
# number of rings (size 3 to 8) (size 9 to 14) (size 15 to 20)
#    0.000    1.280    3.200    4.800    0.000    1.920 
#    0.000    0.000    3.520    1.920    0.000    0.000 
#    0.000    0.000    0.000    0.000    0.000    0.000 
#
# Total GULP energy -139467.958219 kJ/mol
# GULP energy per Si atom -5578.718329 kJ/mol
# Density = 2.114302 g / cm^3
# Si number density = 21.191248 Si / 1000 Ang^3
#
#
#
# Elastic Constant Matrix: (Units=GPa)
#
#
# Indices 1 2 3 4 5 6 
#
# 1 22.2521 6.8097 13.2242 0.0000 7.5753 0.0000
# 2 6.8097 113.4186 31.9533 0.0000 -3.7875 0.0000
# 3 13.2242 31.9533 167.5817 0.0000 9.5105 0.0000
# 4 0.0000 0.0000 0.0000 16.8117 0.0000 9.2126
# 5 7.5753 -3.7875 9.5105 0.0000 33.2860 0.0000
# 6 0.0000 0.0000 0.0000 9.2126 0.0000 28.7012
#
#
#
# Elastic Compliance Matrix: (Units=1/GPa)
#
#
# Indices 1 2 3 4 5 6 
#
# 1 0.051265 -0.002629 -0.002912 0.000000 -0.011134 0.000000
# 2 -0.002629 0.009536 -0.001734 0.000000 0.002179 0.000000
# 3 -0.002912 -0.001734 0.006609 0.000000 -0.001423 0.000000
# 4 0.000000 0.000000 0.000000 0.072178 0.000000 -0.023168
# 5 -0.011134 0.002179 -0.001423 0.000000 0.033231 0.000000
# 6 0.000000 0.000000 0.000000 -0.023168 0.000000 0.042278
#
#
# Mechanical properties :
#
#
# Convention : Reuss Voigt Hill
#
# Bulk Modulus (GPa) = 18.91866 45.24744 32.08305
# Shear Modulus (GPa) = 20.22092 32.51079 26.36585
#
# Velocity S-wave (km/s) = 3.09238 3.92109 3.53113
# Velocity P-wave (km/s) = 4.65805 6.47288 5.63895
#
# Compressibility (1/GPa) = 0.05285785
#
# Stress axis : x y z
#
# Youngs Moduli (GPa) = 19.50639 104.86379 151.31997
#
# Poissons Ratio (x) = 0.27572 0.44068
# Poissons Ratio (y) = 0.05129 0.26246
# Poissons Ratio (z) = 0.05681 0.18188
#
# Static dielectric constant tensor:
#      x y z
#    x 1.726230 0.000000 0.006240 
#    y 0.000000 1.737430 0.000000 
#    z 0.006240 0.000000 1.773180 
# 
# From -- ./inp_files/205100.got.cif
#   From: 2010.05.17/outbox.cif.g08.bks.cpg/sg12_103_cif.got.tgz:205100.got - 2010.06.03 13:09:07.
