data_PCOD9188768
_publ_section_title
;
Structure prediction by ZEFSAII (Michael W. Deem and Ramdas Pophale) SiO2 
 PCOD9188768
Probable space group: C 2/M
;
_chemical_formula_sum "Si O2"
_cell_formula_units_Z 40
_cell_length_a 16.075895
_cell_length_b 7.428840
_cell_length_c 14.000823
_cell_angle_alpha 90.000000
_cell_angle_beta 103.776755
_cell_angle_gamma 90.000000
_cell_volume 1623.948509
_symmetry_space_group_name_H-M "C 2/M"
_symmetry_group_IT_number 12
_symmetry_cell_setting 'monoclinic'
loop_
_space_group_symop_operation_xyz
x,y,z
-x,y,-z
-x,-y,-z
x,-y,z
1/2+x,1/2+y,z
1/2-x,1/2+y,-z
1/2-x,1/2-y,-z
1/2+x,1/2-y,z
loop_
_atom_site_type_symbol
_atom_site_label
_atom_site_fract_x
_atom_site_fract_y
_atom_site_fract_z
Si Si1 0.884268 0.708685 0.975263
Si Si2 0.757602 0.713862 0.332741
Si Si3 0.062535 0.711260 0.214025
Si Si4 0.858683 0.000000 0.462300
Si Si5 0.690652 0.217542 0.858983
Si Si6 0.003868 0.000000 0.339688
O O1 0.908045 0.500000 0.989606
O O2 0.934927 0.778247 0.896243
O O3 0.784863 0.717534 0.915748
O O4 0.876921 0.784474 0.080532
O O5 0.761917 0.500000 0.348172
O O6 0.660529 0.768227 0.279306
O O7 0.813136 0.762176 0.253003
O O8 0.799293 0.827582 0.428151
O O9 0.039684 0.500000 0.209030
O O10 0.007063 0.827873 0.271269
O O11 0.907568 0.000000 0.575345
O O12 0.931526 0.000000 0.400149
O O13 0.691302 0.000000 0.865217
#
# Coordination Sequence:
#
# PCOD9188768 Si02
#       6
#     8   8   8   4   8   4
#     4   8  14  24  44  78 115 145 176 221 273 325
#     4  10  19  36  61  89 117 148 191 237 282 336
#     4  10  19  36  61  89 117 148 191 237 282 336
#     4  11  26  44  59  81 114 150 193 246 301 351
#     4   8  14  24  44  78 115 145 176 221 273 325
#     4  11  26  44  59  81 114 150 193 246 301 351
#
# _framework density 24.631322999999998
#
# number of rings (size 3 to 8) (size 9 to 14) (size 15 to 20)
#    0.000    2.600    2.000    0.000    2.800    2.400 
#    0.000    2.000    0.000    2.400    0.000    5.600 
#    0.000    0.000    0.000    0.000    0.000    0.000 
#
# Total GULP energy -111852.955455 kJ/mol
# GULP energy per Si atom -5592.647773 kJ/mol
# Density = 2.457526 g / cm^3
# Si number density = 24.631323 Si / 1000 Ang^3
#
#
#
# Elastic Constant Matrix: (Units=GPa)
#
#
# Indices 1 2 3 4 5 6 
#
# 1 113.7745 10.1251 50.9547 0.0000 -22.4296 0.0000
# 2 10.1251 115.4742 54.9379 0.0000 -2.9078 0.0000
# 3 50.9547 54.9379 143.1677 0.0000 -13.5235 0.0000
# 4 0.0000 0.0000 0.0000 10.1443 0.0000 -25.6571
# 5 -22.4296 -2.9078 -13.5235 0.0000 61.8275 0.0000
# 6 0.0000 0.0000 0.0000 -25.6571 0.0000 -2.6024
#
#
#
# Elastic Compliance Matrix: (Units=1/GPa)
#
#
# Indices 1 2 3 4 5 6 
#
# 1 0.011148 0.001036 -0.004063 0.000000 0.003204 0.000000
# 2 0.001036 0.010700 -0.004484 0.000000 -0.000102 0.000000
# 3 -0.004063 -0.004484 0.010203 0.000000 0.000547 0.000000
# 4 0.000000 0.000000 0.000000 0.003801 0.000000 -0.037473
# 5 0.003204 -0.000102 0.000547 0.000000 0.017451 0.000000
# 6 0.000000 0.000000 0.000000 -0.037473 0.000000 -0.014816
#
#
# Mechanical properties :
#
#
# Convention : Reuss Voigt Hill
#
# Bulk Modulus (GPa) = 58.72096 67.16131 62.94113
# Shear Modulus (GPa) = 84.47922 30.96711 57.72316
#
# Velocity S-wave (km/s) = 5.86276 3.54958 4.84621
# Velocity P-wave (km/s) = 8.34991 6.64268 7.54474
#
# Compressibility (1/GPa) = 0.01702970
#
# Stress axis : x y z
#
# Youngs Moduli (GPa) = 89.69940 93.45831 98.00873
#
# Poissons Ratio (x) = -0.09682 0.39818
# Poissons Ratio (y) = -0.09293 0.43950
# Poissons Ratio (z) = 0.36442 0.41909
#
# Static dielectric constant tensor:
#      x y z
#    x 1.980400 0.000000 -0.021760 
#    y 0.000000 1.887180 0.000000 
#    z -0.021760 0.000000 1.952580 
# 
# From -- ./inp_files/228912.got.cif
#   From: 2010.05.17/outbox.cif.g08.bks.cpg/sg12_115_cif.got.tgz:228912.got - 2010.06.03 13:09:07.
