data_PCOD9188013
_publ_section_title
;
Structure prediction by ZEFSAII (Michael W. Deem and Ramdas Pophale) SiO2 
 PCOD9188013
Probable space group: C 2/M
;
_chemical_formula_sum "Si O2"
_cell_formula_units_Z 56
_cell_length_a 14.039749
_cell_length_b 26.106101
_cell_length_c 11.099837
_cell_angle_alpha 90.000000
_cell_angle_beta 137.844740
_cell_angle_gamma 90.000000
_cell_volume 2730.438032
_symmetry_space_group_name_H-M "C 2/M"
_symmetry_group_IT_number 12
_symmetry_cell_setting 'monoclinic'
loop_
_space_group_symop_operation_xyz
x,y,z
-x,y,-z
-x,-y,-z
x,-y,z
1/2+x,1/2+y,z
1/2-x,1/2+y,-z
1/2-x,1/2-y,-z
1/2+x,1/2-y,z
loop_
_atom_site_type_symbol
_atom_site_label
_atom_site_fract_x
_atom_site_fract_y
_atom_site_fract_z
Si Si1 0.540154 0.060022 0.394656
Si Si2 0.373195 0.660125 0.297676
Si Si3 0.172542 0.277950 0.747266
Si Si4 0.523496 0.310276 0.866209
Si Si5 0.746702 0.149592 0.611215
Si Si6 0.919367 0.393800 0.037247
Si Si7 0.066891 0.704995 0.271493
O O1 0.500000 0.065890 0.500000
O O2 0.679040 0.095439 0.516337
O O3 0.437342 0.079749 0.187539
O O4 0.563159 0.000000 0.396339
O O5 0.500000 0.640332 0.500000
O O6 0.330055 0.718542 0.297067
O O7 0.443698 0.670211 0.235307
O O8 0.239225 0.622857 0.151137
O O9 0.159588 0.320619 0.632467
O O10 0.050300 0.285271 0.732616
O O11 0.323796 0.292390 0.945756
O O12 0.409342 0.351597 0.805155
O O13 0.429592 0.258791 0.790715
O O14 0.713815 0.184696 0.463360
O O15 0.002539 0.340407 0.133848
O O16 0.000000 0.420736 0.000000
#
# Coordination Sequence:
#
# PCOD9188013 Si02
#       7
#     8   8   8   8   8   8   8
#     4  10  24  48  75  95 121 165 224 286 343 393
#     4  11  23  36  55  85 140 185 217 252 318 392
#     4  11  19  36  52  83 130 182 216 255 297 382
#     4  11  21  33  51  85 131 176 212 252 308 380
#     4  11  22  32  61  91 116 161 217 272 315 372
#     4  11  23  38  67  99 130 167 219 271 322 391
#     4  10  19  36  50  81 129 173 214 244 300 381
#
# _framework density 20.509529000000001
#
# number of rings (size 3 to 8) (size 9 to 14) (size 15 to 20)
#    0.000    1.286    2.857    5.571    6.000    0.286 
#    0.000    0.000    0.000    3.000    0.000    0.000 
#    0.000    0.000    0.000    0.000    0.000    0.000 
#
# Total GULP energy -156075.199979 kJ/mol
# GULP energy per Si atom -5574.114285 kJ/mol
# Density = 2.046285 g / cm^3
# Si number density = 20.509529 Si / 1000 Ang^3
#
#
#
# Elastic Constant Matrix: (Units=GPa)
#
#
# Indices 1 2 3 4 5 6 
#
# 1 82.0152 12.2079 29.9135 0.0000 -5.1046 0.0000
# 2 12.2079 82.5506 39.7084 0.0000 2.1781 0.0000
# 3 29.9135 39.7084 171.1374 0.0000 16.3844 0.0000
# 4 0.0000 0.0000 0.0000 11.7648 0.0000 3.2660
# 5 -5.1046 2.1781 16.3844 0.0000 38.6934 0.0000
# 6 0.0000 0.0000 0.0000 3.2660 0.0000 4.6107
#
#
#
# Elastic Compliance Matrix: (Units=1/GPa)
#
#
# Indices 1 2 3 4 5 6 
#
# 1 0.013379 -0.000898 -0.002401 0.000000 0.002832 0.000000
# 2 -0.000898 0.013709 -0.003063 0.000000 0.000407 0.000000
# 3 -0.002401 -0.003063 0.007283 0.000000 -0.003228 0.000000
# 4 0.000000 0.000000 0.000000 0.105806 0.000000 -0.074948
# 5 0.002832 0.000407 -0.003228 0.000000 0.027562 0.000000
# 6 0.000000 0.000000 0.000000 -0.074948 0.000000 0.269978
#
#
# Mechanical properties :
#
#
# Convention : Reuss Voigt Hill
#
# Bulk Modulus (GPa) = 46.19790 55.48475 50.84133
# Shear Modulus (GPa) = 10.92525 27.93867 19.43196
#
# Velocity S-wave (km/s) = 2.31051 3.69484 3.08142
# Velocity P-wave (km/s) = 5.44903 6.73159 6.12398
#
# Compressibility (1/GPa) = 0.02164600
#
# Stress axis : x y z
#
# Youngs Moduli (GPa) = 74.74595 72.94391 137.31179
#
# Poissons Ratio (x) = 0.06552 0.32972
# Poissons Ratio (y) = 0.06713 0.42056
# Poissons Ratio (z) = 0.17948 0.22342
#
# Static dielectric constant tensor:
#      x y z
#    x 1.827320 0.000000 -0.066450 
#    y 0.000000 1.701780 0.000000 
#    z -0.066450 0.000000 1.891850 
# 
# From -- ./inp_files/67089.got.cif
#   From: 2010.05.17/outbox.cif.g08.bks.cpg/sg12_34_cif.got.tgz:67089.got - 2010.06.03 13:09:07.
