data_PCOD9188777
_publ_section_title
;
Structure prediction by ZEFSAII (Michael W. Deem and Ramdas Pophale) SiO2 
 PCOD9188777
Probable space group: C 2/M
;
_chemical_formula_sum "Si O2"
_cell_formula_units_Z 60
_cell_length_a 24.284242
_cell_length_b 11.604283
_cell_length_c 10.619650
_cell_angle_alpha 90.000000
_cell_angle_beta 71.672501
_cell_angle_gamma 90.000000
_cell_volume 2840.828126
_symmetry_space_group_name_H-M "C 2/M"
_symmetry_group_IT_number 12
_symmetry_cell_setting 'monoclinic'
loop_
_space_group_symop_operation_xyz
x,y,z
-x,y,-z
-x,-y,-z
x,-y,z
1/2+x,1/2+y,z
1/2-x,1/2+y,-z
1/2-x,1/2-y,-z
1/2+x,1/2-y,z
loop_
_atom_site_type_symbol
_atom_site_label
_atom_site_fract_x
_atom_site_fract_y
_atom_site_fract_z
Si Si1 0.817843 0.500000 0.865198
Si Si2 0.357285 0.364768 0.757995
Si Si3 0.507785 0.631894 0.343868
Si Si4 0.066192 0.369131 0.949369
Si Si5 0.800893 0.864719 0.282726
Si Si6 0.176263 0.729900 0.985621
Si Si7 0.400297 0.784365 0.337443
Si Si8 0.826927 0.332015 0.615839
O O1 0.831933 0.401947 0.743180
O O2 0.805555 0.604333 0.977044
O O3 0.353558 0.500000 0.746218
O O4 0.425466 0.334793 0.727723
O O5 0.334888 0.300048 0.651055
O O6 0.321859 0.320541 0.903096
O O7 0.500000 0.631271 0.500000
O O8 0.498805 0.500000 0.304773
O O9 0.459702 0.717069 0.323882
O O10 0.068821 0.500000 0.998087
O O11 0.108968 0.289665 0.996393
O O12 0.088278 0.364417 0.790678
O O13 0.000000 0.330339 0.000000
O O14 0.796338 0.788877 0.157589
O O15 0.851314 0.808125 0.329245
O O16 0.737227 0.857269 0.389282
O O17 0.811975 0.000000 0.244615
O O18 0.375379 0.851627 0.475597
#
# Coordination Sequence:
#
# PCOD9188777 Si02
#       8
#     4   8   8   8   8   8   8   8
#     4  10  22  40  65  83 127 164 209 267 311 369
#     4  10  21  37  64  96 127 160 209 263 317 385
#     4  10  19  36  61  89 125 159 200 259 318 373
#     4  10  21  38  61  88 124 165 211 253 309 375
#     4  11  24  43  64  93 128 168 218 266 315 381
#     4  10  21  41  63  90 124 167 210 264 320 368
#     4  11  23  39  65  93 127 170 209 258 321 381
#     4  11  23  42  60  93 129 170 211 262 320 373
#
# _framework density 21.120602000000002
#
# number of rings (size 3 to 8) (size 9 to 14) (size 15 to 20)
#    0.000    1.600    2.667    2.000    0.933    2.667 
#    3.600    0.000    0.000    9.200    0.000    0.000 
#    0.000    0.000    0.000    0.000    0.000    0.000 
#
# Total GULP energy -167022.553836 kJ/mol
# GULP energy per Si atom -5567.418461 kJ/mol
# Density = 2.107253 g / cm^3
# Si number density = 21.120602 Si / 1000 Ang^3
#
#
#
# Elastic Constant Matrix: (Units=GPa)
#
#
# Indices 1 2 3 4 5 6 
#
# 1 68.5650 39.6514 0.2178 0.0000 -9.4409 0.0000
# 2 39.6514 96.5723 26.0132 0.0000 -3.2279 0.0000
# 3 0.2178 26.0132 66.0916 0.0000 3.5141 0.0000
# 4 0.0000 0.0000 0.0000 11.8646 0.0000 7.0360
# 5 -9.4409 -3.2279 3.5141 0.0000 25.4770 0.0000
# 6 0.0000 0.0000 0.0000 7.0360 0.0000 12.6932
#
#
#
# Elastic Compliance Matrix: (Units=1/GPa)
#
#
# Indices 1 2 3 4 5 6 
#
# 1 0.020712 -0.009168 0.003217 0.000000 0.006070 0.000000
# 2 -0.009168 0.015755 -0.006141 0.000000 -0.000554 0.000000
# 3 0.003217 -0.006141 0.017644 0.000000 -0.002020 0.000000
# 4 0.000000 0.000000 0.000000 0.125559 0.000000 -0.069600
# 5 0.006070 -0.000554 -0.002020 0.000000 0.041709 0.000000
# 6 0.000000 0.000000 0.000000 -0.069600 0.000000 0.117363
#
#
# Mechanical properties :
#
#
# Convention : Reuss Voigt Hill
#
# Bulk Modulus (GPa) = 33.41369 40.33264 36.87316
# Shear Modulus (GPa) = 13.40836 21.03005 17.21921
#
# Velocity S-wave (km/s) = 2.52235 3.15891 2.85841
# Velocity P-wave (km/s) = 4.93333 5.69586 5.32825
#
# Compressibility (1/GPa) = 0.02992786
#
# Stress axis : x y z
#
# Youngs Moduli (GPa) = 48.28091 63.47219 56.67492
#
# Poissons Ratio (x) = 0.58191 -0.18235
# Poissons Ratio (y) = 0.44264 0.34806
# Poissons Ratio (z) = -0.15534 0.38981
#
# Static dielectric constant tensor:
#      x y z
#    x 1.788140 0.000000 -0.007270 
#    y 0.000000 1.742850 0.000000 
#    z -0.007270 0.000000 1.750660 
# 
# From -- ./inp_files/174554.got.cif
#   From: 2010.05.17/outbox.cif.g08.bks.cpg/sg12_88_cif.got.tgz:174554.got - 2010.06.03 13:09:07.
