data_PCOD9188393
_publ_section_title
;
Structure prediction by ZEFSAII (Michael W. Deem and Ramdas Pophale) SiO2 
 PCOD9188393
Probable space group: C 2/M
;
_chemical_formula_sum "Si O2"
_cell_formula_units_Z 58
_cell_length_a 24.802496
_cell_length_b 9.054718
_cell_length_c 27.900673
_cell_angle_alpha 90.000000
_cell_angle_beta 149.058443
_cell_angle_gamma 90.000000
_cell_volume 3221.708333
_symmetry_space_group_name_H-M "C 2/M"
_symmetry_group_IT_number 12
_symmetry_cell_setting 'monoclinic'
loop_
_space_group_symop_operation_xyz
x,y,z
-x,y,-z
-x,-y,-z
x,-y,z
1/2+x,1/2+y,z
1/2-x,1/2+y,-z
1/2-x,1/2-y,-z
1/2+x,1/2-y,z
loop_
_atom_site_type_symbol
_atom_site_label
_atom_site_fract_x
_atom_site_fract_y
_atom_site_fract_z
Si Si1 0.482292 0.676573 0.226993
Si Si2 0.358010 0.323508 0.566003
Si Si3 0.000000 0.500000 0.500000
Si Si4 0.252182 0.678200 0.086585
Si Si5 0.724539 0.822513 0.792798
Si Si6 0.580826 0.177715 0.104506
Si Si7 0.472726 0.823243 0.122400
Si Si8 0.012374 0.663705 0.410928
O O1 0.485441 0.500000 0.224144
O O2 0.554437 0.715622 0.327175
O O3 0.362154 0.719538 0.146448
O O4 0.516395 0.749691 0.203421
O O5 0.347276 0.500000 0.556628
O O6 0.250000 0.250000 0.500000
O O7 0.401346 0.264458 0.548339
O O8 0.980272 0.626750 0.527156
O O9 0.250485 0.500000 0.092444
O O10 0.247251 0.756574 0.134054
O O11 0.149427 0.718303 0.978078
O O12 0.809294 0.756643 0.821015
O O13 0.605151 0.779780 0.689204
O O14 0.730086 0.000000 0.796654
O O15 0.531906 0.217523 0.118507
O O16 0.593965 0.000000 0.112638
O O17 0.500000 0.217117 0.000000
O O18 0.478015 0.000000 0.131081
O O19 0.021066 0.500000 0.393835
#
# Coordination Sequence:
#
# PCOD9188393 Si02
#       8
#     8   8   2   8   8   8   8   8
#     4  10  22  38  58  86 118 155 196 245 302 354
#     4  11  23  41  66  94 122 161 204 255 314 376
#     4   8  20  44  70  88 122 160 190 258 322 372
#     4  10  19  36  59  82 118 158 197 240 292 352
#     4  11  21  33  57  90 113 148 198 247 291 347
#     4  10  20  37  56  75 113 162 202 238 290 349
#     4  10  21  36  56  83 118 162 200 245 293 348
#     4   9  20  41  65  89 119 155 197 247 311 374
#
# _framework density 18.002872
#
# number of rings (size 3 to 8) (size 9 to 14) (size 15 to 20)
#    0.414    1.517    2.759    1.241    0.000    3.586 
#    2.483    0.345    0.000    0.000    0.000    0.000 
#    0.000    0.000    0.000    0.000    0.000    0.000 
#
# Total GULP energy -161483.244365 kJ/mol
# GULP energy per Si atom -5568.387737 kJ/mol
# Density = 1.796190 g / cm^3
# Si number density = 18.002872 Si / 1000 Ang^3
#
#
#
# Elastic Constant Matrix: (Units=GPa)
#
#
# Indices 1 2 3 4 5 6 
#
# 1 132.1289 41.0258 52.5916 0.0000 -6.9020 0.0000
# 2 41.0258 25.7939 25.6979 0.0000 4.2741 0.0000
# 3 52.5916 25.6979 46.5251 0.0000 4.5549 0.0000
# 4 0.0000 0.0000 0.0000 26.2059 0.0000 -0.9905
# 5 -6.9020 4.2741 4.5549 0.0000 34.5953 0.0000
# 6 0.0000 0.0000 0.0000 -0.9905 0.0000 39.9614
#
#
#
# Elastic Compliance Matrix: (Units=1/GPa)
#
#
# Indices 1 2 3 4 5 6 
#
# 1 0.018302 -0.020033 -0.010357 0.000000 0.007490 0.000000
# 2 -0.020033 0.108813 -0.036217 0.000000 -0.012672 0.000000
# 3 -0.010357 -0.036217 0.053661 0.000000 -0.004657 0.000000
# 4 0.000000 0.000000 0.000000 0.038195 0.000000 0.000947
# 5 0.007490 -0.012672 -0.004657 0.000000 0.032579 0.000000
# 6 0.000000 0.000000 0.000000 0.000947 0.000000 0.025048
#
#
# Mechanical properties :
#
#
# Convention : Reuss Voigt Hill
#
# Bulk Modulus (GPa) = 21.02460 49.23093 35.12777
# Shear Modulus (GPa) = 11.74635 25.82806 18.78720
#
# Velocity S-wave (km/s) = 2.55712 3.79180 3.23393
# Velocity P-wave (km/s) = 4.51911 6.82465 5.78784
#
# Compressibility (1/GPa) = 0.04756334
#
# Stress axis : x y z
#
# Youngs Moduli (GPa) = 54.63860 9.19011 18.63544
#
# Poissons Ratio (x) = 0.18410 0.19301
# Poissons Ratio (y) = 1.09455 0.67492
# Poissons Ratio (z) = 0.56589 0.33284
#
# Static dielectric constant tensor:
#      x y z
#    x 1.612210 0.000000 0.008130 
#    y 0.000000 1.608250 0.000000 
#    z 0.008130 0.000000 1.614370 
# 
# From -- ./inp_files/367588.got.cif
#   From: 2010.05.17/outbox.cif.g08.bks.cpg/sg12_184_cif.got.tgz:367588.got - 2010.06.03 13:09:07.
