data_PCOD9188042
_publ_section_title
;
Structure prediction by ZEFSAII (Michael W. Deem and Ramdas Pophale) SiO2 
 PCOD9188042
Probable space group: C 2/M
;
_chemical_formula_sum "Si O2"
_cell_formula_units_Z 42
_cell_length_a 28.571812
_cell_length_b 7.775188
_cell_length_c 9.464794
_cell_angle_alpha 90.000000
_cell_angle_beta 130.634821
_cell_angle_gamma 90.000000
_cell_volume 1595.623688
_symmetry_space_group_name_H-M "C 2/M"
_symmetry_group_IT_number 12
_symmetry_cell_setting 'monoclinic'
loop_
_space_group_symop_operation_xyz
x,y,z
-x,y,-z
-x,-y,-z
x,-y,z
1/2+x,1/2+y,z
1/2-x,1/2+y,-z
1/2-x,1/2-y,-z
1/2+x,1/2-y,z
loop_
_atom_site_type_symbol
_atom_site_label
_atom_site_fract_x
_atom_site_fract_y
_atom_site_fract_z
Si Si1 0.869885 0.695237 0.287462
Si Si2 0.089416 0.705557 0.216689
Si Si3 0.212005 0.700549 0.610344
Si Si4 0.154692 0.794441 0.078573
Si Si5 0.500000 0.000000 0.500000
Si Si6 0.014710 0.186253 0.328209
O O1 0.899141 0.500000 0.358962
O O2 0.810127 0.701430 0.270056
O O3 0.919699 0.815583 0.458397
O O4 0.852665 0.731439 0.094800
O O5 0.085402 0.500000 0.229525
O O6 0.154298 0.773660 0.410681
O O7 0.098722 0.743928 0.070730
O O8 0.035819 0.782175 0.208337
O O9 0.215686 0.500000 0.575130
O O10 0.279948 0.777131 0.733502
O O11 0.159577 0.000000 0.085615
O O12 0.515311 0.154072 0.651178
O O13 0.983999 0.000000 0.283910
#
# Coordination Sequence:
#
# PCOD9188042 Si02
#       6
#     8   8   8   8   2   8
#     4  10  19  36  54  79 117 158 196 241 296 342
#     4  10  19  36  54  79 117 158 196 241 296 342
#     4   8  17  31  50  75 113 157 207 250 280 330
#     4  11  20  30  49  82 116 160 207 241 282 345
#     4  12  22  44  68  96 116 140 194 242 304 358
#     4  11  22  40  66  92 115 147 186 240 296 357
#
# _framework density 26.321994
#
# number of rings (size 3 to 8) (size 9 to 14) (size 15 to 20)
#    0.000    1.905    1.905    4.286    0.000    0.000 
#    0.000    9.524    0.000    2.286    0.000    4.000 
#    0.000    0.000    0.000    0.000    0.000    0.000 
#
# Total GULP energy -117429.791396 kJ/mol
# GULP energy per Si atom -5591.894828 kJ/mol
# Density = 2.626208 g / cm^3
# Si number density = 26.321994 Si / 1000 Ang^3
#
#
#
# Elastic Constant Matrix: (Units=GPa)
#
#
# Indices 1 2 3 4 5 6 
#
# 1 142.1052 35.9809 55.9900 0.0000 -20.4613 0.0000
# 2 35.9809 151.4546 9.5529 0.0000 -14.0589 0.0000
# 3 55.9900 9.5529 94.4769 0.0000 -28.5373 0.0000
# 4 0.0000 0.0000 0.0000 27.3748 0.0000 -7.8762
# 5 -20.4613 -14.0589 -28.5373 0.0000 68.1989 0.0000
# 6 0.0000 0.0000 0.0000 -7.8762 0.0000 24.5490
#
#
#
# Elastic Compliance Matrix: (Units=1/GPa)
#
#
# Indices 1 2 3 4 5 6 
#
# 1 0.009729 -0.001944 -0.005504 0.000000 0.000215 0.000000
# 2 -0.001944 0.007127 0.000800 0.000000 0.001221 0.000000
# 3 -0.005504 0.000800 0.015243 0.000000 0.004892 0.000000
# 4 0.000000 0.000000 0.000000 0.040245 0.000000 0.012912
# 5 0.000215 0.001221 0.004892 0.000000 0.017026 0.000000
# 6 0.000000 0.000000 0.000000 0.012912 0.000000 0.044877
#
#
# Mechanical properties :
#
#
# Convention : Reuss Voigt Hill
#
# Bulk Modulus (GPa) = 53.18170 65.67603 59.42887
# Shear Modulus (GPa) = 32.50723 43.12542 37.81632
#
# Velocity S-wave (km/s) = 3.51805 4.05208 3.79447
# Velocity P-wave (km/s) = 6.06221 6.84819 6.46715
#
# Compressibility (1/GPa) = 0.01880346
#
# Stress axis : x y z
#
# Youngs Moduli (GPa) = 102.78647 140.30441 65.60261
#
# Poissons Ratio (x) = 0.27277 0.36109
# Poissons Ratio (y) = 0.19983 -0.05250
# Poissons Ratio (z) = 0.56575 -0.11228
#
# Static dielectric constant tensor:
#      x y z
#    x 1.788930 0.000000 -0.039120 
#    y 0.000000 1.983230 0.000000 
#    z -0.039120 0.000000 2.070620 
# 
# From -- ./inp_files/66700.got.cif
#   From: 2010.05.17/outbox.cif.g08.bks.cpg/sg12_34_cif.got.tgz:66700.got - 2010.06.03 13:09:07.
