data_PCOD9188634
_publ_section_title
;
Structure prediction by ZEFSAII (Michael W. Deem and Ramdas Pophale) SiO2 
 PCOD9188634
Probable space group: C 2/M
;
_chemical_formula_sum "Si O2"
_cell_formula_units_Z 50
_cell_length_a 16.891587
_cell_length_b 17.506313
_cell_length_c 13.780038
_cell_angle_alpha 90.000000
_cell_angle_beta 37.505507
_cell_angle_gamma 90.000000
_cell_volume 2480.944681
_symmetry_space_group_name_H-M "C 2/M"
_symmetry_group_IT_number 12
_symmetry_cell_setting 'monoclinic'
loop_
_space_group_symop_operation_xyz
x,y,z
-x,y,-z
-x,-y,-z
x,-y,z
1/2+x,1/2+y,z
1/2-x,1/2+y,-z
1/2-x,1/2-y,-z
1/2+x,1/2-y,z
loop_
_atom_site_type_symbol
_atom_site_label
_atom_site_fract_x
_atom_site_fract_y
_atom_site_fract_z
Si Si1 0.206325 0.136119 0.322704
Si Si2 0.049471 0.587656 0.790220
Si Si3 0.226965 0.588592 0.420730
Si Si4 0.876149 0.699234 0.865183
Si Si5 0.854184 0.299222 0.673066
Si Si6 0.124846 0.194454 0.607367
Si Si7 0.500000 0.500000 0.500000
O O1 0.348669 0.111825 0.225130
O O2 0.215598 0.216443 0.256112
O O3 0.133100 0.161287 0.492744
O O4 0.115394 0.067630 0.372950
O O5 0.016239 0.500000 0.837122
O O6 0.127293 0.594408 0.610129
O O7 0.920422 0.637663 0.901509
O O8 0.234181 0.500000 0.387317
O O9 0.193838 0.642629 0.362592
O O10 0.359061 0.623955 0.335483
O O11 0.859603 0.663588 0.773920
O O12 0.997494 0.756963 0.745370
O O13 0.750000 0.750000 0.000000
O O14 0.000000 0.280935 0.500000
O O15 0.250000 0.250000 0.500000
#
# Coordination Sequence:
#
# PCOD9188634 Si02
#       7
#     8   8   8   8   8   8   2
#     4  11  19  33  61  88 120 148 199 252 308 351
#     4  10  19  36  60  88 124 162 195 246 318 375
#     4  10  20  33  62  95 115 151 208 257 304 357
#     4  12  24  38  60  88 122 163 208 244 308 373
#     4  12  19  36  58  87 121 154 197 263 293 353
#     4  11  17  38  61  84 119 160 201 245 302 366
#     4  12  20  28  52 104 112 138 194 272 298 352
#
# _framework density 20.153614000000001
#
# number of rings (size 3 to 8) (size 9 to 14) (size 15 to 20)
#    0.000    0.960    9.600    0.000    1.120    0.960 
#    0.000    4.000    1.760    1.920    0.000    0.000 
#    0.000    0.000    0.000    0.000    0.000    0.000 
#
# Total GULP energy -139174.667744 kJ/mol
# GULP energy per Si atom -5566.986710 kJ/mol
# Density = 2.010774 g / cm^3
# Si number density = 20.153614 Si / 1000 Ang^3
#
#
#
# Elastic Constant Matrix: (Units=GPa)
#
#
# Indices 1 2 3 4 5 6 
#
# 1 92.4081 41.9951 14.3095 0.0000 -7.1035 0.0000
# 2 41.9951 141.3095 6.6032 0.0000 -13.3444 0.0000
# 3 14.3095 6.6032 27.0274 0.0000 -15.0498 0.0000
# 4 0.0000 0.0000 0.0000 13.4517 0.0000 -3.3953
# 5 -7.1035 -13.3444 -15.0498 0.0000 24.9451 0.0000
# 6 0.0000 0.0000 0.0000 -3.3953 0.0000 25.6649
#
#
#
# Elastic Compliance Matrix: (Units=1/GPa)
#
#
# Indices 1 2 3 4 5 6 
#
# 1 0.013617 -0.003962 -0.007925 0.000000 -0.003023 0.000000
# 2 -0.003962 0.008612 0.002907 0.000000 0.005233 0.000000
# 3 -0.007925 0.002907 0.060378 0.000000 0.035726 0.000000
# 4 0.000000 0.000000 0.000000 0.076908 0.000000 0.010175
# 5 -0.003023 0.005233 0.035726 0.000000 0.063580 0.000000
# 6 0.000000 0.000000 0.000000 0.010175 0.000000 0.040310
#
#
# Mechanical properties :
#
#
# Convention : Reuss Voigt Hill
#
# Bulk Modulus (GPa) = 15.46812 42.95118 29.20965
# Shear Modulus (GPa) = 16.50637 26.00150 21.25393
#
# Velocity S-wave (km/s) = 2.86497 3.59578 3.25098
# Velocity P-wave (km/s) = 4.31693 6.21271 5.34947
#
# Compressibility (1/GPa) = 0.06464908
#
# Stress axis : x y z
#
# Youngs Moduli (GPa) = 73.43862 116.11176 16.56230
#
# Poissons Ratio (x) = 0.46002 0.13125
# Poissons Ratio (y) = 0.29095 -0.04815
# Poissons Ratio (z) = 0.58198 -0.33759
#
# Static dielectric constant tensor:
#      x y z
#    x 1.832610 0.000000 0.072280 
#    y 0.000000 1.764500 0.000000 
#    z 0.072280 0.000000 1.831260 
# 
# From -- ./inp_files/226262.got.cif
#   From: 2010.05.17/outbox.cif.g08.bks.cpg/sg12_114_cif.got.tgz:226262.got - 2010.06.03 13:09:07.
