data_PCOD9188155
_publ_section_title
;
Structure prediction by ZEFSAII (Michael W. Deem and Ramdas Pophale) SiO2 
 PCOD9188155
Probable space group: C 2/M
;
_chemical_formula_sum "Si O2"
_cell_formula_units_Z 64
_cell_length_a 9.740620
_cell_length_b 30.946412
_cell_length_c 15.370789
_cell_angle_alpha 90.000000
_cell_angle_beta 133.035801
_cell_angle_gamma 90.000000
_cell_volume 3386.626611
_symmetry_space_group_name_H-M "C 2/M"
_symmetry_group_IT_number 12
_symmetry_cell_setting 'monoclinic'
loop_
_space_group_symop_operation_xyz
x,y,z
-x,y,-z
-x,-y,-z
x,-y,z
1/2+x,1/2+y,z
1/2-x,1/2+y,-z
1/2-x,1/2-y,-z
1/2+x,1/2-y,z
loop_
_atom_site_type_symbol
_atom_site_label
_atom_site_fract_x
_atom_site_fract_y
_atom_site_fract_z
Si Si1 0.539344 0.448601 0.617161
Si Si2 0.666113 0.150532 0.882727
Si Si3 0.717528 0.951929 0.619621
Si Si4 0.476642 0.758211 0.766421
Si Si5 0.881066 0.600007 0.862934
Si Si6 0.754755 0.863051 0.726654
Si Si7 0.574013 0.776271 0.624224
Si Si8 0.146473 0.829781 0.858594
O O1 0.500000 0.433232 0.500000
O O2 0.577319 0.500000 0.627578
O O3 0.352482 0.442895 0.595322
O O4 0.712477 0.427309 0.746130
O O5 0.549011 0.195079 0.825357
O O6 0.526829 0.112170 0.850360
O O7 0.767251 0.142241 0.835714
O O8 0.803444 0.156436 0.022559
O O9 0.500000 0.953368 0.500000
O O10 0.732384 0.912651 0.692707
O O11 0.770693 0.000000 0.675706
O O12 0.450363 0.760934 0.651152
O O13 0.284677 0.742628 0.727707
O O14 0.634912 0.721705 0.849377
O O15 0.788492 0.644859 0.857874
O O16 0.000000 0.583131 0.000000
O O17 0.592631 0.828461 0.633032
O O18 0.936187 0.846602 0.752554
O O19 0.500000 0.761375 0.500000
#
# Coordination Sequence:
#
# PCOD9188155 Si02
#       8
#     8   8   8   8   8   8   8   8
#     4  10  22  41  64  91 119 150 195 241 288 350
#     4  10  21  34  55  84 111 147 195 238 284 341
#     4  10  21  38  62  87 115 150 188 237 287 342
#     4  10  20  34  54  76 106 147 189 236 283 330
#     4  10  21  38  58  87 121 156 191 241 295 349
#     4  10  20  35  56  80 112 146 190 231 288 345
#     4  10  20  34  50  74 109 145 184 230 281 345
#     4  10  19  36  57  78 111 149 193 242 286 337
#
# _framework density 18.897860000000001
#
# number of rings (size 3 to 8) (size 9 to 14) (size 15 to 20)
#    0.000    2.000    1.250    2.250    1.750    0.250 
#    0.000    6.250    0.000    2.250    0.000    0.000 
#    0.000    0.000    0.000    0.000    0.000    0.000 
#
# Total GULP energy -178296.951683 kJ/mol
# GULP energy per Si atom -5571.779740 kJ/mol
# Density = 1.885485 g / cm^3
# Si number density = 18.897860 Si / 1000 Ang^3
#
#
#
# Elastic Constant Matrix: (Units=GPa)
#
#
# Indices 1 2 3 4 5 6 
#
# 1 73.5860 22.3499 19.0652 0.0000 -3.1165 0.0000
# 2 22.3499 79.0376 20.6783 0.0000 -3.0746 0.0000
# 3 19.0652 20.6783 58.9642 0.0000 3.6753 0.0000
# 4 0.0000 0.0000 0.0000 12.6961 0.0000 -7.6300
# 5 -3.1165 -3.0746 3.6753 0.0000 22.7823 0.0000
# 6 0.0000 0.0000 0.0000 -7.6300 0.0000 12.3107
#
#
#
# Elastic Compliance Matrix: (Units=1/GPa)
#
#
# Indices 1 2 3 4 5 6 
#
# 1 0.015748 -0.003292 -0.004085 0.000000 0.002369 0.000000
# 2 -0.003292 0.014784 -0.004259 0.000000 0.002232 0.000000
# 3 -0.004085 -0.004259 0.020046 0.000000 -0.004368 0.000000
# 4 0.000000 0.000000 0.000000 0.125516 0.000000 0.077793
# 5 0.002369 0.002232 -0.004368 0.000000 0.045224 0.000000
# 6 0.000000 0.000000 0.000000 0.077793 0.000000 0.129445
#
#
# Mechanical properties :
#
#
# Convention : Reuss Voigt Hill
#
# Bulk Modulus (GPa) = 36.62275 37.30827 36.96551
# Shear Modulus (GPa) = 13.05009 19.52409 16.28709
#
# Velocity S-wave (km/s) = 2.63070 3.21773 2.93891
# Velocity P-wave (km/s) = 5.35246 5.79569 5.57848
#
# Compressibility (1/GPa) = 0.02730543
#
# Stress axis : x y z
#
# Youngs Moduli (GPa) = 63.49925 67.63898 49.88460
#
# Poissons Ratio (x) = 0.22269 0.20378
# Poissons Ratio (y) = 0.20906 0.21248
# Poissons Ratio (z) = 0.25940 0.28810
#
# Static dielectric constant tensor:
#      x y z
#    x 1.651450 0.000000 0.015650 
#    y 0.000000 1.663990 0.000000 
#    z 0.015650 0.000000 1.666670 
# 
# From -- ./inp_files/200940.got.cif
#   From: 2010.05.17/outbox.cif.g08.bks.cpg/sg12_101_cif.got.tgz:200940.got - 2010.06.03 13:09:07.
