data_PCOD9188336
_publ_section_title
;
Structure prediction by ZEFSAII (Michael W. Deem and Ramdas Pophale) SiO2 
 PCOD9188336
Probable space group: C 2/M
;
_chemical_formula_sum "Si O2"
_cell_formula_units_Z 56
_cell_length_a 17.817587
_cell_length_b 20.336394
_cell_length_c 11.129142
_cell_angle_alpha 90.000000
_cell_angle_beta 134.333742
_cell_angle_gamma 90.000000
_cell_volume 2884.439235
_symmetry_space_group_name_H-M "C 2/M"
_symmetry_group_IT_number 12
_symmetry_cell_setting 'monoclinic'
loop_
_space_group_symop_operation_xyz
x,y,z
-x,y,-z
-x,-y,-z
x,-y,z
1/2+x,1/2+y,z
1/2-x,1/2+y,-z
1/2-x,1/2-y,-z
1/2+x,1/2-y,z
loop_
_atom_site_type_symbol
_atom_site_label
_atom_site_fract_x
_atom_site_fract_y
_atom_site_fract_z
Si Si1 0.819521 0.808514 0.137257
Si Si2 0.488532 0.722221 0.762671
Si Si3 0.654852 0.212702 0.137562
Si Si4 0.325413 0.352560 0.717768
Si Si5 0.461932 0.923057 0.329680
Si Si6 0.789009 0.924584 0.922585
Si Si7 0.880029 0.652943 0.655352
O O1 0.939298 0.785938 0.272936
O O2 0.752286 0.820671 0.179279
O O3 0.750000 0.750000 0.000000
O O4 0.829525 0.870666 0.060913
O O5 0.433943 0.659955 0.766222
O O6 0.396395 0.772272 0.628936
O O7 0.563822 0.760423 0.944791
O O8 0.691867 0.280788 0.240521
O O9 0.620032 0.161969 0.201484
O O10 0.322246 0.402692 0.825736
O O11 0.230168 0.370379 0.522319
O O12 0.500000 0.895304 0.500000
O O13 0.336720 0.919223 0.196885
O O14 0.522417 0.887077 0.290180
O O15 0.491538 0.000000 0.357020
O O16 0.819634 0.000000 0.978701
#
# Coordination Sequence:
#
# PCOD9188336 Si02
#       7
#     8   8   8   8   8   8   8
#     4  10  19  36  59  76 105 151 189 225 283 330
#     4  10  20  33  55  78 111 146 184 229 283 328
#     4  10  20  35  56  79 110 146 182 230 287 327
#     4  11  20  34  50  81 116 142 178 237 280 331
#     4  10  20  34  51  75 107 144 179 218 274 339
#     4  11  22  36  56  83 113 146 188 235 280 338
#     4  11  21  32  54  83 111 143 185 231 279 333
#
# _framework density 19.414518999999999
#
# number of rings (size 3 to 8) (size 9 to 14) (size 15 to 20)
#    0.000    1.571    4.286    5.143    0.000    0.000 
#    0.000    4.286    0.000    3.429    0.000    0.000 
#    0.000    6.857    0.000    0.000    0.000    0.000 
#
# Total GULP energy -155970.096696 kJ/mol
# GULP energy per Si atom -5570.360596 kJ/mol
# Density = 1.937033 g / cm^3
# Si number density = 19.414519 Si / 1000 Ang^3
#
#
#
# Elastic Constant Matrix: (Units=GPa)
#
#
# Indices 1 2 3 4 5 6 
#
# 1 151.8425 22.9776 2.0206 0.0000 4.1410 0.0000
# 2 22.9776 58.9767 -4.6088 0.0000 -5.4290 0.0000
# 3 2.0206 -4.6088 25.7747 0.0000 4.4710 0.0000
# 4 0.0000 0.0000 0.0000 12.8026 0.0000 -10.1517
# 5 4.1410 -5.4290 4.4710 0.0000 17.2631 0.0000
# 6 0.0000 0.0000 0.0000 -10.1517 0.0000 26.0393
#
#
#
# Elastic Compliance Matrix: (Units=1/GPa)
#
#
# Indices 1 2 3 4 5 6 
#
# 1 0.007126 -0.003059 -0.000672 0.000000 -0.002497 0.000000
# 2 -0.003059 0.018902 0.002577 0.000000 0.006011 0.000000
# 3 -0.000672 0.002577 0.040984 0.000000 -0.009643 0.000000
# 4 0.000000 0.000000 0.000000 0.113060 0.000000 0.044077
# 5 -0.002497 0.006011 -0.009643 0.000000 0.062914 0.000000
# 6 0.000000 0.000000 0.000000 0.044077 0.000000 0.055587
#
#
# Mechanical properties :
#
#
# Convention : Reuss Voigt Hill
#
# Bulk Modulus (GPa) = 15.45499 30.81917 23.13708
# Shear Modulus (GPa) = 15.50635 25.63463 20.57049
#
# Velocity S-wave (km/s) = 2.82919 3.63765 3.25859
# Velocity P-wave (km/s) = 4.31859 5.79242 5.10893
#
# Compressibility (1/GPa) = 0.06470402
#
# Stress axis : x y z
#
# Youngs Moduli (GPa) = 140.33798 52.90392 24.39978
#
# Poissons Ratio (x) = 0.16181 0.01641
# Poissons Ratio (y) = 0.42924 -0.06288
# Poissons Ratio (z) = 0.09436 -0.13634
#
# Static dielectric constant tensor:
#      x y z
#    x 1.808460 0.000000 0.026140 
#    y 0.000000 1.703400 0.000000 
#    z 0.026140 0.000000 1.746200 
# 
# From -- ./inp_files/159293.got.cif
#   From: 2010.05.17/outbox.cif.g08.bks.cpg/sg12_80_cif.got.tgz:159293.got - 2010.06.03 13:09:07.
