data_PCOD9188225
_publ_section_title
;
Structure prediction by ZEFSAII (Michael W. Deem and Ramdas Pophale) SiO2 
 PCOD9188225
Probable space group: C 2/M
;
_chemical_formula_sum "Si O2"
_cell_formula_units_Z 64
_cell_length_a 15.083747
_cell_length_b 8.565514
_cell_length_c 27.458372
_cell_angle_alpha 90.000000
_cell_angle_beta 106.373224
_cell_angle_gamma 90.000000
_cell_volume 3403.751976
_symmetry_space_group_name_H-M "C 2/M"
_symmetry_group_IT_number 12
_symmetry_cell_setting 'monoclinic'
loop_
_space_group_symop_operation_xyz
x,y,z
-x,y,-z
-x,-y,-z
x,-y,z
1/2+x,1/2+y,z
1/2-x,1/2+y,-z
1/2-x,1/2-y,-z
1/2+x,1/2-y,z
loop_
_atom_site_type_symbol
_atom_site_label
_atom_site_fract_x
_atom_site_fract_y
_atom_site_fract_z
Si Si1 0.650258 0.688560 0.501461
Si Si2 0.040072 0.811756 0.579340
Si Si3 0.752562 0.686583 0.882413
Si Si4 0.439943 0.813737 0.309766
Si Si5 0.753668 0.688529 0.227431
Si Si6 0.060446 0.188565 0.055336
Si Si7 0.455566 0.309807 0.136369
Si Si8 0.433714 0.311981 0.750459
O O1 0.654515 0.500000 0.501567
O O2 0.750000 0.750000 0.500000
O O3 0.563403 0.736065 0.453758
O O4 0.615111 0.737407 0.550041
O O5 0.061296 0.750324 0.636003
O O6 0.040558 0.000000 0.579778
O O7 0.755323 0.500000 0.884424
O O8 0.763997 0.741580 0.828411
O O9 0.834899 0.753465 0.927520
O O10 0.650640 0.739651 0.882749
O O11 0.350611 0.758901 0.265123
O O12 0.529000 0.759264 0.293402
O O13 0.436831 0.000000 0.311021
O O14 0.754157 0.500000 0.222405
O O15 0.670162 0.729613 0.250615
O O16 0.013083 0.241895 0.098409
O O17 0.061148 0.000000 0.055467
O O18 0.000000 0.240679 0.000000
O O19 0.457718 0.500000 0.136948
O O20 0.501939 0.259663 0.194233
O O21 0.439729 0.500000 0.748069
#
# Coordination Sequence:
#
# PCOD9188225 Si02
#       8
#     8   8   8   8   8   8   8   8
#     4   9  19  37  62  87 112 149 195 235 277 333
#     4   9  20  39  58  80 116 158 190 222 279 345
#     4  11  21  34  56  82 109 138 177 227 276 327
#     4  11  23  36  54  86 119 143 186 242 278 317
#     4  10  21  37  56  78 108 146 187 224 269 331
#     4  10  21  39  60  80 107 145 185 224 272 335
#     4   9  18  34  56  80 106 141 180 217 271 336
#     4  10  19  36  58  76 106 150 185 220 274 338
#
# _framework density 18.802781
#
# number of rings (size 3 to 8) (size 9 to 14) (size 15 to 20)
#    0.000    2.125    2.500    1.500    0.000    3.750 
#    0.000    6.250    0.000    0.000    0.000    0.000 
#    0.000    0.000    0.000    0.000    0.000    0.000 
#
# Total GULP energy -178609.541544 kJ/mol
# GULP energy per Si atom -5581.548173 kJ/mol
# Density = 1.875998 g / cm^3
# Si number density = 18.802781 Si / 1000 Ang^3
#
#
#
# Elastic Constant Matrix: (Units=GPa)
#
#
# Indices 1 2 3 4 5 6 
#
# 1 90.5101 11.5235 -5.8622 0.0000 -1.3285 0.0000
# 2 11.5235 9.3612 7.7290 0.0000 0.1194 0.0000
# 3 -5.8622 7.7290 52.7391 0.0000 -3.6267 0.0000
# 4 0.0000 0.0000 0.0000 24.6234 0.0000 4.7953
# 5 -1.3285 0.1194 -3.6267 0.0000 19.7887 0.0000
# 6 0.0000 0.0000 0.0000 4.7953 0.0000 25.2606
#
#
#
# Elastic Compliance Matrix: (Units=1/GPa)
#
#
# Indices 1 2 3 4 5 6 
#
# 1 0.014115 -0.021396 0.004840 0.000000 0.001964 0.000000
# 2 -0.021396 0.154284 -0.025473 0.000000 -0.007036 0.000000
# 3 0.004840 -0.025473 0.023562 0.000000 0.004797 0.000000
# 4 0.000000 0.000000 0.000000 0.042171 0.000000 -0.008005
# 5 0.001964 -0.007036 0.004797 0.000000 0.051587 0.000000
# 6 0.000000 0.000000 0.000000 -0.008005 0.000000 0.041107
#
#
# Mechanical properties :
#
#
# Convention : Reuss Voigt Hill
#
# Bulk Modulus (GPa) = 9.26763 19.93235 14.59999
# Shear Modulus (GPa) = 11.18938 23.21588 17.20263
#
# Velocity S-wave (km/s) = 2.44210 3.51765 3.02801
# Velocity P-wave (km/s) = 3.59045 5.20790 4.47289
#
# Compressibility (1/GPa) = 0.10790240
#
# Stress axis : x y z
#
# Youngs Moduli (GPa) = 70.84722 6.48155 42.44095
#
# Poissons Ratio (x) = 0.13868 -0.20540
# Poissons Ratio (y) = 1.51586 1.08109
# Poissons Ratio (z) = -0.34287 0.16510
#
# Static dielectric constant tensor:
#      x y z
#    x 1.650010 0.000000 0.006430 
#    y 0.000000 1.643550 0.000000 
#    z 0.006430 0.000000 1.629120 
# 
# From -- ./inp_files/359982.got.cif
#   From: 2010.05.17/outbox.cif.g08.bks.cpg/sg12_180_cif.got.tgz:359982.got - 2010.06.03 13:09:07.
