data_PCOD9188433
_publ_section_title
;
Structure prediction by ZEFSAII (Michael W. Deem and Ramdas Pophale) SiO2 
 PCOD9188433
Probable space group: C 2/M
;
_chemical_formula_sum "Si O2"
_cell_formula_units_Z 56
_cell_length_a 19.581736
_cell_length_b 8.937730
_cell_length_c 28.188221
_cell_angle_alpha 90.000000
_cell_angle_beta 141.006884
_cell_angle_gamma 90.000000
_cell_volume 3104.226836
_symmetry_space_group_name_H-M "C 2/M"
_symmetry_group_IT_number 12
_symmetry_cell_setting 'monoclinic'
loop_
_space_group_symop_operation_xyz
x,y,z
-x,y,-z
-x,-y,-z
x,-y,z
1/2+x,1/2+y,z
1/2-x,1/2+y,-z
1/2-x,1/2-y,-z
1/2+x,1/2-y,z
loop_
_atom_site_type_symbol
_atom_site_label
_atom_site_fract_x
_atom_site_fract_y
_atom_site_fract_z
Si Si1 0.736237 0.680384 0.139926
Si Si2 0.826865 0.180945 0.001437
Si Si3 0.364311 0.176476 0.549478
Si Si4 0.922611 0.179990 0.860403
Si Si5 0.919941 0.178773 0.300761
Si Si6 0.381460 0.672926 0.459454
Si Si7 0.741884 0.679123 0.700500
O O1 0.747594 0.500000 0.148621
O O2 0.638211 0.722281 0.123146
O O3 0.844350 0.756880 0.218432
O O4 0.711036 0.721384 0.072245
O O5 0.952623 0.228685 0.074547
O O6 0.823306 0.000000 0.003003
O O7 0.750000 0.250000 0.000000
O O8 0.250000 0.250000 0.500000
O O9 0.462580 0.247579 0.632442
O O10 0.383610 0.220009 0.505257
O O11 0.361715 0.000000 0.555122
O O12 0.849335 0.244172 0.778535
O O13 0.921135 0.000000 0.857552
O O14 0.854291 0.214995 0.314009
O O15 0.929155 0.000000 0.302455
O O16 0.500000 0.671261 0.500000
O O17 0.358326 0.500000 0.461789
O O18 0.296402 0.719187 0.372879
O O19 0.755497 0.500000 0.709069
#
# Coordination Sequence:
#
# PCOD9188433 Si02
#       7
#     8   8   8   8   8   8   8
#     4   9  18  35  59  84 107 141 188 234 277 327
#     4  10  21  37  56  80 113 149 182 223 280 337
#     4  12  25  40  58  83 115 153 196 238 284 337
#     4   9  18  34  57  82 109 142 186 233 273 321
#     4  10  19  36  59  85 115 147 185 232 286 337
#     4  10  19  37  61  84 115 153 189 232 286 336
#     4   9  18  33  57  86 114 145 182 229 284 332
#
# _framework density 18.039919000000001
#
# number of rings (size 3 to 8) (size 9 to 14) (size 15 to 20)
#    0.000    2.143    1.429    2.143    0.000    4.286 
#    2.571    0.000    0.000    4.286    0.000    0.000 
#    0.000    0.000    0.000    0.000    0.000    0.000 
#
# Total GULP energy -156287.879576 kJ/mol
# GULP energy per Si atom -5581.709985 kJ/mol
# Density = 1.799886 g / cm^3
# Si number density = 18.039919 Si / 1000 Ang^3
#
#
#
# Elastic Constant Matrix: (Units=GPa)
#
#
# Indices 1 2 3 4 5 6 
#
# 1 75.3683 31.3267 74.8769 0.0000 16.4134 0.0000
# 2 31.3267 45.4349 53.8447 0.0000 12.4440 0.0000
# 3 74.8769 53.8447 174.4113 0.0000 19.4586 0.0000
# 4 0.0000 0.0000 0.0000 32.3184 0.0000 0.5106
# 5 16.4134 12.4440 19.4586 0.0000 28.0332 0.0000
# 6 0.0000 0.0000 0.0000 0.5106 0.0000 27.1850
#
#
#
# Elastic Compliance Matrix: (Units=1/GPa)
#
#
# Indices 1 2 3 4 5 6 
#
# 1 0.025448 -0.005803 -0.008410 0.000000 -0.006486 0.000000
# 2 -0.005803 0.038075 -0.008408 0.000000 -0.007668 0.000000
# 3 -0.008410 -0.008408 0.011895 0.000000 0.000399 0.000000
# 4 0.000000 0.000000 0.000000 0.030951 0.000000 -0.000581
# 5 -0.006486 -0.007668 0.000399 0.000000 0.042596 0.000000
# 6 0.000000 0.000000 0.000000 -0.000581 0.000000 0.036796
#
#
# Mechanical properties :
#
#
# Convention : Reuss Voigt Hill
#
# Bulk Modulus (GPa) = 33.13843 68.36793 50.75318
# Shear Modulus (GPa) = 20.74166 26.51840 23.63003
#
# Velocity S-wave (km/s) = 3.39450 3.83820 3.62314
# Velocity P-wave (km/s) = 5.81144 7.59096 6.76001
#
# Compressibility (1/GPa) = 0.03017644
#
# Stress axis : x y z
#
# Youngs Moduli (GPa) = 39.29626 26.26418 84.06777
#
# Poissons Ratio (x) = 0.15241 0.70700
# Poissons Ratio (y) = 0.22803 0.70683
# Poissons Ratio (z) = 0.33048 0.22082
#
# Static dielectric constant tensor:
#      x y z
#    x 5.870490 0.000000 0.113460 
#    y 0.000000 1.606690 0.000000 
#    z 0.113460 0.000000 1.609240 
# 
# From -- ./inp_files/363227.got.cif
#   From: 2010.05.17/outbox.cif.g08.bks.cpg/sg12_182_cif.got.tgz:363227.got - 2010.06.03 13:09:07.
