data_PCOD9188654
_publ_section_title
;
Structure prediction by ZEFSAII (Michael W. Deem and Ramdas Pophale) SiO2 
 PCOD9188654
Probable space group: C 2/M
;
_chemical_formula_sum "Si O2"
_cell_formula_units_Z 40
_cell_length_a 14.860009
_cell_length_b 13.697682
_cell_length_c 18.522911
_cell_angle_alpha 90.000000
_cell_angle_beta 23.355175
_cell_angle_gamma 90.000000
_cell_volume 1494.657384
_symmetry_space_group_name_H-M "C 2/M"
_symmetry_group_IT_number 12
_symmetry_cell_setting 'monoclinic'
loop_
_space_group_symop_operation_xyz
x,y,z
-x,y,-z
-x,-y,-z
x,-y,z
1/2+x,1/2+y,z
1/2-x,1/2+y,-z
1/2-x,1/2-y,-z
1/2+x,1/2-y,z
loop_
_atom_site_type_symbol
_atom_site_label
_atom_site_fract_x
_atom_site_fract_y
_atom_site_fract_z
Si Si1 0.522497 0.383365 0.192286
Si Si2 0.279098 0.384054 0.510862
Si Si3 0.499066 0.109636 0.087624
Si Si4 0.241049 0.615823 0.123502
Si Si5 0.878014 0.745405 0.655615
O O1 0.503318 0.500000 0.200008
O O2 0.753311 0.362317 0.066607
O O3 0.577545 0.352154 0.070340
O O4 0.322068 0.355352 0.394591
O O5 0.333037 0.500000 0.478209
O O6 0.012905 0.371232 0.722768
O O7 0.452688 0.319947 0.428235
O O8 0.301987 0.183605 0.250315
O O9 0.451091 0.000000 0.149938
O O10 0.500000 0.106587 0.000000
O O11 0.266698 0.500000 0.119314
O O12 0.235028 0.676615 0.201279
O O13 0.000000 0.689482 0.500000
#
# Coordination Sequence:
#
# PCOD9188654 Si02
#       5
#     8   8   8   8   8
#     4   9  18  37  64  89 114 153 196 241 307 360
#     4  10  20  38  63  90 119 149 191 251 308 359
#     4  10  19  36  60  90 125 149 179 239 311 368
#     4  10  23  42  60  83 119 162 209 250 283 341
#     4  12  24  37  57  89 123 157 201 243 298 356
#
# _framework density 26.761986
#
# number of rings (size 3 to 8) (size 9 to 14) (size 15 to 20)
#    0.000    1.800    2.000    2.400    0.000    4.400 
#    3.600    0.000    0.000    0.600    0.000    0.000 
#    0.000    0.000    0.000    0.000    0.000    0.000 
#
# Total GULP energy -112187.818671 kJ/mol
# GULP energy per Si atom -5609.390934 kJ/mol
# Density = 2.670107 g / cm^3
# Si number density = 26.761986 Si / 1000 Ang^3
#
#
#
# Elastic Constant Matrix: (Units=GPa)
#
#
# Indices 1 2 3 4 5 6 
#
# 1 113.7031 21.4303 37.4724 0.0021 11.8871 0.0009
# 2 21.4303 111.4122 20.5316 -0.0311 -9.5211 0.0070
# 3 37.4724 20.5316 144.6619 -0.0797 39.0908 0.0164
# 4 0.0021 -0.0311 -0.0797 23.1567 0.0390 6.5106
# 5 11.8871 -9.5211 39.0908 0.0390 57.2512 -0.0070
# 6 0.0009 0.0070 0.0164 6.5106 -0.0070 32.8130
#
#
#
# Elastic Compliance Matrix: (Units=1/GPa)
#
#
# Indices 1 2 3 4 5 6 
#
# 1 0.009877 -0.001590 -0.002094 -0.000010 -0.000886 0.000003
# 2 -0.001590 0.009905 -0.001874 0.000002 0.003257 -0.000001
# 3 -0.002094 -0.001874 0.009427 0.000045 -0.006314 -0.000014
# 4 -0.000010 0.000002 0.000045 0.045736 -0.000061 -0.009075
# 5 -0.000886 0.003257 -0.006314 -0.000061 0.022504 0.000019
# 6 0.000003 -0.000001 -0.000014 -0.009075 0.000019 0.032276
#
#
# Mechanical properties :
#
#
# Convention : Reuss Voigt Hill
#
# Bulk Modulus (GPa) = 55.26545 58.73843 57.00194
# Shear Modulus (GPa) = 34.04349 42.00038 38.02193
#
# Velocity S-wave (km/s) = 3.57050 3.96587 3.77337
# Velocity P-wave (km/s) = 6.13950 6.55492 6.35061
#
# Compressibility (1/GPa) = 0.01809449
#
# Stress axis : x y z
#
# Youngs Moduli (GPa) = 101.24525 100.95730 106.07705
#
# Poissons Ratio (x) = 0.16050 0.22207
# Poissons Ratio (y) = 0.16095 0.19880
# Poissons Ratio (z) = 0.21196 0.18921
#
# Static dielectric constant tensor:
#      x y z
#    x 2.084780 0.000000 0.032170 
#    y 0.000000 2.047930 0.000020 
#    z 0.032170 0.000020 2.101100 
# 
# From -- ./inp_files/59068.got.cif
#   From: 2010.05.17/outbox.cif.g08.bks.cpg/sg12_30_cif.got.tgz:59068.got - 2010.06.03 13:09:07.
