data_PCOD9188601
_publ_section_title
;
Structure prediction by ZEFSAII (Michael W. Deem and Ramdas Pophale) SiO2 
 PCOD9188601
Probable space group: C 2/M
;
_chemical_formula_sum "Si O2"
_cell_formula_units_Z 64
_cell_length_a 29.813427
_cell_length_b 17.361069
_cell_length_c 11.487117
_cell_angle_alpha 90.000000
_cell_angle_beta 32.439720
_cell_angle_gamma 90.000000
_cell_volume 3189.318458
_symmetry_space_group_name_H-M "C 2/M"
_symmetry_group_IT_number 12
_symmetry_cell_setting 'monoclinic'
loop_
_space_group_symop_operation_xyz
x,y,z
-x,y,-z
-x,-y,-z
x,-y,z
1/2+x,1/2+y,z
1/2-x,1/2+y,-z
1/2-x,1/2-y,-z
1/2+x,1/2-y,z
loop_
_atom_site_type_symbol
_atom_site_label
_atom_site_fract_x
_atom_site_fract_y
_atom_site_fract_z
Si Si1 0.992608 0.642401 0.211754
Si Si2 0.897466 0.776298 0.984650
Si Si3 0.575324 0.590399 0.245675
Si Si4 0.079208 0.410391 0.399988
Si Si5 0.869236 0.726913 0.308857
Si Si6 0.232362 0.092204 0.067912
Si Si7 0.168689 0.585214 0.736437
Si Si8 0.761513 0.823893 0.715523
O O1 0.940098 0.595895 0.420688
O O2 0.938829 0.680085 0.227594
O O3 0.032194 0.713151 0.196656
O O4 0.071218 0.596264 0.986005
O O5 0.921387 0.856300 0.875104
O O6 0.892131 0.769672 0.137727
O O7 0.811687 0.740647 0.121179
O O8 0.500000 0.610963 0.500000
O O9 0.565034 0.500000 0.239888
O O10 0.664089 0.600929 0.116509
O O11 0.083475 0.500000 0.357238
O O12 0.000000 0.378379 0.500000
O O13 0.172849 0.381223 0.170044
O O14 0.809908 0.656451 0.395516
O O15 0.830856 0.786603 0.482080
O O16 0.206535 0.145103 0.232772
O O17 0.233245 0.000000 0.093750
O O18 0.182949 0.500000 0.659209
O O19 0.219905 0.603330 0.740690
#
# Coordination Sequence:
#
# PCOD9188601 Si02
#       8
#     8   8   8   8   8   8   8   8
#     4  10  21  35  58  90 124 157 199 245 306 372
#     4  10  21  39  62  85 120 159 197 248 304 363
#     4  10  24  44  63  86 116 156 208 264 311 356
#     4  10  20  36  59  92 132 164 196 244 303 378
#     4  10  22  39  57  90 127 158 201 252 297 366
#     4  10  22  40  61  89 122 158 205 253 304 367
#     4  10  19  36  60  86 121 163 201 240 302 373
#     4  10  21  38  59  88 123 159 201 249 300 364
#
# _framework density 20.066983
#
# number of rings (size 3 to 8) (size 9 to 14) (size 15 to 20)
#    0.000    2.250    0.000    5.250    3.500    4.500 
#    0.000    3.125    0.000    1.500    0.000    0.000 
#    0.000    0.000    0.000    0.000    0.000    0.000 
#
# Total GULP energy -178387.995301 kJ/mol
# GULP energy per Si atom -5574.624853 kJ/mol
# Density = 2.002131 g / cm^3
# Si number density = 20.066983 Si / 1000 Ang^3
#
#
#
# Elastic Constant Matrix: (Units=GPa)
#
#
# Indices 1 2 3 4 5 6 
#
# 1 48.6573 18.2366 8.9934 0.0000 4.2021 0.0000
# 2 18.2366 47.3539 16.4655 0.0000 11.5492 0.0000
# 3 8.9934 16.4655 40.1919 0.0000 1.1258 0.0000
# 4 0.0000 0.0000 0.0000 18.9402 0.0000 13.6151
# 5 4.2021 11.5492 1.1258 0.0000 25.7640 0.0000
# 6 0.0000 0.0000 0.0000 13.6151 0.0000 9.7980
#
#
#
# Elastic Compliance Matrix: (Units=1/GPa)
#
#
# Indices 1 2 3 4 5 6 
#
# 1 0.024137 -0.008656 -0.001855 0.000000 0.000025 0.000000
# 2 -0.008656 0.031014 -0.010431 0.000000 -0.012035 0.000000
# 3 -0.001855 -0.010431 0.029466 0.000000 0.003691 0.000000
# 4 0.000000 0.000000 0.000000 48.035981 0.000000-66.750130
# 5 0.000025 -0.012035 0.003691 0.000000 0.044043 0.000000
# 6 0.000000 0.000000 0.000000-66.750130 0.000000 92.857114
#
#
# Mechanical properties :
#
#
# Convention : Reuss Voigt Hill
#
# Bulk Modulus (GPa) = 23.40260 24.84379 24.12320
# Shear Modulus (GPa) = 0.03544 17.06760 8.55152
#
# Velocity S-wave (km/s) = 0.13304 2.91955 2.06658
# Velocity P-wave (km/s) = 3.42216 4.87569 4.21210
#
# Compressibility (1/GPa) = 0.04273029
#
# Stress axis : x y z
#
# Youngs Moduli (GPa) = 41.42998 32.24398 33.93763
#
# Poissons Ratio (x) = 0.27912 0.06297
# Poissons Ratio (y) = 0.35864 0.35401
# Poissons Ratio (z) = 0.07687 0.33635
#
# Static dielectric constant tensor:
#      x y z
#    x 1.777340 0.000000 -0.061140 
#    y 0.000000 1.698740 0.000000 
#    z -0.061140 0.000000 1.768460 
# 
# From -- ./inp_files/190025.got.cif
#   From: 2010.05.17/outbox.cif.g08.bks.cpg/sg12_96_cif.got.tgz:190025.got - 2010.06.03 13:09:07.
