data_PCOD9188342
_publ_section_title
;
Structure prediction by ZEFSAII (Michael W. Deem and Ramdas Pophale) SiO2 
 PCOD9188342
Probable space group: C 2/M
;
_chemical_formula_sum "Si O2"
_cell_formula_units_Z 52
_cell_length_a 16.541030
_cell_length_b 17.367222
_cell_length_c 19.780026
_cell_angle_alpha 90.000000
_cell_angle_beta 151.905655
_cell_angle_gamma 90.000000
_cell_volume 2675.908990
_symmetry_space_group_name_H-M "C 2/M"
_symmetry_group_IT_number 12
_symmetry_cell_setting 'monoclinic'
loop_
_space_group_symop_operation_xyz
x,y,z
-x,y,-z
-x,-y,-z
x,-y,z
1/2+x,1/2+y,z
1/2-x,1/2+y,-z
1/2-x,1/2-y,-z
1/2+x,1/2-y,z
loop_
_atom_site_type_symbol
_atom_site_label
_atom_site_fract_x
_atom_site_fract_y
_atom_site_fract_z
Si Si1 0.129529 0.915167 0.812904
Si Si2 0.243885 0.913101 0.413690
Si Si3 0.412651 0.770098 0.499166
Si Si4 0.155858 0.744476 0.791888
Si Si5 0.368316 0.155724 0.649956
Si Si6 0.000000 0.292423 0.000000
Si Si7 0.028376 0.586285 0.134511
O O1 0.116293 0.836118 0.761905
O O2 0.963315 0.911884 0.738063
O O3 0.119284 0.000000 0.771086
O O4 0.319576 0.910946 0.985201
O O5 0.315318 0.850022 0.414748
O O6 0.308391 0.887365 0.537065
O O7 0.301090 0.000000 0.443083
O O8 0.500000 0.730755 0.500000
O O9 0.572378 0.790397 0.664006
O O10 0.278305 0.717398 0.439791
O O11 0.047327 0.702245 0.769921
O O12 0.359488 0.742069 0.935554
O O13 0.393738 0.103630 0.734765
O O14 0.076936 0.349982 0.114093
O O15 0.074534 0.500000 0.145754
#
# Coordination Sequence:
#
# PCOD9188342 Si02
#       7
#     8   8   8   8   8   4   8
#     4   9  17  32  54  76 104 138 177 215 252 310
#     4  10  19  36  59  78 102 142 184 219 261 315
#     4  11  21  35  54  81 113 137 173 226 270 314
#     4  10  19  37  53  80 108 142 179 217 266 315
#     4  11  20  36  58  81 107 139 179 223 265 315
#     4  10  21  34  56  78 111 146 172 216 265 322
#     4  10  21  35  53  80 110 143 178 216 262 316
#
# _framework density 19.432649000000001
#
# number of rings (size 3 to 8) (size 9 to 14) (size 15 to 20)
#    0.000    1.846    3.077    2.538    0.000    3.385 
#    2.769    0.000    0.000    2.308    0.000    2.692 
#    0.000    0.000    0.000    0.000    0.000    0.000 
#
# Total GULP energy -144738.852827 kJ/mol
# GULP energy per Si atom -5566.878955 kJ/mol
# Density = 1.938842 g / cm^3
# Si number density = 19.432649 Si / 1000 Ang^3
#
#
#
# Elastic Constant Matrix: (Units=GPa)
#
#
# Indices 1 2 3 4 5 6 
#
# 1 50.3095 -5.7370 3.3611 0.0023 11.6420 0.0010
# 2 -5.7370 45.8410 1.1439 0.0093 20.3912 0.0024
# 3 3.3611 1.1439 26.0729 0.0105 9.5325 0.0019
# 4 0.0023 0.0093 0.0105 12.2252 0.0009 -5.1649
# 5 11.6420 20.3912 9.5325 0.0009 26.9108 0.0003
# 6 0.0010 0.0024 0.0019 -5.1649 0.0003 7.1423
#
#
#
# Elastic Compliance Matrix: (Units=1/GPa)
#
#
# Indices 1 2 3 4 5 6 
#
# 1 0.026546 0.013626 0.004542 -0.000031 -0.023418 -0.000031
# 2 0.013626 0.041763 0.011644 -0.000070 -0.041664 -0.000068
# 3 0.004542 0.011644 0.047332 -0.000079 -0.027554 -0.000073
# 4 -0.000031 -0.000070 -0.000079 0.117782 0.000090 0.085172
# 5 -0.023418 -0.041664 -0.027554 0.000090 0.088622 0.000086
# 6 -0.000031 -0.000068 -0.000073 0.085172 0.000086 0.201601
#
#
# Mechanical properties :
#
#
# Convention : Reuss Voigt Hill
#
# Bulk Modulus (GPa) = 5.70566 13.30659 9.50613
# Shear Modulus (GPa) = 9.57041 17.48602 13.52821
#
# Velocity S-wave (km/s) = 2.22162 3.00297 2.64134
# Velocity P-wave (km/s) = 3.08598 4.34582 3.76892
#
# Compressibility (1/GPa) = 0.17526451
#
# Stress axis : x y z
#
# Youngs Moduli (GPa) = 37.66982 23.94487 21.12750
#
# Poissons Ratio (x) = -0.32627 -0.09596
# Poissons Ratio (y) = -0.51328 -0.24601
# Poissons Ratio (z) = -0.17109 -0.27882
#
# Static dielectric constant tensor:
#      x y z
#    x 1.725800 0.000000 0.011110 
#    y 0.000000 1.701810 0.000000 
#    z 0.011110 0.000000 1.708470 
# 
# From -- ./inp_files/105837.got.cif
#   From: 2010.05.17/outbox.cif.g08.bks.cpg/sg12_53_cif.got.tgz:105837.got - 2010.06.03 13:09:07.
