data_PCOD9188794
_publ_section_title
;
Structure prediction by ZEFSAII (Michael W. Deem and Ramdas Pophale) SiO2 
 PCOD9188794
Probable space group: C 2/M
;
_chemical_formula_sum "Si O2"
_cell_formula_units_Z 64
_cell_length_a 23.287104
_cell_length_b 19.549427
_cell_length_c 8.950604
_cell_angle_alpha 90.000000
_cell_angle_beta 137.172034
_cell_angle_gamma 90.000000
_cell_volume 2770.018103
_symmetry_space_group_name_H-M "C 2/M"
_symmetry_group_IT_number 12
_symmetry_cell_setting 'monoclinic'
loop_
_space_group_symop_operation_xyz
x,y,z
-x,y,-z
-x,-y,-z
x,-y,z
1/2+x,1/2+y,z
1/2-x,1/2+y,-z
1/2-x,1/2-y,-z
1/2+x,1/2-y,z
loop_
_atom_site_type_symbol
_atom_site_label
_atom_site_fract_x
_atom_site_fract_y
_atom_site_fract_z
Si Si1 0.876750 0.676477 0.554399
Si Si2 0.862231 0.825245 0.616896
Si Si3 0.924669 0.111225 0.452654
Si Si4 0.814597 0.338298 0.897343
Si Si5 0.283170 0.418230 0.707396
Si Si6 0.972391 0.576541 0.117871
Si Si7 0.597725 0.760426 0.705918
Si Si8 0.764647 0.928064 0.014867
O O1 0.884954 0.744380 0.675320
O O2 0.805216 0.623680 0.471980
O O3 0.856393 0.709376 0.353796
O O4 0.960592 0.631258 0.692721
O O5 0.928684 0.861798 0.630307
O O6 0.769280 0.825046 0.357746
O O7 0.848143 0.873597 0.733000
O O8 0.902560 0.179960 0.319783
O O9 0.841801 0.067176 0.276786
O O10 0.000000 0.080262 0.500000
O O11 0.791636 0.372801 0.012132
O O12 0.879743 0.390588 0.947366
O O13 0.865466 0.274075 0.059718
O O14 0.278472 0.500000 0.656574
O O15 0.299767 0.415889 0.916665
O O16 0.975102 0.500000 0.190488
O O17 0.000000 0.570387 0.000000
O O18 0.500000 0.782296 0.500000
O O19 0.716707 0.000000 0.914146
#
# Coordination Sequence:
#
# PCOD9188794 Si02
#       8
#     8   8   8   8   8   8   8   8
#     4  11  21  39  60  89 125 166 211 254 307 376
#     4  10  24  39  64  93 122 164 211 256 315 374
#     4   9  21  40  64  89 117 156 197 258 310 366
#     4  11  21  39  65  92 123 165 205 257 300 368
#     4  11  23  40  59  87 128 164 203 262 314 368
#     4  11  24  40  60  91 133 175 212 254 309 374
#     4  10  19  36  61  91 123 151 201 252 307 360
#     4  10  22  38  61  92 122 160 206 249 309 372
#
# _framework density 23.104543
#
# number of rings (size 3 to 8) (size 9 to 14) (size 15 to 20)
#    0.000    1.625    2.500    1.875    1.750    5.250 
#    0.000    1.250    0.000    1.500    0.000    0.000 
#    0.000    0.000    0.000    0.000    0.000    0.000 
#
# Total GULP energy -178383.026937 kJ/mol
# GULP energy per Si atom -5574.469592 kJ/mol
# Density = 2.305196 g / cm^3
# Si number density = 23.104543 Si / 1000 Ang^3
#
#
#
# Elastic Constant Matrix: (Units=GPa)
#
#
# Indices 1 2 3 4 5 6 
#
# 1 76.0478 26.7253 -11.5863 0.0000 8.1483 0.0000
# 2 26.7253 134.4558 11.0047 0.0000 -7.5308 0.0000
# 3 -11.5863 11.0047 18.0711 0.0000 -7.3113 0.0000
# 4 0.0000 0.0000 0.0000 21.7953 0.0000 -2.7644
# 5 8.1483 -7.5308 -7.3113 0.0000 25.6834 0.0000
# 6 0.0000 0.0000 0.0000 -2.7644 0.0000 14.6125
#
#
#
# Elastic Compliance Matrix: (Units=1/GPa)
#
#
# Indices 1 2 3 4 5 6 
#
# 1 0.016984 -0.004568 0.012374 0.000000 -0.003205 0.000000
# 2 -0.004568 0.009082 -0.007680 0.000000 0.001926 0.000000
# 3 0.012374 -0.007680 0.073967 0.000000 0.014879 0.000000
# 4 0.000000 0.000000 0.000000 0.047010 0.000000 0.008893
# 5 -0.003205 0.001926 0.014879 0.000000 0.044753 0.000000
# 6 0.000000 0.000000 0.000000 0.008893 0.000000 0.070117
#
#
# Mechanical properties :
#
#
# Convention : Reuss Voigt Hill
#
# Bulk Modulus (GPa) = 9.97162 31.20690 20.58926
# Shear Modulus (GPa) = 16.94408 25.91364 21.42886
#
# Velocity S-wave (km/s) = 2.71101 3.35264 3.04875
# Velocity P-wave (km/s) = 3.75828 5.34070 4.61778
#
# Compressibility (1/GPa) = 0.10028465
#
# Stress axis : x y z
#
# Youngs Moduli (GPa) = 58.88012 110.10992 13.51948
#
# Poissons Ratio (x) = 0.50299 -0.16729
# Poissons Ratio (y) = 0.26897 0.10383
# Poissons Ratio (z) = -0.72859 0.84567
#
# Static dielectric constant tensor:
#      x y z
#    x 1.947750 0.000000 0.011950 
#    y 0.000000 2.013940 0.000000 
#    z 0.011950 0.000000 1.895450 
# 
# From -- ./inp_files/99118.got.cif
#   From: 2010.05.17/outbox.cif.g08.bks.cpg/sg12_50_cif.got.tgz:99118.got - 2010.06.03 13:09:07.
