data_PCOD9188520
_publ_section_title
;
Structure prediction by ZEFSAII (Michael W. Deem and Ramdas Pophale) SiO2 
 PCOD9188520
Probable space group: C 2/M
;
_chemical_formula_sum "Si O2"
_cell_formula_units_Z 48
_cell_length_a 20.273294
_cell_length_b 8.811727
_cell_length_c 21.565230
_cell_angle_alpha 90.000000
_cell_angle_beta 40.540481
_cell_angle_gamma 90.000000
_cell_volume 2504.049270
_symmetry_space_group_name_H-M "C 2/M"
_symmetry_group_IT_number 12
_symmetry_cell_setting 'monoclinic'
loop_
_space_group_symop_operation_xyz
x,y,z
-x,y,-z
-x,-y,-z
x,-y,z
1/2+x,1/2+y,z
1/2-x,1/2+y,-z
1/2-x,1/2-y,-z
1/2+x,1/2-y,z
loop_
_atom_site_type_symbol
_atom_site_label
_atom_site_fract_x
_atom_site_fract_y
_atom_site_fract_z
Si Si1 0.848306 0.318036 0.118514
Si Si2 0.220459 0.182479 0.410981
Si Si3 0.457960 0.817186 0.249230
Si Si4 0.956307 0.319171 0.390453
Si Si5 0.973605 0.818936 0.923994
Si Si6 0.361092 0.681792 0.665763
O O1 0.861734 0.500000 0.108532
O O2 0.927084 0.248279 0.111959
O O3 0.734695 0.284162 0.221568
O O4 0.880070 0.248797 0.029949
O O5 0.338804 0.223428 0.326979
O O6 0.153180 0.254214 0.512908
O O7 0.170801 0.228013 0.380752
O O8 0.215196 0.000000 0.419518
O O9 0.486718 0.774841 0.298776
O O10 0.520633 0.736460 0.150613
O O11 0.466387 0.000000 0.235785
O O12 0.951330 0.500000 0.395984
O O13 0.038652 0.258625 0.379986
O O14 0.974193 0.000000 0.927929
O O15 0.376250 0.500000 0.654281
#
# Coordination Sequence:
#
# PCOD9188520 Si02
#       6
#     8   8   8   8   8   8
#     4  10  19  36  60  83 112 151 189 225 275 339
#     4  10  20  38  61  81 107 149 199 235 269 334
#     4  10  21  40  59  80 113 154 193 226 278 341
#     4  11  24  37  55  84 118 150 184 236 288 332
#     4  11  21  33  56  90 117 140 181 239 287 324
#     4  10  21  38  60  83 110 152 193 227 273 335
#
# _framework density 19.168952000000001
#
# number of rings (size 3 to 8) (size 9 to 14) (size 15 to 20)
#    0.000    1.667    1.667    4.500    0.000    6.000 
#    0.000    0.833    0.000    0.000    0.000    0.000 
#    0.000    0.000    0.000    0.000    0.000    0.000 
#
# Total GULP energy -134125.627246 kJ/mol
# GULP energy per Si atom -5588.567802 kJ/mol
# Density = 1.912532 g / cm^3
# Si number density = 19.168952 Si / 1000 Ang^3
#
#
#
# Elastic Constant Matrix: (Units=GPa)
#
#
# Indices 1 2 3 4 5 6 
#
# 1 41.5129 3.6839 -10.9565 0.0000 8.5001 0.0000
# 2 3.6839 43.9363 24.2323 0.0000 1.5685 -0.0001
# 3 -10.9565 24.2323 79.3979 0.0000 12.6417 0.0000
# 4 0.0000 0.0000 0.0000 22.2293 0.0000 20.3894
# 5 8.5001 1.5685 12.6417 0.0000 23.9753 0.0000
# 6 0.0000 -0.0001 0.0000 20.3894 0.0000 -7.9886
#
#
#
# Elastic Compliance Matrix: (Units=1/GPa)
#
#
# Indices 1 2 3 4 5 6 
#
# 1 0.029925 -0.006674 0.008500 0.000000 -0.014655 0.000000
# 2 -0.006674 0.029035 -0.010760 0.000000 0.006140 0.000000
# 3 0.008500 -0.010760 0.019016 0.000000 -0.012336 0.000000
# 4 0.000000 0.000000 0.000000 0.013464 0.000000 0.034366
# 5 -0.014655 0.006140 -0.012336 0.000000 0.053008 0.000000
# 6 0.000000 0.000000 0.000000 0.034366 0.000000 -0.037467
#
#
# Mechanical properties :
#
#
# Convention : Reuss Voigt Hill
#
# Bulk Modulus (GPa) = 16.63684 22.08517 19.36100
# Shear Modulus (GPa) = 34.50976 17.50237 26.00606
#
# Velocity S-wave (km/s) = 4.24759 3.02496 3.68730
# Velocity P-wave (km/s) = 5.72311 4.87308 5.31511
#
# Compressibility (1/GPa) = 0.06010758
#
# Stress axis : x y z
#
# Youngs Moduli (GPa) = 33.41677 34.44098 52.58760
#
# Poissons Ratio (x) = 0.22985 -0.44698
# Poissons Ratio (y) = 0.22302 0.56585
# Poissons Ratio (z) = -0.28403 0.37059
#
# Static dielectric constant tensor:
#      x y z
#    x 1.655390 0.000000 0.019860 
#    y 0.000000 1.638230 0.000000 
#    z 0.019860 0.000000 1.666120 
# 
# From -- ./inp_files/249362.got.cif
#   From: 2010.05.17/outbox.cif.g08.bks.cpg/sg12_125_cif.got.tgz:249362.got - 2010.06.03 13:09:07.
