data_PCOD9188875
_publ_section_title
;
Structure prediction by ZEFSAII (Michael W. Deem and Ramdas Pophale) SiO2 
 PCOD9188875
Probable space group: C 2/M
;
_chemical_formula_sum "Si O2"
_cell_formula_units_Z 48
_cell_length_a 10.590701
_cell_length_b 13.827308
_cell_length_c 15.804704
_cell_angle_alpha 90.000000
_cell_angle_beta 61.217956
_cell_angle_gamma 90.000000
_cell_volume 2028.521564
_symmetry_space_group_name_H-M "C 2/M"
_symmetry_group_IT_number 12
_symmetry_cell_setting 'monoclinic'
loop_
_space_group_symop_operation_xyz
x,y,z
-x,y,-z
-x,-y,-z
x,-y,z
1/2+x,1/2+y,z
1/2-x,1/2+y,-z
1/2-x,1/2-y,-z
1/2+x,1/2-y,z
loop_
_atom_site_type_symbol
_atom_site_label
_atom_site_fract_x
_atom_site_fract_y
_atom_site_fract_z
Si Si1 0.387023 0.105447 0.295422
Si Si2 0.448053 0.717258 0.151714
Si Si3 0.917588 0.723497 0.438146
Si Si4 0.094946 0.104340 0.305666
Si Si5 0.597829 0.500000 0.849544
Si Si6 0.240824 0.000000 0.980927
Si Si7 0.259596 0.827302 0.083781
O O1 0.428524 0.197521 0.225709
O O2 0.431880 0.128145 0.376104
O O3 0.214396 0.102979 0.341050
O O4 0.440009 0.000000 0.248582
O O5 0.392804 0.608495 0.193730
O O6 0.361848 0.751402 0.097098
O O7 0.618857 0.714509 0.083409
O O8 0.750000 0.750000 0.500000
O O9 0.000000 0.715184 0.500000
O O10 0.990695 0.809300 0.360840
O O11 0.185384 0.119902 0.190193
O O12 0.022255 0.000000 0.324744
O O13 0.429440 0.500000 0.934705
O O14 0.713790 0.500000 0.889268
O O15 0.316028 0.091577 0.001230
#
# Coordination Sequence:
#
# PCOD9188875 Si02
#       7
#     8   8   8   8   4   4   8
#     4  10  22  41  63  87 124 165 208 254 305 374
#     4  10  21  37  62  91 121 164 207 253 302 365
#     4  12  24  39  61  90 125 156 203 258 321 367
#     4  10  20  38  64  87 114 166 214 251 290 370
#     4   9  20  38  61  97 131 155 204 261 305 357
#     4   9  18  36  65  93 123 168 208 250 297 365
#     4  10  19  36  62  91 119 162 212 249 301 363
#
# _framework density 23.662555000000001
#
# number of rings (size 3 to 8) (size 9 to 14) (size 15 to 20)
#    0.000    1.833    4.167    0.000    1.167    2.000 
#    1.500    0.000    0.000    1.000    0.000    0.000 
#    0.000    0.000    0.000    0.000    0.000    0.000 
#
# Total GULP energy -134060.635338 kJ/mol
# GULP energy per Si atom -5585.859806 kJ/mol
# Density = 2.360870 g / cm^3
# Si number density = 23.662555 Si / 1000 Ang^3
#
#
#
# Elastic Constant Matrix: (Units=GPa)
#
#
# Indices 1 2 3 4 5 6 
#
# 1 128.8224 50.4327 29.8011 0.0000 33.1127 0.0000
# 2 50.4327 201.5314 48.7483 0.0000 16.9149 0.0000
# 3 29.8011 48.7483 62.1540 0.0000 30.9872 0.0000
# 4 0.0000 0.0000 0.0000 27.4411 0.0000 10.2325
# 5 33.1127 16.9149 30.9872 0.0000 45.2556 0.0000
# 6 0.0000 0.0000 0.0000 10.2325 0.0000 37.2471
#
#
#
# Elastic Compliance Matrix: (Units=1/GPa)
#
#
# Indices 1 2 3 4 5 6 
#
# 1 0.010291 -0.002013 0.000036 0.000000 -0.006802 0.000000
# 2 -0.002013 0.006587 -0.005630 0.000000 0.002866 0.000000
# 3 0.000036 -0.005630 0.029533 0.000000 -0.018144 0.000000
# 4 0.000000 0.000000 0.000000 0.040601 0.000000 -0.011154
# 5 -0.006802 0.002866 -0.018144 0.000000 0.038425 0.000000
# 6 0.000000 0.000000 0.000000 -0.011154 0.000000 0.029912
#
#
# Mechanical properties :
#
#
# Convention : Reuss Voigt Hill
#
# Bulk Modulus (GPa) = 32.05482 72.27465 52.16473
# Shear Modulus (GPa) = 27.63005 39.55713 33.59359
#
# Velocity S-wave (km/s) = 3.42083 4.09310 3.77197
# Velocity P-wave (km/s) = 5.40174 7.27655 6.40808
#
# Compressibility (1/GPa) = 0.03119656
#
# Stress axis : x y z
#
# Youngs Moduli (GPa) = 97.17491 151.81348 33.86021
#
# Poissons Ratio (x) = 0.30560 -0.00121
# Poissons Ratio (y) = 0.19561 0.19063
# Poissons Ratio (z) = -0.00347 0.85469
#
# Static dielectric constant tensor:
#      x y z
#    x 1.906770 0.000000 0.012130 
#    y 0.000000 1.957450 0.000000 
#    z 0.012130 0.000000 1.970510 
# 
# From -- ./inp_files/262137.got.cif
#   From: 2010.05.17/outbox.cif.g08.bks.cpg/sg12_132_cif.got.tgz:262137.got - 2010.06.03 13:09:07.
