data_PCOD9188266
_publ_section_title
;
Structure prediction by ZEFSAII (Michael W. Deem and Ramdas Pophale) SiO2 
 PCOD9188266
Probable space group: C 2/M
;
_chemical_formula_sum "Si O2"
_cell_formula_units_Z 56
_cell_length_a 12.737551
_cell_length_b 26.225035
_cell_length_c 8.815011
_cell_angle_alpha 90.000000
_cell_angle_beta 82.188163
_cell_angle_gamma 90.000000
_cell_volume 2917.263816
_symmetry_space_group_name_H-M "C 2/M"
_symmetry_group_IT_number 12
_symmetry_cell_setting 'monoclinic'
loop_
_space_group_symop_operation_xyz
x,y,z
-x,y,-z
-x,-y,-z
x,-y,z
1/2+x,1/2+y,z
1/2-x,1/2+y,-z
1/2-x,1/2-y,-z
1/2+x,1/2-y,z
loop_
_atom_site_type_symbol
_atom_site_label
_atom_site_fract_x
_atom_site_fract_y
_atom_site_fract_z
Si Si1 0.599767 0.382248 0.052963
Si Si2 0.931204 0.287387 0.356825
Si Si3 0.070541 0.625092 0.231892
Si Si4 0.108677 0.442781 0.631521
Si Si5 0.733230 0.854521 0.455478
Si Si6 0.816267 0.441667 0.037002
Si Si7 0.069401 0.173148 0.755575
O O1 0.699840 0.416662 0.063584
O O2 0.547469 0.351924 0.204404
O O3 0.500000 0.413249 0.000000
O O4 0.617471 0.341451 0.912447
O O5 0.816964 0.309867 0.429969
O O6 0.930967 0.232829 0.278550
O O7 0.000000 0.285455 0.500000
O O8 0.987454 0.328673 0.236401
O O9 0.168335 0.646351 0.310052
O O10 0.006074 0.583793 0.343933
O O11 0.112807 0.595790 0.078328
O O12 0.108898 0.500000 0.572236
O O13 0.196085 0.407138 0.537190
O O14 0.138249 0.443887 0.803587
O O15 0.855421 0.850203 0.388599
O O16 0.814934 0.500000 0.976913
#
# Coordination Sequence:
#
# PCOD9188266 Si02
#       7
#     8   8   8   8   8   8   8
#     4   8  20  38  57  79 112 139 199 235 257 330
#     4   9  19  32  57  83 112 147 182 225 284 333
#     4  10  19  37  57  83 112 150 187 224 270 347
#     4  10  22  35  52  86 117 140 180 234 288 331
#     4  10  19  36  58  81 114 147 187 226 270 339
#     4  11  21  38  59  81 113 150 185 233 283 326
#     4   9  18  38  55  79 111 146 188 234 269 320
#
# _framework density 19.196069000000001
#
# number of rings (size 3 to 8) (size 9 to 14) (size 15 to 20)
#    0.857    1.429    1.429    2.571    0.000    4.286 
#   10.286    2.857    0.000    1.714    0.000    0.000 
#    0.000    0.000    0.000    0.000    0.000    0.000 
#
# Total GULP energy -155938.423563 kJ/mol
# GULP energy per Si atom -5569.229413 kJ/mol
# Density = 1.915238 g / cm^3
# Si number density = 19.196069 Si / 1000 Ang^3
#
#
#
# Elastic Constant Matrix: (Units=GPa)
#
#
# Indices 1 2 3 4 5 6 
#
# 1 58.0978 23.3178 32.9372 0.0000 -24.0590 0.0000
# 2 23.3178 78.5012 24.7403 0.0000 -19.2798 0.0000
# 3 32.9372 24.7403 72.2644 0.0000 -29.9790 0.0000
# 4 0.0000 0.0000 0.0000 12.5330 0.0000 -0.7559
# 5 -24.0590 -19.2798 -29.9790 0.0000 34.0896 0.0000
# 6 0.0000 0.0000 0.0000 -0.7559 0.0000 3.9359
#
#
#
# Elastic Compliance Matrix: (Units=1/GPa)
#
#
# Indices 1 2 3 4 5 6 
#
# 1 0.026884 -0.003129 -0.006368 0.000000 0.011603 0.000000
# 2 -0.003129 0.015452 -0.001818 0.000000 0.004932 0.000000
# 3 -0.006368 -0.001818 0.023729 0.000000 0.015345 0.000000
# 4 0.000000 0.000000 0.000000 0.080724 0.000000 0.015504
# 5 0.011603 0.004932 0.015345 0.000000 0.053808 0.000000
# 6 0.000000 0.000000 0.000000 0.015504 0.000000 0.257052
#
#
# Mechanical properties :
#
#
# Convention : Reuss Voigt Hill
#
# Bulk Modulus (GPa) = 23.02304 41.20599 32.11451
# Shear Modulus (GPa) = 10.10596 18.63624 14.37110
#
# Velocity S-wave (km/s) = 2.29696 3.11920 2.73911
# Velocity P-wave (km/s) = 4.36513 5.87240 5.17394
#
# Compressibility (1/GPa) = 0.04343476
#
# Stress axis : x y z
#
# Youngs Moduli (GPa) = 37.19750 64.71513 42.14251
#
# Poissons Ratio (x) = 0.20247 0.26838
# Poissons Ratio (y) = 0.11638 0.07662
# Poissons Ratio (z) = 0.23689 0.11766
#
# Static dielectric constant tensor:
#      x y z
#    x 1.689910 0.000000 0.008010 
#    y 0.000000 1.652330 0.000000 
#    z 0.008010 0.000000 1.693380 
# 
# From -- ./inp_files/66485.got.cif
#   From: 2010.05.17/outbox.cif.g08.bks.cpg/sg12_34_cif.got.tgz:66485.got - 2010.06.03 13:09:07.
