data_PCOD9188765
_publ_section_title
;
Structure prediction by ZEFSAII (Michael W. Deem and Ramdas Pophale) SiO2 
 PCOD9188765
Probable space group: C 2/M
;
_chemical_formula_sum "Si O2"
_cell_formula_units_Z 40
_cell_length_a 28.695341
_cell_length_b 9.331147
_cell_length_c 12.510508
_cell_angle_alpha 90.000000
_cell_angle_beta 33.831137
_cell_angle_gamma 90.000000
_cell_volume 1865.002207
_symmetry_space_group_name_H-M "C 2/M"
_symmetry_group_IT_number 12
_symmetry_cell_setting 'monoclinic'
loop_
_space_group_symop_operation_xyz
x,y,z
-x,y,-z
-x,-y,-z
x,-y,z
1/2+x,1/2+y,z
1/2-x,1/2+y,-z
1/2-x,1/2-y,-z
1/2+x,1/2-y,z
loop_
_atom_site_type_symbol
_atom_site_label
_atom_site_fract_x
_atom_site_fract_y
_atom_site_fract_z
Si Si1 0.797557 0.328577 0.505239
Si Si2 0.532821 0.663445 0.774001
Si Si3 0.332520 0.166585 0.874394
Si Si4 0.071824 0.152038 0.450627
Si Si5 0.144699 0.171351 0.950777
O O1 0.800580 0.500000 0.484858
O O2 0.750000 0.250000 0.500000
O O3 0.890965 0.263901 0.335609
O O4 0.735442 0.300205 0.724924
O O5 0.545356 0.500000 0.790545
O O6 0.541635 0.658793 0.628522
O O7 0.434944 0.704998 0.975073
O O8 0.386624 0.201945 0.666455
O O9 0.364073 0.240584 0.923178
O O10 0.323370 0.000000 0.908468
O O11 0.250000 0.250000 0.000000
O O12 0.000000 0.138599 0.500000
O O13 0.121892 0.000000 0.346229
O O14 0.139437 0.000000 0.982403
#
# Coordination Sequence:
#
# PCOD9188765 Si02
#       5
#     8   8   8   8   8
#     4  11  25  44  67  92 123 158 206 264 321 379
#     4  10  21  40  67  93 125 165 209 255 308 369
#     4  12  24  36  56  87 126 167 209 256 305 365
#     4  10  19  36  61  88 123 164 203 245 297 361
#     4  10  22  43  66  90 121 165 211 255 310 379
#
# _framework density 21.447695
#
# number of rings (size 3 to 8) (size 9 to 14) (size 15 to 20)
#    0.000    1.400    2.000    3.600    0.000    7.600 
#    0.000    4.000    0.000    0.000    0.000    0.000 
#    0.000    0.000    0.000    0.000    0.000    0.000 
#
# Total GULP energy -111548.484418 kJ/mol
# GULP energy per Si atom -5577.424221 kJ/mol
# Density = 2.139888 g / cm^3
# Si number density = 21.447695 Si / 1000 Ang^3
#
#
#
# Elastic Constant Matrix: (Units=GPa)
#
#
# Indices 1 2 3 4 5 6 
#
# 1 70.5322 41.3536 13.6803 0.0000 -13.5987 0.0000
# 2 41.3536 113.0216 39.8875 0.0000 -14.8821 0.0000
# 3 13.6803 39.8875 64.7894 0.0000 -15.5073 0.0000
# 4 0.0000 0.0000 0.0000 26.7859 0.0000 -2.3454
# 5 -13.5987 -14.8821 -15.5073 0.0000 42.2888 0.0000
# 6 0.0000 0.0000 0.0000 -2.3454 0.0000 25.5028
#
#
#
# Elastic Compliance Matrix: (Units=1/GPa)
#
#
# Indices 1 2 3 4 5 6 
#
# 1 0.018668 -0.006704 0.001159 0.000000 0.004069 0.000000
# 2 -0.006704 0.013806 -0.007057 0.000000 0.000115 0.000000
# 3 0.001159 -0.007057 0.020860 0.000000 0.005539 0.000000
# 4 0.000000 0.000000 0.000000 0.037636 0.000000 0.003461
# 5 0.004069 0.000115 0.005539 0.000000 0.027027 0.000000
# 6 0.000000 0.000000 0.000000 0.003461 0.000000 0.039530
#
#
# Mechanical properties :
#
#
# Convention : Reuss Voigt Hill
#
# Bulk Modulus (GPa) = 35.54676 48.68732 42.11704
# Shear Modulus (GPa) = 26.02712 29.14362 27.58537
#
# Velocity S-wave (km/s) = 3.48734 3.69022 3.59021
# Velocity P-wave (km/s) = 5.72931 6.39584 6.07173
#
# Compressibility (1/GPa) = 0.02813196
#
# Stress axis : x y z
#
# Youngs Moduli (GPa) = 53.56731 72.43016 47.93857
#
# Poissons Ratio (x) = 0.48556 -0.05558
# Poissons Ratio (y) = 0.35911 0.33829
# Poissons Ratio (z) = -0.06210 0.51112
#
# Static dielectric constant tensor:
#      x y z
#    x 1.769700 0.000000 -0.051650 
#    y 0.000000 2.867430 0.000000 
#    z -0.051650 0.000000 1.933620 
# 
# From -- ./inp_files/151866.got.cif
#   From: 2010.05.17/outbox.cif.g08.bks.cpg/sg12_76_cif.got.tgz:151866.got - 2010.06.03 13:09:07.
