data_PCOD9188348
_publ_section_title
;
Structure prediction by ZEFSAII (Michael W. Deem and Ramdas Pophale) SiO2 
 PCOD9188348
Probable space group: C 2/M
;
_chemical_formula_sum "Si O2"
_cell_formula_units_Z 64
_cell_length_a 31.345006
_cell_length_b 7.749811
_cell_length_c 16.611377
_cell_angle_alpha 90.000000
_cell_angle_beta 131.315245
_cell_angle_gamma 90.000000
_cell_volume 3030.792570
_symmetry_space_group_name_H-M "C 2/M"
_symmetry_group_IT_number 12
_symmetry_cell_setting 'monoclinic'
loop_
_space_group_symop_operation_xyz
x,y,z
-x,y,-z
-x,-y,-z
x,-y,z
1/2+x,1/2+y,z
1/2-x,1/2+y,-z
1/2-x,1/2-y,-z
1/2+x,1/2-y,z
loop_
_atom_site_type_symbol
_atom_site_label
_atom_site_fract_x
_atom_site_fract_y
_atom_site_fract_z
Si Si1 0.641551 0.211282 0.110230
Si Si2 0.098022 0.706593 0.884184
Si Si3 0.561528 0.302555 0.594382
Si Si4 0.164407 0.693614 0.821434
Si Si5 0.031235 0.199608 0.281927
Si Si6 0.629661 0.696452 0.513263
Si Si7 0.448859 0.208746 0.876240
Si Si8 0.729750 0.294010 0.743416
O O1 0.608349 0.263309 0.149158
O O2 0.706356 0.270357 0.185297
O O3 0.641095 0.000000 0.109119
O O4 0.608476 0.267204 0.988354
O O5 0.105772 0.500000 0.893093
O O6 0.147135 0.777042 0.885341
O O7 0.032458 0.736755 0.778614
O O8 0.500000 0.229404 0.500000
O O9 0.555634 0.500000 0.619144
O O10 0.602350 0.196028 0.702264
O O11 0.592780 0.315835 0.548399
O O12 0.185213 0.500000 0.861447
O O13 0.204819 0.769860 0.802692
O O14 0.086115 0.279600 0.395484
O O15 0.041431 0.217465 0.199686
O O16 0.030931 0.000000 0.306096
O O17 0.643248 0.500000 0.501821
O O18 0.687470 0.777365 0.621402
O O19 0.449325 0.000000 0.868676
O O20 0.500000 0.254580 0.000000
O O21 0.730374 0.500000 0.732273
#
# Coordination Sequence:
#
# PCOD9188348 Si02
#       8
#     8   8   8   8   8   8   8   8
#     4   9  18  35  59  78  95 135 183 216 250 311
#     4  10  20  35  52  76 108 140 175 213 260 315
#     4   9  16  29  49  69  96 137 183 218 252 304
#     4  10  20  31  47  74 109 141 171 215 266 308
#     4  11  21  33  53  81 110 134 167 215 266 310
#     4   8  16  30  48  72 101 135 169 209 253 299
#     4  10  19  36  59  79 105 136 169 209 260 318
#     4   9  18  36  58  74  97 139 188 218 245 302
#
# _framework density 21.116589000000001
#
# number of rings (size 3 to 8) (size 9 to 14) (size 15 to 20)
#    0.000    2.500    1.250    2.250    0.000    3.000 
#    0.000    8.125    0.000    0.000    0.000    0.000 
#    0.000    0.000    0.000    0.000    0.000    0.000 
#
# Total GULP energy -178349.119891 kJ/mol
# GULP energy per Si atom -5573.409997 kJ/mol
# Density = 2.106853 g / cm^3
# Si number density = 21.116589 Si / 1000 Ang^3
#
#
#
# Elastic Constant Matrix: (Units=GPa)
#
#
# Indices 1 2 3 4 5 6 
#
# 1 120.6570 0.5732 36.2579 0.0000 13.2176 0.0000
# 2 0.5732 29.8723 3.0286 0.0000 2.8604 0.0000
# 3 36.2579 3.0286 71.6925 0.0000 -3.2775 0.0000
# 4 0.0000 0.0000 0.0000 7.9600 0.0000 -2.7773
# 5 13.2176 2.8604 -3.2775 0.0000 29.9579 0.0000
# 6 0.0000 0.0000 0.0000 -2.7773 0.0000 16.7297
#
#
#
# Elastic Compliance Matrix: (Units=1/GPa)
#
#
# Indices 1 2 3 4 5 6 
#
# 1 0.010561 0.000881 -0.005623 0.000000 -0.005359 0.000000
# 2 0.000881 0.034038 -0.002060 0.000000 -0.003864 0.000000
# 3 -0.005623 -0.002060 0.017087 0.000000 0.004547 0.000000
# 4 0.000000 0.000000 0.000000 0.133352 0.000000 0.022138
# 5 -0.005359 -0.003864 0.004547 0.000000 0.036611 0.000000
# 6 0.000000 0.000000 0.000000 0.022138 0.000000 0.063449
#
#
# Mechanical properties :
#
#
# Convention : Reuss Voigt Hill
#
# Bulk Modulus (GPa) = 20.79838 33.54902 27.17370
# Shear Modulus (GPa) = 15.39748 23.08702 19.24225
#
# Velocity S-wave (km/s) = 2.70324 3.31011 3.02195
# Velocity P-wave (km/s) = 4.42877 5.52550 5.00725
#
# Compressibility (1/GPa) = 0.04808068
#
# Stress axis : x y z
#
# Youngs Moduli (GPa) = 94.69198 29.37916 58.52341
#
# Poissons Ratio (x) = -0.02587 0.32908
# Poissons Ratio (y) = -0.08338 0.12055
# Poissons Ratio (z) = 0.53246 0.06052
#
# Static dielectric constant tensor:
#      x y z
#    x 1.770000 0.000000 0.030580 
#    y 0.000000 1.806650 0.000000 
#    z 0.030580 0.000000 1.799360 
# 
# From -- ./inp_files/244148.got.cif
#   From: 2010.05.17/outbox.cif.g08.bks.cpg/sg12_123_cif.got.tgz:244148.got - 2010.06.03 13:09:07.
