data_PCOD9188586
_publ_section_title
;
Structure prediction by ZEFSAII (Michael W. Deem and Ramdas Pophale) SiO2 
 PCOD9188586
Probable space group: C 2/M
;
_chemical_formula_sum "Si O2"
_cell_formula_units_Z 64
_cell_length_a 10.275701
_cell_length_b 14.026307
_cell_length_c 21.590195
_cell_angle_alpha 90.000000
_cell_angle_beta 120.131411
_cell_angle_gamma 90.000000
_cell_volume 2691.320288
_symmetry_space_group_name_H-M "C 2/M"
_symmetry_group_IT_number 12
_symmetry_cell_setting 'monoclinic'
loop_
_space_group_symop_operation_xyz
x,y,z
-x,y,-z
-x,-y,-z
x,-y,z
1/2+x,1/2+y,z
1/2-x,1/2+y,-z
1/2-x,1/2-y,-z
1/2+x,1/2-y,z
loop_
_atom_site_type_symbol
_atom_site_label
_atom_site_fract_x
_atom_site_fract_y
_atom_site_fract_z
Si Si1 0.228095 0.358622 0.515141
Si Si2 0.436611 0.396019 0.408083
Si Si3 0.786001 0.390733 0.745133
Si Si4 0.094722 0.326873 0.606274
Si Si5 0.122387 0.676745 0.104799
Si Si6 0.158309 0.896134 0.100145
Si Si7 0.787932 0.639794 0.003411
Si Si8 0.571615 0.111607 0.736792
O O1 0.250000 0.250000 0.500000
O O2 0.387108 0.403195 0.536375
O O3 0.207100 0.372882 0.583658
O O4 0.067301 0.377657 0.444890
O O5 0.367725 0.500000 0.411381
O O6 0.378791 0.392233 0.323462
O O7 0.403314 0.284551 0.415646
O O8 0.831435 0.500000 0.769347
O O9 0.798752 0.334848 0.811227
O O10 0.908734 0.355098 0.723752
O O11 0.122514 0.335987 0.686004
O O12 0.087862 0.790281 0.088918
O O13 0.961404 0.625582 0.063869
O O14 0.218145 0.628504 0.072125
O O15 0.191956 0.904970 0.035065
O O16 0.309788 0.883889 0.178184
O O17 0.092850 0.000000 0.104557
O O18 0.750000 0.750000 0.000000
O O19 0.557732 0.000000 0.716679
#
# Coordination Sequence:
#
# PCOD9188586 Si02
#       8
#     8   8   8   8   8   8   8   8
#     4   9  21  41  62  86 117 153 201 247 299 359
#     4  10  22  39  61  91 123 155 196 251 305 352
#     4  10  21  37  59  90 123 158 207 254 299 363
#     4  10  21  40  65  86 118 162 202 245 306 370
#     4  10  19  36  60  86 116 159 204 249 304 355
#     4  10  20  37  58  88 123 157 199 249 302 361
#     4   9  19  35  57  84 116 156 202 246 296 358
#     4  10  21  37  60  91 121 159 207 249 299 367
#
# _framework density 23.780149000000002
#
# number of rings (size 3 to 8) (size 9 to 14) (size 15 to 20)
#    0.000    2.250    1.250    0.750    3.500    1.500 
#    0.000   12.500    0.000    0.750    0.000    0.000 
#    0.000    0.000    0.000    0.000    0.000    0.000 
#
# Total GULP energy -178200.432177 kJ/mol
# GULP energy per Si atom -5568.763506 kJ/mol
# Density = 2.372602 g / cm^3
# Si number density = 23.780149 Si / 1000 Ang^3
#
#
#
# Elastic Constant Matrix: (Units=GPa)
#
#
# Indices 1 2 3 4 5 6 
#
# 1 17.4235 1.7046 19.3324 0.0000 -2.6312 0.0000
# 2 1.7046 102.7050 29.0454 0.0000 -4.6968 0.0000
# 3 19.3324 29.0454 151.2388 0.0000 -14.9630 0.0000
# 4 0.0000 0.0000 0.0000 24.8421 0.0000 0.9629
# 5 -2.6312 -4.6968 -14.9630 0.0000 36.2746 0.0000
# 6 0.0000 0.0000 0.0000 0.9629 0.0000 6.4522
#
#
#
# Elastic Compliance Matrix: (Units=1/GPa)
#
#
# Indices 1 2 3 4 5 6 
#
# 1 0.067140 0.001416 -0.008710 0.000000 0.001461 0.000000
# 2 0.001416 0.010336 -0.002109 0.000000 0.000571 0.000000
# 3 -0.008710 -0.002109 0.008383 0.000000 0.002553 0.000000
# 4 0.000000 0.000000 0.000000 0.040488 0.000000 -0.006043
# 5 0.001461 0.000571 0.002553 0.000000 0.028800 0.000000
# 6 0.000000 0.000000 0.000000 -0.006043 0.000000 0.155887
#
#
# Mechanical properties :
#
#
# Convention : Reuss Voigt Hill
#
# Bulk Modulus (GPa) = 14.91384 41.28134 28.09759
# Shear Modulus (GPa) = 14.19679 28.26612 21.23145
#
# Velocity S-wave (km/s) = 2.44601 3.45141 2.99126
# Velocity P-wave (km/s) = 3.77657 5.76890 4.87559
#
# Compressibility (1/GPa) = 0.06705182
#
# Stress axis : x y z
#
# Youngs Moduli (GPa) = 14.89427 96.75106 119.28759
#
# Poissons Ratio (x) = -0.13696 1.03895
# Poissons Ratio (y) = -0.02108 0.25163
# Poissons Ratio (z) = 0.12972 0.20409
#
# Static dielectric constant tensor:
#      x y z
#    x 1.950080 0.000000 -0.008460 
#    y 0.000000 1.963090 0.000000 
#    z -0.008460 0.000000 1.893480 
# 
# From -- ./inp_files/305459.got.cif
#   From: 2010.05.17/outbox.cif.g08.bks.cpg/sg12_153_cif.got.tgz:305459.got - 2010.06.03 13:09:07.
