data_PCOD9188207
_publ_section_title
;
Structure prediction by ZEFSAII (Michael W. Deem and Ramdas Pophale) SiO2 
 PCOD9188207
Probable space group: C 2/M
;
_chemical_formula_sum "Si O2"
_cell_formula_units_Z 40
_cell_length_a 16.158046
_cell_length_b 25.540115
_cell_length_c 8.612036
_cell_angle_alpha 90.000000
_cell_angle_beta 148.454750
_cell_angle_gamma 90.000000
_cell_volume 1859.352956
_symmetry_space_group_name_H-M "C 2/M"
_symmetry_group_IT_number 12
_symmetry_cell_setting 'monoclinic'
loop_
_space_group_symop_operation_xyz
x,y,z
-x,y,-z
-x,-y,-z
x,-y,z
1/2+x,1/2+y,z
1/2-x,1/2+y,-z
1/2-x,1/2-y,-z
1/2+x,1/2-y,z
loop_
_atom_site_type_symbol
_atom_site_label
_atom_site_fract_x
_atom_site_fract_y
_atom_site_fract_z
Si Si1 0.104671 0.714427 0.315081
Si Si2 0.807746 0.438976 0.852709
Si Si3 0.804937 0.608786 0.185835
Si Si4 0.609482 0.288880 0.817586
Si Si5 0.671433 0.905401 0.450085
O O1 0.250000 0.750000 0.500000
O O2 0.153714 0.657048 0.448632
O O3 0.001659 0.752074 0.257216
O O4 0.000000 0.701613 0.000000
O O5 0.769223 0.500000 0.788039
O O6 0.750577 0.414468 0.595320
O O7 0.762493 0.415007 0.948324
O O8 0.997787 0.430607 0.157634
O O9 0.765734 0.576126 0.280573
O O10 0.000000 0.616883 0.500000
O O11 0.698459 0.660814 0.025050
O O12 0.500000 0.305583 0.500000
O O13 0.750000 0.250000 0.000000
#
# Coordination Sequence:
#
# PCOD9188207 Si02
#       5
#     8   8   8   8   8
#     4  12  24  38  59  91 127 171 214 258 318 391
#     4  10  20  35  63  95 126 167 218 281 337 375
#     4  10  22  38  61  92 132 165 216 275 330 393
#     4  12  24  40  62  93 132 176 221 265 328 393
#     4  10  19  36  57  85 134 159 212 269 329 377
#
# _framework density 21.512858999999999
#
# number of rings (size 3 to 8) (size 9 to 14) (size 15 to 20)
#    0.000    1.200    2.000    7.800    2.800    4.400 
#    0.000    0.000    0.000    0.600    0.000    1.400 
#    0.000    0.000    0.000    0.000    0.000    0.000 
#
# Total GULP energy -111452.902345 kJ/mol
# GULP energy per Si atom -5572.645117 kJ/mol
# Density = 2.146389 g / cm^3
# Si number density = 21.512859 Si / 1000 Ang^3
#
#
#
# Elastic Constant Matrix: (Units=GPa)
#
#
# Indices 1 2 3 4 5 6 
#
# 1 144.5953 55.1409 50.0763 0.0000 -37.7446 0.0000
# 2 55.1409 106.8089 27.6559 0.0000 -13.0569 0.0000
# 3 50.0763 27.6559 101.9076 0.0000 -37.6344 0.0000
# 4 0.0000 0.0000 0.0000 8.4575 0.0000 -5.7411
# 5 -37.7446 -13.0569 -37.6344 0.0000 59.9803 0.0000
# 6 0.0000 0.0000 0.0000 -5.7411 0.0000 20.3188
#
#
#
# Elastic Compliance Matrix: (Units=1/GPa)
#
#
# Indices 1 2 3 4 5 6 
#
# 1 0.010470 -0.004263 -0.002470 0.000000 0.004111 0.000000
# 2 -0.004263 0.011824 -0.001502 0.000000 -0.001051 0.000000
# 3 -0.002470 -0.001502 0.013978 0.000000 0.006890 0.000000
# 4 0.000000 0.000000 0.000000 0.146298 0.000000 0.041337
# 5 0.004111 -0.001051 0.006890 0.000000 0.023353 0.000000
# 6 0.000000 0.000000 0.000000 0.041337 0.000000 0.060895
#
#
# Mechanical properties :
#
#
# Convention : Reuss Voigt Hill
#
# Bulk Modulus (GPa) = 50.49984 68.78422 59.64203
# Shear Modulus (GPa) = 17.24794 32.44724 24.84759
#
# Velocity S-wave (km/s) = 2.83459 3.88786 3.40223
# Velocity P-wave (km/s) = 5.85136 7.22474 6.57401
#
# Compressibility (1/GPa) = 0.01980204
#
# Stress axis : x y z
#
# Youngs Moduli (GPa) = 95.51071 84.57480 71.53914
#
# Poissons Ratio (x) = 0.36056 0.17668
# Poissons Ratio (y) = 0.40718 0.10746
# Poissons Ratio (z) = 0.23589 0.12704
#
# Static dielectric constant tensor:
#      x y z
#    x 1.869030 0.000000 -0.100450 
#    y 0.000000 1.895860 0.000000 
#    z -0.100450 0.000000 1.789830 
# 
# From -- ./inp_files/40516.got.cif
#   From: 2010.05.17/outbox.cif.g08.bks.cpg/sg12_21_cif.got.tgz:40516.got - 2010.06.03 13:09:07.
