data_PCOD9188971
_publ_section_title
;
Structure prediction by ZEFSAII (Michael W. Deem and Ramdas Pophale) SiO2 
 PCOD9188971
Probable space group: C 2/M
;
_chemical_formula_sum "Si O2"
_cell_formula_units_Z 56
_cell_length_a 20.847460
_cell_length_b 15.851645
_cell_length_c 17.828936
_cell_angle_alpha 90.000000
_cell_angle_beta 152.777329
_cell_angle_gamma 90.000000
_cell_volume 2695.233356
_symmetry_space_group_name_H-M "C 2/M"
_symmetry_group_IT_number 12
_symmetry_cell_setting 'monoclinic'
loop_
_space_group_symop_operation_xyz
x,y,z
-x,y,-z
-x,-y,-z
x,-y,z
1/2+x,1/2+y,z
1/2-x,1/2+y,-z
1/2-x,1/2-y,-z
1/2+x,1/2-y,z
loop_
_atom_site_type_symbol
_atom_site_label
_atom_site_fract_x
_atom_site_fract_y
_atom_site_fract_z
Si Si1 0.709975 0.769263 0.776056
Si Si2 0.373145 0.094703 0.927166
Si Si3 0.108035 0.364763 0.885062
Si Si4 0.107864 0.831561 0.902246
Si Si5 0.129959 0.906155 0.443079
Si Si6 0.656360 0.089442 0.457873
Si Si7 0.607007 0.762720 0.506169
O O1 0.767671 0.674147 0.821728
O O2 0.821864 0.823423 0.941392
O O3 0.667702 0.794025 0.648459
O O4 0.562472 0.769816 0.666821
O O5 0.318220 0.000000 0.852254
O O6 0.500000 0.110999 0.000000
O O7 0.417442 0.095091 0.060457
O O8 0.268200 0.361867 0.024554
O O9 0.010612 0.409955 0.724285
O O10 0.067541 0.265936 0.846126
O O11 0.975798 0.884921 0.736350
O O12 0.279268 0.905953 0.557716
O O13 0.128842 0.833923 0.504306
O O14 0.098543 0.000000 0.439313
O O15 0.684936 0.175820 0.529668
O O16 0.703421 0.000000 0.540847
#
# Coordination Sequence:
#
# PCOD9188971 Si02
#       7
#     8   8   8   8   8   8   8
#     4  10  23  39  62  87 121 167 211 251 314 373
#     4  10  22  36  55  90 130 163 202 252 310 380
#     4  10  19  36  64  86 117 164 207 252 298 364
#     4  10  19  39  62  91 120 161 212 256 301 362
#     4  11  24  38  63  97 127 161 207 256 315 378
#     4  11  23  39  63  92 119 159 209 259 312 370
#     4  11  22  42  63  89 124 164 206 261 313 372
#
# _framework density 20.777421
#
# number of rings (size 3 to 8) (size 9 to 14) (size 15 to 20)
#    0.000    1.571    2.857    2.571    2.000    4.571 
#    0.000    3.571    0.000    1.714    0.000    0.000 
#    0.000    0.000    0.000    0.000    0.000    0.000 
#
# Total GULP energy -155920.404505 kJ/mol
# GULP energy per Si atom -5568.585875 kJ/mol
# Density = 2.073013 g / cm^3
# Si number density = 20.777421 Si / 1000 Ang^3
#
#
#
# Elastic Constant Matrix: (Units=GPa)
#
#
# Indices 1 2 3 4 5 6 
#
# 1 73.3948 21.1772 10.1067 0.0011 -6.9848 0.0006
# 2 21.1772 44.3187 11.9174 0.0017 11.5330 0.0009
# 3 10.1067 11.9174 51.2437 0.0012 -11.7661 0.0009
# 4 0.0011 0.0017 0.0012 -0.4322 0.0007 -13.4395
# 5 -6.9848 11.5330 -11.7661 0.0007 24.2555 0.0003
# 6 0.0006 0.0009 0.0009 -13.4395 0.0003 -30.2668
#
#
#
# Elastic Compliance Matrix: (Units=1/GPa)
#
#
# Indices 1 2 3 4 5 6 
#
# 1 0.018040 -0.012316 0.002075 -0.000001 0.012057 0.000001
# 2 -0.012316 0.039560 -0.013397 -0.000003 -0.028855 0.000002
# 3 0.002075 -0.013397 0.026807 -0.000003 0.019971 0.000002
# 4 -0.000001 -0.000003 -0.000003 0.180655 -0.000004 -0.080217
# 5 0.012057 -0.028855 0.019971 -0.000004 0.068108 0.000003
# 6 0.000001 0.000002 0.000002 -0.080217 0.000003 0.002580
#
#
# Mechanical properties :
#
#
# Convention : Reuss Voigt Hill
#
# Bulk Modulus (GPa) = 26.93155 28.37332 27.65244
# Shear Modulus (GPa) = 12.64534 7.09504 9.87019
#
# Velocity S-wave (km/s) = 2.46968 1.84992 2.18192
# Velocity P-wave (km/s) = 4.59592 4.27182 4.43683
#
# Compressibility (1/GPa) = 0.03713118
#
# Stress axis : x y z
#
# Youngs Moduli (GPa) = 55.43141 25.27792 37.30433
#
# Poissons Ratio (x) = 0.31132 -0.07739
# Poissons Ratio (y) = 0.68269 0.49976
# Poissons Ratio (z) = -0.11500 0.33864
#
# Static dielectric constant tensor:
#      x y z
#    x 1.741140 0.000000 -0.047410 
#    y 0.000000 1.770940 0.000000 
#    z -0.047410 0.000000 1.803500 
# 
# From -- ./inp_files/284579.got.cif
#   From: 2010.05.17/outbox.cif.g08.bks.cpg/sg12_143_cif.got.tgz:284579.got - 2010.06.03 13:09:07.
