data_PCOD9188591
_publ_section_title
;
Structure prediction by ZEFSAII (Michael W. Deem and Ramdas Pophale) SiO2 
 PCOD9188591
Probable space group: C 2/M
;
_chemical_formula_sum "Si O2"
_cell_formula_units_Z 56
_cell_length_a 19.071050
_cell_length_b 15.829078
_cell_length_c 21.587628
_cell_angle_alpha 90.000000
_cell_angle_beta 155.641973
_cell_angle_gamma 90.000000
_cell_volume 2687.775313
_symmetry_space_group_name_H-M "C 2/M"
_symmetry_group_IT_number 12
_symmetry_cell_setting 'monoclinic'
loop_
_space_group_symop_operation_xyz
x,y,z
-x,y,-z
-x,-y,-z
x,-y,z
1/2+x,1/2+y,z
1/2-x,1/2+y,-z
1/2-x,1/2-y,-z
1/2+x,1/2-y,z
loop_
_atom_site_type_symbol
_atom_site_label
_atom_site_fract_x
_atom_site_fract_y
_atom_site_fract_z
Si Si1 0.640496 0.094541 0.561329
Si Si2 0.989236 0.904487 0.612785
Si Si3 0.468622 0.408645 0.089135
Si Si4 0.253993 0.249869 0.429605
Si Si5 0.343748 0.905875 0.825983
Si Si6 0.972174 0.727092 0.106895
Si Si7 0.821233 0.907116 0.109288
O O1 0.500000 0.112413 0.500000
O O2 0.826875 0.093070 0.742735
O O3 0.650127 0.166874 0.518030
O O4 0.610070 0.000000 0.511479
O O5 0.166388 0.892564 0.718821
O O6 0.035593 0.898243 0.723009
O O7 0.855485 0.832881 0.489786
O O8 0.929212 0.000000 0.552069
O O9 0.418000 0.500000 0.019323
O O10 0.421562 0.313646 0.030362
O O11 0.396023 0.410649 0.100775
O O12 0.250000 0.250000 0.500000
O O13 0.068549 0.250772 0.248512
O O14 0.391744 0.828456 0.821057
O O15 0.335041 0.000000 0.789824
O O16 0.500000 0.908240 0.000000
O O17 0.812382 0.667541 0.990645
O O18 0.740106 0.000000 0.056656
#
# Coordination Sequence:
#
# PCOD9188591 Si02
#       7
#     8   8   8   8   8   8   8
#     4   9  19  38  62  82 111 158 208 252 296 355
#     4  10  21  36  58  85 124 160 190 237 301 366
#     4   9  19  33  54  83 112 147 198 245 291 346
#     4  11  25  39  58  91 127 156 198 254 309 370
#     4  10  20  37  59  90 120 154 201 245 297 363
#     4  11  21  35  61  85 116 160 201 247 293 358
#     4  10  19  36  60  86 117 159 201 239 290 361
#
# _framework density 20.835075
#
# number of rings (size 3 to 8) (size 9 to 14) (size 15 to 20)
#    0.000    2.000    1.429    2.571    4.000    2.857 
#    0.000    1.429    0.000    1.286    0.000    0.000 
#    0.000    0.000    0.000    0.000    0.000    0.000 
#
# Total GULP energy -156262.756940 kJ/mol
# GULP energy per Si atom -5580.812748 kJ/mol
# Density = 2.078765 g / cm^3
# Si number density = 20.835075 Si / 1000 Ang^3
#
#
#
# Elastic Constant Matrix: (Units=GPa)
#
#
# Indices 1 2 3 4 5 6 
#
# 1 43.7310 37.8991 1.9598 -0.0076 8.5866 -0.0020
# 2 37.8991 183.0410 37.7928 -0.0211 10.4683 -0.0074
# 3 1.9598 37.7928 44.3725 -0.0112 7.5945 -0.0046
# 4 -0.0076 -0.0211 -0.0112 33.0972 -0.0066 8.0016
# 5 8.5866 10.4683 7.5945 -0.0066 28.4030 -0.0014
# 6 -0.0020 -0.0074 -0.0046 8.0016 -0.0014 35.5980
#
#
#
# Elastic Compliance Matrix: (Units=1/GPa)
#
#
# Indices 1 2 3 4 5 6 
#
# 1 0.030327 -0.007066 0.006081 0.000003 -0.008190 0.000000
# 2 -0.007066 0.008302 -0.006917 0.000001 0.000926 0.000000
# 3 0.006081 -0.006917 0.029382 0.000005 -0.007145 0.000001
# 4 0.000003 0.000001 0.000005 0.031950 0.000004 -0.007182
# 5 -0.008190 0.000926 -0.007145 0.000004 0.039253 -0.000001
# 6 0.000000 0.000000 0.000001 -0.007182 -0.000001 0.029706
#
#
# Mechanical properties :
#
#
# Convention : Reuss Voigt Hill
#
# Bulk Modulus (GPa) = 19.15517 47.38311 33.26914
# Shear Modulus (GPa) = 24.73707 32.31917 28.52812
#
# Velocity S-wave (km/s) = 3.44943 3.94279 3.70433
# Velocity P-wave (km/s) = 5.00784 6.59688 5.85650
#
# Compressibility (1/GPa) = 0.05220522
#
# Stress axis : x y z
#
# Youngs Moduli (GPa) = 32.97438 120.45938 34.03423
#
# Poissons Ratio (x) = 0.85120 -0.20695
# Poissons Ratio (y) = 0.23301 0.23541
# Poissons Ratio (z) = -0.20051 0.83322
#
# Static dielectric constant tensor:
#      x y z
#    x 1.746140 0.000000 -0.012730 
#    y 0.000000 1.821370 0.000000 
#    z -0.012730 0.000000 1.716800 
# 
# From -- ./inp_files/316779.got.cif
#   From: 2010.05.17/outbox.cif.g08.bks.cpg/sg12_159_cif.got.tgz:316779.got - 2010.06.03 13:09:07.
