data_PCOD9188919
_publ_section_title
;
Structure prediction by ZEFSAII (Michael W. Deem and Ramdas Pophale) SiO2 
 PCOD9188919
Probable space group: C 2/M
;
_chemical_formula_sum "Si O2"
_cell_formula_units_Z 48
_cell_length_a 21.466625
_cell_length_b 14.603368
_cell_length_c 9.906998
_cell_angle_alpha 90.000000
_cell_angle_beta 43.365532
_cell_angle_gamma 90.000000
_cell_volume 2132.526735
_symmetry_space_group_name_H-M "C 2/M"
_symmetry_group_IT_number 12
_symmetry_cell_setting 'monoclinic'
loop_
_space_group_symop_operation_xyz
x,y,z
-x,y,-z
-x,-y,-z
x,-y,z
1/2+x,1/2+y,z
1/2-x,1/2+y,-z
1/2-x,1/2-y,-z
1/2+x,1/2-y,z
loop_
_atom_site_type_symbol
_atom_site_label
_atom_site_fract_x
_atom_site_fract_y
_atom_site_fract_z
Si Si1 0.414148 0.900153 0.034779
Si Si2 0.930582 0.890111 0.322257
Si Si3 0.093109 0.400567 0.271724
Si Si4 0.178272 0.782466 0.722818
Si Si5 0.853021 0.892683 0.981096
Si Si6 0.610260 0.295811 0.341710
O O1 0.359667 0.811915 0.161067
O O2 0.368645 0.000000 0.124448
O O3 0.500000 0.900587 0.000000
O O4 0.432524 0.890414 0.845974
O O5 0.893234 0.845360 0.245274
O O6 0.879274 0.837721 0.525930
O O7 0.038950 0.874068 0.161684
O O8 0.915857 0.000000 0.352164
O O9 0.140582 0.500000 0.212015
O O10 0.136459 0.308032 0.261666
O O11 0.000000 0.406836 0.500000
O O12 0.250000 0.750000 0.500000
O O13 0.203277 0.841048 0.815058
O O14 0.841609 0.858289 0.846158
O O15 0.839709 0.000000 0.012773
O O16 0.500000 0.300122 0.500000
#
# Coordination Sequence:
#
# PCOD9188919 Si02
#       6
#     8   8   8   8   8   8
#     4  10  21  37  59  84 112 148 194 242 286 335
#     4  10  21  38  63  91 117 147 190 243 296 344
#     4   9  17  30  53  86 118 146 179 232 295 343
#     4  12  25  38  54  82 117 161 194 234 283 345
#     4  10  19  36  63  89 115 147 193 242 291 344
#     4   9  17  31  57  92 117 143 180 245 299 343
#
# _framework density 22.508507999999999
#
# number of rings (size 3 to 8) (size 9 to 14) (size 15 to 20)
#    0.000    2.000    1.667    2.500    4.667    4.667 
#    0.000    0.833    0.000    0.000    0.000    0.000 
#    0.000    0.000    0.000    0.000    0.000    0.000 
#
# Total GULP energy -134045.990725 kJ/mol
# GULP energy per Si atom -5585.249614 kJ/mol
# Density = 2.245728 g / cm^3
# Si number density = 22.508508 Si / 1000 Ang^3
#
#
#
# Elastic Constant Matrix: (Units=GPa)
#
#
# Indices 1 2 3 4 5 6 
#
# 1 70.3325 13.4994 35.2743 0.0000 21.9290 0.0000
# 2 13.4994 164.2150 71.8176 0.0000 25.1725 0.0000
# 3 35.2743 71.8176 148.8514 0.0000 40.0412 0.0000
# 4 0.0000 0.0000 0.0000 27.8851 0.0000 33.9791
# 5 21.9290 25.1725 40.0412 0.0000 34.0991 0.0000
# 6 0.0000 0.0000 0.0000 33.9791 0.0000 -3.6829
#
#
#
# Elastic Compliance Matrix: (Units=1/GPa)
#
#
# Indices 1 2 3 4 5 6 
#
# 1 0.018183 0.000943 -0.002092 0.000000 -0.009933 0.000000
# 2 0.000943 0.007856 -0.003348 0.000000 -0.002474 0.000000
# 3 -0.002092 -0.003348 0.011405 0.000000 -0.009576 0.000000
# 4 0.000000 0.000000 0.000000 0.002929 0.000000 0.027026
# 5 -0.009933 -0.002474 -0.009576 0.000000 0.048785 0.000000
# 6 0.000000 0.000000 0.000000 0.027026 0.000000 -0.022179
#
#
# Mechanical properties :
#
#
# Convention : Reuss Voigt Hill
#
# Bulk Modulus (GPa) = 35.14970 69.39795 52.27383
# Shear Modulus (GPa) = 58.50911 29.18078 43.84495
#
# Velocity S-wave (km/s) = 5.10398 3.60451 4.41832
# Velocity P-wave (km/s) = 7.09819 6.94421 7.02162
#
# Compressibility (1/GPa) = 0.02844974
#
# Stress axis : x y z
#
# Youngs Moduli (GPa) = 54.99500 127.29876 87.68038
#
# Poissons Ratio (x) = -0.12001 0.18341
# Poissons Ratio (y) = -0.05185 0.29356
# Poissons Ratio (z) = 0.11504 0.42620
#
# Static dielectric constant tensor:
#      x y z
#    x 1.889680 0.000000 0.033540 
#    y 0.000000 1.825220 0.000000 
#    z 0.033540 0.000000 1.871820 
# 
# From -- ./inp_files/104934.got.cif
#   From: 2010.05.17/outbox.cif.g08.bks.cpg/sg12_53_cif.got.tgz:104934.got - 2010.06.03 13:09:07.
