data_PCOD9188616
_publ_section_title
;
Structure prediction by ZEFSAII (Michael W. Deem and Ramdas Pophale) SiO2 
 PCOD9188616
Probable space group: C 2/M
;
_chemical_formula_sum "Si O2"
_cell_formula_units_Z 64
_cell_length_a 19.290116
_cell_length_b 8.546274
_cell_length_c 33.383036
_cell_angle_alpha 90.000000
_cell_angle_beta 142.536439
_cell_angle_gamma 90.000000
_cell_volume 3347.529545
_symmetry_space_group_name_H-M "C 2/M"
_symmetry_group_IT_number 12
_symmetry_cell_setting 'monoclinic'
loop_
_space_group_symop_operation_xyz
x,y,z
-x,y,-z
-x,-y,-z
x,-y,z
1/2+x,1/2+y,z
1/2-x,1/2+y,-z
1/2-x,1/2-y,-z
1/2+x,1/2-y,z
loop_
_atom_site_type_symbol
_atom_site_label
_atom_site_fract_x
_atom_site_fract_y
_atom_site_fract_z
Si Si1 0.679694 0.813065 0.846352
Si Si2 0.673696 0.685743 0.929108
Si Si3 0.505379 0.312201 0.630427
Si Si4 0.917049 0.310616 0.809132
Si Si5 0.415258 0.189316 0.720364
Si Si6 0.040594 0.687535 0.474057
Si Si7 0.224990 0.811045 0.782838
Si Si8 0.703959 0.188862 0.415579
O O1 0.718364 0.742172 0.906189
O O2 0.547493 0.763791 0.779468
O O3 0.739813 0.756023 0.833874
O O4 0.683086 0.000000 0.850983
O O5 0.672598 0.500000 0.929665
O O6 0.544434 0.748578 0.873395
O O7 0.750000 0.750000 0.000000
O O8 0.500079 0.500000 0.627969
O O9 0.527845 0.255286 0.595410
O O10 0.606572 0.261871 0.707072
O O11 0.385641 0.246180 0.592192
O O12 0.923079 0.500000 0.811938
O O13 0.873357 0.261681 0.744971
O O14 0.829020 0.261094 0.802447
O O15 0.347453 0.243815 0.650728
O O16 0.290675 0.000000 0.580364
O O17 0.034846 0.500000 0.470377
O O18 0.169560 0.743484 0.524972
O O19 0.000000 0.739324 0.500000
O O20 0.223124 0.000000 0.783991
O O21 0.087975 0.500000 0.282546
#
# Coordination Sequence:
#
# PCOD9188616 Si02
#       8
#     8   8   8   8   8   8   8   8
#     4  10  19  36  60  87 121 156 193 236 283 340
#     4  11  22  39  63  91 121 158 201 240 284 340
#     4  11  23  39  61  87 115 152 197 242 292 356
#     4   9  19  37  58  86 123 157 191 237 291 343
#     4   8  16  31  55  83 110 147 189 232 283 340
#     4  11  26  44  58  79 113 151 194 250 306 357
#     4  10  21  36  59  90 123 154 191 241 293 346
#     4  11  21  37  62  86 113 151 195 241 294 356
#
# _framework density 19.118577999999999
#
# number of rings (size 3 to 8) (size 9 to 14) (size 15 to 20)
#    0.000    1.875    1.250    3.750    1.750    2.000 
#    0.000    1.250    0.000    3.750    0.000    0.000 
#    0.000    0.000    0.000    0.000    0.000    0.000 
#
# Total GULP energy -178685.525945 kJ/mol
# GULP energy per Si atom -5583.922686 kJ/mol
# Density = 1.907506 g / cm^3
# Si number density = 19.118578 Si / 1000 Ang^3
#
#
#
# Elastic Constant Matrix: (Units=GPa)
#
#
# Indices 1 2 3 4 5 6 
#
# 1 147.4639 28.8080 45.5769 -0.0001 -28.7738 0.0002
# 2 28.8080 44.0577 15.4274 -0.0003 -7.8960 0.0005
# 3 45.5769 15.4274 93.6444 0.0000 -32.4306 0.0001
# 4 -0.0001 -0.0003 0.0000 21.0088 0.0000 -7.0473
# 5 -28.7738 -7.8960 -32.4306 0.0000 31.8809 -0.0001
# 6 0.0002 0.0005 0.0001 -7.0473 -0.0001 27.4864
#
#
#
# Elastic Compliance Matrix: (Units=1/GPa)
#
#
# Indices 1 2 3 4 5 6 
#
# 1 0.009285 -0.004438 -0.001955 0.000000 0.005292 0.000000
# 2 -0.004438 0.026393 -0.002025 0.000000 0.000471 0.000000
# 3 -0.001955 -0.002025 0.017259 0.000000 0.015291 0.000000
# 4 0.000000 0.000000 0.000000 0.052078 0.000000 0.013352
# 5 0.005292 0.000471 0.015291 0.000000 0.051814 0.000000
# 6 0.000000 0.000000 0.000000 0.013352 0.000000 0.039805
#
#
# Mechanical properties :
#
#
# Convention : Reuss Voigt Hill
#
# Bulk Modulus (GPa) = 27.69994 51.64340 39.67167
# Shear Modulus (GPa) = 22.17244 29.09881 25.63563
#
# Velocity S-wave (km/s) = 3.40918 3.90554 3.66577
# Velocity P-wave (km/s) = 5.47874 6.88538 6.22194
#
# Compressibility (1/GPa) = 0.03610117
#
# Stress axis : x y z
#
# Youngs Moduli (GPa) = 107.69708 37.88882 57.93976
#
# Poissons Ratio (x) = 0.16816 0.11329
# Poissons Ratio (y) = 0.47799 0.11731
# Poissons Ratio (z) = 0.21057 0.07671
#
# Static dielectric constant tensor:
#      x y z
#    x 1.669790 0.000000 -0.019710 
#    y 0.000000 1.652790 0.000000 
#    z -0.019710 0.000000 1.659650 
# 
# From -- ./inp_files/378384.got.cif
#   From: 2010.05.17/outbox.cif.g08.bks.cpg/sg12_190_cif.got.tgz:378384.got - 2010.06.03 13:09:07.
