data_PCOD9188833
_publ_section_title
;
Structure prediction by ZEFSAII (Michael W. Deem and Ramdas Pophale) SiO2 
 PCOD9188833
Probable space group: C 2/M
;
_chemical_formula_sum "Si O2"
_cell_formula_units_Z 56
_cell_length_a 11.460197
_cell_length_b 14.406265
_cell_length_c 21.375376
_cell_angle_alpha 90.000000
_cell_angle_beta 56.824728
_cell_angle_gamma 90.000000
_cell_volume 2953.812960
_symmetry_space_group_name_H-M "C 2/M"
_symmetry_group_IT_number 12
_symmetry_cell_setting 'monoclinic'
loop_
_space_group_symop_operation_xyz
x,y,z
-x,y,-z
-x,-y,-z
x,-y,z
1/2+x,1/2+y,z
1/2-x,1/2+y,-z
1/2-x,1/2-y,-z
1/2+x,1/2-y,z
loop_
_atom_site_type_symbol
_atom_site_label
_atom_site_fract_x
_atom_site_fract_y
_atom_site_fract_z
Si Si1 0.455395 0.394028 0.127899
Si Si2 0.143939 0.812384 0.489876
Si Si3 0.016776 0.771318 0.759839
Si Si4 0.266561 0.727047 0.096804
Si Si5 0.711115 0.894566 0.675302
Si Si6 0.990277 0.101436 0.353295
Si Si7 0.287327 0.107452 0.005821
O O1 0.404824 0.500000 0.146181
O O2 0.435445 0.338702 0.198248
O O3 0.379269 0.336993 0.096512
O O4 0.619778 0.396815 0.064716
O O5 0.250000 0.750000 0.500000
O O6 0.231120 0.858518 0.408400
O O7 0.084050 0.884146 0.558442
O O8 0.000000 0.770889 0.500000
O O9 0.096283 0.674338 0.735651
O O10 0.047092 0.820703 0.685348
O O11 0.852969 0.755723 0.819366
O O12 0.330594 0.820526 0.047617
O O13 0.192772 0.664722 0.064268
O O14 0.845475 0.893466 0.680896
O O15 0.660950 0.000000 0.684171
O O16 0.956466 0.000000 0.337382
O O17 0.338227 0.000000 0.991539
#
# Coordination Sequence:
#
# PCOD9188833 Si02
#       7
#     8   8   8   8   8   8   8
#     4  10  20  35  56  79 105 141 183 225 269 328
#     4  10  19  36  62  86 112 149 195 242 287 337
#     4  11  21  35  53  79 114 143 178 228 280 328
#     4  10  20  33  55  81 107 138 179 225 277 330
#     4  10  21  36  55  81 112 149 189 229 280 339
#     4  10  20  36  59  81 106 147 194 232 269 332
#     4   9  19  36  57  78 102 138 183 227 269 325
#
# _framework density 18.958546999999999
#
# number of rings (size 3 to 8) (size 9 to 14) (size 15 to 20)
#    0.000    2.000    1.429    2.571    0.000    4.571 
#    0.000    0.714    0.000   15.429    0.000    0.000 
#    0.000    0.000    0.000    0.000    0.000    0.000 
#
# Total GULP energy -156165.388331 kJ/mol
# GULP energy per Si atom -5577.335298 kJ/mol
# Density = 1.891540 g / cm^3
# Si number density = 18.958547 Si / 1000 Ang^3
#
#
#
# Elastic Constant Matrix: (Units=GPa)
#
#
# Indices 1 2 3 4 5 6 
#
# 1 55.3723 37.7403 1.7410 0.0000 5.2510 0.0000
# 2 37.7403 138.3287 14.7132 0.0000 6.7414 0.0000
# 3 1.7410 14.7132 56.1380 0.0000 3.5417 0.0000
# 4 0.0000 0.0000 0.0000 16.0595 0.0000 -0.0512
# 5 5.2510 6.7414 3.5417 0.0000 17.0259 0.0000
# 6 0.0000 0.0000 0.0000 -0.0512 0.0000 25.9228
#
#
#
# Elastic Compliance Matrix: (Units=1/GPa)
#
#
# Indices 1 2 3 4 5 6 
#
# 1 0.022610 -0.006060 0.001191 0.000000 -0.004821 0.000000
# 2 -0.006060 0.009174 -0.002133 0.000000 -0.001320 0.000000
# 3 0.001191 -0.002133 0.018549 0.000000 -0.003381 0.000000
# 4 0.000000 0.000000 0.000000 0.062269 0.000000 0.000123
# 5 -0.004821 -0.001320 -0.003381 0.000000 0.061447 0.000000
# 6 0.000000 0.000000 0.000000 0.000123 0.000000 0.038576
#
#
# Mechanical properties :
#
#
# Convention : Reuss Voigt Hill
#
# Bulk Modulus (GPa) = 27.52696 39.80310 33.66503
# Shear Modulus (GPa) = 20.94343 24.84460 22.89402
#
# Velocity S-wave (km/s) = 3.32730 3.62397 3.47880
# Velocity P-wave (km/s) = 5.41409 6.20896 5.82510
#
# Compressibility (1/GPa) = 0.03632803
#
# Stress axis : x y z
#
# Youngs Moduli (GPa) = 44.22831 109.00569 53.91210
#
# Poissons Ratio (x) = 0.66062 -0.06423
# Poissons Ratio (y) = 0.26804 0.11500
# Poissons Ratio (z) = -0.05269 0.23253
#
# Static dielectric constant tensor:
#      x y z
#    x 1.666760 0.000000 0.006930 
#    y 0.000000 1.657230 0.000000 
#    z 0.006930 0.000000 1.644610 
# 
# From -- ./inp_files/262849.got.cif
#   From: 2010.05.17/outbox.cif.g08.bks.cpg/sg12_132_cif.got.tgz:262849.got - 2010.06.03 13:09:07.
