data_PCOD9188712
_publ_section_title
;
Structure prediction by ZEFSAII (Michael W. Deem and Ramdas Pophale) SiO2 
 PCOD9188712
Probable space group: C 2/M
;
_chemical_formula_sum "Si O2"
_cell_formula_units_Z 64
_cell_length_a 29.616908
_cell_length_b 8.282108
_cell_length_c 13.188587
_cell_angle_alpha 90.000000
_cell_angle_beta 78.560051
_cell_angle_gamma 90.000000
_cell_volume 3170.764154
_symmetry_space_group_name_H-M "C 2/M"
_symmetry_group_IT_number 12
_symmetry_cell_setting 'monoclinic'
loop_
_space_group_symop_operation_xyz
x,y,z
-x,y,-z
-x,-y,-z
x,-y,z
1/2+x,1/2+y,z
1/2-x,1/2+y,-z
1/2-x,1/2-y,-z
1/2+x,1/2-y,z
loop_
_atom_site_type_symbol
_atom_site_label
_atom_site_fract_x
_atom_site_fract_y
_atom_site_fract_z
Si Si1 0.435529 0.809244 0.184460
Si Si2 0.835853 0.185791 0.716002
Si Si3 0.204555 0.306388 0.462929
Si Si4 0.967985 0.187484 0.799968
Si Si5 0.299795 0.807517 0.943904
Si Si6 0.894968 0.694660 0.990552
Si Si7 0.932548 0.313104 0.610290
Si Si8 0.602994 0.803065 0.585164
O O1 0.489960 0.784984 0.170261
O O2 0.413671 0.742933 0.298362
O O3 0.425165 0.000000 0.188103
O O4 0.415979 0.744482 0.087197
O O5 0.799287 0.223202 0.644622
O O6 0.814378 0.223660 0.833296
O O7 0.879856 0.297743 0.673354
O O8 0.851434 0.000000 0.703561
O O9 0.204976 0.500000 0.451616
O O10 0.250000 0.250000 0.500000
O O11 0.156363 0.261734 0.540116
O O12 0.922182 0.232505 0.882894
O O13 0.961974 0.227159 0.683820
O O14 0.022380 0.000000 0.191752
O O15 0.340842 0.770214 0.004509
O O16 0.299411 0.000000 0.928786
O O17 0.250000 0.750000 0.000000
O O18 0.900866 0.500000 0.982142
O O19 0.946812 0.500000 0.601167
O O20 0.928344 0.249290 0.496821
O O21 0.600162 0.000000 0.585113
#
# Coordination Sequence:
#
# PCOD9188712 Si02
#       8
#     8   8   8   8   8   8   8   8
#     4  10  21  40  62  85 115 156 201 244 297 361
#     4  11  21  36  58  85 116 154 196 245 301 355
#     4  10  20  36  59  88 119 156 201 247 298 362
#     4  12  24  37  58  88 119 155 199 248 303 358
#     4  11  23  39  60  89 122 157 200 248 303 360
#     4  10  22  40  63  86 116 159 203 246 294 359
#     4  10  19  36  61  86 114 152 197 244 293 354
#     4   8  18  36  59  85 116 153 195 244 297 357
#
# _framework density 20.184407
#
# number of rings (size 3 to 8) (size 9 to 14) (size 15 to 20)
#    0.000    1.750    1.250    4.500    0.000    4.000 
#    0.000    8.750    0.000    0.000    0.000    0.000 
#    0.000    0.000    0.000    0.000    0.000    0.000 
#
# Total GULP energy -178754.455017 kJ/mol
# GULP energy per Si atom -5586.076719 kJ/mol
# Density = 2.013847 g / cm^3
# Si number density = 20.184407 Si / 1000 Ang^3
#
#
#
# Elastic Constant Matrix: (Units=GPa)
#
#
# Indices 1 2 3 4 5 6 
#
# 1 68.3325 -6.9967 28.0118 0.0000 14.6677 0.0000
# 2 -6.9967 29.0116 10.1932 0.0000 0.3717 0.0000
# 3 28.0118 10.1932 93.5928 0.0000 13.8266 0.0000
# 4 0.0000 0.0000 0.0000 10.2418 0.0000 5.8981
# 5 14.6677 0.3717 13.8266 0.0000 32.8866 0.0000
# 6 0.0000 0.0000 0.0000 5.8981 0.0000 23.3724
#
#
#
# Elastic Compliance Matrix: (Units=1/GPa)
#
#
# Indices 1 2 3 4 5 6 
#
# 1 0.018866 0.006542 -0.005443 0.000000 -0.006200 0.000000
# 2 0.006542 0.038162 -0.005992 0.000000 -0.000830 0.000000
# 3 -0.005443 -0.005992 0.013432 0.000000 -0.003152 0.000000
# 4 0.000000 0.000000 0.000000 0.114242 0.000000 -0.028830
# 5 -0.006200 -0.000830 -0.003152 0.000000 0.034507 0.000000
# 6 0.000000 0.000000 0.000000 -0.028830 0.000000 0.050061
#
#
# Mechanical properties :
#
#
# Convention : Reuss Voigt Hill
#
# Bulk Modulus (GPa) = 16.48128 28.15038 22.31583
# Shear Modulus (GPa) = 16.70668 23.94872 20.32770
#
# Velocity S-wave (km/s) = 2.88010 3.44829 3.17693
# Velocity P-wave (km/s) = 4.38669 5.46179 4.95350
#
# Compressibility (1/GPa) = 0.06067490
#
# Stress axis : x y z
#
# Youngs Moduli (GPa) = 53.00447 26.20378 74.44994
#
# Poissons Ratio (x) = -0.17142 0.40524
# Poissons Ratio (y) = -0.34675 0.44607
# Poissons Ratio (z) = 0.28851 0.15700
#
# Static dielectric constant tensor:
#      x y z
#    x 1.701250 0.000000 0.023470 
#    y 0.000000 1.699140 0.000000 
#    z 0.023470 0.000000 1.740920 
# 
# From -- ./inp_files/187447.got.cif
#   From: 2010.05.17/outbox.cif.g08.bks.cpg/sg12_94_cif.got.tgz:187447.got - 2010.06.03 13:09:07.
