data_PCOD9188747
_publ_section_title
;
Structure prediction by ZEFSAII (Michael W. Deem and Ramdas Pophale) SiO2 
 PCOD9188747
Probable space group: C 2/M
;
_chemical_formula_sum "Si O2"
_cell_formula_units_Z 48
_cell_length_a 19.057426
_cell_length_b 17.425014
_cell_length_c 9.718166
_cell_angle_alpha 90.000000
_cell_angle_beta 44.534547
_cell_angle_gamma 90.000000
_cell_volume 2263.340022
_symmetry_space_group_name_H-M "C 2/M"
_symmetry_group_IT_number 12
_symmetry_cell_setting 'monoclinic'
loop_
_space_group_symop_operation_xyz
x,y,z
-x,y,-z
-x,-y,-z
x,-y,z
1/2+x,1/2+y,z
1/2-x,1/2+y,-z
1/2-x,1/2-y,-z
1/2+x,1/2-y,z
loop_
_atom_site_type_symbol
_atom_site_label
_atom_site_fract_x
_atom_site_fract_y
_atom_site_fract_z
Si Si1 0.271382 0.589535 0.639453
Si Si2 0.603234 0.369026 0.285942
Si Si3 0.906516 0.913168 0.216598
Si Si4 0.400218 0.197579 0.050496
Si Si5 0.404564 0.816253 0.723715
Si Si6 0.197138 0.138828 0.881709
O O1 0.257551 0.500000 0.624955
O O2 0.309635 0.598204 0.741349
O O3 0.360891 0.623085 0.417982
O O4 0.171012 0.637956 0.771040
O O5 0.500000 0.393303 0.500000
O O6 0.608749 0.276090 0.277327
O O7 0.619885 0.391443 0.105231
O O8 0.814726 0.911117 0.237415
O O9 0.935737 0.000000 0.210672
O O10 0.000000 0.879809 0.000000
O O11 0.338022 0.276298 0.116667
O O12 0.500000 0.207939 0.000000
O O13 0.420059 0.170754 0.865047
O O14 0.500000 0.839408 0.500000
O O15 0.304190 0.854474 0.804433
#
# Coordination Sequence:
#
# PCOD9188747 Si02
#       6
#     8   8   8   8   8   8
#     4  11  23  40  59  85 122 163 200 243 295 349
#     4  10  19  36  61  87 119 149 192 245 301 354
#     4  10  23  40  58  88 126 156 195 246 299 360
#     4  11  23  40  62  91 119 157 203 244 295 352
#     4  10  21  38  61  91 122 150 189 255 298 349
#     4  11  20  39  63  90 120 153 198 246 301 350
#
# _framework density 21.207595000000001
#
# number of rings (size 3 to 8) (size 9 to 14) (size 15 to 20)
#    0.000    1.500    3.333    2.500    2.333    4.667 
#    0.000    0.000    0.000    1.000    0.000    0.000 
#    0.000    0.000    0.000    0.000    0.000    0.000 
#
# Total GULP energy -134020.421066 kJ/mol
# GULP energy per Si atom -5584.184211 kJ/mol
# Density = 2.115933 g / cm^3
# Si number density = 21.207595 Si / 1000 Ang^3
#
#
#
# Elastic Constant Matrix: (Units=GPa)
#
#
# Indices 1 2 3 4 5 6 
#
# 1 124.6368 14.0859 33.2931 0.0000 -4.7116 0.0000
# 2 14.0859 38.7865 34.2351 0.0000 -8.3703 0.0000
# 3 33.2931 34.2351 124.5551 0.0000 -2.2683 0.0000
# 4 0.0000 0.0000 0.0000 10.2225 0.0000 3.3204
# 5 -4.7116 -8.3703 -2.2683 0.0000 35.3890 0.0000
# 6 0.0000 0.0000 0.0000 3.3204 0.0000 18.1681
#
#
#
# Elastic Compliance Matrix: (Units=1/GPa)
#
#
# Indices 1 2 3 4 5 6 
#
# 1 0.008720 -0.001271 -0.001968 0.000000 0.000734 0.000000
# 2 -0.001271 0.036314 -0.009499 0.000000 0.007811 0.000000
# 3 -0.001968 -0.009499 0.011133 0.000000 -0.001795 0.000000
# 4 0.000000 0.000000 0.000000 0.103997 0.000000 -0.019006
# 5 0.000734 0.007811 -0.001795 0.000000 0.030088 0.000000
# 6 0.000000 0.000000 0.000000 -0.019006 0.000000 0.058515
#
#
# Mechanical properties :
#
#
# Convention : Reuss Voigt Hill
#
# Bulk Modulus (GPa) = 32.58381 50.13406 41.35894
# Shear Modulus (GPa) = 17.57629 26.51354 22.04491
#
# Velocity S-wave (km/s) = 2.88197 3.53964 3.22760
# Velocity P-wave (km/s) = 5.14508 6.35582 5.78223
#
# Compressibility (1/GPa) = 0.03069009
#
# Stress axis : x y z
#
# Youngs Moduli (GPa) = 114.67255 27.53757 89.82384
#
# Poissons Ratio (x) = 0.03501 0.17679
# Poissons Ratio (y) = 0.14579 0.85325
# Poissons Ratio (z) = 0.22569 0.26158
#
# Static dielectric constant tensor:
#      x y z
#    x 1.768530 0.000000 -0.023270 
#    y 0.000000 1.767870 0.000000 
#    z -0.023270 0.000000 1.787710 
# 
# From -- ./inp_files/77251.got.cif
#   From: 2010.05.17/outbox.cif.g08.bks.cpg/sg12_39_cif.got.tgz:77251.got - 2010.06.03 13:09:07.
