data_PCOD9188745
_publ_section_title
;
Structure prediction by ZEFSAII (Michael W. Deem and Ramdas Pophale) SiO2 
 PCOD9188745
Probable space group: C 2/M
;
_chemical_formula_sum "Si O2"
_cell_formula_units_Z 64
_cell_length_a 14.931471
_cell_length_b 7.816734
_cell_length_c 29.594600
_cell_angle_alpha 90.000000
_cell_angle_beta 131.721799
_cell_angle_gamma 90.000000
_cell_volume 2578.121166
_symmetry_space_group_name_H-M "C 2/M"
_symmetry_group_IT_number 12
_symmetry_cell_setting 'monoclinic'
loop_
_space_group_symop_operation_xyz
x,y,z
-x,y,-z
-x,-y,-z
x,-y,z
1/2+x,1/2+y,z
1/2-x,1/2+y,-z
1/2-x,1/2-y,-z
1/2+x,1/2-y,z
loop_
_atom_site_type_symbol
_atom_site_label
_atom_site_fract_x
_atom_site_fract_y
_atom_site_fract_z
Si Si1 0.875545 0.790495 0.096595
Si Si2 0.613844 0.708937 0.229743
Si Si3 0.645866 0.793558 0.742928
Si Si4 0.213538 0.802258 0.354209
Si Si5 0.473719 0.302939 0.039892
Si Si6 0.226206 0.298954 0.128502
Si Si7 0.027939 0.199244 0.558999
Si Si8 0.081803 0.699022 0.391289
O O1 0.765747 0.739414 0.091766
O O2 0.994906 0.736319 0.163812
O O3 0.888389 0.725911 0.049606
O O4 0.875376 0.000000 0.094843
O O5 0.612268 0.500000 0.230718
O O6 0.733995 0.759689 0.243443
O O7 0.629553 0.771492 0.286477
O O8 0.665449 0.727508 0.800200
O O9 0.528666 0.733305 0.676719
O O10 0.641855 0.000000 0.743238
O O11 0.349938 0.786807 0.383289
O O12 0.195673 0.719344 0.397093
O O13 0.184382 0.000000 0.350397
O O14 0.438273 0.500000 0.020700
O O15 0.608684 0.299490 0.105760
O O16 0.500000 0.219701 0.000000
O O17 0.199280 0.500000 0.118139
O O18 0.000000 0.270042 0.500000
O O19 0.925266 0.217463 0.562053
O O20 0.056596 0.000000 0.563637
O O21 0.061702 0.500000 0.392783
#
# Coordination Sequence:
#
# PCOD9188745 Si02
#       8
#     8   8   8   8   8   8   8   8
#     4   9  18  34  56  81 114 150 184 227 284 348
#     4   9  16  32  59  85 114 152 189 230 287 350
#     4  10  19  36  61  87 118 155 193 235 285 350
#     4  11  22  39  64  93 122 159 201 245 305 366
#     4  10  21  39  61  80 105 152 203 240 285 350
#     4  11  22  35  56  87 117 149 187 237 298 348
#     4  11  25  44  64  88 120 160 207 257 303 353
#     4  11  23  40  63  93 125 160 200 247 303 360
#
# _framework density 24.824278
#
# number of rings (size 3 to 8) (size 9 to 14) (size 15 to 20)
#    0.000    1.750    2.500    2.250    0.000    4.250 
#    0.000    1.250    0.000    0.000    0.000    0.000 
#    0.000    0.000    0.000    0.000    0.000    0.000 
#
# Total GULP energy -178986.067411 kJ/mol
# GULP energy per Si atom -5593.314607 kJ/mol
# Density = 2.476778 g / cm^3
# Si number density = 24.824278 Si / 1000 Ang^3
#
#
#
# Elastic Constant Matrix: (Units=GPa)
#
#
# Indices 1 2 3 4 5 6 
#
# 1 137.8237 2.3743 14.0134 0.0000 -35.4171 0.0000
# 2 2.3743 56.8873 5.1551 0.0000 -2.6762 0.0000
# 3 14.0134 5.1551 71.0755 0.0000 -33.7587 0.0000
# 4 0.0000 0.0000 0.0000 18.4883 0.0000 0.4904
# 5 -35.4171 -2.6762 -33.7587 0.0000 47.9070 0.0000
# 6 0.0000 0.0000 0.0000 0.4904 0.0000 20.4258
#
#
#
# Elastic Compliance Matrix: (Units=1/GPa)
#
#
# Indices 1 2 3 4 5 6 
#
# 1 0.009167 -0.000187 0.002135 0.000000 0.008271 0.000000
# 2 -0.000187 0.017699 -0.001267 0.000000 -0.000042 0.000000
# 3 0.002135 -0.001267 0.021729 0.000000 0.016819 0.000000
# 4 0.000000 0.000000 0.000000 0.054123 0.000000 -0.001300
# 5 0.008271 -0.000042 0.016819 0.000000 0.038838 0.000000
# 6 0.000000 0.000000 0.000000 -0.001300 0.000000 0.048989
#
#
# Mechanical properties :
#
#
# Convention : Reuss Voigt Hill
#
# Bulk Modulus (GPa) = 20.01714 34.31912 27.16813
# Shear Modulus (GPa) = 24.29112 33.64712 28.96912
#
# Velocity S-wave (km/s) = 3.13153 3.68559 3.41980
# Velocity P-wave (km/s) = 4.59960 5.65387 5.15376
#
# Compressibility (1/GPa) = 0.04995718
#
# Stress axis : x y z
#
# Youngs Moduli (GPa) = 109.08384 56.49960 46.02095
#
# Poissons Ratio (x) = 0.01056 -0.09824
# Poissons Ratio (y) = 0.02039 0.05831
# Poissons Ratio (z) = -0.23285 0.07158
#
# Static dielectric constant tensor:
#      x y z
#    x 1.956280 0.000000 -0.024040 
#    y 0.000000 1.874900 0.000000 
#    z -0.024040 0.000000 2.022030 
# 
# From -- ./inp_files/375654.got.cif
#   From: 2010.05.17/outbox.cif.g08.bks.cpg/sg12_188_cif.got.tgz:375654.got - 2010.06.03 13:09:07.
