data_PCOD9188553
_publ_section_title
;
Structure prediction by ZEFSAII (Michael W. Deem and Ramdas Pophale) SiO2 
 PCOD9188553
Probable space group: C 2/M
;
_chemical_formula_sum "Si O2"
_cell_formula_units_Z 44
_cell_length_a 14.304307
_cell_length_b 26.728155
_cell_length_c 8.584872
_cell_angle_alpha 90.000000
_cell_angle_beta 140.299086
_cell_angle_gamma 90.000000
_cell_volume 2096.626158
_symmetry_space_group_name_H-M "C 2/M"
_symmetry_group_IT_number 12
_symmetry_cell_setting 'monoclinic'
loop_
_space_group_symop_operation_xyz
x,y,z
-x,y,-z
-x,-y,-z
x,-y,z
1/2+x,1/2+y,z
1/2-x,1/2+y,-z
1/2-x,1/2-y,-z
1/2+x,1/2-y,z
loop_
_atom_site_type_symbol
_atom_site_label
_atom_site_fract_x
_atom_site_fract_y
_atom_site_fract_z
Si Si1 0.201031 0.679757 0.121140
Si Si2 0.146786 0.555866 0.587653
Si Si3 0.111341 0.655609 0.359892
Si Si4 0.000000 0.881522 0.500000
Si Si5 0.158213 0.210154 0.128699
Si Si6 0.923020 0.899030 0.070963
O O1 0.151149 0.666359 0.233109
O O2 0.353124 0.651289 0.300491
O O3 0.214627 0.739371 0.123785
O O4 0.062169 0.663954 0.837565
O O5 0.159883 0.500000 0.539067
O O6 0.147736 0.599502 0.460803
O O7 0.000000 0.559381 0.500000
O O8 0.279561 0.567478 0.874453
O O9 0.216889 0.692351 0.591736
O O10 0.005978 0.909288 0.339328
O O11 0.121214 0.159893 0.986459
O O12 0.000000 0.223801 0.000000
O O13 0.000000 0.906018 0.000000
#
# Coordination Sequence:
#
# PCOD9188553 Si02
#       6
#     8   8   8   4   8   8
#     4  11  22  35  58  89 129 168 212 264 309 378
#     4  10  21  41  66  90 120 161 212 271 329 380
#     4  10  21  38  62  87 122 172 216 255 320 383
#     4  12  24  38  59  94 132 164 219 266 316 368
#     4  10  19  36  60  84 124 174 212 256 311 374
#     4  10  23  42  63  89 127 171 210 261 316 380
#
# _framework density 20.986097000000001
#
# number of rings (size 3 to 8) (size 9 to 14) (size 15 to 20)
#    0.000    1.636    1.818    4.909    2.545    1.091 
#    6.545    2.273    0.000    6.545    0.000    0.000 
#    0.000    0.000    0.000    0.000    0.000    0.000 
#
# Total GULP energy -122784.188712 kJ/mol
# GULP energy per Si atom -5581.099487 kJ/mol
# Density = 2.093833 g / cm^3
# Si number density = 20.986097 Si / 1000 Ang^3
#
#
#
# Elastic Constant Matrix: (Units=GPa)
#
#
# Indices 1 2 3 4 5 6 
#
# 1 92.0254 21.1173 62.4212 0.0000 2.1191 0.0000
# 2 21.1173 96.6160 24.9500 0.0000 -3.2871 0.0000
# 3 62.4212 24.9500 151.5240 0.0000 5.9790 0.0000
# 4 0.0000 0.0000 0.0000 34.6087 0.0000 -21.0631
# 5 2.1191 -3.2871 5.9790 0.0000 42.9028 0.0000
# 6 0.0000 0.0000 0.0000 -21.0631 0.0000 17.5864
#
#
#
# Elastic Compliance Matrix: (Units=1/GPa)
#
#
# Indices 1 2 3 4 5 6 
#
# 1 0.015375 -0.001804 -0.006035 0.000000 -0.000057 0.000000
# 2 -0.001804 0.011072 -0.001123 0.000000 0.001094 0.000000
# 3 -0.006035 -0.001123 0.009313 0.000000 -0.001086 0.000000
# 4 0.000000 0.000000 0.000000 0.106591 0.000000 0.127663
# 5 -0.000057 0.001094 -0.001086 0.000000 0.023546 0.000000
# 6 0.000000 0.000000 0.000000 0.127663 0.000000 0.209762
#
#
# Mechanical properties :
#
#
# Convention : Reuss Voigt Hill
#
# Bulk Modulus (GPa) = 56.06366 61.90471 58.98418
# Shear Modulus (GPa) = 12.51475 34.46472 23.48973
#
# Velocity S-wave (km/s) = 2.44465 4.05688 3.34922
# Velocity P-wave (km/s) = 5.89415 7.17680 6.56687
#
# Compressibility (1/GPa) = 0.01783687
#
# Stress axis : x y z
#
# Youngs Moduli (GPa) = 65.04009 90.31947 107.37265
#
# Poissons Ratio (x) = 0.16295 0.64795
# Poissons Ratio (y) = 0.11734 0.12058
# Poissons Ratio (z) = 0.39249 0.10143
#
# Static dielectric constant tensor:
#      x y z
#    x 1.871110 0.000000 0.033900 
#    y 0.000000 1.718640 0.000000 
#    z 0.033900 0.000000 1.813100 
# 
# From -- ./inp_files/67191.got.cif
#   From: 2010.05.17/outbox.cif.g08.bks.cpg/sg12_34_cif.got.tgz:67191.got - 2010.06.03 13:09:07.
