data_PCOD9188721
_publ_section_title
;
Structure prediction by ZEFSAII (Michael W. Deem and Ramdas Pophale) SiO2 
 PCOD9188721
Probable space group: C 2/M
;
_chemical_formula_sum "Si O2"
_cell_formula_units_Z 58
_cell_length_a 30.795458
_cell_length_b 7.593116
_cell_length_c 25.678312
_cell_angle_alpha 90.000000
_cell_angle_beta 151.961063
_cell_angle_gamma 90.000000
_cell_volume 2822.520354
_symmetry_space_group_name_H-M "C 2/M"
_symmetry_group_IT_number 12
_symmetry_cell_setting 'monoclinic'
loop_
_space_group_symop_operation_xyz
x,y,z
-x,y,-z
-x,-y,-z
x,-y,z
1/2+x,1/2+y,z
1/2-x,1/2+y,-z
1/2-x,1/2-y,-z
1/2+x,1/2-y,z
loop_
_atom_site_type_symbol
_atom_site_label
_atom_site_fract_x
_atom_site_fract_y
_atom_site_fract_z
Si Si1 0.960507 0.795216 0.172138
Si Si2 0.574495 0.195876 0.502992
Si Si3 0.720445 0.213785 0.286169
Si Si4 0.056703 0.785215 0.731612
Si Si5 0.659401 0.785221 0.106397
Si Si6 0.000000 0.000000 0.500000
Si Si7 0.034813 0.295934 0.140503
Si Si8 0.238158 0.713172 0.080262
O O1 0.978156 0.725735 0.248665
O O2 0.011526 0.710957 0.176971
O O3 0.985439 0.000000 0.197338
O O4 0.850583 0.779026 0.045149
O O5 0.679149 0.216906 0.593579
O O6 0.504585 0.222277 0.381008
O O7 0.553597 0.346006 0.522844
O O8 0.563604 0.000000 0.513096
O O9 0.697301 0.267494 0.202251
O O10 0.634171 0.276289 0.229737
O O11 0.725284 0.000000 0.293425
O O12 0.162987 0.729106 0.835962
O O13 0.056052 0.000000 0.730374
O O14 0.722163 0.733873 0.123561
O O15 0.657153 0.000000 0.103805
O O16 0.555398 0.720492 0.984238
O O17 0.037598 0.500000 0.127102
O O18 0.235270 0.500000 0.075296
#
# Coordination Sequence:
#
# PCOD9188721 Si02
#       8
#     8   8   8   8   8   2   8   8
#     4  10  20  34  55  85 122 160 200 256 316 363
#     4  12  27  43  68  96 121 166 209 247 306 363
#     4  10  19  36  61  86 122 162 201 260 308 357
#     4  10  21  39  60  84 120 163 205 259 312 363
#     4   8  15  28  54  87 114 153 202 242 303 377
#     4  12  26  52  68  86 138 160 202 260 294 362
#     4   9  18  34  57  86 117 159 207 249 306 366
#     4   9  18  32  56  84 116 156 199 246 312 378
#
# _framework density 20.549009999999999
#
# number of rings (size 3 to 8) (size 9 to 14) (size 15 to 20)
#    0.000    2.207    1.379    2.276    1.931    3.862 
#    0.000    3.448    0.000    4.138    0.000    0.000 
#    0.000    0.000    0.000    0.000    0.000    0.000 
#
# Total GULP energy -161681.234765 kJ/mol
# GULP energy per Si atom -5575.214992 kJ/mol
# Density = 2.050224 g / cm^3
# Si number density = 20.549010 Si / 1000 Ang^3
#
#
#
# Elastic Constant Matrix: (Units=GPa)
#
#
# Indices 1 2 3 4 5 6 
#
# 1 57.7771 1.0011 27.2032 0.0000 2.4644 0.0000
# 2 1.0011 74.9467 3.9973 0.0016 -10.7262 0.0007
# 3 27.2032 3.9973 28.1358 0.0000 12.0711 0.0000
# 4 0.0000 0.0016 0.0000 237.1302 -0.0001 85.9299
# 5 2.4644 -10.7262 12.0711 -0.0001 -12.4303 0.0000
# 6 0.0000 0.0007 0.0000 85.9299 0.0000 39.0027
#
#
#
# Elastic Compliance Matrix: (Units=1/GPa)
#
#
# Indices 1 2 3 4 5 6 
#
# 1 0.027678 -0.001212 -0.020747 0.000000 -0.013615 0.000000
# 2 -0.001212 0.012077 0.002845 0.000000 -0.007899 0.000000
# 3 -0.020747 0.002845 0.040953 0.000000 0.033202 0.000000
# 4 0.000000 0.000000 0.000000 0.020916 0.000000 -0.046081
# 5 -0.013615 -0.007899 0.033202 0.000000 -0.044090 0.000000
# 6 0.000000 0.000000 0.000000 -0.046081 0.000000 0.127163
#
#
# Mechanical properties :
#
#
# Convention : Reuss Voigt Hill
#
# Bulk Modulus (GPa) = 23.54101 25.02919 24.28510
# Shear Modulus (GPa) = 21.08945 61.31773 41.20359
#
# Velocity S-wave (km/s) = 3.20707 5.46850 4.48273
# Velocity P-wave (km/s) = 5.01942 7.21661 6.21587
#
# Compressibility (1/GPa) = 0.04247906
#
# Stress axis : x y z
#
# Youngs Moduli (GPa) = 36.12962 82.80340 24.41828
#
# Poissons Ratio (x) = 0.10033 0.50661
# Poissons Ratio (y) = 0.04378 -0.06946
# Poissons Ratio (z) = 0.74959 -0.23555
#
# Static dielectric constant tensor:
#      x y z
#    x 1.725210 0.000000 0.004270 
#    y 0.000000 1.767370 0.000000 
#    z 0.004270 0.000000 1.704110 
# 
# From -- ./inp_files/353084.got.cif
#   From: 2010.05.17/outbox.cif.g08.bks.cpg/sg12_177_cif.got.tgz:353084.got - 2010.06.03 13:09:07.
