data_PCOD9188545
_publ_section_title
;
Structure prediction by ZEFSAII (Michael W. Deem and Ramdas Pophale) SiO2 
 PCOD9188545
Probable space group: C 2/M
;
_chemical_formula_sum "Si O2"
_cell_formula_units_Z 64
_cell_length_a 30.691154
_cell_length_b 7.566452
_cell_length_c 15.859234
_cell_angle_alpha 90.000000
_cell_angle_beta 51.167564
_cell_angle_gamma 90.000000
_cell_volume 2868.902232
_symmetry_space_group_name_H-M "C 2/M"
_symmetry_group_IT_number 12
_symmetry_cell_setting 'monoclinic'
loop_
_space_group_symop_operation_xyz
x,y,z
-x,y,-z
-x,-y,-z
x,-y,z
1/2+x,1/2+y,z
1/2-x,1/2+y,-z
1/2-x,1/2-y,-z
1/2+x,1/2-y,z
loop_
_atom_site_type_symbol
_atom_site_label
_atom_site_fract_x
_atom_site_fract_y
_atom_site_fract_z
Si Si1 0.201185 0.710326 0.492940
Si Si2 0.425563 0.210630 0.333980
Si Si3 0.185593 0.789783 0.056192
Si Si4 0.242598 0.292346 0.749927
Si Si5 0.655503 0.716161 0.271343
Si Si6 0.548623 0.286701 0.505388
Si Si7 0.991013 0.715964 0.913299
Si Si8 0.133063 0.700376 0.945915
O O1 0.196399 0.500000 0.491673
O O2 0.250000 0.750000 0.500000
O O3 0.138626 0.779738 0.588085
O O4 0.224560 0.779142 0.376461
O O5 0.452199 0.238032 0.394870
O O6 0.464076 0.279256 0.210606
O O7 0.421533 0.000000 0.326867
O O8 0.149389 0.734226 0.181582
O O9 0.163776 0.700531 0.998508
O O10 0.180007 0.000000 0.051712
O O11 0.250000 0.750000 0.000000
O O12 0.235571 0.500000 0.777432
O O13 0.284696 0.217521 0.768341
O O14 0.180037 0.216388 0.827915
O O15 0.656445 0.500000 0.272715
O O16 0.606840 0.774355 0.392907
O O17 0.500000 0.226139 0.500000
O O18 0.547733 0.500000 0.504563
O O19 0.993363 0.500000 0.906081
O O20 0.928173 0.778609 0.968933
O O21 0.000000 0.764893 0.000000
O O22 0.122495 0.500000 0.927931
#
# Coordination Sequence:
#
# PCOD9188545 Si02
#       8
#     8   8   8   8   8   8   8   8
#     4  11  24  39  60  89 117 148 189 238 296 349
#     4  10  22  40  61  89 119 147 192 246 291 342
#     4  11  21  35  55  82 118 154 191 236 286 343
#     4  10  19  36  60  84 114 150 191 238 289 345
#     4   9  18  34  53  77 112 151 191 233 282 341
#     4  10  21  37  59  83 113 159 200 229 281 352
#     4   9  20  39  63  85 111 153 199 241 289 349
#     4  10  21  37  59  86 115 153 198 240 289 346
#
# _framework density 22.308184000000001
#
# number of rings (size 3 to 8) (size 9 to 14) (size 15 to 20)
#    0.000    2.000    2.500    0.750    3.500    1.250 
#    0.000    1.250    0.000    0.750    0.000    0.000 
#    0.000    0.000    0.000    0.000    0.000    0.000 
#
# Total GULP energy -178623.164231 kJ/mol
# GULP energy per Si atom -5581.973882 kJ/mol
# Density = 2.225741 g / cm^3
# Si number density = 22.308184 Si / 1000 Ang^3
#
#
#
# Elastic Constant Matrix: (Units=GPa)
#
#
# Indices 1 2 3 4 5 6 
#
# 1 133.3421 -5.5758 84.2240 0.0001 -16.2730 0.0000
# 2 -5.5758 59.2680 5.9451 0.0001 -4.6867 0.0007
# 3 84.2240 5.9451 214.6139 -0.0001 -21.2114 0.0000
# 4 0.0001 0.0001 -0.0001 18.8854 -0.0001 7.2069
# 5 -16.2730 -4.6867 -21.2114 -0.0001 27.4527 0.0000
# 6 0.0000 0.0007 0.0000 7.2069 0.0000 15.5442
#
#
#
# Elastic Compliance Matrix: (Units=1/GPa)
#
#
# Indices 1 2 3 4 5 6 
#
# 1 0.010379 0.001633 -0.003771 0.000000 0.003518 0.000000
# 2 0.001633 0.017368 -0.000794 0.000000 0.003320 -0.000001
# 3 -0.003771 -0.000794 0.006417 0.000000 0.002588 0.000000
# 4 0.000000 0.000000 0.000000 0.064333 0.000000 -0.029827
# 5 0.003518 0.003320 0.002588 0.000000 0.041077 0.000000
# 6 0.000000 -0.000001 0.000000 -0.029827 0.000000 0.078161
#
#
# Mechanical properties :
#
#
# Convention : Reuss Voigt Hill
#
# Bulk Modulus (GPa) = 35.33482 64.04563 49.69023
# Shear Modulus (GPa) = 21.45618 33.88517 27.67068
#
# Velocity S-wave (km/s) = 3.10467 3.90161 3.52573
# Velocity P-wave (km/s) = 5.35964 7.00489 6.23676
#
# Compressibility (1/GPa) = 0.02830070
#
# Stress axis : x y z
#
# Youngs Moduli (GPa) = 96.35069 57.57628 155.83530
#
# Poissons Ratio (x) = -0.09401 0.58760
# Poissons Ratio (y) = -0.15732 0.12370
# Poissons Ratio (z) = 0.36331 0.04570
#
# Static dielectric constant tensor:
#      x y z
#    x 1.838600 0.000000 -0.013310 
#    y 0.000000 1.842550 0.000000 
#    z -0.013310 0.000000 1.846530 
# 
# From -- ./inp_files/249704.got.cif
#   From: 2010.05.17/outbox.cif.g08.bks.cpg/sg12_125_cif.got.tgz:249704.got - 2010.06.03 13:09:07.
