data_PCOD9188274
_publ_section_title
;
Structure prediction by ZEFSAII (Michael W. Deem and Ramdas Pophale) SiO2 
 PCOD9188274
Probable space group: C 2/M
;
_chemical_formula_sum "Si O2"
_cell_formula_units_Z 56
_cell_length_a 21.111886
_cell_length_b 8.561276
_cell_length_c 30.909255
_cell_angle_alpha 90.000000
_cell_angle_beta 33.661238
_cell_angle_gamma 90.000000
_cell_volume 3096.595101
_symmetry_space_group_name_H-M "C 2/M"
_symmetry_group_IT_number 12
_symmetry_cell_setting 'monoclinic'
loop_
_space_group_symop_operation_xyz
x,y,z
-x,y,-z
-x,-y,-z
x,-y,z
1/2+x,1/2+y,z
1/2-x,1/2+y,-z
1/2-x,1/2-y,-z
1/2+x,1/2-y,z
loop_
_atom_site_type_symbol
_atom_site_label
_atom_site_fract_x
_atom_site_fract_y
_atom_site_fract_z
Si Si1 0.661071 0.312651 0.669798
Si Si2 0.684724 0.312366 0.494781
Si Si3 0.430393 0.690203 0.661916
Si Si4 0.702566 0.812921 0.741756
Si Si5 0.580788 0.688237 0.231739
Si Si6 0.676302 0.687938 0.920742
Si Si7 0.550450 0.688753 0.903439
O O1 0.663455 0.500000 0.666728
O O2 0.751851 0.248196 0.583760
O O3 0.687083 0.256244 0.703128
O O4 0.534491 0.260133 0.726621
O O5 0.687918 0.500000 0.493707
O O6 0.750000 0.250000 0.500000
O O7 0.552316 0.262102 0.573141
O O8 0.428655 0.500000 0.663447
O O9 0.321180 0.741905 0.696503
O O10 0.422251 0.742186 0.716457
O O11 0.601497 0.761457 0.831350
O O12 0.705459 0.000000 0.737318
O O13 0.581318 0.500000 0.231781
O O14 0.698177 0.745657 0.144029
O O15 0.680937 0.500000 0.918471
O O16 0.629072 0.734519 0.900004
O O17 0.578561 0.735393 0.010444
O O18 0.553675 0.500000 0.898526
#
# Coordination Sequence:
#
# PCOD9188274 Si02
#       7
#     8   8   8   8   8   8   8
#     4  11  24  41  58  81 117 153 186 231 287 338
#     4  11  21  38  61  86 115 148 189 234 282 332
#     4   9  19  36  58  83 113 146 183 232 283 329
#     4  11  22  38  59  84 113 149 191 231 278 338
#     4  10  19  36  58  82 112 148 187 230 281 332
#     4   9  18  32  55  86 116 145 185 232 277 330
#     4   9  18  34  54  82 119 151 178 226 288 332
#
# _framework density 18.084378999999998
#
# number of rings (size 3 to 8) (size 9 to 14) (size 15 to 20)
#    0.000    2.000    2.857    2.143    0.000    2.286 
#    0.000    7.857    0.000    0.000    0.000    0.000 
#    0.000    0.000    0.000    0.000    0.000    0.000 
#
# Total GULP energy -156314.778182 kJ/mol
# GULP energy per Si atom -5582.670649 kJ/mol
# Density = 1.804322 g / cm^3
# Si number density = 18.084379 Si / 1000 Ang^3
#
#
#
# Elastic Constant Matrix: (Units=GPa)
#
#
# Indices 1 2 3 4 5 6 
#
# 1 137.2108 27.6375 88.4966 0.0002 2.6295 -0.0013
# 2 27.6375 30.3082 31.8625 -0.0036 2.1911 -0.0021
# 3 88.4966 31.8625 174.0557 0.0003 -2.5369 -0.0005
# 4 0.0002 -0.0036 0.0003 33.1664 0.0000 3.5656
# 5 2.6295 2.1911 -2.5369 0.0000 32.0264 0.0003
# 6 -0.0013 -0.0021 -0.0005 3.5656 0.0003 24.7729
#
#
#
# Elastic Compliance Matrix: (Units=1/GPa)
#
#
# Indices 1 2 3 4 5 6 
#
# 1 0.011541 -0.005287 -0.004914 -0.000001 -0.000975 0.000000
# 2 -0.005287 0.043651 -0.005346 0.000005 -0.002976 0.000003
# 3 -0.004914 -0.005346 0.009244 -0.000001 0.001501 0.000000
# 4 -0.000001 0.000005 -0.000001 0.030625 0.000000 -0.004408
# 5 -0.000975 -0.002976 0.001501 0.000000 0.031627 -0.000001
# 6 0.000000 0.000003 0.000000 -0.004408 -0.000001 0.041001
#
#
# Mechanical properties :
#
#
# Convention : Reuss Voigt Hill
#
# Bulk Modulus (GPa) = 29.99259 70.84087 50.41673
# Shear Modulus (GPa) = 23.82103 30.89834 27.35968
#
# Velocity S-wave (km/s) = 3.63328 4.13796 3.89381
# Velocity P-wave (km/s) = 5.84994 7.87958 6.93937
#
# Compressibility (1/GPa) = 0.03334157
#
# Stress axis : x y z
#
# Youngs Moduli (GPa) = 86.64476 22.90903 108.17344
#
# Poissons Ratio (x) = 0.12113 0.53160
# Poissons Ratio (y) = 0.45813 0.57827
# Poissons Ratio (z) = 0.42580 0.12247
#
# Static dielectric constant tensor:
#      x y z
#    x 1.597230 0.000000 -0.016060 
#    y 0.000000 1.619700 0.000000 
#    z -0.016060 0.000000 1.610030 
# 
# From -- ./inp_files/380653.got.cif
#   From: 2010.05.17/outbox.cif.g08.bks.cpg/sg12_191_cif.got.tgz:380653.got - 2010.06.03 13:09:07.
