data_PCOD9188595
_publ_section_title
;
Structure prediction by ZEFSAII (Michael W. Deem and Ramdas Pophale) SiO2 
 PCOD9188595
Probable space group: C 2/M
;
_chemical_formula_sum "Si O2"
_cell_formula_units_Z 56
_cell_length_a 20.550021
_cell_length_b 8.593838
_cell_length_c 16.559690
_cell_angle_alpha 90.000000
_cell_angle_beta 87.965602
_cell_angle_gamma 90.000000
_cell_volume 2922.656736
_symmetry_space_group_name_H-M "C 2/M"
_symmetry_group_IT_number 12
_symmetry_cell_setting 'monoclinic'
loop_
_space_group_symop_operation_xyz
x,y,z
-x,y,-z
-x,-y,-z
x,-y,z
1/2+x,1/2+y,z
1/2-x,1/2+y,-z
1/2-x,1/2-y,-z
1/2+x,1/2-y,z
loop_
_atom_site_type_symbol
_atom_site_label
_atom_site_fract_x
_atom_site_fract_y
_atom_site_fract_z
Si Si1 0.237576 0.188038 0.758334
Si Si2 0.487555 0.186153 0.228812
Si Si3 0.700418 0.184641 0.936095
Si Si4 0.441109 0.314354 0.060735
Si Si5 0.118739 0.813732 0.647080
Si Si6 0.075868 0.311853 0.484049
Si Si7 0.380254 0.189434 0.696669
O O1 0.217831 0.252551 0.846313
O O2 0.183573 0.230152 0.693833
O O3 0.309390 0.241575 0.728640
O O4 0.238248 0.000000 0.763777
O O5 0.459743 0.266774 0.150636
O O6 0.441750 0.232393 0.305497
O O7 0.561096 0.235769 0.246609
O O8 0.485884 0.000000 0.218346
O O9 0.627081 0.237205 0.958968
O O10 0.704063 0.000000 0.935334
O O11 0.750000 0.250000 0.000000
O O12 0.433751 0.500000 0.056243
O O13 0.500000 0.265427 0.000000
O O14 0.117425 0.759607 0.554853
O O15 0.111340 0.000000 0.652069
O O16 0.079139 0.500000 0.488253
O O17 0.101297 0.262162 0.395039
O O18 0.000000 0.267817 0.500000
O O19 0.379706 0.000000 0.696063
#
# Coordination Sequence:
#
# PCOD9188595 Si02
#       7
#     8   8   8   8   8   8   8
#     4  10  22  42  63  87 124 165 204 250 310 371
#     4  11  21  38  64  91 120 160 211 253 298 362
#     4  12  26  44  67  93 125 166 210 254 309 372
#     4  11  25  44  65  95 131 162 201 257 313 365
#     4  11  22  36  59  88 123 162 201 252 312 366
#     4  10  19  36  60  86 118 157 206 257 305 363
#     4   9  20  38  61  89 119 161 207 252 304 364
#
# _framework density 19.160648999999999
#
# number of rings (size 3 to 8) (size 9 to 14) (size 15 to 20)
#    0.000    1.429    2.857    2.571    2.000    2.571 
#    0.000    1.429    0.000    0.000    0.000    0.000 
#    0.000    0.000    0.000    0.000    0.000    0.000 
#
# Total GULP energy -156519.758578 kJ/mol
# GULP energy per Si atom -5589.991378 kJ/mol
# Density = 1.911704 g / cm^3
# Si number density = 19.160649 Si / 1000 Ang^3
#
#
#
# Elastic Constant Matrix: (Units=GPa)
#
#
# Indices 1 2 3 4 5 6 
#
# 1 163.5092 34.6326 52.1415 0.0000 11.2955 0.0000
# 2 34.6326 31.0929 18.4664 0.0000 4.5666 0.0000
# 3 52.1415 18.4664 87.1935 0.0000 18.0412 0.0000
# 4 0.0000 0.0000 0.0000 22.6249 0.0000 7.1986
# 5 11.2955 4.5666 18.0412 0.0000 39.3055 0.0000
# 6 0.0000 0.0000 0.0000 7.1986 0.0000 21.0394
#
#
#
# Elastic Compliance Matrix: (Units=1/GPa)
#
#
# Indices 1 2 3 4 5 6 
#
# 1 0.008940 -0.007760 -0.003710 0.000000 0.000035 0.000000
# 2 -0.007760 0.043545 -0.004416 0.000000 -0.000802 0.000000
# 3 -0.003710 -0.004416 0.015796 0.000000 -0.005671 0.000000
# 4 0.000000 0.000000 0.000000 0.049598 0.000000 -0.016970
# 5 0.000035 -0.000802 -0.005671 0.000000 0.028128 0.000000
# 6 0.000000 0.000000 0.000000 -0.016970 0.000000 0.053336
#
#
# Mechanical properties :
#
#
# Convention : Reuss Voigt Hill
#
# Bulk Modulus (GPa) = 27.38983 54.69740 41.04362
# Shear Modulus (GPa) = 20.55202 28.36431 24.45816
#
# Velocity S-wave (km/s) = 3.27863 3.85169 3.57666
# Velocity P-wave (km/s) = 5.35336 6.95625 6.20677
#
# Compressibility (1/GPa) = 0.03650990
#
# Stress axis : x y z
#
# Youngs Moduli (GPa) = 111.85601 22.96460 63.30704
#
# Poissons Ratio (x) = 0.17820 0.23487
# Poissons Ratio (y) = 0.86795 0.27957
# Poissons Ratio (z) = 0.41499 0.10141
#
# Static dielectric constant tensor:
#      x y z
#    x 1.660570 0.000000 -0.005110 
#    y 0.000000 1.647120 0.000000 
#    z -0.005110 0.000000 1.647800 
# 
# From -- ./inp_files/230987.got.cif
#   From: 2010.05.17/outbox.cif.g08.bks.cpg/sg12_116_cif.got.tgz:230987.got - 2010.06.03 13:09:07.
