data_PCOD9188815
_publ_section_title
;
Structure prediction by ZEFSAII (Michael W. Deem and Ramdas Pophale) SiO2 
 PCOD9188815
Probable space group: C 2/M
;
_chemical_formula_sum "Si O2"
_cell_formula_units_Z 32
_cell_length_a 26.689083
_cell_length_b 8.062291
_cell_length_c 20.285655
_cell_angle_alpha 90.000000
_cell_angle_beta 157.736236
_cell_angle_gamma 90.000000
_cell_volume 1653.759910
_symmetry_space_group_name_H-M "C 2/M"
_symmetry_group_IT_number 12
_symmetry_cell_setting 'monoclinic'
loop_
_space_group_symop_operation_xyz
x,y,z
-x,y,-z
-x,-y,-z
x,-y,z
1/2+x,1/2+y,z
1/2-x,1/2+y,-z
1/2-x,1/2-y,-z
1/2+x,1/2-y,z
loop_
_atom_site_type_symbol
_atom_site_label
_atom_site_fract_x
_atom_site_fract_y
_atom_site_fract_z
Si Si1 0.148965 0.500000 0.206805
Si Si2 0.706539 0.312447 0.517840
Si Si3 0.732528 0.191964 0.864963
Si Si4 0.661087 0.500000 0.687812
Si Si5 0.068082 0.310878 0.793799
O O1 0.175515 0.341541 0.286783
O O2 0.266846 0.500000 0.295997
O O3 0.000000 0.500000 0.000000
O O4 0.652248 0.500000 0.445058
O O5 0.750000 0.250000 0.500000
O O6 0.588198 0.202628 0.400086
O O7 0.713025 0.332029 0.786506
O O8 0.631082 0.237220 0.800787
O O9 0.710953 0.000000 0.818253
O O10 0.872644 0.208259 0.073243
O O11 0.500000 0.500000 0.500000
O O12 0.109853 0.500000 0.856892
#
# Coordination Sequence:
#
# PCOD9188815 Si02
#       5
#     4   8   8   4   8
#     4  10  26  44  64  96 143 177 217 274 358 407
#     4  10  22  38  65  92 122 172 228 273 320 403
#     4  10  22  36  62  97 131 172 221 281 333 403
#     4  12  24  42  68  92 138 185 217 271 359 408
#     4  10  19  36  61  96 130 163 225 283 333 385
#
# _framework density 19.349847
#
# number of rings (size 3 to 8) (size 9 to 14) (size 15 to 20)
#    0.750    1.000    1.250    3.000    7.000    0.500 
#    0.000    2.500    0.000    3.750    0.000    0.000 
#    0.000    0.000    0.000    0.000    0.000    0.000 
#
# Total GULP energy -89131.888697 kJ/mol
# GULP energy per Si atom -5570.743044 kJ/mol
# Density = 1.930581 g / cm^3
# Si number density = 19.349847 Si / 1000 Ang^3
#
#
#
# Elastic Constant Matrix: (Units=GPa)
#
#
# Indices 1 2 3 4 5 6 
#
# 1 81.5643 30.1556 41.5285 0.0000 -16.4315 0.0000
# 2 30.1556 82.7551 6.2479 0.0000 -17.3746 0.0000
# 3 41.5285 6.2479 113.9493 0.0000 -1.8481 0.0000
# 4 0.0000 0.0000 0.0000 34.1269 0.0000 -6.8895
# 5 -16.4315 -17.3746 -1.8481 0.0000 20.5520 0.0000
# 6 0.0000 0.0000 0.0000 -6.8895 0.0000 35.5802
#
#
#
# Elastic Compliance Matrix: (Units=1/GPa)
#
#
# Indices 1 2 3 4 5 6 
#
# 1 0.019538 -0.004207 -0.006704 0.000000 0.011461 0.000000
# 2 -0.004207 0.015639 0.000837 0.000000 0.009933 0.000000
# 3 -0.006704 0.000837 0.011114 0.000000 -0.003653 0.000000
# 4 0.000000 0.000000 0.000000 0.030494 0.000000 0.005905
# 5 0.011461 0.009933 -0.003653 0.000000 0.065889 0.000000
# 6 0.000000 0.000000 0.000000 0.005905 0.000000 0.029249
#
#
# Mechanical properties :
#
#
# Convention : Reuss Voigt Hill
#
# Bulk Modulus (GPa) = 38.25174 48.23697 43.24435
# Shear Modulus (GPa) = 24.90209 31.40758 28.15483
#
# Velocity S-wave (km/s) = 3.59129 4.03320 3.81864
# Velocity P-wave (km/s) = 6.08341 6.83168 6.46837
#
# Compressibility (1/GPa) = 0.02614260
#
# Stress axis : x y z
#
# Youngs Moduli (GPa) = 51.18240 63.94205 89.97698
#
# Poissons Ratio (x) = 0.26901 0.60321
# Poissons Ratio (y) = 0.21533 -0.07530
# Poissons Ratio (z) = 0.34313 -0.05351
#
# Static dielectric constant tensor:
#      x y z
#    x 1.623850 0.000000 -0.012130 
#    y 0.000000 1.746850 0.000000 
#    z -0.012130 0.000000 1.709920 
# 
# From -- ./inp_files/327401.got.cif
#   From: 2010.05.17/outbox.cif.g08.bks.cpg/sg12_164_cif.got.tgz:327401.got - 2010.06.03 13:09:07.
