data_PCOD9188440
_publ_section_title
;
Structure prediction by ZEFSAII (Michael W. Deem and Ramdas Pophale) SiO2 
 PCOD9188440
Probable space group: C 2/M
;
_chemical_formula_sum "Si O2"
_cell_formula_units_Z 56
_cell_length_a 25.186590
_cell_length_b 8.992793
_cell_length_c 15.111560
_cell_angle_alpha 90.000000
_cell_angle_beta 121.696663
_cell_angle_gamma 90.000000
_cell_volume 2912.205663
_symmetry_space_group_name_H-M "C 2/M"
_symmetry_group_IT_number 12
_symmetry_cell_setting 'monoclinic'
loop_
_space_group_symop_operation_xyz
x,y,z
-x,y,-z
-x,-y,-z
x,-y,z
1/2+x,1/2+y,z
1/2-x,1/2+y,-z
1/2-x,1/2-y,-z
1/2+x,1/2-y,z
loop_
_atom_site_type_symbol
_atom_site_label
_atom_site_fract_x
_atom_site_fract_y
_atom_site_fract_z
Si Si1 0.806132 0.679200 0.324373
Si Si2 0.244234 0.670229 0.901961
Si Si3 0.815192 0.672427 0.696342
Si Si4 0.645947 0.833865 0.073018
Si Si5 0.444175 0.821465 0.518103
Si Si6 0.007498 0.672961 0.905417
Si Si7 0.422170 0.323362 0.686214
O O1 0.796158 0.500000 0.317964
O O2 0.799698 0.728396 0.215821
O O3 0.750912 0.755111 0.333153
O O4 0.875562 0.710300 0.418406
O O5 0.228505 0.500000 0.903476
O O6 0.311639 0.697695 0.918089
O O7 0.250000 0.750000 0.000000
O O8 0.805925 0.500000 0.664211
O O9 0.857399 0.675808 0.823349
O O10 0.855042 0.755283 0.656437
O O11 0.674149 0.000000 0.081396
O O12 0.582203 0.828007 0.963332
O O13 0.500000 0.778637 0.500000
O O14 0.445421 0.741355 0.613459
O O15 0.448905 0.000000 0.535620
O O16 0.986246 0.500000 0.880742
O O17 0.971298 0.770005 0.803416
O O18 0.000000 0.724385 0.000000
O O19 0.417648 0.500000 0.679458
#
# Coordination Sequence:
#
# PCOD9188440 Si02
#       7
#     8   8   8   8   8   8   8
#     4   9  20  39  62  88 117 151 197 254 306 351
#     4  10  20  34  54  83 118 152 193 242 294 352
#     4  10  19  36  61  89 119 154 197 240 296 364
#     4   9  18  33  55  81 113 152 193 238 287 344
#     4  10  23  45  68  86 112 158 211 256 301 358
#     4  10  19  36  59  85 119 159 200 238 286 351
#     4  12  25  38  58  91 127 161 200 250 307 361
#
# _framework density 19.229410000000001
#
# number of rings (size 3 to 8) (size 9 to 14) (size 15 to 20)
#    0.000    2.000    1.429    2.143    0.000    4.571 
#    0.000    2.857    0.000    0.000    0.000    0.000 
#    0.000    0.000    0.000    0.000    0.000    0.000 
#
# Total GULP energy -156137.576716 kJ/mol
# GULP energy per Si atom -5576.342026 kJ/mol
# Density = 1.918564 g / cm^3
# Si number density = 19.229410 Si / 1000 Ang^3
#
#
#
# Elastic Constant Matrix: (Units=GPa)
#
#
# Indices 1 2 3 4 5 6 
#
# 1 105.1873 53.3594 68.1148 0.0000 -8.6718 0.0000
# 2 53.3594 69.9744 60.8058 0.0000 -8.0959 0.0000
# 3 68.1148 60.8058 108.3832 0.0000 -7.4385 0.0000
# 4 0.0000 0.0000 0.0000 23.9901 0.0000 -0.7274
# 5 -8.6718 -8.0959 -7.4385 0.0000 34.5370 0.0000
# 6 0.0000 0.0000 0.0000 -0.7274 0.0000 28.5177
#
#
#
# Elastic Compliance Matrix: (Units=1/GPa)
#
#
# Indices 1 2 3 4 5 6 
#
# 1 0.017915 -0.007429 -0.007005 0.000000 0.001248 0.000000
# 2 -0.007429 0.031323 -0.012716 0.000000 0.002738 0.000000
# 3 -0.007005 -0.012716 0.020744 0.000000 -0.000272 0.000000
# 4 0.000000 0.000000 0.000000 0.041716 0.000000 0.001064
# 5 0.001248 0.002738 -0.000272 0.000000 0.029851 0.000000
# 6 0.000000 0.000000 0.000000 0.001064 0.000000 0.035093
#
#
# Mechanical properties :
#
#
# Convention : Reuss Voigt Hill
#
# Bulk Modulus (GPa) = 63.77082 72.01164 67.89123
# Shear Modulus (GPa) = 21.17121 24.15994 22.66557
#
# Velocity S-wave (km/s) = 3.32170 3.54843 3.43693
# Velocity P-wave (km/s) = 6.92436 7.37010 7.15071
#
# Compressibility (1/GPa) = 0.01568115
#
# Stress axis : x y z
#
# Youngs Moduli (GPa) = 55.82039 31.92549 48.20638
#
# Poissons Ratio (x) = 0.23719 0.33768
# Poissons Ratio (y) = 0.41472 0.61299
# Poissons Ratio (z) = 0.39102 0.40596
#
# Static dielectric constant tensor:
#      x y z
#    x 1.714670 0.000000 -0.008500 
#    y 0.000000 1.662670 0.000000 
#    z -0.008500 0.000000 1.692600 
# 
# From -- ./inp_files/239018.got.cif
#   From: 2010.05.17/outbox.cif.g08.bks.cpg/sg12_120_cif.got.tgz:239018.got - 2010.06.03 13:09:07.
