data_PCOD9188120
_publ_section_title
;
Structure prediction by ZEFSAII (Michael W. Deem and Ramdas Pophale) SiO2 
 PCOD9188120
Probable space group: C 2/M
;
_chemical_formula_sum "Si O2"
_cell_formula_units_Z 56
_cell_length_a 9.326886
_cell_length_b 31.232644
_cell_length_c 11.255781
_cell_angle_alpha 90.000000
_cell_angle_beta 113.739848
_cell_angle_gamma 90.000000
_cell_volume 3001.399557
_symmetry_space_group_name_H-M "C 2/M"
_symmetry_group_IT_number 12
_symmetry_cell_setting 'monoclinic'
loop_
_space_group_symop_operation_xyz
x,y,z
-x,y,-z
-x,-y,-z
x,-y,z
1/2+x,1/2+y,z
1/2-x,1/2+y,-z
1/2-x,1/2-y,-z
1/2+x,1/2-y,z
loop_
_atom_site_type_symbol
_atom_site_label
_atom_site_fract_x
_atom_site_fract_y
_atom_site_fract_z
Si Si1 0.892828 0.611784 0.180876
Si Si2 0.817429 0.846078 0.737043
Si Si3 0.339136 0.616954 0.112156
Si Si4 0.165106 0.768912 0.088778
Si Si5 0.620522 0.049214 0.152519
Si Si6 0.353025 0.820085 0.794898
Si Si7 0.172330 0.795619 0.504440
O O1 0.824970 0.621598 0.287373
O O2 0.014006 0.572643 0.215162
O O3 0.994007 0.650949 0.160749
O O4 0.742520 0.608295 0.042463
O O5 0.766348 0.806224 0.806436
O O6 0.836230 0.825087 0.614780
O O7 0.978135 0.871173 0.823521
O O8 0.273068 0.577397 0.169989
O O9 0.258473 0.658321 0.144992
O O10 0.123092 0.728370 0.156614
O O11 0.250000 0.750000 0.000000
O O12 0.000000 0.789247 0.000000
O O13 0.657730 0.000000 0.189514
O O14 0.500000 0.050878 0.000000
O O15 0.272459 0.818632 0.640020
O O16 0.250000 0.750000 0.500000
O O17 0.000000 0.788068 0.500000
#
# Coordination Sequence:
#
# PCOD9188120 Si02
#       7
#     8   8   8   8   8   8   8
#     4  10  21  34  58  87 113 145 182 236 284 341
#     4  12  23  37  54  80 118 152 192 239 288 323
#     4  10  19  36  56  85 118 144 186 236 284 340
#     4  12  23  32  51  76 106 146 188 229 281 330
#     4   8  16  34  60  87 117 150 180 216 282 363
#     4  11  21  38  54  75 108 151 200 236 277 325
#     4  12  27  42  55  73 109 158 206 251 272 325
#
# _framework density 18.657962000000001
#
# number of rings (size 3 to 8) (size 9 to 14) (size 15 to 20)
#    0.000    1.286    2.857    6.000    2.000    0.000 
#    0.000    0.714    0.000    3.429    0.000   16.000 
#    0.000    0.000    0.000    0.000    0.000    0.000 
#
# Total GULP energy -156157.922929 kJ/mol
# GULP energy per Si atom -5577.068676 kJ/mol
# Density = 1.861550 g / cm^3
# Si number density = 18.657962 Si / 1000 Ang^3
#
#
#
# Elastic Constant Matrix: (Units=GPa)
#
#
# Indices 1 2 3 4 5 6 
#
# 1 104.7273 30.1335 21.5227 0.0000 -19.2318 0.0000
# 2 30.1335 104.5669 9.3205 0.0000 -2.7632 0.0000
# 3 21.5227 9.3205 61.4405 0.0000 -7.8712 0.0000
# 4 0.0000 0.0000 0.0000 2.8931 0.0000 11.5377
# 5 -19.2318 -2.7632 -7.8712 0.0000 19.7888 0.0000
# 6 0.0000 0.0000 0.0000 11.5377 0.0000 4.5566
#
#
#
# Elastic Compliance Matrix: (Units=1/GPa)
#
#
# Indices 1 2 3 4 5 6 
#
# 1 0.013084 -0.003238 -0.002657 0.000000 0.011207 0.000000
# 2 -0.003238 0.010508 -0.000711 0.000000 -0.001962 0.000000
# 3 -0.002657 -0.000711 0.017882 0.000000 0.004432 0.000000
# 4 0.000000 0.000000 0.000000 -0.037992 0.000000 0.096199
# 5 0.011207 -0.001962 0.004432 0.000000 0.062914 0.000000
# 6 0.000000 0.000000 0.000000 0.096199 0.000000 -0.024122
#
#
# Mechanical properties :
#
#
# Convention : Reuss Voigt Hill
#
# Bulk Modulus (GPa) = 35.38148 43.63203 39.50676
# Shear Modulus (GPa) = 77.03414 19.43157 48.23286
#
# Velocity S-wave (km/s) = 6.43251 3.23067 5.08991
# Velocity P-wave (km/s) = 8.61243 6.11165 7.46747
#
# Compressibility (1/GPa) = 0.02826337
#
# Stress axis : x y z
#
# Youngs Moduli (GPa) = 76.42833 95.16747 55.92173
#
# Poissons Ratio (x) = 0.30811 0.14856
# Poissons Ratio (y) = 0.24744 0.03978
# Poissons Ratio (z) = 0.20303 0.06769
#
# Static dielectric constant tensor:
#      x y z
#    x 1.748120 0.000000 0.090240 
#    y 0.000000 1.639950 0.000000 
#    z 0.090240 0.000000 1.791890 
# 
# From -- ./inp_files/125352.got.cif
#   From: 2010.05.17/outbox.cif.g08.bks.cpg/sg12_63_cif.got.tgz:125352.got - 2010.06.03 13:09:07.
