data_PCOD9188423
_publ_section_title
;
Structure prediction by ZEFSAII (Michael W. Deem and Ramdas Pophale) SiO2 
 PCOD9188423
Probable space group: C 2/M
;
_chemical_formula_sum "Si O2"
_cell_formula_units_Z 56
_cell_length_a 24.690485
_cell_length_b 17.687251
_cell_length_c 9.301607
_cell_angle_alpha 90.000000
_cell_angle_beta 132.163202
_cell_angle_gamma 90.000000
_cell_volume 3010.955688
_symmetry_space_group_name_H-M "C 2/M"
_symmetry_group_IT_number 12
_symmetry_cell_setting 'monoclinic'
loop_
_space_group_symop_operation_xyz
x,y,z
-x,y,-z
-x,-y,-z
x,-y,z
1/2+x,1/2+y,z
1/2-x,1/2+y,-z
1/2-x,1/2-y,-z
1/2+x,1/2-y,z
loop_
_atom_site_type_symbol
_atom_site_label
_atom_site_fract_x
_atom_site_fract_y
_atom_site_fract_z
Si Si1 0.403895 0.719768 0.202432
Si Si2 0.941056 0.590084 0.766597
Si Si3 0.804015 0.802810 0.502500
Si Si4 0.727551 0.911062 0.546418
Si Si5 0.221724 0.684829 0.059647
Si Si6 0.286883 0.588954 0.957554
Si Si7 0.441339 0.239375 0.598856
O O1 0.358112 0.642136 0.105164
O O2 0.482202 0.716637 0.267949
O O3 0.412175 0.745507 0.384431
O O4 0.358993 0.787852 0.049434
O O5 0.945400 0.500000 0.735126
O O6 0.855232 0.605647 0.653417
O O7 0.954213 0.651313 0.663045
O O8 0.000000 0.602299 0.000000
O O9 0.750000 0.750000 0.500000
O O10 0.793373 0.880293 0.567787
O O11 0.768849 0.813418 0.284832
O O12 0.884036 0.771378 0.613227
O O13 0.731592 0.000000 0.558309
O O14 0.743341 0.884158 0.737329
O O15 0.234019 0.607657 0.996875
O O16 0.250000 0.750000 0.000000
O O17 0.303542 0.500000 0.978625
#
# Coordination Sequence:
#
# PCOD9188423 Si02
#       7
#     8   8   8   8   8   8   8
#     4  10  22  39  60  91 123 155 208 258 298 361
#     4  10  22  39  57  83 121 160 196 243 307 367
#     4  12  21  35  60  89 120 157 206 251 306 358
#     4  10  22  38  59  88 123 159 201 255 311 364
#     4  10  19  36  59  84 117 154 204 256 289 356
#     4  10  20  40  66  89 121 167 207 252 310 358
#     4  11  22  39  61  87 121 164 200 249 313 361
#
# _framework density 18.598745000000001
#
# number of rings (size 3 to 8) (size 9 to 14) (size 15 to 20)
#    0.000    1.571    4.286    2.571    2.000    1.714 
#    0.000    4.286    0.000    1.714    0.000    0.000 
#    0.000    0.000    0.000    0.000    0.000    0.000 
#
# Total GULP energy -155924.890316 kJ/mol
# GULP energy per Si atom -5568.746083 kJ/mol
# Density = 1.855641 g / cm^3
# Si number density = 18.598745 Si / 1000 Ang^3
#
#
#
# Elastic Constant Matrix: (Units=GPa)
#
#
# Indices 1 2 3 4 5 6 
#
# 1 96.3241 36.0649 36.8074 0.0000 9.4143 0.0000
# 2 36.0649 80.0596 51.4153 0.0000 7.2556 0.0000
# 3 36.8074 51.4153 94.8582 0.0000 4.2687 0.0000
# 4 0.0000 0.0000 0.0000 29.6274 0.0000 0.8317
# 5 9.4143 7.2556 4.2687 0.0000 33.6016 0.0000
# 6 0.0000 0.0000 0.0000 0.8317 0.0000 25.6400
#
#
#
# Elastic Compliance Matrix: (Units=1/GPa)
#
#
# Indices 1 2 3 4 5 6 
#
# 1 0.013177 -0.003833 -0.002924 0.000000 -0.002493 0.000000
# 2 -0.003833 0.020547 -0.009553 0.000000 -0.002149 0.000000
# 3 -0.002924 -0.009553 0.016821 0.000000 0.000745 0.000000
# 4 0.000000 0.000000 0.000000 0.033783 0.000000 -0.001096
# 5 -0.002493 -0.002149 0.000745 0.000000 0.030828 0.000000
# 6 0.000000 0.000000 0.000000 -0.001096 0.000000 0.039037
#
#
# Mechanical properties :
#
#
# Convention : Reuss Voigt Hill
#
# Bulk Modulus (GPa) = 55.78237 57.75744 56.76991
# Shear Modulus (GPa) = 25.93513 27.57075 26.75294
#
# Velocity S-wave (km/s) = 3.73829 3.85437 3.79678
# Velocity P-wave (km/s) = 6.97788 7.13653 7.05765
#
# Compressibility (1/GPa) = 0.01792681
#
# Stress axis : x y z
#
# Youngs Moduli (GPa) = 75.88740 48.66862 59.44952
#
# Poissons Ratio (x) = 0.18653 0.17381
# Poissons Ratio (y) = 0.29084 0.56793
# Poissons Ratio (z) = 0.22187 0.46494
#
# Static dielectric constant tensor:
#      x y z
#    x 1.692320 0.000000 0.021080 
#    y 0.000000 1.721050 0.000000 
#    z 0.021080 0.000000 1.683010 
# 
# From -- ./inp_files/98181.got.cif
#   From: 2010.05.17/outbox.cif.g08.bks.cpg/sg12_50_cif.got.tgz:98181.got - 2010.06.03 13:09:07.
