data_PCOD9188185
_publ_section_title
;
Structure prediction by ZEFSAII (Michael W. Deem and Ramdas Pophale) SiO2 
 PCOD9188185
Probable space group: C 2/M
;
_chemical_formula_sum "Si O2"
_cell_formula_units_Z 48
_cell_length_a 9.225115
_cell_length_b 23.134336
_cell_length_c 12.727463
_cell_angle_alpha 90.000000
_cell_angle_beta 70.594007
_cell_angle_gamma 90.000000
_cell_volume 2561.939654
_symmetry_space_group_name_H-M "C 2/M"
_symmetry_group_IT_number 12
_symmetry_cell_setting 'monoclinic'
loop_
_space_group_symop_operation_xyz
x,y,z
-x,y,-z
-x,-y,-z
x,-y,z
1/2+x,1/2+y,z
1/2-x,1/2+y,-z
1/2-x,1/2-y,-z
1/2+x,1/2-y,z
loop_
_atom_site_type_symbol
_atom_site_label
_atom_site_fract_x
_atom_site_fract_y
_atom_site_fract_z
Si Si1 0.299386 0.375979 0.783363
Si Si2 0.508815 0.065712 0.126168
Si Si3 0.934675 0.934624 0.398322
Si Si4 0.842430 0.217441 0.606331
Si Si5 0.331636 0.431996 0.992595
Si Si6 0.174937 0.659131 0.459258
O O1 0.418875 0.422427 0.708961
O O2 0.345858 0.316647 0.714823
O O3 0.315896 0.385448 0.903508
O O4 0.123323 0.392722 0.799742
O O5 0.473601 0.000000 0.167272
O O6 0.500000 0.067485 0.000000
O O7 0.687637 0.078133 0.105513
O O8 0.799161 0.889904 0.408426
O O9 0.000000 0.925830 0.500000
O O10 0.880214 0.000000 0.400517
O O11 0.810873 0.285530 0.621067
O O12 0.715712 0.186793 0.563241
O O13 0.000000 0.211894 0.500000
O O14 0.312167 0.500000 0.961639
O O15 0.500000 0.427867 0.000000
O O16 0.000000 0.638165 0.500000
#
# Coordination Sequence:
#
# PCOD9188185 Si02
#       6
#     8   8   8   8   8   8
#     4  11  17  32  55  81 108 149 193 225 273 337
#     4   8  15  28  48  74 106 145 188 227 272 339
#     4  11  21  35  55  83 119 152 182 228 292 351
#     4  10  19  36  57  82 112 150 200 228 271 341
#     4   9  18  33  52  78 114 151 187 238 289 335
#     4  10  20  36  56  77 118 148 190 240 271 326
#
# _framework density 18.735804000000002
#
# number of rings (size 3 to 8) (size 9 to 14) (size 15 to 20)
#    0.000    2.167    3.333    2.500    0.000    0.333 
#    3.000    0.000    0.000    0.000    0.000   15.167 
#    0.000    0.000    0.000    0.000    0.000    0.000 
#
# Total GULP energy -133742.184073 kJ/mol
# GULP energy per Si atom -5572.591003 kJ/mol
# Density = 1.869316 g / cm^3
# Si number density = 18.735804 Si / 1000 Ang^3
#
#
#
# Elastic Constant Matrix: (Units=GPa)
#
#
# Indices 1 2 3 4 5 6 
#
# 1 135.4666 47.8839 25.7702 0.0000 -31.1729 0.0000
# 2 47.8839 126.3615 40.3454 0.0000 -14.1937 0.0000
# 3 25.7702 40.3454 43.4524 0.0000 -17.3977 0.0000
# 4 0.0000 0.0000 0.0000 -21.8903 0.0000 0.6877
# 5 -31.1729 -14.1937 -17.3977 0.0000 25.6124 0.0000
# 6 0.0000 0.0000 0.0000 0.6877 0.0000 31.2672
#
#
#
# Elastic Compliance Matrix: (Units=1/GPa)
#
#
# Indices 1 2 3 4 5 6 
#
# 1 0.011217 -0.003307 0.001580 0.000000 0.012893 0.000000
# 2 -0.003307 0.012250 -0.011409 0.000000 -0.004986 0.000000
# 3 0.001580 -0.011409 0.042455 0.000000 0.024439 0.000000
# 4 0.000000 0.000000 0.000000 -0.045651 0.000000 0.001004
# 5 0.012893 -0.004986 0.024439 0.000000 0.068574 0.000000
# 6 0.000000 0.000000 0.000000 0.001004 0.000000 0.031960
#
#
# Mechanical properties :
#
#
# Convention : Reuss Voigt Hill
#
# Bulk Modulus (GPa) = 25.22054 59.25328 42.23691
# Shear Modulus (GPa) = 31.19303 19.74991 25.47147
#
# Velocity S-wave (km/s) = 4.08473 3.25025 3.69115
# Velocity P-wave (km/s) = 5.97805 6.76608 6.38424
#
# Compressibility (1/GPa) = 0.03965023
#
# Stress axis : x y z
#
# Youngs Moduli (GPa) = 89.14940 81.63570 23.55456
#
# Poissons Ratio (x) = 0.26997 -0.03722
# Poissons Ratio (y) = 0.29481 0.26873
# Poissons Ratio (z) = -0.14088 0.93137
#
# Static dielectric constant tensor:
#      x y z
#    x 1.700390 0.000000 0.007970 
#    y 0.000000 1.666280 0.000000 
#    z 0.007970 0.000000 1.693790 
# 
# From -- ./inp_files/122433.got.cif
#   From: 2010.05.17/outbox.cif.g08.bks.cpg/sg12_62_cif.got.tgz:122433.got - 2010.06.03 13:09:07.
