data_PCOD9188554
_publ_section_title
;
Structure prediction by ZEFSAII (Michael W. Deem and Ramdas Pophale) SiO2 
 PCOD9188554
Probable space group: C 2/M
;
_chemical_formula_sum "Si O2"
_cell_formula_units_Z 56
_cell_length_a 19.427072
_cell_length_b 18.166964
_cell_length_c 17.584442
_cell_angle_alpha 90.000000
_cell_angle_beta 30.045538
_cell_angle_gamma 90.000000
_cell_volume 3107.317340
_symmetry_space_group_name_H-M "C 2/M"
_symmetry_group_IT_number 12
_symmetry_cell_setting 'monoclinic'
loop_
_space_group_symop_operation_xyz
x,y,z
-x,y,-z
-x,-y,-z
x,-y,z
1/2+x,1/2+y,z
1/2-x,1/2+y,-z
1/2-x,1/2-y,-z
1/2+x,1/2-y,z
loop_
_atom_site_type_symbol
_atom_site_label
_atom_site_fract_x
_atom_site_fract_y
_atom_site_fract_z
Si Si1 0.339702 0.920057 0.632674
Si Si2 0.981186 0.231541 0.850783
Si Si3 0.000941 0.772891 0.659682
Si Si4 0.322981 0.414349 0.521494
Si Si5 0.610178 0.849158 0.834492
Si Si6 0.764499 0.350882 0.554660
Si Si7 0.745914 0.721565 0.807723
O O1 0.500000 0.915219 0.500000
O O2 0.319987 0.908820 0.562040
O O3 0.263761 0.852950 0.744615
O O4 0.288166 0.000000 0.706134
O O5 0.032826 0.308139 0.838619
O O6 0.113172 0.177710 0.722595
O O7 0.936960 0.234056 0.805227
O O8 0.860020 0.208056 0.022463
O O9 0.892200 0.745950 0.701956
O O10 0.052674 0.855330 0.592097
O O11 0.134528 0.719711 0.536875
O O12 0.362305 0.500000 0.477580
O O13 0.221529 0.401966 0.689840
O O14 0.246486 0.386733 0.517771
O O15 0.686321 0.784582 0.809419
O O16 0.500000 0.881379 0.000000
#
# Coordination Sequence:
#
# PCOD9188554 Si02
#       7
#     8   8   8   8   8   8   8
#     4  11  22  35  54  86 120 150 184 231 286 337
#     4  10  19  36  60  85 109 147 197 230 268 331
#     4  11  20  37  62  85 110 149 194 230 276 334
#     4  11  22  37  58  85 112 147 190 238 285 328
#     4  10  20  36  59  83 112 149 191 231 274 337
#     4  11  19  37  61  83 110 149 195 229 271 337
#     4  11  22  36  59  85 117 147 189 234 282 330
#
# _framework density 18.021977
#
# number of rings (size 3 to 8) (size 9 to 14) (size 15 to 20)
#    0.000    1.286    5.714    1.714    0.000    0.286 
#    0.000    5.714    0.000    0.857    0.000    0.000 
#    0.000    0.000    0.000    0.000    0.000    0.000 
#
# Total GULP energy -156261.225061 kJ/mol
# GULP energy per Si atom -5580.758038 kJ/mol
# Density = 1.798096 g / cm^3
# Si number density = 18.021977 Si / 1000 Ang^3
#
#
#
# Elastic Constant Matrix: (Units=GPa)
#
#
# Indices 1 2 3 4 5 6 
#
# 1 53.1903 18.8858 30.7859 0.0006 11.7029 -0.0004
# 2 18.8858 97.8200 45.4786 0.0010 5.9111 -0.0012
# 3 30.7859 45.4786 82.8350 0.0019 10.1768 -0.0012
# 4 0.0006 0.0010 0.0019 11.7305 -0.0012 0.1343
# 5 11.7029 5.9111 10.1768 -0.0012 20.2552 0.0007
# 6 -0.0004 -0.0012 -0.0012 0.1343 0.0007 -2.6174
#
#
#
# Elastic Compliance Matrix: (Units=1/GPa)
#
#
# Indices 1 2 3 4 5 6 
#
# 1 0.026041 -0.000661 -0.007983 -0.000001 -0.010842 -0.000003
# 2 -0.000661 0.013744 -0.007306 0.000000 0.000041 -0.000003
# 3 -0.007983 -0.007306 0.019420 -0.000002 -0.003013 -0.000005
# 4 -0.000001 0.000000 -0.000002 0.085197 0.000007 0.004371
# 5 -0.010842 0.000041 -0.003013 0.000007 0.057136 0.000019
# 6 -0.000003 -0.000003 -0.000005 0.004371 0.000019 -0.381835
#
#
# Mechanical properties :
#
#
# Convention : Reuss Voigt Hill
#
# Bulk Modulus (GPa) = 36.62159 47.12731 41.87445
# Shear Modulus (GPa) = -35.89530 15.12000 -10.38765
#
# Velocity S-wave (km/s) = -4.46775 2.89965 -2.40341
# Velocity P-wave (km/s) = 2.49994 6.11697 3.94763
#
# Compressibility (1/GPa) = 0.02730629
#
# Stress axis : x y z
#
# Youngs Moduli (GPa) = 38.40065 72.75669 51.49239
#
# Poissons Ratio (x) = 0.04808 0.41109
# Poissons Ratio (y) = 0.02538 0.37618
# Poissons Ratio (z) = 0.30657 0.53153
#
# Static dielectric constant tensor:
#      x y z
#    x 1.627890 0.000000 0.012240 
#    y 0.000000 1.598800 0.000000 
#    z 0.012240 0.000000 1.629500 
# 
# From -- ./inp_files/87825.got.cif
#   From: 2010.05.17/outbox.cif.g08.bks.cpg/sg12_44_cif.got.tgz:87825.got - 2010.06.03 13:09:07.
