data_PCOD9188251
_publ_section_title
;
Structure prediction by ZEFSAII (Michael W. Deem and Ramdas Pophale) SiO2 
 PCOD9188251
Probable space group: C 2/M
;
_chemical_formula_sum "Si O2"
_cell_formula_units_Z 56
_cell_length_a 20.764516
_cell_length_b 8.589023
_cell_length_c 18.386931
_cell_angle_alpha 90.000000
_cell_angle_beta 49.218958
_cell_angle_gamma 90.000000
_cell_volume 2483.086586
_symmetry_space_group_name_H-M "C 2/M"
_symmetry_group_IT_number 12
_symmetry_cell_setting 'monoclinic'
loop_
_space_group_symop_operation_xyz
x,y,z
-x,y,-z
-x,-y,-z
x,-y,z
1/2+x,1/2+y,z
1/2-x,1/2+y,-z
1/2-x,1/2-y,-z
1/2+x,1/2-y,z
loop_
_atom_site_type_symbol
_atom_site_label
_atom_site_fract_x
_atom_site_fract_y
_atom_site_fract_z
Si Si1 0.213661 0.829720 0.332920
Si Si2 0.121569 0.678751 0.892492
Si Si3 0.740902 0.188159 0.925745
Si Si4 0.056798 0.323988 0.386235
Si Si5 0.458008 0.813268 0.193053
Si Si6 0.066710 0.814686 0.237013
Si Si7 0.294274 0.321925 0.397075
O O1 0.292923 0.827637 0.219874
O O2 0.128848 0.800163 0.351956
O O3 0.225584 0.696448 0.383306
O O4 0.212952 0.000000 0.369505
O O5 0.096247 0.500000 0.927315
O O6 0.160350 0.749088 0.938098
O O7 0.054719 0.743312 0.881739
O O8 0.833988 0.226358 0.824960
O O9 0.733803 0.000000 0.931446
O O10 0.750000 0.250000 0.000000
O O11 0.089487 0.500000 0.351229
O O12 0.016258 0.267824 0.340172
O O13 0.000000 0.325900 0.500000
O O14 0.535712 0.745676 0.181655
O O15 0.375780 0.765855 0.302521
O O16 0.462939 0.000000 0.186046
O O17 0.056377 0.000000 0.247545
O O18 0.317933 0.500000 0.392498
O O19 0.250000 0.250000 0.500000
#
# Coordination Sequence:
#
# PCOD9188251 Si02
#       7
#     8   8   8   8   8   8   8
#     4  10  19  36  58  80 110 153 200 248 301 353
#     4   8  16  36  61  84 114 152 193 239 292 353
#     4  10  21  40  65  94 121 155 200 249 306 370
#     4  11  24  38  55  83 120 159 205 255 302 360
#     4  10  21  38  61  86 116 157 202 250 307 362
#     4  11  23  41  63  88 124 162 202 254 311 370
#     4  11  22  36  54  80 114 155 205 255 301 356
#
# _framework density 22.552576999999999
#
# number of rings (size 3 to 8) (size 9 to 14) (size 15 to 20)
#    0.000    1.857    1.429    3.857    2.000    2.286 
#    0.000    2.143    0.000    4.286    0.000    0.000 
#    0.000    0.000    0.000    0.000    0.000    0.000 
#
# Total GULP energy -156240.279242 kJ/mol
# GULP energy per Si atom -5580.009973 kJ/mol
# Density = 2.250125 g / cm^3
# Si number density = 22.552577 Si / 1000 Ang^3
#
#
#
# Elastic Constant Matrix: (Units=GPa)
#
#
# Indices 1 2 3 4 5 6 
#
# 1 139.5617 12.0884 30.9064 -0.0002 32.3783 0.0001
# 2 12.0884 58.8859 17.3138 -0.0004 2.7433 0.0003
# 3 30.9064 17.3138 83.0692 -0.0001 28.9404 0.0001
# 4 -0.0002 -0.0004 -0.0001 21.7649 0.0000 7.1949
# 5 32.3783 2.7433 28.9404 0.0000 34.3828 0.0000
# 6 0.0001 0.0003 0.0001 7.1949 0.0000 32.1177
#
#
#
# Elastic Compliance Matrix: (Units=1/GPa)
#
#
# Indices 1 2 3 4 5 6 
#
# 1 0.009302 -0.001454 -0.000207 0.000000 -0.008469 0.000000
# 2 -0.001454 0.018465 -0.004629 0.000000 0.003792 0.000000
# 3 -0.000207 -0.004629 0.018229 0.000000 -0.014779 0.000000
# 4 0.000000 0.000000 0.000000 0.049620 0.000000 -0.011116
# 5 -0.008469 0.003792 -0.014779 0.000000 0.049197 0.000000
# 6 0.000000 0.000000 0.000000 -0.011116 0.000000 0.033626
#
#
# Mechanical properties :
#
#
# Convention : Reuss Voigt Hill
#
# Bulk Modulus (GPa) = 29.92604 44.68155 37.30379
# Shear Modulus (GPa) = 24.73333 32.40031 28.56682
#
# Velocity S-wave (km/s) = 3.31523 3.79444 3.56290
# Velocity P-wave (km/s) = 5.28702 6.24917 5.78813
#
# Compressibility (1/GPa) = 0.03341571
#
# Stress axis : x y z
#
# Youngs Moduli (GPa) = 107.50395 54.15728 54.85836
#
# Poissons Ratio (x) = 0.07875 0.01137
# Poissons Ratio (y) = 0.15632 0.25392
# Poissons Ratio (z) = 0.02227 0.25067
#
# Static dielectric constant tensor:
#      x y z
#    x 1.928280 0.000000 0.005960 
#    y 0.000000 1.794590 0.000000 
#    z 0.005960 0.000000 1.892340 
# 
# From -- ./inp_files/280975.got.cif
#   From: 2010.05.17/outbox.cif.g08.bks.cpg/sg12_141_cif.got.tgz:280975.got - 2010.06.03 13:09:07.
