data_PCOD9188534
_publ_section_title
;
Structure prediction by ZEFSAII (Michael W. Deem and Ramdas Pophale) SiO2 
 PCOD9188534
Probable space group: C 2/M
;
_chemical_formula_sum "Si O2"
_cell_formula_units_Z 40
_cell_length_a 13.259357
_cell_length_b 14.250585
_cell_length_c 11.933297
_cell_angle_alpha 90.000000
_cell_angle_beta 75.568601
_cell_angle_gamma 90.000000
_cell_volume 2183.691800
_symmetry_space_group_name_H-M "C 2/M"
_symmetry_group_IT_number 12
_symmetry_cell_setting 'monoclinic'
loop_
_space_group_symop_operation_xyz
x,y,z
-x,y,-z
-x,-y,-z
x,-y,z
1/2+x,1/2+y,z
1/2-x,1/2+y,-z
1/2-x,1/2-y,-z
1/2+x,1/2-y,z
loop_
_atom_site_type_symbol
_atom_site_label
_atom_site_fract_x
_atom_site_fract_y
_atom_site_fract_z
Si Si1 0.732027 0.890601 0.552461
Si Si2 0.614038 0.766061 0.416556
Si Si3 0.390412 0.779181 0.849324
Si Si4 0.266529 0.609524 0.962410
Si Si5 0.096377 0.391952 0.812461
O O1 0.684117 0.847226 0.453172
O O2 0.831821 0.830532 0.560339
O O3 0.648042 0.878406 0.676179
O O4 0.754638 0.000000 0.535657
O O5 0.500000 0.773372 0.500000
O O6 0.610458 0.772250 0.284284
O O7 0.362527 0.678385 0.910268
O O8 0.500683 0.822166 0.855563
O O9 0.298961 0.848811 0.916098
O O10 0.292317 0.500000 0.967805
O O11 0.187002 0.619473 0.879027
O O12 0.058385 0.500000 0.830936
#
# Coordination Sequence:
#
# PCOD9188534 Si02
#       5
#     8   8   8   8   8
#     4  10  22  38  57  83 117 152 188 233 281 336
#     4  11  22  38  59  85 117 150 188 234 284 336
#     4  11  21  35  61  88 113 148 192 237 281 331
#     4  10  22  39  59  84 116 151 190 234 281 337
#     4  10  19  36  60  84 111 147 192 235 278 332
#
# _framework density 18.317603999999999
#
# number of rings (size 3 to 8) (size 9 to 14) (size 15 to 20)
#    0.000    1.600    4.000    1.200    0.000    4.000 
#    0.000    0.000    0.000   10.800    0.000    0.000 
#    0.000    0.000    0.000    0.000    0.000    0.000 
#
# Total GULP energy -111719.819973 kJ/mol
# GULP energy per Si atom -5585.990999 kJ/mol
# Density = 1.827591 g / cm^3
# Si number density = 18.317604 Si / 1000 Ang^3
#
#
#
# Elastic Constant Matrix: (Units=GPa)
#
#
# Indices 1 2 3 4 5 6 
#
# 1 10.8708 -23.1282 -36.1946 0.0000 28.5587 0.0000
# 2 -23.1282 35.7156 -27.7123 0.0000 47.4063 0.0000
# 3 -36.1946 -27.7123 31.9794 0.0000 16.8340 0.0000
# 4 0.0000 0.0000 0.0000 14.7854 0.0000 -9.0945
# 5 28.5587 47.4063 16.8340 0.0000 -21.5544 0.0000
# 6 0.0000 0.0000 0.0000 -9.0945 0.0000 24.7364
#
#
#
# Elastic Compliance Matrix: (Units=1/GPa)
#
#
# Indices 1 2 3 4 5 6 
#
# 1 0.031928 -0.009840 0.011858 0.000000 0.029922 0.000000
# 2 -0.009840 0.010276 -0.005149 0.000000 0.005541 0.000000
# 3 0.011858 -0.005149 0.026872 0.000000 0.025373 0.000000
# 4 0.000000 0.000000 0.000000 0.087399 0.000000 0.032133
# 5 0.029922 0.005541 0.025373 0.000000 0.025256 0.000000
# 6 0.000000 0.000000 0.000000 0.032133 0.000000 0.052240
#
#
# Mechanical properties :
#
#
# Convention : Reuss Voigt Hill
#
# Bulk Modulus (GPa) = 15.92022 -10.61162 2.65430
# Shear Modulus (GPa) = 19.14451 14.63354 16.88903
#
# Velocity S-wave (km/s) = 3.23637 2.82951 3.03976
# Velocity P-wave (km/s) = 4.76189 2.20661 3.71111
#
# Compressibility (1/GPa) = 0.06281321
#
# Stress axis : x y z
#
# Youngs Moduli (GPa) = 31.32073 97.31382 37.21300
#
# Poissons Ratio (x) = 0.95758 -0.44127
# Poissons Ratio (y) = 0.30820 0.19162
# Poissons Ratio (z) = -0.37140 0.50110
#
# Static dielectric constant tensor:
#      x y z
#    x 1.606750 0.000000 0.000950 
#    y 0.000000 1.620130 0.000000 
#    z 0.000950 0.000000 1.627240 
# 
# From -- ./inp_files/129103.got.cif
#   From: 2010.05.17/outbox.cif.g08.bks.cpg/sg12_65_cif.got.tgz:129103.got - 2010.06.03 13:09:07.
