data_PCOD9188005
_publ_section_title
;
Structure prediction by ZEFSAII (Michael W. Deem and Ramdas Pophale) SiO2 
 PCOD9188005
Probable space group: C 2/M
;
_chemical_formula_sum "Si O2"
_cell_formula_units_Z 58
_cell_length_a 20.771924
_cell_length_b 17.422157
_cell_length_c 11.239178
_cell_angle_alpha 90.000000
_cell_angle_beta 44.824196
_cell_angle_gamma 90.000000
_cell_volume 2867.223392
_symmetry_space_group_name_H-M "C 2/M"
_symmetry_group_IT_number 12
_symmetry_cell_setting 'monoclinic'
loop_
_space_group_symop_operation_xyz
x,y,z
-x,y,-z
-x,-y,-z
x,-y,z
1/2+x,1/2+y,z
1/2-x,1/2+y,-z
1/2-x,1/2-y,-z
1/2+x,1/2-y,z
loop_
_atom_site_type_symbol
_atom_site_label
_atom_site_fract_x
_atom_site_fract_y
_atom_site_fract_z
Si Si1 0.142417 0.414644 0.260543
Si Si2 0.578090 0.697307 0.495841
Si Si3 0.752386 0.230955 0.134904
Si Si4 0.500000 0.000000 0.000000
Si Si5 0.154306 0.910867 0.599234
Si Si6 0.891993 0.216202 0.150248
Si Si7 0.470519 0.131726 0.363020
Si Si8 0.135146 0.385463 0.731715
O O1 0.172048 0.500000 0.198516
O O2 0.223099 0.357298 0.178717
O O3 0.081015 0.408250 0.459408
O O4 0.076947 0.385182 0.240813
O O5 0.500000 0.678472 0.500000
O O6 0.673799 0.719599 0.305172
O O7 0.597590 0.632573 0.568990
O O8 0.546286 0.777267 0.599213
O O9 0.846772 0.232940 0.081590
O O10 0.750000 0.250000 0.000000
O O11 0.419493 0.067476 0.097948
O O12 0.145185 0.857512 0.728955
O O13 0.260711 0.909519 0.422139
O O14 0.126823 0.000000 0.652389
O O15 0.867219 0.293989 0.252178
O O16 0.000000 0.208907 0.000000
O O17 0.425600 0.097592 0.305224
#
# Coordination Sequence:
#
# PCOD9188005 Si02
#       8
#     8   8   8   2   8   8   8   8
#     4  10  21  37  61 100 129 168 221 281 343 415
#     4  11  21  42  72  97 132 185 245 285 347 429
#     4  11  25  42  66 101 138 184 229 284 359 429
#     4  12  28  40  64 110 142 168 216 292 382 424
#     4  12  26  46  73 101 140 189 246 302 354 427
#     4  12  27  45  74 102 139 188 245 300 359 425
#     4  10  19  35  67  96 128 169 219 270 343 422
#     4  12  24  43  67 104 140 177 221 293 369 433
#
# _framework density 20.228628
#
# number of rings (size 3 to 8) (size 9 to 14) (size 15 to 20)
#    0.000    0.828    6.897    2.897    5.793    2.207 
#    0.000    0.690    0.000    0.000    0.000    0.000 
#    0.000    0.000    0.000    0.000    0.000    0.000 
#
# Total GULP energy -161704.689839 kJ/mol
# GULP energy per Si atom -5576.023788 kJ/mol
# Density = 2.018259 g / cm^3
# Si number density = 20.228628 Si / 1000 Ang^3
#
#
#
# Elastic Constant Matrix: (Units=GPa)
#
#
# Indices 1 2 3 4 5 6 
#
# 1 135.9793 9.4105 20.4009 0.0000 -0.0191 0.0000
# 2 9.4105 125.0442 16.0329 0.0000 11.6312 0.0000
# 3 20.4009 16.0329 44.8341 0.0000 -5.2728 0.0000
# 4 0.0000 0.0000 0.0000 -31.1317 0.0000 4.9957
# 5 -0.0191 11.6312 -5.2728 0.0000 28.8412 0.0000
# 6 0.0000 0.0000 0.0000 4.9957 0.0000 -1.4057
#
#
#
# Elastic Compliance Matrix: (Units=1/GPa)
#
#
# Indices 1 2 3 4 5 6 
#
# 1 0.007906 -0.000068 -0.003648 0.000000 -0.000634 0.000000
# 2 -0.000068 0.008863 -0.003637 0.000000 -0.004239 0.000000
# 3 -0.003648 -0.003637 0.025996 0.000000 0.006217 0.000000
# 4 0.000000 0.000000 0.000000 -0.074755 0.000000 -0.265678
# 5 -0.000634 -0.004239 0.006217 0.000000 0.037518 0.000000
# 6 0.000000 0.000000 0.000000 -0.265678 0.000000 -1.655620
#
#
# Mechanical properties :
#
#
# Convention : Reuss Voigt Hill
#
# Bulk Modulus (GPa) = 35.63892 44.17180 39.90536
# Shear Modulus (GPa) = -3.07497 16.59498 6.76001
#
# Velocity S-wave (km/s) = -1.23426 2.86732 1.83004
# Velocity P-wave (km/s) = 3.95286 5.73112 4.92295
#
# Compressibility (1/GPa) = 0.02805921
#
# Stress axis : x y z
#
# Youngs Moduli (GPa) = 126.48705 112.82928 38.46750
#
# Poissons Ratio (x) = 0.00771 0.14031
# Poissons Ratio (y) = 0.00864 0.13990
# Poissons Ratio (z) = 0.46137 0.41035
#
# Static dielectric constant tensor:
#      x y z
#    x 1.946430 0.000000 -0.014650 
#    y 0.000000 1.728500 0.000000 
#    z -0.014650 0.000000 1.814410 
# 
# From -- ./inp_files/168959.got.cif
#   From: 2010.05.17/outbox.cif.g08.bks.cpg/sg12_85_cif.got.tgz:168959.got - 2010.06.03 13:09:07.
