data_PCOD9188516
_publ_section_title
;
Structure prediction by ZEFSAII (Michael W. Deem and Ramdas Pophale) SiO2 
 PCOD9188516
Probable space group: C 2/M
;
_chemical_formula_sum "Si O2"
_cell_formula_units_Z 48
_cell_length_a 22.985867
_cell_length_b 23.665757
_cell_length_c 7.576975
_cell_angle_alpha 90.000000
_cell_angle_beta 32.201280
_cell_angle_gamma 90.000000
_cell_volume 2196.437940
_symmetry_space_group_name_H-M "C 2/M"
_symmetry_group_IT_number 12
_symmetry_cell_setting 'monoclinic'
loop_
_space_group_symop_operation_xyz
x,y,z
-x,y,-z
-x,-y,-z
x,-y,z
1/2+x,1/2+y,z
1/2-x,1/2+y,-z
1/2-x,1/2-y,-z
1/2+x,1/2-y,z
loop_
_atom_site_type_symbol
_atom_site_label
_atom_site_fract_x
_atom_site_fract_y
_atom_site_fract_z
Si Si1 0.425474 0.836418 0.557126
Si Si2 0.793750 0.118583 0.239141
Si Si3 0.478325 0.564963 0.267601
Si Si4 0.217481 0.858643 0.330563
Si Si5 0.286408 0.232867 0.706783
Si Si6 0.421366 0.062115 0.369349
O O1 0.500000 0.802649 0.500000
O O2 0.398362 0.799863 0.456604
O O3 0.477240 0.893866 0.357091
O O4 0.320689 0.855817 0.937390
O O5 0.765874 0.114608 0.519720
O O6 0.788649 0.184294 0.187186
O O7 0.697602 0.086052 0.381879
O O8 0.913519 0.090441 0.917124
O O9 0.456350 0.500000 0.380850
O O10 0.377256 0.608536 0.532465
O O11 0.500000 0.562650 0.000000
O O12 0.195061 0.792458 0.432003
O O13 0.250000 0.250000 0.000000
O O14 0.408425 0.000000 0.479015
O O15 0.500000 0.059550 0.000000
#
# Coordination Sequence:
#
# PCOD9188516 Si02
#       6
#     8   8   8   8   8   8
#     4  10  21  37  55  79 111 145 184 234 287 336
#     4  10  19  36  60  83 111 149 191 232 280 339
#     4   9  19  35  56  84 116 149 187 233 284 339
#     4  10  20  35  57  85 113 145 188 234 283 337
#     4   9  20  36  54  81 114 147 185 232 284 337
#     4  10  21  37  56  80 110 145 186 231 283 342
#
# _framework density 21.853566000000001
#
# number of rings (size 3 to 8) (size 9 to 14) (size 15 to 20)
#    0.000    2.333    0.000    2.000    0.000    4.333 
#    0.000   18.333    0.000   10.000    0.000    0.000 
#    0.000    0.000    0.000    0.000    0.000    0.000 
#
# Total GULP energy -133729.926913 kJ/mol
# GULP energy per Si atom -5572.080288 kJ/mol
# Density = 2.180383 g / cm^3
# Si number density = 21.853566 Si / 1000 Ang^3
#
#
#
# Elastic Constant Matrix: (Units=GPa)
#
#
# Indices 1 2 3 4 5 6 
#
# 1 58.9248 7.5666 -2.3514 0.0000 -14.8418 -0.0004
# 2 7.5666 119.1055 8.8446 0.0000 -16.4927 -0.0003
# 3 -2.3514 8.8446 54.9196 0.0001 -13.0468 -0.0010
# 4 0.0000 0.0000 0.0001 18.2103 0.0000 -34.3387
# 5 -14.8418 -16.4927 -13.0468 0.0000 34.2791 0.0004
# 6 -0.0004 -0.0003 -0.0010 -34.3387 0.0004 351.3003
#
#
#
# Elastic Compliance Matrix: (Units=1/GPa)
#
#
# Indices 1 2 3 4 5 6 
#
# 1 0.019527 -0.000147 0.003135 0.000000 0.009577 0.000000
# 2 -0.000147 0.009007 -0.000486 0.000000 0.004085 0.000000
# 3 0.003135 -0.000486 0.020546 0.000000 0.008943 0.000000
# 4 0.000000 0.000000 0.000000 0.067323 0.000000 0.006581
# 5 0.009577 0.004085 0.008943 0.000000 0.038688 0.000000
# 6 0.000000 0.000000 0.000000 0.006581 0.000000 0.003490
#
#
# Mechanical properties :
#
#
# Convention : Reuss Voigt Hill
#
# Bulk Modulus (GPa) = 18.49045 29.00770 23.74908
# Shear Modulus (GPa) = 29.13666 95.35062 62.24364
#
# Velocity S-wave (km/s) = 3.65536 6.61259 5.34266
# Velocity P-wave (km/s) = 5.12786 8.46193 6.99640
#
# Compressibility (1/GPa) = 0.05408198
#
# Stress axis : x y z
#
# Youngs Moduli (GPa) = 51.21115 111.02474 48.67240
#
# Poissons Ratio (x) = 0.01634 -0.15258
# Poissons Ratio (y) = 0.00754 0.02368
# Poissons Ratio (z) = -0.16054 0.05401
#
# Static dielectric constant tensor:
#      x y z
#    x 1.835420 0.000000 -0.028950 
#    y 0.000000 1.984550 0.000000 
#    z -0.028950 0.000000 1.827070 
# 
# From -- ./inp_files/99755.got.cif
#   From: 2010.05.17/outbox.cif.g08.bks.cpg/sg12_50_cif.got.tgz:99755.got - 2010.06.03 13:09:07.
