data_PCOD9188902
_publ_section_title
;
Structure prediction by ZEFSAII (Michael W. Deem and Ramdas Pophale) SiO2 
 PCOD9188902
Probable space group: C 2/M
;
_chemical_formula_sum "Si O2"
_cell_formula_units_Z 28
_cell_length_a 10.447084
_cell_length_b 21.764822
_cell_length_c 5.605761
_cell_angle_alpha 90.000000
_cell_angle_beta 65.066517
_cell_angle_gamma 90.000000
_cell_volume 1155.833419
_symmetry_space_group_name_H-M "C 2/M"
_symmetry_group_IT_number 12
_symmetry_cell_setting 'monoclinic'
loop_
_space_group_symop_operation_xyz
x,y,z
-x,y,-z
-x,-y,-z
x,-y,z
1/2+x,1/2+y,z
1/2-x,1/2+y,-z
1/2-x,1/2-y,-z
1/2+x,1/2-y,z
loop_
_atom_site_type_symbol
_atom_site_label
_atom_site_fract_x
_atom_site_fract_y
_atom_site_fract_z
Si Si1 0.193949 0.135228 0.506555
Si Si2 0.289002 0.320166 0.011388
Si Si3 0.413436 0.500000 0.320442
Si Si4 0.996759 0.399260 0.751955
O O1 0.143371 0.172298 0.778779
O O2 0.171073 0.063745 0.591844
O O3 0.364010 0.143620 0.353237
O O4 0.138760 0.152690 0.285608
O O5 0.145501 0.359945 0.141420
O O6 0.250000 0.250000 0.000000
O O7 0.500000 0.500000 0.500000
O O8 0.500000 0.500000 0.000000
O O9 0.000000 0.433919 0.500000
O O10 0.000000 0.433651 0.000000
#
# Coordination Sequence:
#
# PCOD9188902 Si02
#       4
#     8   8   4   8
#     4  10  21  40  61  86 121 164 209 261 318 374
#     4  10  19  36  62  95 129 159 197 252 316 389
#     4  12  26  46  64  86 122 166 226 284 322 378
#     4   8  16  32  54  83 117 147 185 235 293 363
#
# _framework density 24.224945000000002
#
# number of rings (size 3 to 8) (size 9 to 14) (size 15 to 20)
#    0.000    2.286    0.000    2.571    0.000    0.000 
#    0.000   38.571    0.000    0.000    0.000    0.000 
#    0.000    0.000    0.000    0.000    0.000    0.000 
#
# Total GULP energy -78064.068728 kJ/mol
# GULP energy per Si atom -5576.004909 kJ/mol
# Density = 2.416981 g / cm^3
# Si number density = 24.224945 Si / 1000 Ang^3
#
#
#
# Elastic Constant Matrix: (Units=GPa)
#
#
# Indices 1 2 3 4 5 6 
#
# 1 62.9292 -8.5047 51.9420 0.0000 8.5345 0.0000
# 2 -8.5047 142.2447 60.8211 0.0000 10.3247 0.0000
# 3 51.9420 60.8211 294.2556 0.0000 53.2469 0.0000
# 4 0.0000 0.0000 0.0000 39.8723 0.0000 26.8064
# 5 8.5345 10.3247 53.2469 0.0000 66.4760 0.0000
# 6 0.0000 0.0000 0.0000 26.8064 0.0000 13.8506
#
#
#
# Elastic Compliance Matrix: (Units=1/GPa)
#
#
# Indices 1 2 3 4 5 6 
#
# 1 0.019651 0.002917 -0.004132 0.000000 0.000334 0.000000
# 2 0.002917 0.008145 -0.002224 0.000000 0.000142 0.000000
# 3 -0.004132 -0.002224 0.005180 0.000000 -0.003273 0.000000
# 4 0.000000 0.000000 0.000000 -0.083274 0.000000 0.161168
# 5 0.000334 0.000142 -0.003273 0.000000 0.017600 0.000000
# 6 0.000000 0.000000 0.000000 0.161168 0.000000 -0.239724
#
#
# Mechanical properties :
#
#
# Convention : Reuss Voigt Hill
#
# Bulk Modulus (GPa) = 38.31738 78.66071 58.48904
# Shear Modulus (GPa) = -19.46691 50.38453 15.45881
#
# Velocity S-wave (km/s) = -2.83784 4.56550 2.52888
# Velocity P-wave (km/s) = 2.26139 7.76744 5.72045
#
# Compressibility (1/GPa) = 0.02609782
#
# Stress axis : x y z
#
# Youngs Moduli (GPa) = 50.88910 122.76978 193.05636
#
# Poissons Ratio (x) = -0.35818 0.79774
# Poissons Ratio (y) = -0.14847 0.42941
# Poissons Ratio (z) = 0.21028 0.27307
#
# Static dielectric constant tensor:
#      x y z
#    x 2.022340 0.000000 0.066610 
#    y 0.000000 1.958400 0.000000 
#    z 0.066610 0.000000 2.052330 
# 
# From -- ./inp_files/5640.got.cif
#   From: 2010.05.17/outbox.cif.g08.bks.cpg/sg12_3_cif.got.tgz:5640.got - 2010.06.03 13:09:07.
