data_PCOD9188109
_publ_section_title
;
Structure prediction by ZEFSAII (Michael W. Deem and Ramdas Pophale) SiO2 
 PCOD9188109
Probable space group: C 2/M
;
_chemical_formula_sum "Si O2"
_cell_formula_units_Z 48
_cell_length_a 15.966729
_cell_length_b 16.167811
_cell_length_c 10.537806
_cell_angle_alpha 90.000000
_cell_angle_beta 112.134322
_cell_angle_gamma 90.000000
_cell_volume 2519.825645
_symmetry_space_group_name_H-M "C 2/M"
_symmetry_group_IT_number 12
_symmetry_cell_setting 'monoclinic'
loop_
_space_group_symop_operation_xyz
x,y,z
-x,y,-z
-x,-y,-z
x,-y,z
1/2+x,1/2+y,z
1/2-x,1/2+y,-z
1/2-x,1/2-y,-z
1/2+x,1/2-y,z
loop_
_atom_site_type_symbol
_atom_site_label
_atom_site_fract_x
_atom_site_fract_y
_atom_site_fract_z
Si Si1 0.895506 0.702594 0.447858
Si Si2 0.762334 0.092898 0.723473
Si Si3 0.402484 0.734917 0.729477
Si Si4 0.275234 0.125475 0.009876
Si Si5 0.093209 0.589354 0.131176
Si Si6 0.387075 0.718536 0.169074
O O1 0.824619 0.627939 0.401209
O O2 0.883549 0.755013 0.568745
O O3 0.879910 0.757867 0.313331
O O4 0.000000 0.674018 0.500000
O O5 0.838687 0.164015 0.751015
O O6 0.733191 0.089798 0.854389
O O7 0.789053 0.000000 0.698969
O O8 0.390260 0.827221 0.779807
O O9 0.508198 0.712883 0.806645
O O10 0.336670 0.207710 0.065748
O O11 0.329167 0.082935 0.929158
O O12 0.174375 0.141679 0.902608
O O13 0.087602 0.500000 0.197864
O O14 0.000000 0.599216 0.000000
#
# Coordination Sequence:
#
# PCOD9188109 Si02
#       6
#     8   8   8   8   8   8
#     4   9  20  38  60  86 111 152 198 242 295 346
#     4  11  24  38  58  86 121 159 194 237 287 348
#     4  11  21  38  61  87 119 152 195 240 291 348
#     4  10  19  36  56  82 117 154 193 237 289 343
#     4  11  22  35  57  86 114 148 192 243 293 339
#     4   9  18  35  62  83 112 156 192 236 290 341
#
# _framework density 19.048936999999999
#
# number of rings (size 3 to 8) (size 9 to 14) (size 15 to 20)
#    0.000    1.833    1.667    4.000    0.000    1.000 
#    0.000    2.500    0.000    5.500    0.000    0.000 
#    0.000    0.000    0.000    0.000    0.000    0.000 
#
# Total GULP energy -133799.006057 kJ/mol
# GULP energy per Si atom -5574.958586 kJ/mol
# Density = 1.900558 g / cm^3
# Si number density = 19.048937 Si / 1000 Ang^3
#
#
#
# Elastic Constant Matrix: (Units=GPa)
#
#
# Indices 1 2 3 4 5 6 
#
# 1 92.8212 39.0051 23.0635 0.0000 9.2426 0.0000
# 2 39.0051 78.8628 4.9142 0.0000 13.7432 0.0000
# 3 23.0635 4.9142 50.8767 0.0000 17.8155 0.0000
# 4 0.0000 0.0000 0.0000 18.0634 0.0000 11.8855
# 5 9.2426 13.7432 17.8155 0.0000 26.2089 0.0000
# 6 0.0000 0.0000 0.0000 11.8855 0.0000 12.4916
#
#
#
# Elastic Compliance Matrix: (Units=1/GPa)
#
#
# Indices 1 2 3 4 5 6 
#
# 1 0.015623 -0.007921 -0.007668 0.000000 0.003856 0.000000
# 2 -0.007921 0.018071 0.005493 0.000000 -0.010416 0.000000
# 3 -0.007668 0.005493 0.029742 0.000000 -0.020393 0.000000
# 4 0.000000 0.000000 0.000000 0.148047 0.000000 -0.140863
# 5 0.003856 -0.010416 -0.020393 0.000000 0.056119 0.000000
# 6 0.000000 0.000000 0.000000 -0.140863 0.000000 0.214081
#
#
# Mechanical properties :
#
#
# Convention : Reuss Voigt Hill
#
# Bulk Modulus (GPa) = 23.12457 39.61403 31.36930
# Shear Modulus (GPa) = 9.68447 21.72464 15.70455
#
# Velocity S-wave (km/s) = 2.25722 3.38074 2.87441
# Velocity P-wave (km/s) = 4.35423 6.00669 5.24593
#
# Compressibility (1/GPa) = 0.04324405
#
# Stress axis : x y z
#
# Youngs Moduli (GPa) = 64.00687 55.33705 33.62266
#
# Poissons Ratio (x) = 0.43835 0.25781
# Poissons Ratio (y) = 0.50703 -0.18469
# Poissons Ratio (z) = 0.49078 -0.30396
#
# Static dielectric constant tensor:
#      x y z
#    x 1.672380 0.000000 -0.008040 
#    y 0.000000 1.764760 0.000000 
#    z -0.008040 0.000000 1.652400 
# 
# From -- ./inp_files/144957.got.cif
#   From: 2010.05.17/outbox.cif.g08.bks.cpg/sg12_73_cif.got.tgz:144957.got - 2010.06.03 13:09:07.
