data_PCOD9188865
_publ_section_title
;
Structure prediction by ZEFSAII (Michael W. Deem and Ramdas Pophale) SiO2 
 PCOD9188865
Probable space group: C 2/M
;
_chemical_formula_sum "Si O2"
_cell_formula_units_Z 56
_cell_length_a 14.440845
_cell_length_b 11.284063
_cell_length_c 15.859789
_cell_angle_alpha 90.000000
_cell_angle_beta 75.849246
_cell_angle_gamma 90.000000
_cell_volume 2505.954197
_symmetry_space_group_name_H-M "C 2/M"
_symmetry_group_IT_number 12
_symmetry_cell_setting 'monoclinic'
loop_
_space_group_symop_operation_xyz
x,y,z
-x,y,-z
-x,-y,-z
x,-y,z
1/2+x,1/2+y,z
1/2-x,1/2+y,-z
1/2-x,1/2-y,-z
1/2+x,1/2-y,z
loop_
_atom_site_type_symbol
_atom_site_label
_atom_site_fract_x
_atom_site_fract_y
_atom_site_fract_z
Si Si1 0.637653 0.376444 0.351474
Si Si2 0.117643 0.860963 0.703230
Si Si3 0.166683 0.367785 0.590333
Si Si4 0.099186 0.372138 0.428100
Si Si5 0.905350 0.821842 0.817393
Si Si6 0.604568 0.637022 0.988272
Si Si7 0.260351 0.860839 0.824719
O O1 0.584599 0.500000 0.385685
O O2 0.733521 0.375628 0.383852
O O3 0.592788 0.248638 0.378627
O O4 0.650780 0.379690 0.248263
O O5 0.119552 0.753464 0.635477
O O6 0.206863 0.840002 0.747103
O O7 0.017095 0.846280 0.775668
O O8 0.122651 0.000000 0.673774
O O9 0.120021 0.500000 0.616098
O O10 0.175539 0.360192 0.487127
O O11 0.115698 0.500000 0.381197
O O12 0.000000 0.379123 0.500000
O O13 0.877345 0.862708 0.916369
O O14 0.865495 0.689562 0.816234
O O15 0.595682 0.500000 0.960977
O O16 0.500000 0.693922 0.000000
O O17 0.688066 0.689654 0.912263
O O18 0.265640 0.000000 0.833763
#
# Coordination Sequence:
#
# PCOD9188865 Si02
#       7
#     8   8   8   8   8   8   8
#     4  11  23  37  58  92 124 157 204 260 317 368
#     4  11  22  39  64  94 124 165 216 259 307 377
#     4  10  22  41  61  88 127 164 204 260 318 370
#     4  10  22  40  61  85 118 165 212 250 305 378
#     4  12  22  37  63  91 124 162 207 261 317 372
#     4  10  19  36  62  89 121 163 210 260 310 371
#     4  10  22  39  59  89 125 164 212 260 312 377
#
# _framework density 22.346778
#
# number of rings (size 3 to 8) (size 9 to 14) (size 15 to 20)
#    0.000    1.429    2.857    3.000    0.000    2.571 
#    0.000    0.000    0.000    0.429    0.000    0.000 
#    0.000    0.000    0.000    0.000    0.000    0.000 
#
# Total GULP energy -156119.925043 kJ/mol
# GULP energy per Si atom -5575.711609 kJ/mol
# Density = 2.229592 g / cm^3
# Si number density = 22.346778 Si / 1000 Ang^3
#
#
#
# Elastic Constant Matrix: (Units=GPa)
#
#
# Indices 1 2 3 4 5 6 
#
# 1 64.4448 18.0652 -0.4073 0.0000 13.6271 0.0000
# 2 18.0652 188.8043 50.7632 0.0000 -12.9221 0.0000
# 3 -0.4073 50.7632 70.5563 0.0000 5.8653 0.0000
# 4 0.0000 0.0000 0.0000 16.9829 0.0000 -14.5993
# 5 13.6271 -12.9221 5.8653 0.0000 30.4213 0.0000
# 6 0.0000 0.0000 0.0000 -14.5993 0.0000 9.1150
#
#
#
# Elastic Compliance Matrix: (Units=1/GPa)
#
#
# Indices 1 2 3 4 5 6 
#
# 1 0.018728 -0.003442 0.003459 0.000000 -0.010518 0.000000
# 2 -0.003442 0.007652 -0.006020 0.000000 0.005953 0.000000
# 3 0.003459 -0.006020 0.019173 0.000000 -0.007803 0.000000
# 4 0.000000 0.000000 0.000000 -0.156239 0.000000 -0.250244
# 5 -0.010518 0.005953 -0.007803 0.000000 0.041616 0.000000
# 6 0.000000 0.000000 0.000000 -0.250244 0.000000 -0.291101
#
#
# Mechanical properties :
#
#
# Convention : Reuss Voigt Hill
#
# Bulk Modulus (GPa) = 29.80941 51.18306 40.49623
# Shear Modulus (GPa) = -14.83750 28.32946 6.74598
#
# Velocity S-wave (km/s) = -2.57955 3.56437 1.73935
# Velocity P-wave (km/s) = 2.12045 6.31612 4.71114
#
# Compressibility (1/GPa) = 0.03354646
#
# Stress axis : x y z
#
# Youngs Moduli (GPa) = 53.39654 130.68898 52.15713
#
# Poissons Ratio (x) = 0.44979 -0.18039
# Poissons Ratio (y) = 0.18377 0.31398
# Poissons Ratio (z) = -0.18468 0.78674
#
# Static dielectric constant tensor:
#      x y z
#    x 1.878010 0.000000 -0.021250 
#    y 0.000000 1.925900 0.000000 
#    z -0.021250 0.000000 1.855470 
# 
# From -- ./inp_files/213402.got.cif
#   From: 2010.05.17/outbox.cif.g08.bks.cpg/sg12_107_cif.got.tgz:213402.got - 2010.06.03 13:09:07.
