data_PCOD9188929
_publ_section_title
;
Structure prediction by ZEFSAII (Michael W. Deem and Ramdas Pophale) SiO2 
 PCOD9188929
Probable space group: C 2/M
;
_chemical_formula_sum "Si O2"
_cell_formula_units_Z 48
_cell_length_a 14.505437
_cell_length_b 20.709631
_cell_length_c 15.888500
_cell_angle_alpha 90.000000
_cell_angle_beta 146.756677
_cell_angle_gamma 90.000000
_cell_volume 2616.506123
_symmetry_space_group_name_H-M "C 2/M"
_symmetry_group_IT_number 12
_symmetry_cell_setting 'monoclinic'
loop_
_space_group_symop_operation_xyz
x,y,z
-x,y,-z
-x,-y,-z
x,-y,z
1/2+x,1/2+y,z
1/2-x,1/2+y,-z
1/2-x,1/2-y,-z
1/2+x,1/2-y,z
loop_
_atom_site_type_symbol
_atom_site_label
_atom_site_fract_x
_atom_site_fract_y
_atom_site_fract_z
Si Si1 0.821453 0.426697 0.909427
Si Si2 0.200901 0.695073 0.662392
Si Si3 0.302047 0.147277 0.067936
Si Si4 0.014511 0.773888 0.247142
Si Si5 0.599739 0.316568 0.663382
Si Si6 0.298577 0.573349 0.841364
O O1 0.757932 0.500000 0.866740
O O2 0.699363 0.380353 0.763896
O O3 0.840054 0.396030 0.015838
O O4 0.000000 0.427046 0.000000
O O5 0.309208 0.713791 0.663813
O O6 0.224583 0.755039 0.745385
O O7 0.255803 0.625901 0.738153
O O8 0.000000 0.692281 0.500000
O O9 0.447616 0.200401 0.193177
O O10 0.273904 0.103102 0.127739
O O11 0.129311 0.185746 0.913531
O O12 0.012620 0.798265 0.341714
O O13 0.500000 0.325070 0.500000
O O14 0.238033 0.500000 0.780399
O O15 0.500000 0.571117 0.000000
#
# Coordination Sequence:
#
# PCOD9188929 Si02
#       6
#     8   8   8   8   8   8
#     4  10  21  37  58  86 118 152 192 243 299 354
#     4  11  23  39  58  88 124 158 198 249 302 364
#     4  10  19  36  63  90 115 150 198 254 293 356
#     4  10  20  36  61  90 117 151 200 245 303 349
#     4  10  22  38  58  84 115 156 198 244 289 354
#     4  11  22  38  62  89 120 156 202 252 304 365
#
# _framework density 18.345075000000001
#
# number of rings (size 3 to 8) (size 9 to 14) (size 15 to 20)
#    0.000    1.667    3.333    1.500    0.000    4.000 
#    3.000    0.000    0.000    0.000    0.000    0.000 
#    0.000    0.000    0.000    0.000    0.000    0.000 
#
# Total GULP energy -133957.479679 kJ/mol
# GULP energy per Si atom -5581.561653 kJ/mol
# Density = 1.830332 g / cm^3
# Si number density = 18.345075 Si / 1000 Ang^3
#
#
#
# Elastic Constant Matrix: (Units=GPa)
#
#
# Indices 1 2 3 4 5 6 
#
# 1 145.8808 64.2217 45.1489 0.0000 5.7695 -0.0001
# 2 64.2217 182.1656 54.0526 0.0000 -3.4742 0.0000
# 3 45.1489 54.0526 71.5757 0.0001 -1.0791 -0.0002
# 4 0.0000 0.0000 0.0001 32.6006 0.0001 -15.7450
# 5 5.7695 -3.4742 -1.0791 0.0001 26.5023 -0.0001
# 6 -0.0001 0.0000 -0.0002 -15.7450 -0.0001 51.0433
#
#
#
# Elastic Compliance Matrix: (Units=1/GPa)
#
#
# Indices 1 2 3 4 5 6 
#
# 1 0.009164 -0.001999 -0.004308 0.000000 -0.002433 0.000000
# 2 -0.001999 0.007524 -0.004403 0.000000 0.001242 0.000000
# 3 -0.004308 -0.004403 0.020031 0.000000 0.001176 0.000000
# 4 0.000000 0.000000 0.000000 0.036044 0.000000 0.011118
# 5 -0.002433 0.001242 0.001176 0.000000 0.038473 0.000000
# 6 0.000000 0.000000 0.000000 0.011118 0.000000 0.023021
#
#
# Mechanical properties :
#
#
# Convention : Reuss Voigt Hill
#
# Bulk Modulus (GPa) = 65.35547 80.71872 73.03710
# Shear Modulus (GPa) = 31.09909 37.77582 34.43746
#
# Velocity S-wave (km/s) = 4.12178 4.54274 4.33737
# Velocity P-wave (km/s) = 7.63905 8.46233 8.06121
#
# Compressibility (1/GPa) = 0.01530094
#
# Stress axis : x y z
#
# Youngs Moduli (GPa) = 109.11805 132.90316 49.92275
#
# Poissons Ratio (x) = 0.26568 0.21506
# Poissons Ratio (y) = 0.21813 0.21979
# Poissons Ratio (z) = 0.47006 0.58511
#
# Static dielectric constant tensor:
#      x y z
#    x 1.626370 0.000000 -0.004620 
#    y 0.000000 1.643140 0.000000 
#    z -0.004620 0.000000 1.641450 
# 
# From -- ./inp_files/89740.got.cif
#   From: 2010.05.17/outbox.cif.g08.bks.cpg/sg12_45_cif.got.tgz:89740.got - 2010.06.03 13:09:07.
