data_PCOD9188761
_publ_section_title
;
Structure prediction by ZEFSAII (Michael W. Deem and Ramdas Pophale) SiO2 
 PCOD9188761
Probable space group: C 2/M
;
_chemical_formula_sum "Si O2"
_cell_formula_units_Z 56
_cell_length_a 25.930283
_cell_length_b 7.792857
_cell_length_c 13.819414
_cell_angle_alpha 90.000000
_cell_angle_beta 68.485545
_cell_angle_gamma 90.000000
_cell_volume 2597.935220
_symmetry_space_group_name_H-M "C 2/M"
_symmetry_group_IT_number 12
_symmetry_cell_setting 'monoclinic'
loop_
_space_group_symop_operation_xyz
x,y,z
-x,y,-z
-x,-y,-z
x,-y,z
1/2+x,1/2+y,z
1/2-x,1/2+y,-z
1/2-x,1/2-y,-z
1/2+x,1/2-y,z
loop_
_atom_site_type_symbol
_atom_site_label
_atom_site_fract_x
_atom_site_fract_y
_atom_site_fract_z
Si Si1 0.865745 0.201253 0.774447
Si Si2 0.939112 0.790436 0.073692
Si Si3 0.582365 0.706749 0.693524
Si Si4 0.294036 0.200696 0.388240
Si Si5 0.337438 0.710250 0.007461
Si Si6 0.246415 0.300478 0.217761
Si Si7 0.484603 0.289340 0.618827
O O1 0.814182 0.218105 0.737442
O O2 0.923897 0.271007 0.694943
O O3 0.876054 0.000000 0.784283
O O4 0.845298 0.271244 0.892355
O O5 0.925992 0.731538 0.190951
O O6 0.891427 0.739332 0.032027
O O7 0.939201 0.000000 0.074467
O O8 0.000000 0.734420 0.000000
O O9 0.579485 0.500000 0.697099
O O10 0.644138 0.755051 0.620050
O O11 0.532930 0.766562 0.658675
O O12 0.250000 0.250000 0.500000
O O13 0.279623 0.286185 0.295257
O O14 0.290428 0.000000 0.372949
O O15 0.334764 0.500000 0.009506
O O16 0.283725 0.771299 0.103997
O O17 0.236926 0.500000 0.205163
O O18 0.500000 0.235317 0.500000
O O19 0.483926 0.500000 0.619205
#
# Coordination Sequence:
#
# PCOD9188761 Si02
#       7
#     8   8   8   8   8   8   8
#     4  10  20  35  57  87 121 162 207 248 294 351
#     4   9  15  26  51  84 115 153 198 245 293 345
#     4  10  19  36  61  88 120 155 197 248 299 355
#     4  12  26  43  64  90 119 154 196 246 303 364
#     4   9  17  31  52  83 120 154 196 247 296 351
#     4  11  22  39  60  87 121 157 198 248 303 357
#     4   9  19  34  55  86 120 155 199 248 295 348
#
# _framework density 21.555579000000002
#
# number of rings (size 3 to 8) (size 9 to 14) (size 15 to 20)
#    0.000    2.000    1.429    3.000    2.000    3.429 
#    0.000    1.429    0.000    1.286    0.000    0.000 
#    0.000    0.000    0.000    0.000    0.000    0.000 
#
# Total GULP energy -156461.599697 kJ/mol
# GULP energy per Si atom -5587.914275 kJ/mol
# Density = 2.150652 g / cm^3
# Si number density = 21.555579 Si / 1000 Ang^3
#
#
#
# Elastic Constant Matrix: (Units=GPa)
#
#
# Indices 1 2 3 4 5 6 
#
# 1 143.0595 -1.2911 48.5958 0.0000 -28.9196 0.0000
# 2 -1.2911 29.9548 6.5354 0.0000 0.3286 0.0000
# 3 48.5958 6.5354 103.3728 0.0000 -28.8051 0.0000
# 4 0.0000 0.0000 0.0000 8.0199 0.0000 -1.1221
# 5 -28.9196 0.3286 -28.8051 0.0000 41.7607 0.0000
# 6 0.0000 0.0000 0.0000 -1.1221 0.0000 15.2995
#
#
#
# Elastic Compliance Matrix: (Units=1/GPa)
#
#
# Indices 1 2 3 4 5 6 
#
# 1 0.008864 0.001020 -0.003124 0.000000 0.003976 0.000000
# 2 0.001020 0.034126 -0.003113 0.000000 -0.001710 0.000000
# 3 -0.003124 -0.003113 0.013299 0.000000 0.007035 0.000000
# 4 0.000000 0.000000 0.000000 0.125983 0.000000 0.009240
# 5 0.003976 -0.001710 0.007035 0.000000 0.031565 0.000000
# 6 0.000000 0.000000 0.000000 0.009240 0.000000 0.066039
#
#
# Mechanical properties :
#
#
# Convention : Reuss Voigt Hill
#
# Bulk Modulus (GPa) = 21.80797 42.67414 32.24106
# Shear Modulus (GPa) = 16.36150 27.85248 22.10699
#
# Velocity S-wave (km/s) = 2.75805 3.59851 3.20594
# Velocity P-wave (km/s) = 4.50350 6.09147 5.35665
#
# Compressibility (1/GPa) = 0.04585479
#
# Stress axis : x y z
#
# Youngs Moduli (GPa) = 112.81480 29.30351 75.19243
#
# Poissons Ratio (x) = -0.02989 0.23487
# Poissons Ratio (y) = -0.11506 0.23410
# Poissons Ratio (z) = 0.35239 0.09123
#
# Static dielectric constant tensor:
#      x y z
#    x 1.753690 0.000000 -0.009960 
#    y 0.000000 1.804030 0.000000 
#    z -0.009960 0.000000 1.753890 
# 
# From -- ./inp_files/237808.got.cif
#   From: 2010.05.17/outbox.cif.g08.bks.cpg/sg12_119_cif.got.tgz:237808.got - 2010.06.03 13:09:07.
