data_PCOD9188866
_publ_section_title
;
Structure prediction by ZEFSAII (Michael W. Deem and Ramdas Pophale) SiO2 
 PCOD9188866
Probable space group: C 2/M
;
_chemical_formula_sum "Si O2"
_cell_formula_units_Z 44
_cell_length_a 29.341078
_cell_length_b 9.232607
_cell_length_c 7.360081
_cell_angle_alpha 90.000000
_cell_angle_beta 72.547474
_cell_angle_gamma 90.000000
_cell_volume 1902.023184
_symmetry_space_group_name_H-M "C 2/M"
_symmetry_group_IT_number 12
_symmetry_cell_setting 'monoclinic'
loop_
_space_group_symop_operation_xyz
x,y,z
-x,y,-z
-x,-y,-z
x,-y,z
1/2+x,1/2+y,z
1/2-x,1/2+y,-z
1/2-x,1/2-y,-z
1/2+x,1/2-y,z
loop_
_atom_site_type_symbol
_atom_site_label
_atom_site_fract_x
_atom_site_fract_y
_atom_site_fract_z
Si Si1 0.962464 0.326394 0.314011
Si Si2 0.553851 0.672767 0.277260
Si Si3 0.626387 0.334326 0.693885
Si Si4 0.794704 0.761181 0.671773
Si Si5 0.233157 0.500000 0.560837
Si Si6 0.836910 0.169165 0.973182
O O1 0.967230 0.500000 0.314446
O O2 0.949811 0.257324 0.526769
O O3 0.917396 0.275867 0.249778
O O4 0.012406 0.248178 0.207515
O O5 0.544808 0.500000 0.309285
O O6 0.606928 0.689396 0.138097
O O7 0.608872 0.500000 0.737705
O O8 0.655627 0.324006 0.472697
O O9 0.663901 0.305213 0.810585
O O10 0.783546 0.622447 0.567456
O O11 0.754505 0.875938 0.672826
O O12 0.805425 0.740306 0.871487
O O13 0.824776 0.000000 0.957888
#
# Coordination Sequence:
#
# PCOD9188866 Si02
#       6
#     8   8   8   8   4   8
#     4  11  22  36  57  90 128 164 205 251 297 351
#     4  10  19  36  62  89 121 165 211 250 292 351
#     4  11  22  39  64  89 122 165 203 246 298 356
#     4  11  21  45  64  93 122 156 196 253 300 372
#     4  10  24  40  72  90 118 160 196 240 324 364
#     4  10  21  38  64  92 120 160 206 248 294 358
#
# _framework density 23.133261999999998
#
# number of rings (size 3 to 8) (size 9 to 14) (size 15 to 20)
#    0.000    1.455    3.636    3.273    1.273    0.727 
#    3.273    9.091    0.000    0.000    0.000    0.000 
#    0.000    0.000    0.000    0.000    0.000    0.000 
#
# Total GULP energy -122470.431718 kJ/mol
# GULP energy per Si atom -5566.837805 kJ/mol
# Density = 2.308061 g / cm^3
# Si number density = 23.133262 Si / 1000 Ang^3
#
#
#
# Elastic Constant Matrix: (Units=GPa)
#
#
# Indices 1 2 3 4 5 6 
#
# 1 90.1729 52.3174 21.0461 0.0000 15.5392 0.0000
# 2 52.3174 163.2609 12.2384 0.0000 8.2793 0.0000
# 3 21.0461 12.2384 62.5097 0.0000 15.2049 0.0000
# 4 0.0000 0.0000 0.0000 -6.9913 0.0000 78.1031
# 5 15.5392 8.2793 15.2049 0.0000 45.4015 0.0000
# 6 0.0000 0.0000 0.0000 78.1031 0.0000 -225.5807
#
#
#
# Elastic Compliance Matrix: (Units=1/GPa)
#
#
# Indices 1 2 3 4 5 6 
#
# 1 0.014977 -0.004382 -0.003410 0.000000 -0.003185 0.000000
# 2 -0.004382 0.007525 -0.000031 0.000000 0.000138 0.000000
# 3 -0.003410 -0.000031 0.018362 0.000000 -0.004977 0.000000
# 4 0.000000 0.000000 0.000000 0.049874 0.000000 0.017268
# 5 -0.003185 0.000138 -0.004977 0.000000 0.024757 0.000000
# 6 0.000000 0.000000 0.000000 0.017268 0.000000 0.001546
#
#
# Mechanical properties :
#
#
# Convention : Reuss Voigt Hill
#
# Bulk Modulus (GPa) = 39.65572 54.12745 46.89159
# Shear Modulus (GPa) = 35.43734 -22.07799 6.67968
#
# Velocity S-wave (km/s) = 3.91817 -3.09266 1.70110
# Velocity P-wave (km/s) = 6.13587 3.27050 4.91656
#
# Compressibility (1/GPa) = 0.02521704
#
# Stress axis : x y z
#
# Youngs Moduli (GPa) = 66.76870 132.89325 54.45951
#
# Poissons Ratio (x) = 0.58238 0.18570
# Poissons Ratio (y) = 0.29260 0.00171
# Poissons Ratio (z) = 0.22767 0.00417
#
# Static dielectric constant tensor:
#      x y z
#    x 1.913920 0.000000 -0.019370 
#    y 0.000000 1.807910 0.000000 
#    z -0.019370 0.000000 1.905800 
# 
# From -- ./inp_files/108033.got.cif
#   From: 2010.05.17/outbox.cif.g08.bks.cpg/sg12_55_cif.got.tgz:108033.got - 2010.06.03 13:09:07.
