data_PCOD9188492
_publ_section_title
;
Structure prediction by ZEFSAII (Michael W. Deem and Ramdas Pophale) SiO2 
 PCOD9188492
Probable space group: C 2/M
;
_chemical_formula_sum "Si O2"
_cell_formula_units_Z 56
_cell_length_a 8.592739
_cell_length_b 14.973127
_cell_length_c 25.166197
_cell_angle_alpha 90.000000
_cell_angle_beta 130.340327
_cell_angle_gamma 90.000000
_cell_volume 2467.959441
_symmetry_space_group_name_H-M "C 2/M"
_symmetry_group_IT_number 12
_symmetry_cell_setting 'monoclinic'
loop_
_space_group_symop_operation_xyz
x,y,z
-x,y,-z
-x,-y,-z
x,-y,z
1/2+x,1/2+y,z
1/2-x,1/2+y,-z
1/2-x,1/2-y,-z
1/2+x,1/2-y,z
loop_
_atom_site_type_symbol
_atom_site_label
_atom_site_fract_x
_atom_site_fract_y
_atom_site_fract_z
Si Si1 0.780746 0.781894 0.947159
Si Si2 0.801257 0.900084 0.591256
Si Si3 0.666491 0.202959 0.148897
Si Si4 0.141399 0.334582 0.666735
Si Si5 0.803370 0.596594 0.209310
Si Si6 0.268310 0.608456 0.464910
Si Si7 0.762132 0.862136 0.276569
O O1 0.564128 0.826780 0.887956
O O2 0.797372 0.703203 0.906348
O O3 0.750000 0.750000 0.000000
O O4 0.000000 0.830118 0.000000
O O5 0.721795 0.853118 0.625987
O O6 0.743645 0.863495 0.520986
O O7 0.046250 0.904477 0.651510
O O8 0.718265 0.000000 0.575356
O O9 0.698936 0.310224 0.167059
O O10 0.794842 0.145449 0.219581
O O11 0.204837 0.399327 0.728506
O O12 0.227382 0.240107 0.703160
O O13 0.896636 0.341951 0.607593
O O14 0.720581 0.500000 0.172597
O O15 0.041849 0.601718 0.244648
O O16 0.500000 0.626701 0.500000
O O17 0.237503 0.500000 0.454228
#
# Coordination Sequence:
#
# PCOD9188492 Si02
#       7
#     8   8   8   8   8   8   8
#     4   9  18  34  62  94 119 153 196 236 277 336
#     4  11  23  38  58  84 113 152 197 245 298 353
#     4  10  19  36  59  93 119 153 198 242 281 337
#     4  11  22  38  59  85 112 149 199 253 295 337
#     4  11  22  37  59  86 121 160 194 236 296 354
#     4  10  21  38  59  81 114 155 197 243 301 367
#     4  11  23  38  58  84 122 152 194 246 289 347
#
# _framework density 22.690809999999999
#
# number of rings (size 3 to 8) (size 9 to 14) (size 15 to 20)
#    0.000    1.571    1.429    4.714    2.000    2.857 
#    0.000    1.429    0.000    4.286    0.000    0.000 
#    0.000    0.000    0.000    0.000    0.000    0.000 
#
# Total GULP energy -156244.262238 kJ/mol
# GULP energy per Si atom -5580.152223 kJ/mol
# Density = 2.263916 g / cm^3
# Si number density = 22.690810 Si / 1000 Ang^3
#
#
#
# Elastic Constant Matrix: (Units=GPa)
#
#
# Indices 1 2 3 4 5 6 
#
# 1 84.0072 3.7183 12.4113 0.0000 -8.9025 0.0000
# 2 3.7183 69.4274 3.2230 0.0000 -4.2614 0.0000
# 3 12.4113 3.2230 90.3956 0.0000 -16.4950 0.0000
# 4 0.0000 0.0000 0.0000 12.2121 0.0000 -5.9645
# 5 -8.9025 -4.2614 -16.4950 0.0000 54.1729 0.0000
# 6 0.0000 0.0000 0.0000 -5.9645 0.0000 23.2939
#
#
#
# Elastic Compliance Matrix: (Units=1/GPa)
#
#
# Indices 1 2 3 4 5 6 
#
# 1 0.012296 -0.000498 -0.001386 0.000000 0.001559 0.000000
# 2 -0.000498 0.014503 -0.000270 0.000000 0.000977 0.000000
# 3 -0.001386 -0.000270 0.011877 0.000000 0.003367 0.000000
# 4 0.000000 0.000000 0.000000 0.093591 0.000000 0.023964
# 5 0.001559 0.000977 0.003367 0.000000 0.019818 0.000000
# 6 0.000000 0.000000 0.000000 0.023964 0.000000 0.049066
#
#
# Mechanical properties :
#
#
# Convention : Reuss Voigt Hill
#
# Bulk Modulus (GPa) = 29.09869 31.39283 30.24576
# Shear Modulus (GPa) = 23.05054 32.90095 27.97575
#
# Velocity S-wave (km/s) = 3.19070 3.81198 3.51509
# Velocity P-wave (km/s) = 5.14062 5.76541 5.46196
#
# Compressibility (1/GPa) = 0.03436581
#
# Stress axis : x y z
#
# Youngs Moduli (GPa) = 81.32845 68.95255 84.19729
#
# Poissons Ratio (x) = 0.03437 0.11669
# Poissons Ratio (y) = 0.04054 0.02277
# Poissons Ratio (z) = 0.11271 0.01865
#
# Static dielectric constant tensor:
#      x y z
#    x 1.909500 0.000000 0.022460 
#    y 0.000000 1.823980 0.000000 
#    z 0.022460 0.000000 1.894040 
# 
# From -- ./inp_files/333002.got.cif
#   From: 2010.05.17/outbox.cif.g08.bks.cpg/sg12_167_cif.got.tgz:333002.got - 2010.06.03 13:09:07.
