data_PCOD9188094
_publ_section_title
;
Structure prediction by ZEFSAII (Michael W. Deem and Ramdas Pophale) SiO2 
 PCOD9188094
Probable space group: C 2/M
;
_chemical_formula_sum "Si O2"
_cell_formula_units_Z 56
_cell_length_a 26.731079
_cell_length_b 17.250992
_cell_length_c 7.025725
_cell_angle_alpha 90.000000
_cell_angle_beta 115.471615
_cell_angle_gamma 90.000000
_cell_volume 2924.910062
_symmetry_space_group_name_H-M "C 2/M"
_symmetry_group_IT_number 12
_symmetry_cell_setting 'monoclinic'
loop_
_space_group_symop_operation_xyz
x,y,z
-x,y,-z
-x,-y,-z
x,-y,z
1/2+x,1/2+y,z
1/2-x,1/2+y,-z
1/2-x,1/2-y,-z
1/2+x,1/2-y,z
loop_
_atom_site_type_symbol
_atom_site_label
_atom_site_fract_x
_atom_site_fract_y
_atom_site_fract_z
Si Si1 0.048071 0.913809 0.919297
Si Si2 0.836337 0.410216 0.509135
Si Si3 0.412832 0.799028 0.831054
Si Si4 0.762069 0.912190 0.344237
Si Si5 0.660918 0.657859 0.237961
Si Si6 0.243273 0.662552 0.913759
Si Si7 0.490079 0.250533 0.271072
O O1 0.034642 0.837978 0.770868
O O2 0.048845 0.000000 0.831439
O O3 0.107583 0.895592 0.111237
O O4 0.000000 0.914189 0.000000
O O5 0.841495 0.500000 0.458552
O O6 0.891906 0.374858 0.690001
O O7 0.790930 0.406940 0.604227
O O8 0.811601 0.357921 0.297716
O O9 0.360313 0.745806 0.793903
O O10 0.452788 0.751536 0.753391
O O11 0.448406 0.803715 0.082183
O O12 0.809210 0.859098 0.514172
O O13 0.782692 0.000000 0.385789
O O14 0.746740 0.889702 0.106508
O O15 0.705756 0.645577 0.145523
O O16 0.250000 0.750000 0.000000
O O17 0.500000 0.224195 0.500000
#
# Coordination Sequence:
#
# PCOD9188094 Si02
#       7
#     8   8   8   8   8   8   8
#     4  10  19  36  56  79 115 153 190 234 282 335
#     4  10  22  39  60  83 113 150 189 233 286 345
#     4  10  20  39  58  80 109 145 187 236 289 338
#     4  10  21  36  54  81 117 151 185 231 281 332
#     4  10  20  36  57  82 114 155 192 231 281 340
#     4  11  22  36  57  88 118 149 191 236 282 343
#     4  10  21  38  58  82 110 145 190 240 287 341
#
# _framework density 19.145889
#
# number of rings (size 3 to 8) (size 9 to 14) (size 15 to 20)
#    0.000    1.857    2.857    2.571    0.000   10.000 
#    0.000    1.429    0.000    0.857    0.000    0.000 
#    0.000    0.000    0.000    0.000    0.000    0.000 
#
# Total GULP energy -156209.553849 kJ/mol
# GULP energy per Si atom -5578.912637 kJ/mol
# Density = 1.910231 g / cm^3
# Si number density = 19.145889 Si / 1000 Ang^3
#
#
#
# Elastic Constant Matrix: (Units=GPa)
#
#
# Indices 1 2 3 4 5 6 
#
# 1 30.9330 11.5763 25.9382 0.0000 14.0494 0.0000
# 2 11.5763 77.5607 30.9048 0.0000 17.2913 0.0000
# 3 25.9382 30.9048 144.9180 0.0000 3.1021 0.0000
# 4 0.0000 0.0000 0.0000 23.4439 0.0000 2.1284
# 5 14.0494 17.2913 3.1021 0.0000 22.3660 0.0000
# 6 0.0000 0.0000 0.0000 2.1284 0.0000 13.1826
#
#
#
# Elastic Compliance Matrix: (Units=1/GPa)
#
#
# Indices 1 2 3 4 5 6 
#
# 1 0.056026 0.003844 -0.010060 0.000000 -0.036769 0.000000
# 2 0.003844 0.017338 -0.004059 0.000000 -0.015256 0.000000
# 3 -0.010060 -0.004059 0.009392 0.000000 0.008155 0.000000
# 4 0.000000 0.000000 0.000000 0.043290 0.000000 -0.006989
# 5 -0.036769 -0.015256 0.008155 0.000000 0.078471 0.000000
# 6 0.000000 0.000000 0.000000 -0.006989 0.000000 0.076986
#
#
# Mechanical properties :
#
#
# Convention : Reuss Voigt Hill
#
# Bulk Modulus (GPa) = 16.07594 43.36116 29.71855
# Shear Modulus (GPa) = 15.49005 24.13131 19.81068
#
# Velocity S-wave (km/s) = 2.84747 3.55405 3.22020
# Velocity P-wave (km/s) = 4.38470 6.28798 5.42053
#
# Compressibility (1/GPa) = 0.06220477
#
# Stress axis : x y z
#
# Youngs Moduli (GPa) = 17.84898 57.67754 106.47186
#
# Poissons Ratio (x) = -0.22171 1.07115
# Poissons Ratio (y) = -0.06861 0.43215
# Poissons Ratio (z) = 0.17957 0.23410
#
# Static dielectric constant tensor:
#      x y z
#    x 1.679660 0.000000 0.010630 
#    y 0.000000 1.696680 0.000000 
#    z 0.010630 0.000000 1.658950 
# 
# From -- ./inp_files/28831.got.cif
#   From: 2010.05.17/outbox.cif.g08.bks.cpg/sg12_15_cif.got.tgz:28831.got - 2010.06.03 13:09:07.
