data_PCOD9188248
_publ_section_title
;
Structure prediction by ZEFSAII (Michael W. Deem and Ramdas Pophale) SiO2 
 PCOD9188248
Probable space group: C 2/M
;
_chemical_formula_sum "Si O2"
_cell_formula_units_Z 42
_cell_length_a 29.519905
_cell_length_b 16.071956
_cell_length_c 12.830715
_cell_angle_alpha 90.000000
_cell_angle_beta 165.030322
_cell_angle_gamma 90.000000
_cell_volume 1572.432848
_symmetry_space_group_name_H-M "C 2/M"
_symmetry_group_IT_number 12
_symmetry_cell_setting 'monoclinic'
loop_
_space_group_symop_operation_xyz
x,y,z
-x,y,-z
-x,-y,-z
x,-y,z
1/2+x,1/2+y,z
1/2-x,1/2+y,-z
1/2-x,1/2-y,-z
1/2+x,1/2-y,z
loop_
_atom_site_type_symbol
_atom_site_label
_atom_site_fract_x
_atom_site_fract_y
_atom_site_fract_z
Si Si1 0.000000 0.500000 0.500000
Si Si2 0.582596 0.303310 0.583387
Si Si3 0.245048 0.898788 0.518490
Si Si4 0.153065 0.906617 0.534386
Si Si5 0.956089 0.369449 0.556933
Si Si6 0.346088 0.899772 0.526647
O O1 0.112732 0.425434 0.690689
O O2 0.500000 0.347132 0.500000
O O3 0.598596 0.356441 0.515000
O O4 0.472517 0.221675 0.307537
O O5 0.750000 0.250000 0.000000
O O6 0.139447 0.870192 0.386381
O O7 0.224139 0.870883 0.351466
O O8 0.227668 0.000000 0.481323
O O9 0.450555 0.879513 0.995591
O O10 0.077155 0.000000 0.368338
O O11 0.364313 0.917195 0.016070
O O12 0.825598 0.366918 0.364586
O O13 0.335953 0.000000 0.499961
#
# Coordination Sequence:
#
# PCOD9188248 Si02
#       6
#     2   8   8   8   8   8
#     4  12  16  28  48  78 100 140 186 224 254 318
#     4  12  24  39  54  81 115 147 182 234 280 319
#     4   7  12  23  46  75 105 136 174 225 270 318
#     4  10  19  36  58  80 107 148 189 221 275 335
#     4  11  19  31  54  80 109 142 184 227 272 315
#     4   8  12  23  44  77 108 134 177 227 269 314
#
# _framework density 26.710203
#
# number of rings (size 3 to 8) (size 9 to 14) (size 15 to 20)
#    0.000    2.286    4.762    2.286    0.000    0.381 
#    0.000    0.952    0.000    0.000    0.000    0.000 
#    0.000    4.571    0.000    0.000    0.000    0.000 
#
# Total GULP energy -117016.091802 kJ/mol
# GULP energy per Si atom -5572.194848 kJ/mol
# Density = 2.664941 g / cm^3
# Si number density = 26.710203 Si / 1000 Ang^3
#
#
#
# Elastic Constant Matrix: (Units=GPa)
#
#
# Indices 1 2 3 4 5 6 
#
# 1 329.8658 77.0310 54.2213 0.0003 60.7939 0.0000
# 2 77.0310 81.9803 10.2581 0.0009 18.3186 -0.0004
# 3 54.2213 10.2581 74.5913 0.0029 11.1399 -0.0014
# 4 0.0003 0.0009 0.0029 14.3868 -0.0011 11.5506
# 5 60.7939 18.3186 11.1399 -0.0011 59.4435 0.0005
# 6 0.0000 -0.0004 -0.0014 11.5506 0.0005 37.3452
#
#
#
# Elastic Compliance Matrix: (Units=1/GPa)
#
#
# Indices 1 2 3 4 5 6 
#
# 1 0.004914 -0.003523 -0.002571 0.000001 -0.003458 0.000000
# 2 -0.003523 0.015737 0.000600 -0.000002 -0.001359 0.000001
# 3 -0.002571 0.000600 0.015255 -0.000005 -0.000414 0.000002
# 4 0.000001 -0.000002 -0.000005 0.092470 0.000003 -0.028600
# 5 -0.003458 -0.001359 -0.000414 0.000003 0.020856 -0.000001
# 6 0.000000 0.000001 0.000002 -0.028600 -0.000001 0.035623
#
#
# Mechanical properties :
#
#
# Convention : Reuss Voigt Hill
#
# Bulk Modulus (GPa) = 40.13347 85.49535 62.81441
# Shear Modulus (GPa) = 24.49177 45.23024 34.86100
#
# Velocity S-wave (km/s) = 3.03139 4.11952 3.61661
# Velocity P-wave (km/s) = 5.22595 7.39630 6.40374
#
# Compressibility (1/GPa) = 0.02491686
#
# Stress axis : x y z
#
# Youngs Moduli (GPa) = 203.48925 63.54434 65.55312
#
# Poissons Ratio (x) = 0.22387 0.16855
# Poissons Ratio (y) = 0.71691 -0.03931
# Poissons Ratio (z) = 0.52322 -0.03811
#
# Static dielectric constant tensor:
#      x y z
#    x 2.355190 0.000000 -0.194450 
#    y 0.000000 5.502300 0.000010 
#    z -0.194450 0.000010 2.340850 
# 
# From -- ./inp_files/251366.got.cif
#   From: 2010.05.17/outbox.cif.g08.bks.cpg/sg12_126_cif.got.tgz:251366.got - 2010.06.03 13:09:07.
