data_PCOD9188409
_publ_section_title
;
Structure prediction by ZEFSAII (Michael W. Deem and Ramdas Pophale) SiO2 
 PCOD9188409
Probable space group: C 2/M
;
_chemical_formula_sum "Si O2"
_cell_formula_units_Z 48
_cell_length_a 15.596416
_cell_length_b 33.039405
_cell_length_c 8.308416
_cell_angle_alpha 90.000000
_cell_angle_beta 150.138930
_cell_angle_gamma 90.000000
_cell_volume 2131.651342
_symmetry_space_group_name_H-M "C 2/M"
_symmetry_group_IT_number 12
_symmetry_cell_setting 'monoclinic'
loop_
_space_group_symop_operation_xyz
x,y,z
-x,y,-z
-x,-y,-z
x,-y,z
1/2+x,1/2+y,z
1/2-x,1/2+y,-z
1/2-x,1/2-y,-z
1/2+x,1/2-y,z
loop_
_atom_site_type_symbol
_atom_site_label
_atom_site_fract_x
_atom_site_fract_y
_atom_site_fract_z
Si Si1 0.859421 0.043380 0.910638
Si Si2 0.529870 0.288540 0.738397
Si Si3 0.859851 0.868663 0.917641
Si Si4 0.346957 0.788006 0.879481
Si Si5 0.028278 0.543851 0.738549
Si Si6 0.474724 0.127891 0.149477
O O1 0.869585 0.000000 0.016440
O O2 0.880390 0.086645 0.029698
O O3 0.669435 0.044413 0.521098
O O4 0.000000 0.042735 0.000000
O O5 0.500000 0.285788 0.500000
O O6 0.338792 0.287092 0.504791
O O7 0.610737 0.330925 0.919949
O O8 0.633298 0.250456 0.973860
O O9 0.664303 0.866688 0.534330
O O10 0.000000 0.866218 0.000000
O O11 0.500000 0.786586 0.000000
O O12 0.368428 0.831081 0.004087
O O13 0.105394 0.500000 0.908083
O O14 0.107971 0.586110 0.922411
O O15 0.000000 0.544808 0.500000
O O16 0.500000 0.123479 0.000000
#
# Coordination Sequence:
#
# PCOD9188409 Si02
#       6
#     8   8   8   8   8   8
#     4   8  15  29  52  79 106 144 190 228 268 326
#     4  12  25  40  61  89 117 147 190 239 289 344
#     4  10  19  36  59  83 116 153 189 234 287 340
#     4  11  23  41  61  83 115 153 192 233 287 346
#     4   9  18  32  52  81 117 153 187 231 287 337
#     4  10  21  36  58  87 115 151 197 239 281 337
#
# _framework density 22.517752999999999
#
# number of rings (size 3 to 8) (size 9 to 14) (size 15 to 20)
#    0.000    2.000    0.000    4.500    0.000    3.667 
#    0.000    0.000    0.000    3.500    0.000    0.000 
#    0.000    0.000    0.000    0.000    0.000    0.000 
#
# Total GULP energy -134004.191114 kJ/mol
# GULP energy per Si atom -5583.507963 kJ/mol
# Density = 2.246650 g / cm^3
# Si number density = 22.517753 Si / 1000 Ang^3
#
#
#
# Elastic Constant Matrix: (Units=GPa)
#
#
# Indices 1 2 3 4 5 6 
#
# 1 45.1453 13.2630 2.3325 0.0000 4.5973 0.0000
# 2 13.2630 288.2045 46.8651 0.0000 -28.2160 0.0000
# 3 2.3325 46.8651 61.3701 0.0000 4.4986 0.0000
# 4 0.0000 0.0000 0.0000 23.0163 0.0000 -4.3371
# 5 4.5973 -28.2160 4.4986 0.0000 30.0051 0.0000
# 6 0.0000 0.0000 0.0000 -4.3371 0.0000 -18.5481
#
#
#
# Elastic Compliance Matrix: (Units=1/GPa)
#
#
# Indices 1 2 3 4 5 6 
#
# 1 0.023150 -0.001715 0.000817 0.000000 -0.005283 0.000000
# 2 -0.001715 0.004700 -0.003911 0.000000 0.005269 0.000000
# 3 0.000817 -0.003911 0.019746 0.000000 -0.006763 0.000000
# 4 0.000000 0.000000 0.000000 0.041614 0.000000 -0.009731
# 5 -0.005283 0.005269 -0.006763 0.000000 0.040106 0.000000
# 6 0.000000 0.000000 0.000000 -0.009731 0.000000 -0.051639
#
#
# Mechanical properties :
#
#
# Convention : Reuss Voigt Hill
#
# Bulk Modulus (GPa) = 26.33023 57.73789 42.03406
# Shear Modulus (GPa) = 50.02244 29.04527 39.53386
#
# Velocity S-wave (km/s) = 4.71836 3.59539 4.19462
# Velocity P-wave (km/s) = 6.43447 6.55229 6.49364
#
# Compressibility (1/GPa) = 0.03797917
#
# Stress axis : x y z
#
# Youngs Moduli (GPa) = 43.19572 212.74373 50.64425
#
# Poissons Ratio (x) = 0.36496 -0.04140
# Poissons Ratio (y) = 0.07410 0.19805
# Poissons Ratio (z) = -0.03531 0.83195
#
# Static dielectric constant tensor:
#      x y z
#    x 1.872890 0.000000 0.032230 
#    y 0.000000 1.896300 0.000000 
#    z 0.032230 0.000000 1.798910 
# 
# From -- ./inp_files/80804.got.cif
#   From: 2010.05.17/outbox.cif.g08.bks.cpg/sg12_41_cif.got.tgz:80804.got - 2010.06.03 13:09:07.
