data_PCOD9188335
_publ_section_title
;
Structure prediction by ZEFSAII (Michael W. Deem and Ramdas Pophale) SiO2 
 PCOD9188335
Probable space group: C 2/M
;
_chemical_formula_sum "Si O2"
_cell_formula_units_Z 44
_cell_length_a 9.406870
_cell_length_b 19.226946
_cell_length_c 12.133539
_cell_angle_alpha 90.000000
_cell_angle_beta 74.576324
_cell_angle_gamma 90.000000
_cell_volume 2115.502194
_symmetry_space_group_name_H-M "C 2/M"
_symmetry_group_IT_number 12
_symmetry_cell_setting 'monoclinic'
loop_
_space_group_symop_operation_xyz
x,y,z
-x,y,-z
-x,-y,-z
x,-y,z
1/2+x,1/2+y,z
1/2-x,1/2+y,-z
1/2-x,1/2-y,-z
1/2+x,1/2-y,z
loop_
_atom_site_type_symbol
_atom_site_label
_atom_site_fract_x
_atom_site_fract_y
_atom_site_fract_z
Si Si1 0.909295 0.302136 0.125789
Si Si2 0.269801 0.079899 0.449120
Si Si3 0.694320 0.581574 0.208285
Si Si4 0.156403 0.699831 0.259945
Si Si5 0.133437 0.918522 0.705882
Si Si6 0.500000 0.812537 0.500000
O O1 0.820253 0.373676 0.124818
O O2 0.782362 0.248648 0.185845
O O3 0.025020 0.308616 0.201133
O O4 0.000000 0.280646 0.000000
O O5 0.217320 0.088660 0.335362
O O6 0.147052 0.087139 0.570096
O O7 0.392149 0.136603 0.454206
O O8 0.326541 0.000000 0.447444
O O9 0.704061 0.500000 0.179350
O O10 0.526931 0.605889 0.220421
O O11 0.235121 0.626980 0.272329
O O12 0.092290 0.728487 0.389416
O O13 0.149077 0.000000 0.729463
#
# Coordination Sequence:
#
# PCOD9188335 Si02
#       6
#     8   8   8   8   8   4
#     4  12  26  45  64  85 120 166 213 253 300 360
#     4   9  16  30  57  91 130 161 190 238 303 371
#     4  10  20  38  62  91 123 159 205 250 299 358
#     4  11  24  42  64  92 121 164 202 253 309 361
#     4   9  19  36  62  95 128 159 194 243 306 371
#     4  10  19  36  58  98 125 152 198 248 312 362
#
# _framework density 20.798843999999999
#
# number of rings (size 3 to 8) (size 9 to 14) (size 15 to 20)
#    0.000    1.818    1.818    2.455    0.000    4.727 
#    3.273    0.000    0.000    2.727    0.000    0.000 
#    0.000    0.000    0.000    0.000    0.000    0.000 
#
# Total GULP energy -122952.125519 kJ/mol
# GULP energy per Si atom -5588.732978 kJ/mol
# Density = 2.075150 g / cm^3
# Si number density = 20.798844 Si / 1000 Ang^3
#
#
#
# Elastic Constant Matrix: (Units=GPa)
#
#
# Indices 1 2 3 4 5 6 
#
# 1 86.0812 16.0646 25.6533 0.0000 -22.9400 0.0000
# 2 16.0646 36.3001 23.4954 0.0000 -19.2284 0.0000
# 3 25.6533 23.4954 97.4128 0.0000 -32.1543 0.0000
# 4 0.0000 0.0000 0.0000 29.2763 0.0000 -13.4040
# 5 -22.9400 -19.2284 -32.1543 0.0000 31.7377 0.0000
# 6 0.0000 0.0000 0.0000 -13.4040 0.0000 19.5007
#
#
#
# Elastic Compliance Matrix: (Units=1/GPa)
#
#
# Indices 1 2 3 4 5 6 
#
# 1 0.014442 -0.001194 -0.000463 0.000000 0.009246 0.000000
# 2 -0.001194 0.041079 -0.002499 0.000000 0.021493 0.000000
# 3 -0.000463 -0.002499 0.015595 0.000000 0.013951 0.000000
# 4 0.000000 0.000000 0.000000 0.049843 0.000000 0.034260
# 5 0.009246 0.021493 0.013951 0.000000 0.065347 0.000000
# 6 0.000000 0.000000 0.000000 0.034260 0.000000 0.074830
#
#
# Mechanical properties :
#
#
# Convention : Reuss Voigt Hill
#
# Bulk Modulus (GPa) = 15.92260 38.91340 27.41800
# Shear Modulus (GPa) = 17.21863 26.40833 21.81348
#
# Velocity S-wave (km/s) = 2.88039 3.56715 3.24201
# Velocity P-wave (km/s) = 4.32831 5.97630 5.21778
#
# Compressibility (1/GPa) = 0.06280381
#
# Stress axis : x y z
#
# Youngs Moduli (GPa) = 69.24383 24.34329 64.12133
#
# Poissons Ratio (x) = 0.02906 0.02971
# Poissons Ratio (y) = 0.08266 0.16025
# Poissons Ratio (z) = 0.03209 0.06084
#
# Static dielectric constant tensor:
#      x y z
#    x 1.729060 0.000000 -0.023530 
#    y 0.000000 1.758820 0.000000 
#    z -0.023530 0.000000 1.747800 
# 
# From -- ./inp_files/120617.got.cif
#   From: 2010.05.17/outbox.cif.g08.bks.cpg/sg12_61_cif.got.tgz:120617.got - 2010.06.03 13:09:07.
