data_PCOD9188998
_publ_section_title
;
Structure prediction by ZEFSAII (Michael W. Deem and Ramdas Pophale) SiO2 
 PCOD9188998
Probable space group: C 2/M
;
_chemical_formula_sum "Si O2"
_cell_formula_units_Z 64
_cell_length_a 22.002269
_cell_length_b 25.436614
_cell_length_c 12.112733
_cell_angle_alpha 90.000000
_cell_angle_beta 150.641029
_cell_angle_gamma 90.000000
_cell_volume 3323.631590
_symmetry_space_group_name_H-M "C 2/M"
_symmetry_group_IT_number 12
_symmetry_cell_setting 'monoclinic'
loop_
_space_group_symop_operation_xyz
x,y,z
-x,y,-z
-x,-y,-z
x,-y,z
1/2+x,1/2+y,z
1/2-x,1/2+y,-z
1/2-x,1/2-y,-z
1/2+x,1/2-y,z
loop_
_atom_site_type_symbol
_atom_site_label
_atom_site_fract_x
_atom_site_fract_y
_atom_site_fract_z
Si Si1 0.789535 0.939882 0.337042
Si Si2 0.853087 0.634134 0.055185
Si Si3 0.072123 0.161514 0.365364
Si Si4 0.720393 0.662112 0.068384
Si Si5 0.362203 0.877609 0.491367
Si Si6 0.189949 0.203526 0.337183
Si Si7 0.726545 0.234669 0.197626
Si Si8 0.101656 0.558236 0.237456
O O1 0.698820 0.914088 0.101069
O O2 0.890279 0.894868 0.522591
O O3 0.716892 0.943292 0.338004
O O4 0.827268 0.000000 0.367868
O O5 0.847654 0.687123 0.974028
O O6 0.765420 0.644238 0.020570
O O7 0.994817 0.627208 0.315795
O O8 0.109193 0.168690 0.293950
O O9 0.155435 0.205723 0.559305
O O10 0.927016 0.166983 0.155593
O O11 0.775758 0.621683 0.246881
O O12 0.768936 0.720448 0.178806
O O13 0.303659 0.829428 0.467077
O O14 0.362328 0.921259 0.586370
O O15 0.250000 0.250000 0.500000
O O16 0.140936 0.234164 0.151235
O O17 0.049423 0.500000 0.175183
O O18 0.000000 0.588344 0.000000
#
# Coordination Sequence:
#
# PCOD9188998 Si02
#       8
#     8   8   8   8   8   8   8   8
#     4  10  21  40  68  95 117 158 211 268 317 360
#     4  11  23  41  60  91 125 163 215 255 300 369
#     4  10  21  42  61  91 128 159 210 259 309 374
#     4  11  25  41  59  85 131 176 200 246 308 378
#     4  11  22  38  60  91 124 159 200 254 307 372
#     4   9  19  36  54  86 117 151 193 251 314 355
#     4   9  22  37  60  87 114 170 208 256 301 359
#     4  10  19  36  64  94 121 149 196 263 322 365
#
# _framework density 19.256045
#
# number of rings (size 3 to 8) (size 9 to 14) (size 15 to 20)
#    0.000    1.875    2.500    0.750    5.250    4.000 
#    6.750    2.500    0.000    3.000    0.000    0.000 
#    0.000    0.000    0.000    0.000    0.000    0.000 
#
# Total GULP energy -178196.719387 kJ/mol
# GULP energy per Si atom -5568.647481 kJ/mol
# Density = 1.921222 g / cm^3
# Si number density = 19.256045 Si / 1000 Ang^3
#
#
#
# Elastic Constant Matrix: (Units=GPa)
#
#
# Indices 1 2 3 4 5 6 
#
# 1 68.8839 25.6513 19.1094 0.0000 17.1418 0.0000
# 2 25.6513 96.9620 26.2564 0.0000 -6.2311 0.0000
# 3 19.1094 26.2564 84.6685 0.0000 9.6117 0.0000
# 4 0.0000 0.0000 0.0000 17.1727 0.0000 -6.0803
# 5 17.1418 -6.2311 9.6117 0.0000 21.8036 0.0000
# 6 0.0000 0.0000 0.0000 -6.0803 0.0000 10.8224
#
#
#
# Elastic Compliance Matrix: (Units=1/GPa)
#
#
# Indices 1 2 3 4 5 6 
#
# 1 0.021963 -0.006840 -0.000688 0.000000 -0.018918 0.000000
# 2 -0.006840 0.013933 -0.004042 0.000000 0.011141 0.000000
# 3 -0.000688 -0.004042 0.013989 0.000000 -0.006781 0.000000
# 4 0.000000 0.000000 0.000000 0.072692 0.000000 0.040840
# 5 -0.018918 0.011141 -0.006781 0.000000 0.066910 0.000000
# 6 0.000000 0.000000 0.000000 0.040840 0.000000 0.115346
#
#
# Mechanical properties :
#
#
# Convention : Reuss Voigt Hill
#
# Bulk Modulus (GPa) = 37.38900 43.61652 40.50276
# Shear Modulus (GPa) = 14.84167 21.92623 18.38395
#
# Velocity S-wave (km/s) = 2.77926 3.37808 3.09319
# Velocity P-wave (km/s) = 5.45508 6.15753 5.81692
#
# Compressibility (1/GPa) = 0.02674584
#
# Stress axis : x y z
#
# Youngs Moduli (GPa) = 45.53122 71.77098 71.48327
#
# Poissons Ratio (x) = 0.49089 0.04920
# Poissons Ratio (y) = 0.31142 0.28892
# Poissons Ratio (z) = 0.03134 0.29009
#
# Static dielectric constant tensor:
#      x y z
#    x 1.705590 0.000000 -0.067300 
#    y 0.000000 1.721700 0.000000 
#    z -0.067300 0.000000 1.814060 
# 
# From -- ./inp_files/170618.got.cif
#   From: 2010.05.17/outbox.cif.g08.bks.cpg/sg12_86_cif.got.tgz:170618.got - 2010.06.03 13:09:07.
