data_PCOD9188124
_publ_section_title
;
Structure prediction by ZEFSAII (Michael W. Deem and Ramdas Pophale) SiO2 
 PCOD9188124
Probable space group: C 2/M
;
_chemical_formula_sum "Si O2"
_cell_formula_units_Z 60
_cell_length_a 11.839215
_cell_length_b 20.271612
_cell_length_c 22.716542
_cell_angle_alpha 90.000000
_cell_angle_beta 148.399306
_cell_angle_gamma 90.000000
_cell_volume 2856.811404
_symmetry_space_group_name_H-M "C 2/M"
_symmetry_group_IT_number 12
_symmetry_cell_setting 'monoclinic'
loop_
_space_group_symop_operation_xyz
x,y,z
-x,y,-z
-x,-y,-z
x,-y,z
1/2+x,1/2+y,z
1/2-x,1/2+y,-z
1/2-x,1/2-y,-z
1/2+x,1/2-y,z
loop_
_atom_site_type_symbol
_atom_site_label
_atom_site_fract_x
_atom_site_fract_y
_atom_site_fract_z
Si Si1 0.500000 0.653641 0.000000
Si Si2 0.231794 0.076470 0.269659
Si Si3 0.345107 0.576978 0.631559
Si Si4 0.401214 0.815099 0.253335
Si Si5 0.813126 0.879460 0.372506
Si Si6 0.320562 0.074133 0.811759
Si Si7 0.914611 0.198123 0.596782
Si Si8 0.212918 0.077589 0.986928
O O1 0.694533 0.690085 0.119041
O O2 0.383498 0.609795 0.997613
O O3 0.264418 0.082976 0.353883
O O4 0.336790 0.133684 0.277092
O O5 0.973824 0.082593 0.144352
O O6 0.290785 0.000000 0.278764
O O7 0.327017 0.500000 0.604526
O O8 0.601334 0.595627 0.746096
O O9 0.280140 0.633681 0.557617
O O10 0.607707 0.849780 0.314629
O O11 0.458805 0.741502 0.299221
O O12 0.731837 0.924580 0.281853
O O13 0.000000 0.905859 0.500000
O O14 0.929772 0.822329 0.387038
O O15 0.345854 0.000000 0.844838
O O16 0.552421 0.107205 0.923919
O O17 0.750000 0.250000 0.500000
O O18 0.243004 0.000000 0.012636
#
# Coordination Sequence:
#
# PCOD9188124 Si02
#       8
#     4   8   8   8   8   8   8   8
#     4  10  19  36  56  86 133 162 206 264 320 382
#     4   9  20  37  60  93 130 168 213 261 317 380
#     4   9  20  41  65  90 127 165 208 266 316 373
#     4  11  23  39  63  94 124 168 210 262 320 379
#     4  11  22  39  60  87 118 159 214 257 314 376
#     4   9  18  33  57  88 122 162 208 261 317 371
#     4  11  24  42  66  92 122 169 215 259 316 384
#     4   9  16  29  54  87 122 170 214 255 314 378
#
# _framework density 21.002437
#
# number of rings (size 3 to 8) (size 9 to 14) (size 15 to 20)
#    0.000    2.133    2.667    0.200    1.867    1.867 
#    0.000    6.667    0.000    1.600    0.000    0.000 
#    0.000    0.000    0.000    0.000    0.000    0.000 
#
# Total GULP energy -167132.921084 kJ/mol
# GULP energy per Si atom -5571.097369 kJ/mol
# Density = 2.095463 g / cm^3
# Si number density = 21.002437 Si / 1000 Ang^3
#
#
#
# Elastic Constant Matrix: (Units=GPa)
#
#
# Indices 1 2 3 4 5 6 
#
# 1 73.4374 33.7860 7.1619 0.0041 -0.7441 0.0000
# 2 33.7860 104.9988 25.8980 0.0017 -2.1471 0.0002
# 3 7.1619 25.8980 83.7898 0.0006 -2.2464 0.0019
# 4 0.0041 0.0017 0.0006 30.3909 0.0017 -0.6390
# 5 -0.7441 -2.1471 -2.2464 0.0017 22.1608 0.0012
# 6 0.0000 0.0002 0.0019 -0.6390 0.0012 14.2732
#
#
#
# Elastic Compliance Matrix: (Units=1/GPa)
#
#
# Indices 1 2 3 4 5 6 
#
# 1 0.015988 -0.005203 0.000243 -0.000002 0.000057 0.000000
# 2 -0.005203 0.012013 -0.003251 0.000000 0.000660 0.000000
# 3 0.000243 -0.003251 0.012946 0.000000 0.001005 -0.000002
# 4 -0.000002 0.000000 0.000000 0.032936 -0.000003 0.001475
# 5 0.000057 0.000660 0.001005 -0.000003 0.045293 -0.000004
# 6 0.000000 0.000000 -0.000002 0.001475 -0.000004 0.070127
#
#
# Mechanical properties :
#
#
# Convention : Reuss Voigt Hill
#
# Bulk Modulus (GPa) = 40.77434 43.99086 42.38260
# Shear Modulus (GPa) = 23.37553 26.39032 24.88293
#
# Velocity S-wave (km/s) = 3.33977 3.54861 3.44577
# Velocity P-wave (km/s) = 5.85904 6.14665 6.00456
#
# Compressibility (1/GPa) = 0.02452523
#
# Stress axis : x y z
#
# Youngs Moduli (GPa) = 62.54797 83.23985 77.24667
#
# Poissons Ratio (x) = 0.43312 -0.01879
# Poissons Ratio (y) = 0.32545 0.25111
# Poissons Ratio (z) = -0.01521 0.27059
#
# Static dielectric constant tensor:
#      x y z
#    x 1.726410 0.000000 -0.010460 
#    y 0.000000 1.755240 0.000000 
#    z -0.010460 0.000000 1.931020 
# 
# From -- ./inp_files/336881.got.cif
#   From: 2010.05.17/outbox.cif.g08.bks.cpg/sg12_169_cif.got.tgz:336881.got - 2010.06.03 13:09:07.
