data_PCOD9188442
_publ_section_title
;
Structure prediction by ZEFSAII (Michael W. Deem and Ramdas Pophale) SiO2 
 PCOD9188442
Probable space group: C 2/M
;
_chemical_formula_sum "Si O2"
_cell_formula_units_Z 60
_cell_length_a 15.306384
_cell_length_b 8.004359
_cell_length_c 23.640366
_cell_angle_alpha 90.000000
_cell_angle_beta 76.818821
_cell_angle_gamma 90.000000
_cell_volume 2820.057410
_symmetry_space_group_name_H-M "C 2/M"
_symmetry_group_IT_number 12
_symmetry_cell_setting 'monoclinic'
loop_
_space_group_symop_operation_xyz
x,y,z
-x,y,-z
-x,-y,-z
x,-y,z
1/2+x,1/2+y,z
1/2-x,1/2+y,-z
1/2-x,1/2-y,-z
1/2+x,1/2-y,z
loop_
_atom_site_type_symbol
_atom_site_label
_atom_site_fract_x
_atom_site_fract_y
_atom_site_fract_z
Si Si1 0.670379 0.313484 0.050992
Si Si2 0.099528 0.207675 0.876154
Si Si3 0.500000 0.746689 0.000000
Si Si4 0.426493 0.294609 0.350050
Si Si5 0.046578 0.800150 0.435896
Si Si6 0.496032 0.697022 0.778607
Si Si7 0.194257 0.689014 0.167641
Si Si8 0.256335 0.800457 0.564793
O O1 0.689233 0.500000 0.069625
O O2 0.579216 0.322348 0.028638
O O3 0.666963 0.196252 0.105596
O O4 0.750000 0.250000 0.000000
O O5 0.037397 0.255144 0.832173
O O6 0.202841 0.249457 0.846415
O O7 0.065001 0.300444 0.937891
O O8 0.095462 0.000000 0.886939
O O9 0.427036 0.500000 0.348604
O O10 0.497969 0.238942 0.386698
O O11 0.454051 0.234044 0.283925
O O12 0.329517 0.241024 0.387068
O O13 0.151078 0.763244 0.423421
O O14 0.000000 0.733118 0.500000
O O15 0.033951 0.000000 0.438394
O O16 0.513193 0.500000 0.777330
O O17 0.389067 0.721961 0.790201
O O18 0.196077 0.500000 0.188465
O O19 0.250000 0.750000 0.500000
O O20 0.256018 0.000000 0.566595
#
# Coordination Sequence:
#
# PCOD9188442 Si02
#       8
#     8   8   4   8   8   8   8   8
#     4  12  23  38  60  86 115 147 189 238 291 354
#     4  10  20  35  58  84 114 151 191 233 286 353
#     4  12  21  36  61  88 113 150 193 232 291 358
#     4   9  20  38  60  85 116 154 197 241 294 354
#     4  10  19  36  59  85 120 158 191 238 299 351
#     4  10  21  41  64  82 108 157 204 235 284 357
#     4  11  23  39  58  85 118 149 188 244 297 343
#     4  11  21  36  59  91 124 157 199 248 295 353
#
# _framework density 21.276161999999999
#
# number of rings (size 3 to 8) (size 9 to 14) (size 15 to 20)
#    0.000    1.467    4.000    2.400    0.000    1.333 
#    0.000    7.333    0.000    0.000    0.000    0.000 
#    0.000    0.000    0.000    0.000    0.000    0.000 
#
# Total GULP energy -167263.564026 kJ/mol
# GULP energy per Si atom -5575.452134 kJ/mol
# Density = 2.122774 g / cm^3
# Si number density = 21.276162 Si / 1000 Ang^3
#
#
#
# Elastic Constant Matrix: (Units=GPa)
#
#
# Indices 1 2 3 4 5 6 
#
# 1 147.2287 -7.6313 50.2219 0.0000 -13.4469 0.0000
# 2 -7.6313 16.3351 -2.1080 0.0000 6.4680 0.0000
# 3 50.2219 -2.1080 144.6687 0.0000 -18.4950 0.0000
# 4 0.0000 0.0000 0.0000 -8.9251 0.0000 4.9137
# 5 -13.4469 6.4680 -18.4950 0.0000 30.7791 0.0000
# 6 0.0000 0.0000 0.0000 4.9137 0.0000 6.1847
#
#
#
# Elastic Compliance Matrix: (Units=1/GPa)
#
#
# Indices 1 2 3 4 5 6 
#
# 1 0.007928 0.002846 -0.002540 0.000000 0.001340 0.000000
# 2 0.002846 0.067901 -0.001802 0.000000 -0.014109 0.000000
# 3 -0.002540 -0.001802 0.008313 0.000000 0.004264 0.000000
# 4 0.000000 0.000000 0.000000 -0.077948 0.000000 0.061930
# 5 0.001340 -0.014109 0.004264 0.000000 0.038602 0.000000
# 6 0.000000 0.000000 0.000000 0.061930 0.000000 0.112487
#
#
# Mechanical properties :
#
#
# Convention : Reuss Voigt Hill
#
# Bulk Modulus (GPa) = 12.32281 43.24420 27.78350
# Shear Modulus (GPa) = 26.69150 23.45773 25.07462
#
# Velocity S-wave (km/s) = 3.54577 3.32405 3.43670
# Velocity P-wave (km/s) = 4.75055 5.92467 5.36980
#
# Compressibility (1/GPa) = 0.08115033
#
# Stress axis : x y z
#
# Youngs Moduli (GPa) = 126.13034 14.72725 120.29526
#
# Poissons Ratio (x) = -0.04191 0.30550
# Poissons Ratio (y) = -0.35893 0.21680
# Poissons Ratio (z) = 0.32032 0.02654
#
# Static dielectric constant tensor:
#      x y z
#    x 1.727560 0.000000 -0.029940 
#    y 0.000000 1.807830 0.000000 
#    z -0.029940 0.000000 1.747510 
# 
# From -- ./inp_files/338643.got.cif
#   From: 2010.05.17/outbox.cif.g08.bks.cpg/sg12_170_cif.got.tgz:338643.got - 2010.06.03 13:09:07.
