data_PCOD9188962
_publ_section_title
;
Structure prediction by ZEFSAII (Michael W. Deem and Ramdas Pophale) SiO2 
 PCOD9188962
Probable space group: C 2/M
;
_chemical_formula_sum "Si O2"
_cell_formula_units_Z 42
_cell_length_a 24.416631
_cell_length_b 7.591469
_cell_length_c 10.974476
_cell_angle_alpha 90.000000
_cell_angle_beta 64.900736
_cell_angle_gamma 90.000000
_cell_volume 1842.126371
_symmetry_space_group_name_H-M "C 2/M"
_symmetry_group_IT_number 12
_symmetry_cell_setting 'monoclinic'
loop_
_space_group_symop_operation_xyz
x,y,z
-x,y,-z
-x,-y,-z
x,-y,z
1/2+x,1/2+y,z
1/2-x,1/2+y,-z
1/2-x,1/2-y,-z
1/2+x,1/2-y,z
loop_
_atom_site_type_symbol
_atom_site_label
_atom_site_fract_x
_atom_site_fract_y
_atom_site_fract_z
Si Si1 0.592149 0.704534 0.656913
Si Si2 0.645743 0.711998 0.349259
Si Si3 0.732301 0.210380 0.878956
Si Si4 0.973880 0.708439 0.655106
Si Si5 0.500000 0.500000 0.000000
Si Si6 0.601939 0.201176 0.914931
O O1 0.609125 0.500000 0.656157
O O2 0.620442 0.774481 0.504031
O O3 0.519111 0.709338 0.710041
O O4 0.610616 0.804125 0.760207
O O5 0.646501 0.500000 0.355052
O O6 0.712425 0.778767 0.255897
O O7 0.597279 0.757119 0.288942
O O8 0.664870 0.267774 0.911924
O O9 0.731132 0.000000 0.862761
O O10 0.750000 0.250000 0.000000
O O11 0.982968 0.500000 0.654228
O O12 0.000000 0.773666 0.500000
O O13 0.449665 0.344124 0.017686
O O14 0.587970 0.000000 0.971138
#
# Coordination Sequence:
#
# PCOD9188962 Si02
#       6
#     8   8   8   8   2   8
#     4  10  19  36  63  95 133 173 219 278 337 403
#     4   9  19  37  61  92 130 175 221 271 340 402
#     4  10  24  44  66  93 132 179 229 284 335 408
#     4   9  17  30  51  86 129 170 215 267 323 390
#     4  12  26  48  72  98 134 188 220 278 348 402
#     4  11  25  46  70 101 136 174 230 286 338 406
#
# _framework density 22.79974
#
# number of rings (size 3 to 8) (size 9 to 14) (size 15 to 20)
#    0.000    2.095    0.952    1.429    1.333    6.095 
#    3.429    1.905    0.000    0.000    0.000    0.000 
#    0.000    0.000    0.000    0.000    0.000    0.000 
#
# Total GULP energy -117081.747191 kJ/mol
# GULP energy per Si atom -5575.321295 kJ/mol
# Density = 2.274785 g / cm^3
# Si number density = 22.799740 Si / 1000 Ang^3
#
#
#
# Elastic Constant Matrix: (Units=GPa)
#
#
# Indices 1 2 3 4 5 6 
#
# 1 210.9364 36.0350 55.0195 0.0000 -18.7656 0.0000
# 2 36.0350 98.5147 10.8022 0.0000 -17.7179 0.0000
# 3 55.0195 10.8022 90.0693 0.0000 -8.7626 0.0000
# 4 0.0000 0.0000 0.0000 13.4166 0.0000 25.1495
# 5 -18.7656 -17.7179 -8.7626 0.0000 39.9579 0.0000
# 6 0.0000 0.0000 0.0000 25.1495 0.0000 -168.7323
#
#
#
# Elastic Compliance Matrix: (Units=1/GPa)
#
#
# Indices 1 2 3 4 5 6 
#
# 1 0.006007 -0.001581 -0.003345 0.000000 0.001386 0.000000
# 2 -0.001581 0.011513 0.000010 0.000000 0.004365 0.000000
# 3 -0.003345 0.000010 0.013275 0.000000 0.001345 0.000000
# 4 0.000000 0.000000 0.000000 0.058258 0.000000 0.008683
# 5 0.001386 0.004365 0.001345 0.000000 0.027908 0.000000
# 6 0.000000 0.000000 0.000000 0.008683 0.000000 -0.004632
#
#
# Mechanical properties :
#
#
# Convention : Reuss Voigt Hill
#
# Bulk Modulus (GPa) = 47.70356 67.02596 57.36476
# Shear Modulus (GPa) = 38.71539 -3.22728 17.74405
#
# Velocity S-wave (km/s) = 4.12523 -1.19103 2.79275
# Velocity P-wave (km/s) = 6.60744 5.25072 5.96776
#
# Compressibility (1/GPa) = 0.02096279
#
# Stress axis : x y z
#
# Youngs Moduli (GPa) = 166.48349 86.85835 75.32758
#
# Poissons Ratio (x) = 0.13733 0.25195
# Poissons Ratio (y) = 0.26321 -0.00073
# Poissons Ratio (z) = 0.55683 -0.00084
#
# Static dielectric constant tensor:
#      x y z
#    x 1.820540 0.000000 -0.018060 
#    y 0.000000 1.825770 0.000000 
#    z -0.018060 0.000000 1.919440 
# 
# From -- ./inp_files/163026.got.cif
#   From: 2010.05.17/outbox.cif.g08.bks.cpg/sg12_82_cif.got.tgz:163026.got - 2010.06.03 13:09:07.
