data_PCOD9188544
_publ_section_title
;
Structure prediction by ZEFSAII (Michael W. Deem and Ramdas Pophale) SiO2 
 PCOD9188544
Probable space group: C 2/M
;
_chemical_formula_sum "Si O2"
_cell_formula_units_Z 60
_cell_length_a 25.629408
_cell_length_b 9.755411
_cell_length_c 19.385361
_cell_angle_alpha 90.000000
_cell_angle_beta 39.919901
_cell_angle_gamma 90.000000
_cell_volume 3110.290445
_symmetry_space_group_name_H-M "C 2/M"
_symmetry_group_IT_number 12
_symmetry_cell_setting 'monoclinic'
loop_
_space_group_symop_operation_xyz
x,y,z
-x,y,-z
-x,-y,-z
x,-y,z
1/2+x,1/2+y,z
1/2-x,1/2+y,-z
1/2-x,1/2-y,-z
1/2+x,1/2-y,z
loop_
_atom_site_type_symbol
_atom_site_label
_atom_site_fract_x
_atom_site_fract_y
_atom_site_fract_z
Si Si1 0.000000 0.247328 0.500000
Si Si2 0.699659 0.833506 0.930259
Si Si3 0.588752 0.161380 0.920108
Si Si4 0.133707 0.341236 0.471824
Si Si5 0.398473 0.835186 0.336023
Si Si6 0.923798 0.334890 0.828627
Si Si7 0.386836 0.658395 0.735791
Si Si8 0.286149 0.840068 0.330751
O O1 0.060240 0.324949 0.492057
O O2 0.061536 0.168235 0.386671
O O3 0.642788 0.779743 0.926749
O O4 0.792987 0.795307 0.823881
O O5 0.699278 0.000000 0.928619
O O6 0.654974 0.795255 0.046662
O O7 0.640990 0.165048 0.797937
O O8 0.576597 0.000000 0.950583
O O9 0.500000 0.223155 0.000000
O O10 0.158399 0.500000 0.447360
O O11 0.109689 0.302481 0.574892
O O12 0.210241 0.244504 0.379338
O O13 0.490720 0.799403 0.220661
O O14 0.325876 0.782595 0.361232
O O15 0.393347 0.000000 0.334744
O O16 0.923283 0.500000 0.819020
O O17 0.922822 0.256754 0.757564
O O18 0.387695 0.500000 0.758075
O O19 0.262060 0.000000 0.363710
#
# Coordination Sequence:
#
# PCOD9188544 Si02
#       8
#     4   8   8   8   8   8   8   8
#     4  12  24  40  60  80 114 158 198 238 286 346
#     4   9  18  32  53  81 114 147 185 234 285 337
#     4   9  16  29  52  84 113 143 184 230 281 338
#     4  11  23  39  58  81 113 151 196 241 285 341
#     4   9  18  35  57  84 113 148 192 234 278 337
#     4  10  19  36  60  84 113 152 193 234 279 338
#     4  11  23  38  56  83 116 149 189 241 294 343
#     4  10  20  35  59  87 117 150 189 237 290 340
#
# _framework density 19.290801999999999
#
# number of rings (size 3 to 8) (size 9 to 14) (size 15 to 20)
#    0.000    2.000    1.333    2.800    0.000    5.867 
#    0.000    0.667    0.000    1.200    0.000    0.000 
#    0.000    0.000    0.000    0.000    0.000    0.000 
#
# Total GULP energy -167212.404228 kJ/mol
# GULP energy per Si atom -5573.746808 kJ/mol
# Density = 1.924690 g / cm^3
# Si number density = 19.290802 Si / 1000 Ang^3
#
#
#
# Elastic Constant Matrix: (Units=GPa)
#
#
# Indices 1 2 3 4 5 6 
#
# 1 118.0323 29.9161 34.5893 0.0003 -9.5796 -0.0001
# 2 29.9161 37.3422 23.5521 0.0013 -6.6345 -0.0009
# 3 34.5893 23.5521 80.8910 0.0000 -17.9823 0.0000
# 4 0.0003 0.0013 0.0000 15.1696 -0.0003 -1.6116
# 5 -9.5796 -6.6345 -17.9823 -0.0003 36.5873 0.0001
# 6 -0.0001 -0.0009 0.0000 -1.6116 0.0001 14.2449
#
#
#
# Elastic Compliance Matrix: (Units=1/GPa)
#
#
# Indices 1 2 3 4 5 6 
#
# 1 0.011075 -0.007194 -0.002567 0.000000 0.000334 0.000000
# 2 -0.007194 0.037541 -0.007589 -0.000003 0.001194 0.000002
# 3 -0.002567 -0.007589 0.017080 0.000001 0.006347 0.000000
# 4 0.000000 -0.000003 0.000001 0.066723 0.000000 0.007549
# 5 0.000334 0.001194 0.006347 0.000000 0.030755 0.000000
# 6 0.000000 0.000002 0.000000 0.007549 0.000000 0.071055
#
#
# Mechanical properties :
#
#
# Convention : Reuss Voigt Hill
#
# Bulk Modulus (GPa) = 32.26133 45.82004 39.04069
# Shear Modulus (GPa) = 17.90435 23.08090 20.49262
#
# Velocity S-wave (km/s) = 3.04983 3.46276 3.26283
# Velocity P-wave (km/s) = 5.40018 6.30804 5.87168
#
# Compressibility (1/GPa) = 0.03099686
#
# Stress axis : x y z
#
# Youngs Moduli (GPa) = 90.29341 26.63723 58.54691
#
# Poissons Ratio (x) = 0.19164 0.15028
# Poissons Ratio (y) = 0.64960 0.44430
# Poissons Ratio (z) = 0.23177 0.20214
#
# Static dielectric constant tensor:
#      x y z
#    x 1.711870 0.000000 -0.005820 
#    y 0.000000 1.638510 0.000000 
#    z -0.005820 0.000000 1.706790 
# 
# From -- ./inp_files/289372.got.cif
#   From: 2010.05.17/outbox.cif.g08.bks.cpg/sg12_145_cif.got.tgz:289372.got - 2010.06.03 13:09:07.
