data_PCOD9188031
_publ_section_title
;
Structure prediction by ZEFSAII (Michael W. Deem and Ramdas Pophale) SiO2 
 PCOD9188031
Probable space group: C 2/M
;
_chemical_formula_sum "Si O2"
_cell_formula_units_Z 60
_cell_length_a 16.305693
_cell_length_b 31.504688
_cell_length_c 5.981254
_cell_angle_alpha 90.000000
_cell_angle_beta 121.797244
_cell_angle_gamma 90.000000
_cell_volume 2611.462158
_symmetry_space_group_name_H-M "C 2/M"
_symmetry_group_IT_number 12
_symmetry_cell_setting 'monoclinic'
loop_
_space_group_symop_operation_xyz
x,y,z
-x,y,-z
-x,-y,-z
x,-y,z
1/2+x,1/2+y,z
1/2-x,1/2+y,-z
1/2-x,1/2-y,-z
1/2+x,1/2-y,z
loop_
_atom_site_type_symbol
_atom_site_label
_atom_site_fract_x
_atom_site_fract_y
_atom_site_fract_z
Si Si1 0.749668 0.396899 0.772865
Si Si2 0.145839 0.129059 0.228226
Si Si3 0.392815 0.724271 0.851826
Si Si4 0.500000 0.914905 0.500000
Si Si5 0.180812 0.047191 0.064040
Si Si6 0.386356 0.250999 0.342234
Si Si7 0.130942 0.546551 0.339288
Si Si8 0.833217 0.345928 0.243182
O O1 0.656073 0.387080 0.492554
O O2 0.843971 0.414353 0.783029
O O3 0.723320 0.436322 0.893218
O O4 0.772448 0.353198 0.931125
O O5 0.096976 0.173529 0.121111
O O6 0.116658 0.087493 0.047465
O O7 0.256825 0.141428 0.322768
O O8 0.349949 0.733551 0.538853
O O9 0.500000 0.744845 0.000000
O O10 0.348384 0.736303 0.034485
O O11 0.463169 0.943828 0.649694
O O12 0.411982 0.882701 0.337886
O O13 0.273147 0.045557 0.363950
O O14 0.138462 0.000000 0.994956
O O15 0.500000 0.263832 0.500000
O O16 0.375835 0.200136 0.334930
O O17 0.124207 0.500000 0.223685
#
# Coordination Sequence:
#
# PCOD9188031 Si02
#       8
#     8   8   8   4   8   8   8   8
#     4  10  19  36  53  83 111 159 199 244 294 347
#     4  10  22  39  60  87 118 151 195 245 297 357
#     4  10  24  44  67  92 119 152 197 246 312 365
#     4  12  19  38  48  78 116 160 202 246 297 332
#     4   9  18  35  56  82 115 150 194 242 294 349
#     4  10  23  42  63  92 122 158 198 250 297 361
#     4  10  20  34  50  75 112 156 208 251 288 337
#     4  11  23  37  57  81 118 161 201 245 295 346
#
# _framework density 22.975633999999999
#
# number of rings (size 3 to 8) (size 9 to 14) (size 15 to 20)
#    0.000    1.867    4.667    0.600    5.600    2.133 
#    2.400    0.667    0.000    0.400    0.000    0.933 
#    0.000    0.000    0.000    0.000    0.000    0.000 
#
# Total GULP energy -167087.628433 kJ/mol
# GULP energy per Si atom -5569.587614 kJ/mol
# Density = 2.292334 g / cm^3
# Si number density = 22.975634 Si / 1000 Ang^3
#
#
#
# Elastic Constant Matrix: (Units=GPa)
#
#
# Indices 1 2 3 4 5 6 
#
# 1 41.4606 17.8792 20.7075 0.0000 -14.8208 0.0000
# 2 17.8792 131.2111 20.3090 0.0000 -13.7836 0.0000
# 3 20.7075 20.3090 79.0581 0.0000 -25.7793 0.0000
# 4 0.0000 0.0000 0.0000 20.1966 0.0000 6.6329
# 5 -14.8208 -13.7836 -25.7793 0.0000 20.7534 0.0000
# 6 0.0000 0.0000 0.0000 6.6329 0.0000 17.3321
#
#
#
# Elastic Compliance Matrix: (Units=1/GPa)
#
#
# Indices 1 2 3 4 5 6 
#
# 1 0.033053 -0.002138 -0.001470 0.000000 0.020359 0.000000
# 2 -0.002138 0.008346 -0.000461 0.000000 0.003443 0.000000
# 3 -0.001470 -0.000461 0.021363 0.000000 0.025181 0.000000
# 4 0.000000 0.000000 0.000000 0.056631 0.000000 -0.021672
# 5 0.020359 0.003443 0.025181 0.000000 0.096290 0.000000
# 6 0.000000 0.000000 0.000000 -0.021672 0.000000 0.065990
#
#
# Mechanical properties :
#
#
# Convention : Reuss Voigt Hill
#
# Bulk Modulus (GPa) = 18.30665 41.05790 29.68228
# Shear Modulus (GPa) = 16.23280 24.51204 20.37242
#
# Velocity S-wave (km/s) = 2.66093 3.26984 2.98098
# Velocity P-wave (km/s) = 4.17443 5.67140 4.97949
#
# Compressibility (1/GPa) = 0.05462496
#
# Stress axis : x y z
#
# Youngs Moduli (GPa) = 30.25464 119.82217 46.80907
#
# Poissons Ratio (x) = 0.25614 0.06879
# Poissons Ratio (y) = 0.06468 0.02159
# Poissons Ratio (z) = 0.04446 0.05525
#
# Static dielectric constant tensor:
#      x y z
#    x 1.934070 0.000000 0.018950 
#    y 0.000000 1.806970 0.000000 
#    z 0.018950 0.000000 2.018260 
# 
# From -- ./inp_files/18367.got.cif
#   From: 2010.05.17/outbox.cif.g08.bks.cpg/sg12_10_cif.got.tgz:18367.got - 2010.06.03 13:09:07.
