data_PCOD9188620
_publ_section_title
;
Structure prediction by ZEFSAII (Michael W. Deem and Ramdas Pophale) SiO2 
 PCOD9188620
Probable space group: C 2/M
;
_chemical_formula_sum "Si O2"
_cell_formula_units_Z 44
_cell_length_a 9.345332
_cell_length_b 15.245751
_cell_length_c 19.697278
_cell_angle_alpha 90.000000
_cell_angle_beta 48.303436
_cell_angle_gamma 90.000000
_cell_volume 2095.478312
_symmetry_space_group_name_H-M "C 2/M"
_symmetry_group_IT_number 12
_symmetry_cell_setting 'monoclinic'
loop_
_space_group_symop_operation_xyz
x,y,z
-x,y,-z
-x,-y,-z
x,-y,z
1/2+x,1/2+y,z
1/2-x,1/2+y,-z
1/2-x,1/2-y,-z
1/2+x,1/2-y,z
loop_
_atom_site_type_symbol
_atom_site_label
_atom_site_fract_x
_atom_site_fract_y
_atom_site_fract_z
Si Si1 0.192610 0.840306 0.481654
Si Si2 0.000000 0.746074 0.000000
Si Si3 0.599981 0.603011 0.782295
Si Si4 0.292075 0.901816 0.585062
Si Si5 0.009100 0.600721 0.726037
Si Si6 0.926125 0.283000 0.876014
O O1 0.250000 0.750000 0.500000
O O2 0.176113 0.902943 0.551996
O O3 0.358520 0.869759 0.378188
O O4 0.000000 0.836086 0.500000
O O5 0.999833 0.695400 0.071860
O O6 0.801410 0.799400 0.058198
O O7 0.534378 0.500000 0.800400
O O8 0.670341 0.635406 0.685293
O O9 0.790638 0.605298 0.768251
O O10 0.459305 0.678425 0.853875
O O11 0.500000 0.863207 0.500000
O O12 0.337323 0.000000 0.595747
O O13 0.053219 0.500000 0.729124
O O14 0.030084 0.662780 0.784487
#
# Coordination Sequence:
#
# PCOD9188620 Si02
#       6
#     8   4   8   8   8   8
#     4  12  26  39  60  93 133 179 226 265 318 374
#     4  10  24  42  70  94 132 166 212 268 352 410
#     4  10  21  40  69  98 130 177 221 264 326 397
#     4  10  19  36  60  87 126 168 210 259 309 368
#     4  11  24  42  68  98 133 175 224 273 324 391
#     4  11  22  45  67  98 128 170 209 280 334 408
#
# _framework density 20.997592999999998
#
# number of rings (size 3 to 8) (size 9 to 14) (size 15 to 20)
#    0.000    1.273    3.636    2.182    2.545    2.909 
#    0.000    8.182    0.000    0.000    0.000    0.000 
#    0.000    0.000    0.000    0.000    0.000    0.000 
#
# Total GULP energy -122763.688842 kJ/mol
# GULP energy per Si atom -5580.167675 kJ/mol
# Density = 2.094980 g / cm^3
# Si number density = 20.997593 Si / 1000 Ang^3
#
#
#
# Elastic Constant Matrix: (Units=GPa)
#
#
# Indices 1 2 3 4 5 6 
#
# 1 113.3215 22.2603 30.1710 0.0000 22.0690 0.0000
# 2 22.2603 109.0797 42.6542 0.0000 8.0236 0.0001
# 3 30.1710 42.6542 109.1654 -0.0001 33.0451 0.0001
# 4 0.0000 0.0000 -0.0001 -4.1353 0.0000 1.9426
# 5 22.0690 8.0236 33.0451 0.0000 47.6659 -0.0001
# 6 0.0000 0.0001 0.0001 1.9426 -0.0001 16.6808
#
#
#
# Elastic Compliance Matrix: (Units=1/GPa)
#
#
# Indices 1 2 3 4 5 6 
#
# 1 0.010108 -0.001338 -0.001167 0.000000 -0.003645 0.000000
# 2 -0.001338 0.011073 -0.004531 0.000000 0.001897 0.000000
# 3 -0.001167 -0.004531 0.013743 0.000000 -0.008224 0.000000
# 4 0.000000 0.000000 0.000000 -0.229275 0.000000 0.026701
# 5 -0.003645 0.001897 -0.008224 0.000000 0.028050 0.000000
# 6 0.000000 0.000000 0.000000 0.026701 0.000000 0.056840
#
#
# Mechanical properties :
#
#
# Convention : Reuss Voigt Hill
#
# Bulk Modulus (GPa) = 47.95865 57.97084 52.96475
# Shear Modulus (GPa) = -56.53591 27.80769 -14.36411
#
# Velocity S-wave (km/s) = -5.19455 3.64308 -2.61834
# Velocity P-wave (km/s) = 3.61776 6.73530 4.01722
#
# Compressibility (1/GPa) = 0.02085129
#
# Stress axis : x y z
#
# Youngs Moduli (GPa) = 98.93122 90.31059 72.76483
#
# Poissons Ratio (x) = 0.12085 0.08494
# Poissons Ratio (y) = 0.13239 0.32968
# Poissons Ratio (z) = 0.11548 0.40918
#
# Static dielectric constant tensor:
#      x y z
#    x 1.779220 0.000000 0.021750 
#    y 0.000000 4.653970 0.000000 
#    z 0.021750 0.000000 1.777480 
# 
# From -- ./inp_files/256862.got.cif
#   From: 2010.05.17/outbox.cif.g08.bks.cpg/sg12_129_cif.got.tgz:256862.got - 2010.06.03 13:09:07.
