data_PCOD9188422
_publ_section_title
;
Structure prediction by ZEFSAII (Michael W. Deem and Ramdas Pophale) SiO2 
 PCOD9188422
Probable space group: C 2/M
;
_chemical_formula_sum "Si O2"
_cell_formula_units_Z 56
_cell_length_a 15.648190
_cell_length_b 8.443341
_cell_length_c 22.375013
_cell_angle_alpha 90.000000
_cell_angle_beta 77.587687
_cell_angle_gamma 90.000000
_cell_volume 2887.154778
_symmetry_space_group_name_H-M "C 2/M"
_symmetry_group_IT_number 12
_symmetry_cell_setting 'monoclinic'
loop_
_space_group_symop_operation_xyz
x,y,z
-x,y,-z
-x,-y,-z
x,-y,z
1/2+x,1/2+y,z
1/2-x,1/2+y,-z
1/2-x,1/2-y,-z
1/2+x,1/2-y,z
loop_
_atom_site_type_symbol
_atom_site_label
_atom_site_fract_x
_atom_site_fract_y
_atom_site_fract_z
Si Si1 0.190036 0.190207 0.708070
Si Si2 0.327647 0.306432 0.153817
Si Si3 0.299216 0.810231 0.933338
Si Si4 0.548292 0.811872 0.640943
Si Si5 0.989941 0.191358 0.932235
Si Si6 0.349290 0.311734 0.489361
Si Si7 0.132641 0.691946 0.382639
O O1 0.190065 0.248208 0.776184
O O2 0.102329 0.234994 0.686317
O O3 0.274415 0.245929 0.657822
O O4 0.196199 0.000000 0.708864
O O5 0.327016 0.500000 0.154235
O O6 0.254967 0.255619 0.116690
O O7 0.423697 0.257759 0.116559
O O8 0.399081 0.753711 0.919909
O O9 0.297188 0.000000 0.934442
O O10 0.250000 0.750000 0.000000
O O11 0.595309 0.765565 0.571916
O O12 0.447095 0.764980 0.648974
O O13 0.552285 0.000000 0.647641
O O14 0.986841 0.000000 0.932099
O O15 0.000000 0.241009 0.000000
O O16 0.350561 0.500000 0.481548
O O17 0.250000 0.250000 0.500000
O O18 0.382677 0.264254 0.549834
O O19 0.133916 0.500000 0.388595
#
# Coordination Sequence:
#
# PCOD9188422 Si02
#       7
#     8   8   8   8   8   8   8
#     4  10  21  40  62  82 112 160 204 237 287 353
#     4   9  20  38  59  83 116 157 196 238 294 353
#     4  11  21  36  59  88 118 151 194 240 292 351
#     4  11  23  39  60  88 121 155 195 245 296 344
#     4  10  19  36  59  84 117 154 190 236 294 348
#     4  12  23  37  61  90 119 152 195 246 297 348
#     4  10  22  39  60  86 119 156 195 240 293 347
#
# _framework density 19.396259000000001
#
# number of rings (size 3 to 8) (size 9 to 14) (size 15 to 20)
#    0.000    1.571    2.857    2.571    0.000    4.286 
#    0.000    3.571    0.000    0.000    0.000    0.000 
#    0.000    0.000    0.000    0.000    0.000    0.000 
#
# Total GULP energy -156468.654268 kJ/mol
# GULP energy per Si atom -5588.166224 kJ/mol
# Density = 1.935211 g / cm^3
# Si number density = 19.396259 Si / 1000 Ang^3
#
#
#
# Elastic Constant Matrix: (Units=GPa)
#
#
# Indices 1 2 3 4 5 6 
#
# 1 109.0845 5.5279 28.5943 0.0000 30.0989 0.0000
# 2 5.5279 4.9498 0.5886 0.0000 0.9631 0.0000
# 3 28.5943 0.5886 114.9212 0.0000 25.1790 0.0000
# 4 0.0000 0.0000 0.0000 16.3721 0.0000 7.7603
# 5 30.0989 0.9631 25.1790 0.0000 26.3893 0.0000
# 6 0.0000 0.0000 0.0000 7.7603 0.0000 31.0896
#
#
#
# Elastic Compliance Matrix: (Units=1/GPa)
#
#
# Indices 1 2 3 4 5 6 
#
# 1 0.014132 -0.012739 -0.000027 0.000000 -0.015628 0.000000
# 2 -0.012739 0.215005 0.000764 0.000000 0.005954 0.000000
# 3 -0.000027 0.000764 0.011004 0.000000 -0.010497 0.000000
# 4 0.000000 0.000000 0.000000 0.069276 0.000000 -0.017292
# 5 -0.015628 0.005954 -0.010497 0.000000 0.065517 0.000000
# 6 0.000000 0.000000 0.000000 -0.017292 0.000000 0.036481
#
#
# Mechanical properties :
#
#
# Convention : Reuss Voigt Hill
#
# Bulk Modulus (GPa) = 4.62668 33.15301 18.88985
# Shear Modulus (GPa) = 9.85292 27.71985 18.78638
#
# Velocity S-wave (km/s) = 2.25629 3.78449 3.11554
# Velocity P-wave (km/s) = 3.02957 6.01881 4.76468
#
# Compressibility (1/GPa) = 0.21613761
#
# Stress axis : x y z
#
# Youngs Moduli (GPa) = 70.76192 4.65106 90.87431
#
# Poissons Ratio (x) = 0.05925 0.00245
# Poissons Ratio (y) = 0.90140 -0.06942
# Poissons Ratio (z) = 0.00191 -0.00355
#
# Static dielectric constant tensor:
#      x y z
#    x 1.668430 0.000000 0.002390 
#    y 0.000000 1.673870 0.000000 
#    z 0.002390 0.000000 1.652810 
# 
# From -- ./inp_files/308927.got.cif
#   From: 2010.05.17/outbox.cif.g08.bks.cpg/sg12_155_cif.got.tgz:308927.got - 2010.06.03 13:09:07.
