data_PCOD9188472
_publ_section_title
;
Structure prediction by ZEFSAII (Michael W. Deem and Ramdas Pophale) SiO2 
 PCOD9188472
Probable space group: C 2/M
;
_chemical_formula_sum "Si O2"
_cell_formula_units_Z 56
_cell_length_a 10.115520
_cell_length_b 14.657482
_cell_length_c 22.636511
_cell_angle_alpha 90.000000
_cell_angle_beta 60.328726
_cell_angle_gamma 90.000000
_cell_volume 2916.196454
_symmetry_space_group_name_H-M "C 2/M"
_symmetry_group_IT_number 12
_symmetry_cell_setting 'monoclinic'
loop_
_space_group_symop_operation_xyz
x,y,z
-x,y,-z
-x,-y,-z
x,-y,z
1/2+x,1/2+y,z
1/2-x,1/2+y,-z
1/2-x,1/2-y,-z
1/2+x,1/2-y,z
loop_
_atom_site_type_symbol
_atom_site_label
_atom_site_fract_x
_atom_site_fract_y
_atom_site_fract_z
Si Si1 0.529641 0.891532 0.061674
Si Si2 0.055938 0.201897 0.734085
Si Si3 0.199285 0.895117 0.521316
Si Si4 0.801908 0.403449 0.630686
Si Si5 0.703236 0.241792 0.824978
Si Si6 0.067924 0.721864 0.604301
Si Si7 0.665609 0.608625 0.935000
O O1 0.409235 0.835370 0.125920
O O2 0.699958 0.871999 0.047506
O O3 0.505897 0.000000 0.073273
O O4 0.500000 0.867710 0.000000
O O5 0.133963 0.108253 0.694913
O O6 0.141524 0.231083 0.774361
O O7 0.088975 0.263701 0.669175
O O8 0.875880 0.205575 0.784176
O O9 0.293491 0.900290 0.561864
O O10 0.075993 0.818239 0.567083
O O11 0.304841 0.846401 0.449679
O O12 0.153450 0.000000 0.517555
O O13 0.869408 0.500000 0.634175
O O14 0.906270 0.322938 0.629400
O O15 0.692626 0.327832 0.872143
O O16 0.672218 0.500000 0.919062
O O17 0.500000 0.626704 0.000000
#
# Coordination Sequence:
#
# PCOD9188472 Si02
#       7
#     8   8   8   8   8   8   8
#     4  10  23  42  65  94 126 161 203 255 311 363
#     4  11  24  39  59  90 124 166 206 250 305 368
#     4   9  19  35  61  91 117 158 211 261 313 369
#     4  10  20  37  63  91 120 159 211 258 305 370
#     4  12  23  42  64  89 126 168 208 249 308 367
#     4  10  19  36  59  88 126 157 204 260 314 361
#     4  10  23  42  65  94 125 160 208 258 303 361
#
# _framework density 19.203095000000001
#
# number of rings (size 3 to 8) (size 9 to 14) (size 15 to 20)
#    0.000    1.714    2.857    1.286    2.000    3.429 
#    0.000    1.429    0.000   19.714    0.000    0.000 
#    0.000    0.000    0.000    0.000    0.000    0.000 
#
# Total GULP energy -156193.921298 kJ/mol
# GULP energy per Si atom -5578.354332 kJ/mol
# Density = 1.915939 g / cm^3
# Si number density = 19.203095 Si / 1000 Ang^3
#
#
#
# Elastic Constant Matrix: (Units=GPa)
#
#
# Indices 1 2 3 4 5 6 
#
# 1 118.6528 49.3119 58.6570 0.0000 -8.7115 0.0000
# 2 49.3119 111.8910 55.5434 0.0000 -6.7948 0.0000
# 3 58.6570 55.5434 126.5930 0.0000 -0.3228 0.0000
# 4 0.0000 0.0000 0.0000 -24.8736 0.0000 -9.4016
# 5 -8.7115 -6.7948 -0.3228 0.0000 30.3531 0.0000
# 6 0.0000 0.0000 0.0000 -9.4016 0.0000 22.8801
#
#
#
# Elastic Compliance Matrix: (Units=1/GPa)
#
#
# Indices 1 2 3 4 5 6 
#
# 1 0.011963 -0.003016 -0.004213 0.000000 0.002714 0.000000
# 2 -0.003016 0.012380 -0.004029 0.000000 0.001863 0.000000
# 3 -0.004213 -0.004029 0.011614 0.000000 -0.001988 0.000000
# 4 0.000000 0.000000 0.000000 -0.034799 0.000000 -0.014299
# 5 0.002714 0.001863 -0.001988 0.000000 0.034120 0.000000
# 6 0.000000 0.000000 0.000000 -0.014299 0.000000 0.037830
#
#
# Mechanical properties :
#
#
# Convention : Reuss Voigt Hill
#
# Bulk Modulus (GPa) = 74.40297 76.01793 75.21045
# Shear Modulus (GPa) = 49.94643 18.58022 34.26333
#
# Velocity S-wave (km/s) = 5.10549 3.11394 4.22863
# Velocity P-wave (km/s) = 8.57812 7.25266 7.94309
#
# Compressibility (1/GPa) = 0.01344032
#
# Stress axis : x y z
#
# Youngs Moduli (GPa) = 83.58785 80.77575 86.10119
#
# Poissons Ratio (x) = 0.24365 0.36274
# Poissons Ratio (y) = 0.25213 0.34694
# Poissons Ratio (z) = 0.35215 0.32548
#
# Static dielectric constant tensor:
#      x y z
#    x 1.677370 0.000000 -0.010490 
#    y 0.000000 1.690850 0.000000 
#    z -0.010490 0.000000 1.670200 
# 
# From -- ./inp_files/332829.got.cif
#   From: 2010.05.17/outbox.cif.g08.bks.cpg/sg12_167_cif.got.tgz:332829.got - 2010.06.03 13:09:07.
