data_PCOD9188019
_publ_section_title
;
Structure prediction by ZEFSAII (Michael W. Deem and Ramdas Pophale) SiO2 
 PCOD9188019
Probable space group: C 2/M
;
_chemical_formula_sum "Si O2"
_cell_formula_units_Z 40
_cell_length_a 13.692671
_cell_length_b 9.848760
_cell_length_c 18.646314
_cell_angle_alpha 90.000000
_cell_angle_beta 131.497691
_cell_angle_gamma 90.000000
_cell_volume 1883.364358
_symmetry_space_group_name_H-M "C 2/M"
_symmetry_group_IT_number 12
_symmetry_cell_setting 'monoclinic'
loop_
_space_group_symop_operation_xyz
x,y,z
-x,y,-z
-x,-y,-z
x,-y,z
1/2+x,1/2+y,z
1/2-x,1/2+y,-z
1/2-x,1/2-y,-z
1/2+x,1/2-y,z
loop_
_atom_site_type_symbol
_atom_site_label
_atom_site_fract_x
_atom_site_fract_y
_atom_site_fract_z
Si Si1 0.517411 0.792139 0.279522
Si Si2 0.745443 0.764944 0.210406
Si Si3 0.369154 0.500000 0.891132
Si Si4 0.875041 0.500000 0.118804
Si Si5 0.331902 0.500000 0.341807
Si Si6 0.273151 0.000000 0.563275
Si Si7 0.154441 0.500000 0.061710
Si Si8 0.571425 0.500000 0.344230
O O1 0.390568 0.793261 0.269765
O O2 0.554802 0.635699 0.290441
O O3 0.463978 0.870883 0.183794
O O4 0.633210 0.872716 0.374817
O O5 0.648738 0.638364 0.162191
O O6 0.751086 0.865564 0.280347
O O7 0.713812 0.866789 0.128746
O O8 0.250241 0.500000 0.890655
O O9 0.500000 0.500000 0.000000
O O10 0.829343 0.500000 0.015297
O O11 0.339848 0.500000 0.430824
O O12 0.456222 0.500000 0.349238
O O13 0.205751 0.000000 0.453715
O O14 0.000000 0.500000 0.000000
#
# Coordination Sequence:
#
# PCOD9188019 Si02
#       8
#     8   8   4   4   4   4   4   4
#     4   9  20  36  57  82 118 148 182 240 291 340
#     4   9  20  38  55  79 118 155 188 235 294 331
#     4  10  19  36  52  80 114 156 197 243 285 328
#     4   9  21  38  56  83 116 157 199 234 294 348
#     4   9  20  37  59  82 114 152 193 236 280 349
#     4  11  20  35  62  90 111 149 195 231 293 361
#     4  11  22  36  61  84 115 158 202 243 282 345
#     4  10  19  38  61  88 113 146 188 245 293 347
#
# _framework density 21.238589999999999
#
# number of rings (size 3 to 8) (size 9 to 14) (size 15 to 20)
#    0.000    2.400    0.000    2.700    5.600    3.200 
#    3.600    2.000    0.000    0.000    0.000   19.600 
#    0.000    0.000    0.000    0.000    0.000    0.000 
#
# Total GULP energy -111688.323048 kJ/mol
# GULP energy per Si atom -5584.416152 kJ/mol
# Density = 2.119025 g / cm^3
# Si number density = 21.238590 Si / 1000 Ang^3
#
#
#
# Elastic Constant Matrix: (Units=GPa)
#
#
# Indices 1 2 3 4 5 6 
#
# 1 59.1559 2.8698 16.6597 0.0000 11.4435 0.0000
# 2 2.8698 176.3037 52.5769 0.0000 2.6248 0.0000
# 3 16.6597 52.5769 103.8831 0.0000 2.2245 0.0000
# 4 0.0000 0.0000 0.0000 12.8845 0.0000 10.2378
# 5 11.4435 2.6248 2.2245 0.0000 37.9385 0.0000
# 6 0.0000 0.0000 0.0000 10.2378 0.0000 -0.8276
#
#
#
# Elastic Compliance Matrix: (Units=1/GPa)
#
#
# Indices 1 2 3 4 5 6 
#
# 1 0.018868 0.000757 -0.003290 0.000000 -0.005551 0.000000
# 2 0.000757 0.006713 -0.003509 0.000000 -0.000487 0.000000
# 3 -0.003290 -0.003509 0.011918 0.000000 0.000536 0.000000
# 4 0.000000 0.000000 0.000000 0.007167 0.000000 0.088658
# 5 -0.005551 -0.000487 0.000536 0.000000 0.028035 0.000000
# 6 0.000000 0.000000 0.000000 0.088658 0.000000 -0.111578
#
#
# Mechanical properties :
#
#
# Convention : Reuss Voigt Hill
#
# Bulk Modulus (GPa) = 39.34593 53.72836 46.53715
# Shear Modulus (GPa) = -272.90594 27.81485 -122.54554
#
# Velocity S-wave (km/s) = -11.34788 3.62282 -7.60426
# Velocity P-wave (km/s) = 12.37470 6.54616 7.42566
#
# Compressibility (1/GPa) = 0.02541559
#
# Stress axis : x y z
#
# Youngs Moduli (GPa) = 52.99964 148.95812 83.90607
#
# Poissons Ratio (x) = -0.11271 0.27605
# Poissons Ratio (y) = -0.04010 0.29439
# Poissons Ratio (z) = 0.17437 0.52264
#
# Static dielectric constant tensor:
#      x y z
#    x 1.820770 0.000000 0.011330 
#    y 0.000000 1.789650 0.000000 
#    z 0.011330 0.000000 1.724840 
# 
# From -- ./inp_files/308728.got.cif
#   From: 2010.05.17/outbox.cif.g08.bks.cpg/sg12_155_cif.got.tgz:308728.got - 2010.06.03 13:09:07.
