data_PCOD9188370
_publ_section_title
;
Structure prediction by ZEFSAII (Michael W. Deem and Ramdas Pophale) SiO2 
 PCOD9188370
Probable space group: C 2/M
;
_chemical_formula_sum "Si O2"
_cell_formula_units_Z 56
_cell_length_a 9.287246
_cell_length_b 20.485187
_cell_length_c 17.728729
_cell_angle_alpha 90.000000
_cell_angle_beta 123.969555
_cell_angle_gamma 90.000000
_cell_volume 2797.269201
_symmetry_space_group_name_H-M "C 2/M"
_symmetry_group_IT_number 12
_symmetry_cell_setting 'monoclinic'
loop_
_space_group_symop_operation_xyz
x,y,z
-x,y,-z
-x,-y,-z
x,-y,z
1/2+x,1/2+y,z
1/2-x,1/2+y,-z
1/2-x,1/2-y,-z
1/2+x,1/2-y,z
loop_
_atom_site_type_symbol
_atom_site_label
_atom_site_fract_x
_atom_site_fract_y
_atom_site_fract_z
Si Si1 0.928622 0.924487 0.670721
Si Si2 0.248461 0.743312 0.307162
Si Si3 0.673073 0.074207 0.902323
Si Si4 0.307688 0.131171 0.820117
Si Si5 0.803339 0.134819 0.788148
Si Si6 0.315578 0.681636 0.055637
Si Si7 0.116416 0.797111 0.418528
O O1 0.843671 0.910329 0.727731
O O2 0.851726 0.874286 0.585540
O O3 0.129974 0.904282 0.743287
O O4 0.912173 0.000000 0.645572
O O5 0.160904 0.689367 0.229789
O O6 0.308809 0.805181 0.275575
O O7 0.124063 0.771991 0.334129
O O8 0.422940 0.712668 0.392620
O O9 0.470844 0.083683 0.863270
O O10 0.716404 0.095447 0.829891
O O11 0.727502 0.000000 0.931462
O O12 0.771610 0.124778 0.984211
O O13 0.280804 0.164248 0.894013
O O14 0.980284 0.171670 0.867003
O O15 0.250000 0.750000 0.000000
O O16 0.250000 0.750000 0.500000
#
# Coordination Sequence:
#
# PCOD9188370 Si02
#       7
#     8   8   8   8   8   8   8
#     4   9  19  37  59  80 107 148 186 217 268 336
#     4  10  19  36  59  82 106 140 180 220 271 324
#     4  12  24  35  52  81 115 147 184 238 290 325
#     4  10  21  36  56  78 108 147 189 232 273 330
#     4  10  21  36  56  78 108 147 189 232 273 330
#     4  11  23  38  55  77 108 149 197 242 283 324
#     4  10  20  34  59  88 112 136 169 221 273 329
#
# _framework density 20.019525000000002
#
# number of rings (size 3 to 8) (size 9 to 14) (size 15 to 20)
#    0.000    1.714    0.000    5.571    0.000    5.714 
#    0.000    0.000    0.000   17.143    0.000    0.000 
#    0.000    0.000    0.000    0.000    0.000    0.000 
#
# Total GULP energy -156303.558600 kJ/mol
# GULP energy per Si atom -5582.269950 kJ/mol
# Density = 1.997396 g / cm^3
# Si number density = 20.019525 Si / 1000 Ang^3
#
#
#
# Elastic Constant Matrix: (Units=GPa)
#
#
# Indices 1 2 3 4 5 6 
#
# 1 64.5209 18.7939 0.2856 0.0000 -5.3928 0.0000
# 2 18.7939 173.7237 38.5597 0.0000 -7.9486 0.0000
# 3 0.2856 38.5597 45.3235 0.0000 -2.8171 0.0000
# 4 0.0000 0.0000 0.0000 29.9480 0.0000 -0.7134
# 5 -5.3928 -7.9486 -2.8171 0.0000 19.0560 0.0000
# 6 0.0000 0.0000 0.0000 -0.7134 0.0000 20.3221
#
#
#
# Elastic Compliance Matrix: (Units=1/GPa)
#
#
# Indices 1 2 3 4 5 6 
#
# 1 0.016415 -0.002000 0.001852 0.000000 0.004085 0.000000
# 2 -0.002000 0.007423 -0.006202 0.000000 0.001613 0.000000
# 3 0.001852 -0.006202 0.027453 0.000000 0.001995 0.000000
# 4 0.000000 0.000000 0.000000 0.033419 0.000000 0.001173
# 5 0.004085 0.001613 0.001995 0.000000 0.054601 0.000000
# 6 0.000000 0.000000 0.000000 0.001173 0.000000 0.049249
#
#
# Mechanical properties :
#
#
# Convention : Reuss Voigt Hill
#
# Bulk Modulus (GPa) = 25.91369 44.31627 35.11498
# Shear Modulus (GPa) = 23.35105 28.92718 26.13911
#
# Velocity S-wave (km/s) = 3.41898 3.80537 3.61734
# Velocity P-wave (km/s) = 5.34399 6.44146 5.91822
#
# Compressibility (1/GPa) = 0.03858964
#
# Stress axis : x y z
#
# Youngs Moduli (GPa) = 60.92128 134.71383 36.42618
#
# Poissons Ratio (x) = 0.26942 -0.06746
# Poissons Ratio (y) = 0.12184 0.22593
# Poissons Ratio (z) = -0.11282 0.83556
#
# Static dielectric constant tensor:
#      x y z
#    x 1.753000 0.000000 0.016710 
#    y 0.000000 1.698930 0.000000 
#    z 0.016710 0.000000 1.735390 
# 
# From -- ./inp_files/258249.got.cif
#   From: 2010.05.17/outbox.cif.g08.bks.cpg/sg12_130_cif.got.tgz:258249.got - 2010.06.03 13:09:07.
