data_PCOD9188023
_publ_section_title
;
Structure prediction by ZEFSAII (Michael W. Deem and Ramdas Pophale) SiO2 
 PCOD9188023
Probable space group: C 2/M
;
_chemical_formula_sum "Si O2"
_cell_formula_units_Z 56
_cell_length_a 20.227485
_cell_length_b 19.995871
_cell_length_c 9.363255
_cell_angle_alpha 90.000000
_cell_angle_beta 132.309727
_cell_angle_gamma 90.000000
_cell_volume 2800.638962
_symmetry_space_group_name_H-M "C 2/M"
_symmetry_group_IT_number 12
_symmetry_cell_setting 'monoclinic'
loop_
_space_group_symop_operation_xyz
x,y,z
-x,y,-z
-x,-y,-z
x,-y,z
1/2+x,1/2+y,z
1/2-x,1/2+y,-z
1/2-x,1/2-y,-z
1/2+x,1/2-y,z
loop_
_atom_site_type_symbol
_atom_site_label
_atom_site_fract_x
_atom_site_fract_y
_atom_site_fract_z
Si Si1 0.845027 0.216540 0.118415
Si Si2 0.312218 0.303663 0.750270
Si Si3 0.410596 0.624849 0.448717
Si Si4 0.226123 0.923112 0.521206
Si Si5 0.385374 0.244994 0.588603
Si Si6 0.032108 0.344403 0.695282
Si Si7 0.092439 0.419827 0.052294
O O1 0.853423 0.154106 0.235215
O O2 0.913431 0.276201 0.256875
O O3 0.750000 0.250000 0.000000
O O4 0.852231 0.193135 0.965422
O O5 0.296628 0.372926 0.641553
O O6 0.376912 0.261372 0.742381
O O7 0.216026 0.266281 0.613539
O O8 0.500000 0.598571 0.500000
O O9 0.351318 0.581152 0.470058
O O10 0.428627 0.691366 0.571082
O O11 0.318847 0.900179 0.730655
O O12 0.235691 0.000000 0.488234
O O13 0.442135 0.180032 0.640798
O O14 0.000000 0.376550 0.500000
O O15 0.087717 0.387145 0.888967
O O16 0.096366 0.500000 0.043169
O O17 0.000000 0.403839 0.000000
#
# Coordination Sequence:
#
# PCOD9188023 Si02
#       7
#     8   8   8   8   8   8   8
#     4  12  21  34  56  91 121 152 189 250 313 364
#     4  10  22  34  59  86 118 155 195 251 307 356
#     4  11  20  39  59  87 125 158 205 250 307 369
#     4  10  23  44  63  84 120 168 214 253 296 361
#     4  10  19  36  52  87 120 152 189 241 309 367
#     4  12  22  35  57  87 124 155 186 245 300 363
#     4  10  23  40  61  87 118 163 210 248 296 367
#
# _framework density 19.995436000000002
#
# number of rings (size 3 to 8) (size 9 to 14) (size 15 to 20)
#    0.000    1.286    4.286    1.714    6.000    0.571 
#    0.000    0.714    0.000    6.857    0.000    0.000 
#    0.000    0.000    0.000    0.000    0.000    0.000 
#
# Total GULP energy -156349.365841 kJ/mol
# GULP energy per Si atom -5583.905923 kJ/mol
# Density = 1.994993 g / cm^3
# Si number density = 19.995436 Si / 1000 Ang^3
#
#
#
# Elastic Constant Matrix: (Units=GPa)
#
#
# Indices 1 2 3 4 5 6 
#
# 1 80.7484 6.8728 11.6751 0.0000 3.4627 0.0000
# 2 6.8728 45.6706 16.0208 0.0000 -12.0991 0.0000
# 3 11.6751 16.0208 79.2882 0.0000 -22.5547 0.0000
# 4 0.0000 0.0000 0.0000 17.4571 0.0000 1.0865
# 5 3.4627 -12.0991 -22.5547 0.0000 36.7362 0.0000
# 6 0.0000 0.0000 0.0000 1.0865 0.0000 22.4080
#
#
#
# Elastic Compliance Matrix: (Units=1/GPa)
#
#
# Indices 1 2 3 4 5 6 
#
# 1 0.013061 -0.001997 -0.002492 0.000000 -0.003419 0.000000
# 2 -0.001997 0.024962 -0.002856 0.000000 0.006656 0.000000
# 3 -0.002492 -0.002856 0.016182 0.000000 0.009229 0.000000
# 4 0.000000 0.000000 0.000000 0.057457 0.000000 -0.002786
# 5 -0.003419 0.006656 0.009229 0.000000 0.035402 0.000000
# 6 0.000000 0.000000 0.000000 -0.002786 0.000000 0.044762
#
#
# Mechanical properties :
#
#
# Convention : Reuss Voigt Hill
#
# Bulk Modulus (GPa) = 25.30803 30.53832 27.92317
# Shear Modulus (GPa) = 22.75961 26.72948 24.74455
#
# Velocity S-wave (km/s) = 3.37744 3.66017 3.52164
# Velocity P-wave (km/s) = 5.28146 5.75919 5.52549
#
# Compressibility (1/GPa) = 0.03951315
#
# Stress axis : x y z
#
# Youngs Moduli (GPa) = 76.56327 40.06145 61.79811
#
# Poissons Ratio (x) = 0.08000 0.15402
# Poissons Ratio (y) = 0.15290 0.17652
# Poissons Ratio (z) = 0.19082 0.11443
#
# Static dielectric constant tensor:
#      x y z
#    x 1.764620 0.000000 0.023280 
#    y 0.000000 1.687130 0.000000 
#    z 0.023280 0.000000 1.733270 
# 
# From -- ./inp_files/89680.got.cif
#   From: 2010.05.17/outbox.cif.g08.bks.cpg/sg12_45_cif.got.tgz:89680.got - 2010.06.03 13:09:07.
