data_PCOD9188737
_publ_section_title
;
Structure prediction by ZEFSAII (Michael W. Deem and Ramdas Pophale) SiO2 
 PCOD9188737
Probable space group: C 2/M
;
_chemical_formula_sum "Si O2"
_cell_formula_units_Z 56
_cell_length_a 19.010744
_cell_length_b 8.650260
_cell_length_c 19.934311
_cell_angle_alpha 90.000000
_cell_angle_beta 66.522649
_cell_angle_gamma 90.000000
_cell_volume 3006.781692
_symmetry_space_group_name_H-M "C 2/M"
_symmetry_group_IT_number 12
_symmetry_cell_setting 'monoclinic'
loop_
_space_group_symop_operation_xyz
x,y,z
-x,y,-z
-x,-y,-z
x,-y,z
1/2+x,1/2+y,z
1/2-x,1/2+y,-z
1/2-x,1/2-y,-z
1/2+x,1/2-y,z
loop_
_atom_site_type_symbol
_atom_site_label
_atom_site_fract_x
_atom_site_fract_y
_atom_site_fract_z
Si Si1 0.448498 0.325971 0.316178
Si Si2 0.626335 0.676266 0.801618
Si Si3 0.223867 0.817716 0.302023
Si Si4 0.678108 0.313288 0.070494
Si Si5 0.517545 0.680345 0.071166
Si Si6 0.293983 0.185070 0.419245
Si Si7 0.616979 0.816722 0.234086
O O1 0.462890 0.500000 0.335938
O O2 0.407234 0.336969 0.259980
O O3 0.382269 0.242701 0.384282
O O4 0.529428 0.243177 0.272566
O O5 0.644448 0.500000 0.819002
O O6 0.701350 0.778708 0.770651
O O7 0.556989 0.753717 0.867676
O O8 0.248336 0.767907 0.368126
O O9 0.156636 0.729500 0.289285
O O10 0.207922 0.000000 0.308843
O O11 0.683180 0.500000 0.068718
O O12 0.600231 0.261471 0.061399
O O13 0.662851 0.257446 0.153034
O O14 0.750000 0.250000 0.000000
O O15 0.516535 0.500000 0.094810
O O16 0.500000 0.682068 0.000000
O O17 0.250000 0.250000 0.500000
O O18 0.294601 0.000000 0.419591
O O19 0.617956 0.000000 0.224648
#
# Coordination Sequence:
#
# PCOD9188737 Si02
#       7
#     8   8   8   8   8   8   8
#     4  10  19  36  61  87 117 155 194 240 293 349
#     4   9  17  33  56  81 109 148 192 236 289 349
#     4  10  22  38  58  87 120 152 192 243 293 346
#     4  11  23  40  58  83 118 158 200 250 306 357
#     4   9  18  33  54  79 109 145 190 238 289 348
#     4  10  21  39  64  94 125 157 193 237 290 353
#     4  12  24  39  60  85 117 160 205 250 297 353
#
# _framework density 18.624563999999999
#
# number of rings (size 3 to 8) (size 9 to 14) (size 15 to 20)
#    0.000    1.857    1.429    3.000    2.000    2.286 
#    0.000    0.714    0.000    6.429    0.000    0.000 
#    0.000    0.000    0.000    0.000    0.000    0.000 
#
# Total GULP energy -156050.298372 kJ/mol
# GULP energy per Si atom -5573.224942 kJ/mol
# Density = 1.858217 g / cm^3
# Si number density = 18.624564 Si / 1000 Ang^3
#
#
#
# Elastic Constant Matrix: (Units=GPa)
#
#
# Indices 1 2 3 4 5 6 
#
# 1 71.3894 30.5647 33.0347 0.0000 -3.4845 0.0000
# 2 30.5647 81.3479 39.5342 0.0000 -3.9449 0.0000
# 3 33.0347 39.5342 98.4348 0.0000 -24.3718 0.0000
# 4 0.0000 0.0000 0.0000 26.4084 0.0000 -3.7409
# 5 -3.4845 -3.9449 -24.3718 0.0000 26.6745 0.0000
# 6 0.0000 0.0000 0.0000 -3.7409 0.0000 22.4732
#
#
#
# Elastic Compliance Matrix: (Units=1/GPa)
#
#
# Indices 1 2 3 4 5 6 
#
# 1 0.018103 -0.004530 -0.004958 0.000000 -0.002835 0.000000
# 2 -0.004530 0.016804 -0.006151 0.000000 -0.003727 0.000000
# 3 -0.004958 -0.006151 0.017974 0.000000 0.014865 0.000000
# 4 0.000000 0.000000 0.000000 0.038781 0.000000 0.006456
# 5 -0.002835 -0.003727 0.014865 0.000000 0.050149 0.000000
# 6 0.000000 0.000000 0.000000 0.006456 0.000000 0.045572
#
#
# Mechanical properties :
#
#
# Convention : Reuss Voigt Hill
#
# Bulk Modulus (GPa) = 46.29167 50.82659 48.55913
# Shear Modulus (GPa) = 22.13740 24.98045 23.55892
#
# Velocity S-wave (km/s) = 3.45137 3.66630 3.56046
# Velocity P-wave (km/s) = 6.38684 6.72842 6.55985
#
# Compressibility (1/GPa) = 0.02160216
#
# Stress axis : x y z
#
# Youngs Moduli (GPa) = 55.23964 59.51097 55.63598
#
# Poissons Ratio (x) = 0.26957 0.27585
# Poissons Ratio (y) = 0.25022 0.34224
# Poissons Ratio (z) = 0.27388 0.36608
#
# Static dielectric constant tensor:
#      x y z
#    x 1.650740 0.000000 -0.000420 
#    y 0.000000 1.665070 0.000000 
#    z -0.000420 0.000000 1.684970 
# 
# From -- ./inp_files/275224.got.cif
#   From: 2010.05.17/outbox.cif.g08.bks.cpg/sg12_138_cif.got.tgz:275224.got - 2010.06.03 13:09:07.
