data_PCOD9188734
_publ_section_title
;
Structure prediction by ZEFSAII (Michael W. Deem and Ramdas Pophale) SiO2 
 PCOD9188734
Probable space group: C 2/M
;
_chemical_formula_sum "Si O2"
_cell_formula_units_Z 48
_cell_length_a 16.778571
_cell_length_b 17.895687
_cell_length_c 14.439179
_cell_angle_alpha 90.000000
_cell_angle_beta 32.936525
_cell_angle_gamma 90.000000
_cell_volume 2357.289013
_symmetry_space_group_name_H-M "C 2/M"
_symmetry_group_IT_number 12
_symmetry_cell_setting 'monoclinic'
loop_
_space_group_symop_operation_xyz
x,y,z
-x,y,-z
-x,-y,-z
x,-y,z
1/2+x,1/2+y,z
1/2-x,1/2+y,-z
1/2-x,1/2-y,-z
1/2+x,1/2-y,z
loop_
_atom_site_type_symbol
_atom_site_label
_atom_site_fract_x
_atom_site_fract_y
_atom_site_fract_z
Si Si1 0.011280 0.414550 0.761901
Si Si2 0.125039 0.414526 0.453952
Si Si3 0.356358 0.289547 0.599810
Si Si4 0.349823 0.413592 0.470241
Si Si5 0.903797 0.696464 0.009802
Si Si6 0.636088 0.316194 0.728665
O O1 0.955767 0.500000 0.812392
O O2 0.910232 0.358412 0.916861
O O3 0.048126 0.386142 0.623024
O O4 0.172438 0.415792 0.651043
O O5 0.166684 0.500000 0.434673
O O6 0.276582 0.371705 0.286673
O O7 0.000000 0.414849 0.500000
O O8 0.500000 0.249805 0.500000
O O9 0.403247 0.367295 0.506852
O O10 0.259601 0.249678 0.613302
O O11 0.251360 0.294373 0.790905
O O12 0.399710 0.500000 0.414831
O O13 0.383147 0.364721 0.345339
O O14 0.987981 0.773680 0.901765
O O15 0.000000 0.662299 0.000000
#
# Coordination Sequence:
#
# PCOD9188734 Si02
#       6
#     8   8   8   8   8   8
#     4   9  17  31  56  87 116 155 200 238 286 354
#     4   9  18  32  56  90 124 157 195 241 297 354
#     4  11  23  38  59  90 120 156 193 247 310 356
#     4  10  20  36  63  89 116 160 201 241 294 357
#     4  10  20  35  57  87 119 151 196 243 295 346
#     4  10  19  36  61  87 116 151 204 242 282 352
#
# _framework density 20.362373999999999
#
# number of rings (size 3 to 8) (size 9 to 14) (size 15 to 20)
#    0.000    2.167    3.333    2.500    2.333    1.333 
#    0.000    0.833   11.000   18.000    0.000    0.000 
#    0.000    0.000    0.000    0.000    0.000    0.000 
#
# Total GULP energy -133610.152765 kJ/mol
# GULP energy per Si atom -5567.089699 kJ/mol
# Density = 2.031603 g / cm^3
# Si number density = 20.362374 Si / 1000 Ang^3
#
#
#
# Elastic Constant Matrix: (Units=GPa)
#
#
# Indices 1 2 3 4 5 6 
#
# 1 51.9261 23.4242 27.6982 0.0008 9.8744 -0.0001
# 2 23.4242 110.9114 45.7178 0.0005 25.9261 0.0001
# 3 27.6982 45.7178 81.7339 0.0012 7.6370 0.0000
# 4 0.0008 0.0005 0.0012 8.0693 -0.0006 10.0180
# 5 9.8744 25.9261 7.6370 -0.0006 22.1013 -0.0001
# 6 -0.0001 0.0001 0.0000 10.0180 -0.0001 19.1924
#
#
#
# Elastic Compliance Matrix: (Units=1/GPa)
#
#
# Indices 1 2 3 4 5 6 
#
# 1 0.024967 -0.000218 -0.007565 -0.000006 -0.008285 0.000003
# 2 -0.000218 0.015771 -0.007263 -0.000003 -0.015893 0.000001
# 3 -0.007565 -0.007263 0.018341 -0.000003 0.005561 0.000002
# 4 -0.000006 -0.000003 -0.000003 0.352092 0.000015 -0.183784
# 5 -0.008285 -0.015893 0.005561 0.000015 0.065670 -0.000008
# 6 0.000003 0.000001 0.000002 -0.183784 -0.000008 0.148035
#
#
# Mechanical properties :
#
#
# Convention : Reuss Voigt Hill
#
# Bulk Modulus (GPa) = 34.49671 48.69465 41.59568
# Shear Modulus (GPa) = 7.52298 19.72136 13.62217
#
# Velocity S-wave (km/s) = 1.92421 3.11548 2.58928
# Velocity P-wave (km/s) = 4.68134 6.07516 5.42321
#
# Compressibility (1/GPa) = 0.02898827
#
# Stress axis : x y z
#
# Youngs Moduli (GPa) = 40.05251 63.40732 54.52243
#
# Poissons Ratio (x) = 0.01383 0.41245
# Poissons Ratio (y) = 0.00874 0.39597
# Poissons Ratio (z) = 0.30299 0.46050
#
# Static dielectric constant tensor:
#      x y z
#    x 1.729890 0.000000 0.009140 
#    y 0.000000 1.823770 0.000000 
#    z 0.009140 0.000000 1.721670 
# 
# From -- ./inp_files/226746.got.cif
#   From: 2010.05.17/outbox.cif.g08.bks.cpg/sg12_114_cif.got.tgz:226746.got - 2010.06.03 13:09:07.
