data_PCOD9188331
_publ_section_title
;
Structure prediction by ZEFSAII (Michael W. Deem and Ramdas Pophale) SiO2 
 PCOD9188331
Probable space group: C 2/M
;
_chemical_formula_sum "Si O2"
_cell_formula_units_Z 60
_cell_length_a 18.408909
_cell_length_b 22.465571
_cell_length_c 12.287735
_cell_angle_alpha 90.000000
_cell_angle_beta 39.944638
_cell_angle_gamma 90.000000
_cell_volume 3262.753402
_symmetry_space_group_name_H-M "C 2/M"
_symmetry_group_IT_number 12
_symmetry_cell_setting 'monoclinic'
loop_
_space_group_symop_operation_xyz
x,y,z
-x,y,-z
-x,-y,-z
x,-y,z
1/2+x,1/2+y,z
1/2-x,1/2+y,-z
1/2-x,1/2-y,-z
1/2+x,1/2-y,z
loop_
_atom_site_type_symbol
_atom_site_label
_atom_site_fract_x
_atom_site_fract_y
_atom_site_fract_z
Si Si1 0.681496 0.775988 0.206936
Si Si2 0.305886 0.201457 0.561170
Si Si3 0.359013 0.667254 0.416532
Si Si4 0.500000 0.854115 0.000000
Si Si5 0.030937 0.339469 0.196860
Si Si6 0.278806 0.067593 0.041552
Si Si7 0.874810 0.170092 0.852884
Si Si8 0.279880 0.930645 0.296602
O O1 0.668490 0.802096 0.341005
O O2 0.597679 0.804097 0.213720
O O3 0.654223 0.706035 0.225720
O O4 0.806112 0.792498 0.021962
O O5 0.313929 0.271956 0.525221
O O6 0.187999 0.175451 0.652180
O O7 0.402172 0.166775 0.382626
O O8 0.493539 0.667032 0.274622
O O9 0.305309 0.609456 0.535390
O O10 0.538186 0.817748 0.062774
O O11 0.400282 0.896663 0.158384
O O12 0.098082 0.401884 0.114512
O O13 0.186623 0.107011 0.085547
O O14 0.248799 0.069337 0.204189
O O15 0.281100 0.000000 0.002258
O O16 0.287569 0.000000 0.322216
#
# Coordination Sequence:
#
# PCOD9188331 Si02
#       8
#     8   8   8   4   8   8   8   8
#     4  10  21  38  60  86 115 157 198 240 289 355
#     4  11  22  38  56  86 126 151 197 242 296 354
#     4  11  23  37  53  89 121 158 190 243 300 349
#     4  10  19  36  58  90 126 150 191 242 294 362
#     4  10  19  36  60  88 117 153 188 243 301 340
#     4   9  20  36  59  87 116 153 198 246 294 352
#     4  10  21  38  57  83 117 155 197 237 302 345
#     4  10  20  35  56  85 118 157 197 240 298 350
#
# _framework density 18.389377
#
# number of rings (size 3 to 8) (size 9 to 14) (size 15 to 20)
#    0.000    1.867    2.667    1.400    0.000    4.267 
#    0.000    1.333    0.000    9.600    0.000    4.667 
#    0.000    0.000    0.000    0.000    0.000    0.000 
#
# Total GULP energy -167251.058004 kJ/mol
# GULP energy per Si atom -5575.035267 kJ/mol
# Density = 1.834752 g / cm^3
# Si number density = 18.389377 Si / 1000 Ang^3
#
#
#
# Elastic Constant Matrix: (Units=GPa)
#
#
# Indices 1 2 3 4 5 6 
#
# 1 104.8589 37.3009 46.7768 -0.0001 7.0459 0.0001
# 2 37.3009 87.2194 24.4380 0.0000 4.2699 0.0000
# 3 46.7768 24.4380 69.7178 -0.0001 -2.0468 0.0001
# 4 -0.0001 0.0000 -0.0001 19.8988 0.0001 4.2796
# 5 7.0459 4.2699 -2.0468 0.0001 32.1602 -0.0001
# 6 0.0001 0.0000 0.0001 4.2796 -0.0001 16.8030
#
#
#
# Elastic Compliance Matrix: (Units=1/GPa)
#
#
# Indices 1 2 3 4 5 6 
#
# 1 0.015075 -0.003793 -0.008884 0.000000 -0.003365 0.000000
# 2 -0.003793 0.013795 -0.002324 0.000000 -0.001148 0.000000
# 3 -0.008884 -0.002324 0.021224 0.000000 0.003606 0.000000
# 4 0.000000 0.000000 0.000000 0.053167 0.000000 -0.013541
# 5 -0.003365 -0.001148 0.003606 0.000000 0.032213 0.000000
# 6 0.000000 0.000000 0.000000 -0.013541 0.000000 0.062962
#
#
# Mechanical properties :
#
#
# Convention : Reuss Voigt Hill
#
# Bulk Modulus (GPa) = 49.77011 53.20308 51.48660
# Shear Modulus (GPa) = 21.26428 23.99109 22.62769
#
# Velocity S-wave (km/s) = 3.40418 3.61587 3.51162
# Velocity P-wave (km/s) = 6.52492 6.81373 6.67089
#
# Compressibility (1/GPa) = 0.02009238
#
# Stress axis : x y z
#
# Youngs Moduli (GPa) = 66.33513 72.48989 47.11538
#
# Poissons Ratio (x) = 0.27497 0.41855
# Poissons Ratio (y) = 0.25163 0.10950
# Poissons Ratio (z) = 0.58929 0.16848
#
# Static dielectric constant tensor:
#      x y z
#    x 1.681070 0.000000 -0.004220 
#    y 0.000000 1.653160 0.000000 
#    z -0.004220 0.000000 1.646150 
# 
# From -- ./inp_files/160468.got.cif
#   From: 2010.05.17/outbox.cif.g08.bks.cpg/sg12_81_cif.got.tgz:160468.got - 2010.06.03 13:09:07.
