data_PCOD9188224
_publ_section_title
;
Structure prediction by ZEFSAII (Michael W. Deem and Ramdas Pophale) SiO2 
 PCOD9188224
Probable space group: C 2/M
;
_chemical_formula_sum "Si O2"
_cell_formula_units_Z 56
_cell_length_a 20.056633
_cell_length_b 9.238002
_cell_length_c 31.614773
_cell_angle_alpha 90.000000
_cell_angle_beta 148.042129
_cell_angle_gamma 90.000000
_cell_volume 3100.447619
_symmetry_space_group_name_H-M "C 2/M"
_symmetry_group_IT_number 12
_symmetry_cell_setting 'monoclinic'
loop_
_space_group_symop_operation_xyz
x,y,z
-x,y,-z
-x,-y,-z
x,-y,z
1/2+x,1/2+y,z
1/2-x,1/2+y,-z
1/2-x,1/2-y,-z
1/2+x,1/2-y,z
loop_
_atom_site_type_symbol
_atom_site_label
_atom_site_fract_x
_atom_site_fract_y
_atom_site_fract_z
Si Si1 0.236730 0.673304 0.092873
Si Si2 0.214011 0.172701 0.323420
Si Si3 0.217862 0.672229 0.797819
Si Si4 0.509758 0.327447 0.931526
Si Si5 0.078228 0.327880 0.637729
Si Si6 0.894070 0.166713 0.480258
Si Si7 0.549821 0.324344 0.856794
O O1 0.228893 0.500000 0.090481
O O2 0.297393 0.736428 0.168052
O O3 0.325312 0.717300 0.101112
O O4 0.100427 0.743415 0.012112
O O5 0.305726 0.197343 0.332421
O O6 0.275004 0.251800 0.396233
O O7 0.074953 0.222695 0.235633
O O8 0.212439 0.000000 0.330074
O O9 0.203613 0.500000 0.798318
O O10 0.361994 0.694710 0.860074
O O11 0.125031 0.712874 0.709574
O O12 0.533720 0.500000 0.948254
O O13 0.542156 0.277876 0.901277
O O14 0.053853 0.500000 0.623901
O O15 0.958810 0.244133 0.554876
O O16 0.000000 0.172128 0.500000
O O17 0.865911 0.000000 0.473986
O O18 0.544925 0.500000 0.855098
#
# Coordination Sequence:
#
# PCOD9188224 Si02
#       7
#     8   8   8   8   8   8   8
#     4  11  23  35  49  75 108 137 164 204 262 314
#     4   9  15  29  52  74  95 126 170 211 243 285
#     4  10  20  35  55  76  99 132 175 216 249 290
#     4  10  19  36  58  75  95 130 177 220 251 288
#     4   9  16  29  51  75  95 125 171 212 243 284
#     4   9  17  27  42  72 110 135 152 192 255 308
#     4   9  18  34  55  76 100 132 172 214 252 294
#
# _framework density 18.061907999999999
#
# number of rings (size 3 to 8) (size 9 to 14) (size 15 to 20)
#    0.000    2.429    1.429    1.714    0.000    4.571 
#    0.000    2.857    0.000    0.857    0.000    0.000 
#    0.000    0.000    0.000    0.000    0.000    0.000 
#
# Total GULP energy -156202.098053 kJ/mol
# GULP energy per Si atom -5578.646359 kJ/mol
# Density = 1.802080 g / cm^3
# Si number density = 18.061908 Si / 1000 Ang^3
#
#
#
# Elastic Constant Matrix: (Units=GPa)
#
#
# Indices 1 2 3 4 5 6 
#
# 1 38.2108 11.0053 -1.5746 0.0000 -12.3001 -0.0001
# 2 11.0053 23.5905 24.1332 0.0000 -7.7380 -0.0001
# 3 -1.5746 24.1332 99.3227 0.0000 -16.5852 0.0000
# 4 0.0000 0.0000 0.0000 12.3555 0.0000 -8.0179
# 5 -12.3001 -7.7380 -16.5852 0.0000 21.0180 0.0000
# 6 -0.0001 -0.0001 0.0000 -8.0179 0.0000 17.8070
#
#
#
# Elastic Compliance Matrix: (Units=1/GPa)
#
#
# Indices 1 2 3 4 5 6 
#
# 1 0.040099 -0.020873 0.009609 0.000000 0.023364 0.000000
# 2 -0.020873 0.069782 -0.017318 0.000000 -0.000190 0.000001
# 3 0.009609 -0.017318 0.016473 0.000000 0.012246 0.000000
# 4 0.000000 0.000000 0.000000 0.114347 0.000000 0.051487
# 5 0.023364 -0.000190 0.012246 0.000000 0.070845 0.000000
# 6 0.000000 0.000001 0.000000 0.051487 0.000000 0.079341
#
#
# Mechanical properties :
#
#
# Convention : Reuss Voigt Hill
#
# Bulk Modulus (GPa) = 14.45290 25.36132 19.90711
# Shear Modulus (GPa) = 10.61311 18.74011 14.67661
#
# Velocity S-wave (km/s) = 2.42667 3.22459 2.85366
# Velocity P-wave (km/s) = 3.98383 5.28544 4.68010
#
# Compressibility (1/GPa) = 0.06919027
#
# Stress axis : x y z
#
# Youngs Moduli (GPa) = 24.93804 14.33041 60.70410
#
# Poissons Ratio (x) = 0.29912 -0.58330
# Poissons Ratio (y) = 0.52053 1.05127
# Poissons Ratio (z) = -0.23963 0.24817
#
# Static dielectric constant tensor:
#      x y z
#    x 1.620960 0.000000 -0.007390 
#    y 0.000000 1.596220 0.000000 
#    z -0.007390 0.000000 1.605960 
# 
# From -- ./inp_files/280436.got.cif
#   From: 2010.05.17/outbox.cif.g08.bks.cpg/sg12_141_cif.got.tgz:280436.got - 2010.06.03 13:09:07.
