data_PCOD9188172
_publ_section_title
;
Structure prediction by ZEFSAII (Michael W. Deem and Ramdas Pophale) SiO2 
 PCOD9188172
Probable space group: C 2/M
;
_chemical_formula_sum "Si O2"
_cell_formula_units_Z 56
_cell_length_a 21.129434
_cell_length_b 8.781641
_cell_length_c 17.818248
_cell_angle_alpha 90.000000
_cell_angle_beta 63.164870
_cell_angle_gamma 90.000000
_cell_volume 2950.148746
_symmetry_space_group_name_H-M "C 2/M"
_symmetry_group_IT_number 12
_symmetry_cell_setting 'monoclinic'
loop_
_space_group_symop_operation_xyz
x,y,z
-x,y,-z
-x,-y,-z
x,-y,z
1/2+x,1/2+y,z
1/2-x,1/2+y,-z
1/2-x,1/2-y,-z
1/2+x,1/2-y,z
loop_
_atom_site_type_symbol
_atom_site_label
_atom_site_fract_x
_atom_site_fract_y
_atom_site_fract_z
Si Si1 0.690671 0.327339 0.081758
Si Si2 0.828283 0.316518 0.472075
Si Si3 0.908863 0.184438 0.738828
Si Si4 0.079941 0.683352 0.431912
Si Si5 0.078768 0.824095 0.010596
Si Si6 0.427305 0.180944 0.132720
Si Si7 0.066867 0.183255 0.709390
O O1 0.713792 0.500000 0.085613
O O2 0.657314 0.258948 0.175420
O O3 0.750000 0.250000 0.000000
O O4 0.625103 0.328189 0.059737
O O5 0.825975 0.500000 0.468655
O O6 0.750000 0.250000 0.500000
O O7 0.863290 0.275656 0.533972
O O8 0.881648 0.251331 0.381005
O O9 0.904834 0.242227 0.656290
O O10 0.985396 0.228974 0.733375
O O11 0.907015 0.000000 0.741686
O O12 0.080556 0.500000 0.423708
O O13 0.000000 0.727323 0.500000
O O14 0.112946 0.742389 0.919819
O O15 0.066611 0.000000 0.996563
O O16 0.007195 0.737411 0.071936
O O17 0.409835 0.255071 0.221756
O O18 0.423237 0.000000 0.139057
O O19 0.069924 0.000000 0.707644
#
# Coordination Sequence:
#
# PCOD9188172 Si02
#       7
#     8   8   8   8   8   8   8
#     4  10  22  40  59  84 117 158 203 252 307 363
#     4  11  24  43  64  91 127 164 203 251 310 373
#     4  10  21  38  62  91 120 155 206 256 304 367
#     4  10  21  39  64  95 127 159 203 257 308 367
#     4  10  19  36  57  79 114 154 193 241 297 353
#     4  11  21  33  55  88 116 146 193 245 295 350
#     4  11  21  38  63  89 119 157 200 250 307 366
#
# _framework density 18.982095000000001
#
# number of rings (size 3 to 8) (size 9 to 14) (size 15 to 20)
#    0.000    1.571    2.857    3.429    0.000    3.714 
#    2.571    0.000    0.000    0.000    0.000    0.000 
#    0.000    0.000    0.000    0.000    0.000    0.000 
#
# Total GULP energy -156203.656608 kJ/mol
# GULP energy per Si atom -5578.702022 kJ/mol
# Density = 1.893889 g / cm^3
# Si number density = 18.982095 Si / 1000 Ang^3
#
#
#
# Elastic Constant Matrix: (Units=GPa)
#
#
# Indices 1 2 3 4 5 6 
#
# 1 51.9334 20.3971 42.6164 0.0000 0.5925 0.0000
# 2 20.3971 62.9078 43.4074 0.0000 3.4001 0.0000
# 3 42.6164 43.4074 178.8522 0.0000 6.5946 0.0000
# 4 0.0000 0.0000 0.0000 38.1879 0.0000 4.0808
# 5 0.5925 3.4001 6.5946 0.0000 36.4559 0.0000
# 6 0.0000 0.0000 0.0000 4.0808 0.0000 17.8213
#
#
#
# Elastic Compliance Matrix: (Units=1/GPa)
#
#
# Indices 1 2 3 4 5 6 
#
# 1 0.025125 -0.004855 -0.004842 0.000000 0.000920 0.000000
# 2 -0.004855 0.020065 -0.003671 0.000000 -0.001128 0.000000
# 3 -0.004842 -0.003671 0.007672 0.000000 -0.000967 0.000000
# 4 0.000000 0.000000 0.000000 0.026843 0.000000 -0.006147
# 5 0.000920 -0.001128 -0.000967 0.000000 0.027696 0.000000
# 6 0.000000 0.000000 0.000000 -0.006147 0.000000 0.057520
#
#
# Mechanical properties :
#
#
# Convention : Reuss Voigt Hill
#
# Bulk Modulus (GPa) = 38.27833 56.28167 47.28000
# Shear Modulus (GPa) = 24.95433 30.97787 27.96610
#
# Velocity S-wave (km/s) = 3.62971 4.04413 3.84251
# Velocity P-wave (km/s) = 6.14619 7.17780 6.68193
#
# Compressibility (1/GPa) = 0.02612444
#
# Stress axis : x y z
#
# Youngs Moduli (GPa) = 39.80027 49.83885 130.34898
#
# Poissons Ratio (x) = 0.24197 0.63121
# Poissons Ratio (y) = 0.19323 0.47855
# Poissons Ratio (z) = 0.19273 0.18297
#
# Static dielectric constant tensor:
#      x y z
#    x 1.698030 0.000000 0.000530 
#    y 0.000000 1.693700 0.000000 
#    z 0.000530 0.000000 1.669890 
# 
# From -- ./inp_files/280942.got.cif
#   From: 2010.05.17/outbox.cif.g08.bks.cpg/sg12_141_cif.got.tgz:280942.got - 2010.06.03 13:09:07.
