data_PCOD9188244
_publ_section_title
;
Structure prediction by ZEFSAII (Michael W. Deem and Ramdas Pophale) SiO2 
 PCOD9188244
Probable space group: C 2/M
;
_chemical_formula_sum "Si O2"
_cell_formula_units_Z 64
_cell_length_a 24.828812
_cell_length_b 19.086002
_cell_length_c 8.775321
_cell_angle_alpha 90.000000
_cell_angle_beta 124.873384
_cell_angle_gamma 90.000000
_cell_volume 3411.684557
_symmetry_space_group_name_H-M "C 2/M"
_symmetry_group_IT_number 12
_symmetry_cell_setting 'monoclinic'
loop_
_space_group_symop_operation_xyz
x,y,z
-x,y,-z
-x,-y,-z
x,-y,z
1/2+x,1/2+y,z
1/2-x,1/2+y,-z
1/2-x,1/2-y,-z
1/2+x,1/2-y,z
loop_
_atom_site_type_symbol
_atom_site_label
_atom_site_fract_x
_atom_site_fract_y
_atom_site_fract_z
Si Si1 0.069776 0.674010 0.058421
Si Si2 0.049490 0.829733 0.694701
Si Si3 0.692935 0.918584 0.251075
Si Si4 0.168181 0.081855 0.022407
Si Si5 0.691493 0.081922 0.881555
Si Si6 0.951235 0.179390 0.804580
Si Si7 0.833442 0.918419 0.614596
Si Si8 0.069091 0.323517 0.688169
O O1 0.132951 0.629353 0.207533
O O2 0.072163 0.751076 0.141987
O O3 0.068790 0.673112 0.872589
O O4 0.000000 0.643674 0.000000
O O5 0.077609 0.758833 0.664903
O O6 0.000000 0.868490 0.500000
O O7 0.999747 0.803728 0.745604
O O8 0.108489 0.874705 0.855668
O O9 0.762730 0.898003 0.434558
O O10 0.681025 0.000000 0.272043
O O11 0.697243 0.914203 0.074455
O O12 0.239409 0.105393 0.077768
O O13 0.167051 0.087154 0.203061
O O14 0.161195 0.000000 0.969021
O O15 0.629782 0.129005 0.733611
O O16 0.681143 0.000000 0.824031
O O17 0.891269 0.132245 0.654840
O O18 0.000000 0.138869 0.000000
O O19 0.845129 0.000000 0.592301
O O20 0.000000 0.345296 0.500000
#
# Coordination Sequence:
#
# PCOD9188244 Si02
#       8
#     8   8   8   8   8   8   8   8
#     4  10  19  36  58  79 111 145 178 222 276 323
#     4  11  23  38  56  82 111 142 184 227 268 322
#     4   9  20  37  56  82 111 142 183 225 269 323
#     4  10  21  38  56  80 113 145 181 225 269 319
#     4   9  20  38  57  79 112 147 180 224 272 319
#     4  11  20  38  57  79 112 144 179 225 273 319
#     4  10  21  36  57  83 111 144 183 224 267 321
#     4  10  20  36  57  81 111 143 182 224 270 322
#
# _framework density 18.759060000000002
#
# number of rings (size 3 to 8) (size 9 to 14) (size 15 to 20)
#    0.000    2.000    3.750    0.000    1.750    3.500 
#    0.000    0.000    0.000    0.000    0.000    0.000 
#    0.000    0.000    0.000    0.000    0.000    0.000 
#
# Total GULP energy -178411.588331 kJ/mol
# GULP energy per Si atom -5575.362135 kJ/mol
# Density = 1.871636 g / cm^3
# Si number density = 18.759060 Si / 1000 Ang^3
#
#
#
# Elastic Constant Matrix: (Units=GPa)
#
#
# Indices 1 2 3 4 5 6 
#
# 1 89.6818 56.6967 26.1591 0.0000 37.4500 0.0000
# 2 56.6967 70.2171 54.6607 0.0000 38.1303 0.0000
# 3 26.1591 54.6607 112.3324 0.0000 47.7398 0.0000
# 4 0.0000 0.0000 0.0000 28.5311 0.0000 14.3861
# 5 37.4500 38.1303 47.7398 0.0000 39.7367 0.0000
# 6 0.0000 0.0000 0.0000 14.3861 0.0000 24.4368
#
#
#
# Elastic Compliance Matrix: (Units=1/GPa)
#
#
# Indices 1 2 3 4 5 6 
#
# 1 0.032942 -0.024338 0.015203 0.000000 -0.025957 0.000000
# 2 -0.024338 0.049034 -0.016232 0.000000 -0.004614 0.000000
# 3 0.015203 -0.016232 0.026010 0.000000 -0.030002 0.000000
# 4 0.000000 0.000000 0.000000 0.049846 0.000000 -0.029344
# 5 -0.025957 -0.004614 -0.030002 0.000000 0.090100 0.000000
# 6 0.000000 0.000000 0.000000 -0.029344 0.000000 0.058197
#
#
# Mechanical properties :
#
#
# Convention : Reuss Voigt Hill
#
# Bulk Modulus (GPa) = 17.46633 60.80714 39.13673
# Shear Modulus (GPa) = 13.29973 27.52191 20.41082
#
# Velocity S-wave (km/s) = 2.66555 3.83446 3.30214
# Velocity P-wave (km/s) = 4.33643 7.21729 5.95374
#
# Compressibility (1/GPa) = 0.05725303
#
# Stress axis : x y z
#
# Youngs Moduli (GPa) = 30.35648 20.39388 38.44617
#
# Poissons Ratio (x) = 0.49635 -0.58450
# Poissons Ratio (y) = 0.73883 0.62404
# Poissons Ratio (z) = -0.46151 0.33102
#
# Static dielectric constant tensor:
#      x y z
#    x 1.657370 0.000000 -0.032120 
#    y 0.000000 1.651770 0.000000 
#    z -0.032120 0.000000 1.671390 
# 
# From -- ./inp_files/99116.got.cif
#   From: 2010.05.17/outbox.cif.g08.bks.cpg/sg12_50_cif.got.tgz:99116.got - 2010.06.03 13:09:07.
