data_PCOD9188870
_publ_section_title
;
Structure prediction by ZEFSAII (Michael W. Deem and Ramdas Pophale) SiO2 
 PCOD9188870
Probable space group: C 2/M
;
_chemical_formula_sum "Si O2"
_cell_formula_units_Z 64
_cell_length_a 27.682232
_cell_length_b 16.107568
_cell_length_c 12.858372
_cell_angle_alpha 90.000000
_cell_angle_beta 35.232568
_cell_angle_gamma 90.000000
_cell_volume 3307.616280
_symmetry_space_group_name_H-M "C 2/M"
_symmetry_group_IT_number 12
_symmetry_cell_setting 'monoclinic'
loop_
_space_group_symop_operation_xyz
x,y,z
-x,y,-z
-x,-y,-z
x,-y,z
1/2+x,1/2+y,z
1/2-x,1/2+y,-z
1/2-x,1/2-y,-z
1/2+x,1/2-y,z
loop_
_atom_site_type_symbol
_atom_site_label
_atom_site_fract_x
_atom_site_fract_y
_atom_site_fract_z
Si Si1 0.332032 0.094927 0.403596
Si Si2 0.799350 0.596788 0.798675
Si Si3 0.291923 0.826434 0.257001
Si Si4 0.103464 0.760874 0.611436
Si Si5 0.002456 0.088358 0.119462
Si Si6 0.972425 0.331535 0.434809
Si Si7 0.650635 0.099375 0.060753
Si Si8 0.815461 0.855271 0.183740
O O1 0.316455 0.115144 0.309933
O O2 0.389451 0.170444 0.345609
O O3 0.245621 0.105563 0.621419
O O4 0.361981 0.000000 0.365281
O O5 0.775401 0.500000 0.836243
O O6 0.894415 0.606112 0.588899
O O7 0.803606 0.625098 0.911464
O O8 0.738648 0.645919 0.827451
O O9 0.196264 0.797791 0.439739
O O10 0.339091 0.737771 0.177657
O O11 0.308768 0.866145 0.115476
O O12 0.063903 0.741930 0.569674
O O13 0.047920 0.830514 0.761393
O O14 0.967416 0.000000 0.221214
O O15 0.098997 0.096471 0.982382
O O16 0.000000 0.085343 0.000000
O O17 0.000000 0.303178 0.500000
O O18 0.054255 0.371102 0.238683
O O19 0.651802 0.000000 0.057573
#
# Coordination Sequence:
#
# PCOD9188870 Si02
#       8
#     8   8   8   8   8   8   8   8
#     4  11  22  38  66  93 122 160 201 253 312 372
#     4  10  19  36  62  90 116 153 207 259 307 358
#     4  11  22  39  58  88 126 164 198 244 307 378
#     4  11  23  40  60  91 125 163 206 250 306 371
#     4  11  23  39  61  89 119 159 209 260 305 352
#     4  10  20  38  61  90 121 157 198 255 311 361
#     4  10  22  37  59  88 122 160 201 253 308 369
#     4  11  21  38  63  88 116 157 211 262 299 353
#
# _framework density 19.349281999999999
#
# number of rings (size 3 to 8) (size 9 to 14) (size 15 to 20)
#    0.000    1.375    2.500    5.625    0.000    4.500 
#    2.250    0.000    0.000    4.500    0.000    0.000 
#    0.000    0.000    0.000    0.000    0.000    0.000 
#
# Total GULP energy -178648.540875 kJ/mol
# GULP energy per Si atom -5582.766902 kJ/mol
# Density = 1.930524 g / cm^3
# Si number density = 19.349282 Si / 1000 Ang^3
#
#
#
# Elastic Constant Matrix: (Units=GPa)
#
#
# Indices 1 2 3 4 5 6 
#
# 1 91.8392 26.4079 36.8120 0.0000 3.0734 0.0000
# 2 26.4079 100.1618 35.5294 0.0000 -5.9079 0.0000
# 3 36.8120 35.5294 58.8496 0.0000 8.9479 0.0000
# 4 0.0000 0.0000 0.0000 21.8708 0.0000 6.5995
# 5 3.0734 -5.9079 8.9479 0.0000 21.4694 0.0000
# 6 0.0000 0.0000 0.0000 6.5995 0.0000 23.6289
#
#
#
# Elastic Compliance Matrix: (Units=1/GPa)
#
#
# Indices 1 2 3 4 5 6 
#
# 1 0.014622 -0.000559 -0.009040 0.000000 0.001521 0.000000
# 2 -0.000559 0.013843 -0.009181 0.000000 0.007716 0.000000
# 3 -0.009040 -0.009181 0.030298 0.000000 -0.013860 0.000000
# 4 0.000000 0.000000 0.000000 0.049931 0.000000 -0.013946
# 5 0.001521 0.007716 -0.013860 0.000000 0.054260 0.000000
# 6 0.000000 0.000000 0.000000 -0.013946 0.000000 0.046216
#
#
# Mechanical properties :
#
#
# Convention : Reuss Voigt Hill
#
# Bulk Modulus (GPa) = 47.16468 49.81657 48.49062
# Shear Modulus (GPa) = 19.70075 23.53392 21.61734
#
# Velocity S-wave (km/s) = 3.19433 3.49129 3.34610
# Velocity P-wave (km/s) = 6.16712 6.48490 6.32800
#
# Compressibility (1/GPa) = 0.02120231
#
# Stress axis : x y z
#
# Youngs Moduli (GPa) = 68.38997 72.23891 33.00567
#
# Poissons Ratio (x) = 0.04035 0.29839
# Poissons Ratio (y) = 0.03820 0.30303
# Poissons Ratio (z) = 0.61828 0.66324
#
# Static dielectric constant tensor:
#      x y z
#    x 1.694750 0.000000 -0.000450 
#    y 0.000000 1.707260 0.000000 
#    z -0.000450 0.000000 1.680960 
# 
# From -- ./inp_files/183797.got.cif
#   From: 2010.05.17/outbox.cif.g08.bks.cpg/sg12_92_cif.got.tgz:183797.got - 2010.06.03 13:09:07.
