data_PCOD9188594
_publ_section_title
;
Structure prediction by ZEFSAII (Michael W. Deem and Ramdas Pophale) SiO2 
 PCOD9188594
Probable space group: C 2/M
;
_chemical_formula_sum "Si O2"
_cell_formula_units_Z 56
_cell_length_a 26.346893
_cell_length_b 7.655843
_cell_length_c 14.236938
_cell_angle_alpha 90.000000
_cell_angle_beta 133.714530
_cell_angle_gamma 90.000000
_cell_volume 2075.641320
_symmetry_space_group_name_H-M "C 2/M"
_symmetry_group_IT_number 12
_symmetry_cell_setting 'monoclinic'
loop_
_space_group_symop_operation_xyz
x,y,z
-x,y,-z
-x,-y,-z
x,-y,z
1/2+x,1/2+y,z
1/2-x,1/2+y,-z
1/2-x,1/2-y,-z
1/2+x,1/2-y,z
loop_
_atom_site_type_symbol
_atom_site_label
_atom_site_fract_x
_atom_site_fract_y
_atom_site_fract_z
Si Si1 0.825631 0.789918 0.785608
Si Si2 0.033213 0.203881 0.331911
Si Si3 0.908775 0.705404 0.279173
Si Si4 0.306351 0.209516 0.991749
Si Si5 0.304583 0.198305 0.300638
Si Si6 0.830988 0.703891 0.587596
Si Si7 0.964623 0.786294 0.052389
O O1 0.745649 0.714976 0.684809
O O2 0.860219 0.751252 0.728500
O O3 0.820757 0.000000 0.779695
O O4 0.883132 0.730727 0.936836
O O5 0.116605 0.223139 0.425429
O O6 0.992027 0.278423 0.369260
O O7 0.001050 0.279738 0.193629
O O8 0.018311 0.000000 0.316680
O O9 0.891465 0.500000 0.259909
O O10 0.867399 0.778317 0.317911
O O11 0.875609 0.771781 0.137572
O O12 0.264051 0.308850 0.856199
O O13 0.308046 0.000000 0.976139
O O14 0.250000 0.250000 0.000000
O O15 0.325058 0.000000 0.353227
O O16 0.834169 0.500000 0.578081
O O17 0.750000 0.750000 0.500000
O O18 0.966309 0.000000 0.057028
O O19 0.000000 0.732362 0.000000
#
# Coordination Sequence:
#
# PCOD9188594 Si02
#       7
#     8   8   8   8   8   8   8
#     4  10  19  36  60  86 118 156 196 234 279 339
#     4  11  21  36  60  87 115 153 196 235 282 339
#     4   9  18  31  46  74 114 152 190 232 279 331
#     4   9  16  26  42  66 105 151 195 235 273 323
#     4   9  18  31  50  76 111 154 193 231 279 338
#     4  12  26  44  64  86 112 145 187 239 292 343
#     4   9  16  29  52  82 117 152 188 231 278 335
#
# _framework density 26.979613000000001
#
# number of rings (size 3 to 8) (size 9 to 14) (size 15 to 20)
#    0.000    2.143    1.429    3.857    0.000    4.571 
#    0.000    2.143    0.000    0.857    0.000    6.000 
#    0.000    0.000    0.000    0.000    0.000    0.000 
#
# Total GULP energy -156144.171321 kJ/mol
# GULP energy per Si atom -5576.577547 kJ/mol
# Density = 2.691821 g / cm^3
# Si number density = 26.979613 Si / 1000 Ang^3
#
#
#
# Elastic Constant Matrix: (Units=GPa)
#
#
# Indices 1 2 3 4 5 6 
#
# 1 186.8217 13.5825 31.9875 0.0000 39.6099 0.0000
# 2 13.5825 101.3961 -8.5484 0.0000 -4.2197 0.0000
# 3 31.9875 -8.5484 88.8570 0.0000 29.7349 0.0000
# 4 0.0000 0.0000 0.0000 16.8800 0.0000 5.8535
# 5 39.6099 -4.2197 29.7349 0.0000 47.1583 0.0000
# 6 0.0000 0.0000 0.0000 5.8535 0.0000 29.8534
#
#
#
# Elastic Compliance Matrix: (Units=1/GPa)
#
#
# Indices 1 2 3 4 5 6 
#
# 1 0.006679 -0.001177 -0.000767 0.000000 -0.005232 0.000000
# 2 -0.001177 0.010155 0.000971 0.000000 0.001285 0.000000
# 3 -0.000767 0.000971 0.014422 0.000000 -0.008363 0.000000
# 4 0.000000 0.000000 0.000000 0.063564 0.000000 -0.012463
# 5 -0.005232 0.001285 -0.008363 0.000000 0.030987 0.000000
# 6 0.000000 0.000000 0.000000 -0.012463 0.000000 0.035941
#
#
# Mechanical properties :
#
#
# Convention : Reuss Voigt Hill
#
# Bulk Modulus (GPa) = 34.11881 50.12424 42.12153
# Shear Modulus (GPa) = 28.82448 41.44857 35.13652
#
# Velocity S-wave (km/s) = 3.27215 3.92381 3.61270
# Velocity P-wave (km/s) = 5.19130 6.25678 5.74878
#
# Compressibility (1/GPa) = 0.02930934
#
# Stress axis : x y z
#
# Youngs Moduli (GPa) = 149.72861 98.47078 69.33905
#
# Poissons Ratio (x) = 0.11590 0.05317
# Poissons Ratio (y) = 0.17623 -0.06730
# Poissons Ratio (z) = 0.11482 -0.09557
#
# Static dielectric constant tensor:
#      x y z
#    x -0.160270 0.000000 1.174820 
#    y 0.000000 2.014900 0.000000 
#    z 1.174820 0.000000 1.672850 
# 
# From -- ./inp_files/292555.got.cif
#   From: 2010.05.17/outbox.cif.g08.bks.cpg/sg12_147_cif.got.tgz:292555.got - 2010.06.03 13:09:07.
