data_PCOD9188325
_publ_section_title
;
Structure prediction by ZEFSAII (Michael W. Deem and Ramdas Pophale) SiO2 
 PCOD9188325
Probable space group: C 2/M
;
_chemical_formula_sum "Si O2"
_cell_formula_units_Z 56
_cell_length_a 15.692902
_cell_length_b 16.287095
_cell_length_c 10.852142
_cell_angle_alpha 90.000000
_cell_angle_beta 98.023668
_cell_angle_gamma 90.000000
_cell_volume 2746.565020
_symmetry_space_group_name_H-M "C 2/M"
_symmetry_group_IT_number 12
_symmetry_cell_setting 'monoclinic'
loop_
_space_group_symop_operation_xyz
x,y,z
-x,y,-z
-x,-y,-z
x,-y,z
1/2+x,1/2+y,z
1/2-x,1/2+y,-z
1/2-x,1/2-y,-z
1/2+x,1/2-y,z
loop_
_atom_site_type_symbol
_atom_site_label
_atom_site_fract_x
_atom_site_fract_y
_atom_site_fract_z
Si Si1 0.700877 0.900150 0.331267
Si Si2 0.984455 0.835743 0.336236
Si Si3 0.581472 0.320021 0.937612
Si Si4 0.071107 0.377009 0.912758
Si Si5 0.508491 0.142872 0.361501
Si Si6 0.361789 0.403632 0.520444
Si Si7 0.752754 0.906923 0.063860
O O1 0.608002 0.863784 0.342479
O O2 0.769787 0.875186 0.450112
O O3 0.731385 0.876996 0.199264
O O4 0.694852 0.000000 0.331164
O O5 0.939731 0.854340 0.200189
O O6 0.927089 0.885272 0.421602
O O7 0.979968 0.738353 0.360959
O O8 0.085419 0.859526 0.360388
O O9 0.578247 0.221629 0.928145
O O10 0.676021 0.351459 0.988299
O O11 0.500000 0.346626 0.000000
O O12 0.042808 0.395238 0.766054
O O13 0.163928 0.408593 0.971113
O O14 0.000000 0.403837 0.000000
O O15 0.500000 0.109246 0.500000
O O16 0.356348 0.500000 0.544988
O O17 0.785982 0.000000 0.081081
#
# Coordination Sequence:
#
# PCOD9188325 Si02
#       7
#     8   8   8   8   8   8   8
#     4  10  22  38  60  86 116 157 199 242 295 354
#     4  10  19  36  58  89 116 149 194 232 297 354
#     4  10  22  39  60  87 122 155 192 247 304 350
#     4  10  21  40  63  89 119 157 202 244 296 359
#     4  11  22  39  60  88 121 153 196 252 300 346
#     4  10  19  36  61  86 113 150 195 239 282 347
#     4  11  22  39  62  87 116 158 208 244 288 361
#
# _framework density 20.389104
#
# number of rings (size 3 to 8) (size 9 to 14) (size 15 to 20)
#    0.000    1.714    4.286    1.286    0.000    2.571 
#    2.571    0.000    0.000    0.000    0.000    0.000 
#    0.000    0.000    0.000    0.000    0.000    0.000 
#
# Total GULP energy -156121.455936 kJ/mol
# GULP energy per Si atom -5575.766283 kJ/mol
# Density = 2.034270 g / cm^3
# Si number density = 20.389104 Si / 1000 Ang^3
#
#
#
# Elastic Constant Matrix: (Units=GPa)
#
#
# Indices 1 2 3 4 5 6 
#
# 1 108.6513 9.9146 29.6631 0.0000 11.2534 0.0000
# 2 9.9146 22.5486 12.0454 0.0000 -0.3537 0.0000
# 3 29.6631 12.0454 78.2342 0.0000 15.6052 0.0000
# 4 0.0000 0.0000 0.0000 17.3599 0.0000 -6.9311
# 5 11.2534 -0.3537 15.6052 0.0000 40.2020 0.0000
# 6 0.0000 0.0000 0.0000 -6.9311 0.0000 105.6355
#
#
#
# Elastic Compliance Matrix: (Units=1/GPa)
#
#
# Indices 1 2 3 4 5 6 
#
# 1 0.010523 -0.002950 -0.003190 0.000000 -0.001733 0.000000
# 2 -0.002950 0.049633 -0.007344 0.000000 0.004113 0.000000
# 3 -0.003190 -0.007344 0.016212 0.000000 -0.005465 0.000000
# 4 0.000000 0.000000 0.000000 0.059154 0.000000 0.003881
# 5 -0.001733 0.004113 -0.005465 0.000000 0.027517 0.000000
# 6 0.000000 0.000000 0.000000 0.003881 0.000000 0.009721
#
#
# Mechanical properties :
#
#
# Convention : Reuss Voigt Hill
#
# Bulk Modulus (GPa) = 20.24239 34.74225 27.49232
# Shear Modulus (GPa) = 23.12713 43.16020 33.14367
#
# Velocity S-wave (km/s) = 3.37157 4.60589 4.03619
# Velocity P-wave (km/s) = 5.01062 6.73515 5.93585
#
# Compressibility (1/GPa) = 0.04940127
#
# Stress axis : x y z
#
# Youngs Moduli (GPa) = 95.02612 20.14774 61.68115
#
# Poissons Ratio (x) = 0.05944 0.19677
# Poissons Ratio (y) = 0.28035 0.45297
# Poissons Ratio (z) = 0.30314 0.14796
#
# Static dielectric constant tensor:
#      x y z
#    x 1.714620 0.000000 0.014290 
#    y 0.000000 1.716770 0.000000 
#    z 0.014290 0.000000 1.804270 
# 
# From -- ./inp_files/145649.got.cif
#   From: 2010.05.17/outbox.cif.g08.bks.cpg/sg12_73_cif.got.tgz:145649.got - 2010.06.03 13:09:07.
