data_PCOD9188367
_publ_section_title
;
Structure prediction by ZEFSAII (Michael W. Deem and Ramdas Pophale) SiO2 
 PCOD9188367
Probable space group: C 2/M
;
_chemical_formula_sum "Si O2"
_cell_formula_units_Z 56
_cell_length_a 30.050152
_cell_length_b 8.663956
_cell_length_c 12.217339
_cell_angle_alpha 90.000000
_cell_angle_beta 69.289448
_cell_angle_gamma 90.000000
_cell_volume 2975.274996
_symmetry_space_group_name_H-M "C 2/M"
_symmetry_group_IT_number 12
_symmetry_cell_setting 'monoclinic'
loop_
_space_group_symop_operation_xyz
x,y,z
-x,y,-z
-x,-y,-z
x,-y,z
1/2+x,1/2+y,z
1/2-x,1/2+y,-z
1/2-x,1/2-y,-z
1/2+x,1/2-y,z
loop_
_atom_site_type_symbol
_atom_site_label
_atom_site_fract_x
_atom_site_fract_y
_atom_site_fract_z
Si Si1 0.483058 0.313286 0.216156
Si Si2 0.910445 0.682973 0.888446
Si Si3 0.599664 0.684346 0.867761
Si Si4 0.318352 0.184179 0.354971
Si Si5 0.711017 0.314484 0.389733
Si Si6 0.548224 0.312517 0.519574
Si Si7 0.634374 0.686315 0.288537
O O1 0.486465 0.500000 0.213873
O O2 0.536075 0.248578 0.171391
O O3 0.451137 0.268020 0.140274
O O4 0.455763 0.264294 0.350933
O O5 0.912049 0.500000 0.883234
O O6 0.878158 0.744644 0.817606
O O7 0.892571 0.738960 0.021981
O O8 0.599015 0.500000 0.880907
O O9 0.640123 0.732563 0.746998
O O10 0.314647 0.237767 0.483913
O O11 0.266715 0.224243 0.347982
O O12 0.324680 0.000000 0.343908
O O13 0.706724 0.500000 0.406595
O O14 0.684353 0.271764 0.301158
O O15 0.500000 0.264655 0.500000
O O16 0.549223 0.500000 0.518960
O O17 0.593582 0.262670 0.410372
O O18 0.631948 0.500000 0.281726
#
# Coordination Sequence:
#
# PCOD9188367 Si02
#       7
#     8   8   8   8   8   8   8
#     4  10  20  37  59  82 107 145 193 232 271 332
#     4  12  25  38  53  79 116 150 185 233 290 339
#     4  11  23  39  60  81 106 148 199 236 273 333
#     4  10  20  36  59  89 121 145 178 233 288 331
#     4   9  19  36  61  89 115 150 188 224 274 339
#     4   9  15  27  53  82 106 134 174 224 268 309
#     4  10  19  36  59  81 111 151 195 231 268 326
#
# _framework density 18.821791000000001
#
# number of rings (size 3 to 8) (size 9 to 14) (size 15 to 20)
#    0.000    1.857    1.429    3.429    0.000    6.286 
#    0.000    2.143    0.000    0.000    0.000    0.000 
#    0.000    0.000    0.000    0.000    0.000    0.000 
#
# Total GULP energy -156399.856311 kJ/mol
# GULP energy per Si atom -5585.709154 kJ/mol
# Density = 1.877895 g / cm^3
# Si number density = 18.821791 Si / 1000 Ang^3
#
#
#
# Elastic Constant Matrix: (Units=GPa)
#
#
# Indices 1 2 3 4 5 6 
#
# 1 108.9648 29.8507 41.5284 0.0000 34.5650 0.0000
# 2 29.8507 29.0635 19.1224 0.0000 12.9989 0.0000
# 3 41.5284 19.1224 68.1884 0.0000 23.7943 0.0000
# 4 0.0000 0.0000 0.0000 22.2661 0.0000 -1.6543
# 5 34.5650 12.9989 23.7943 0.0000 25.9941 0.0000
# 6 0.0000 0.0000 0.0000 -1.6543 0.0000 18.2677
#
#
#
# Elastic Compliance Matrix: (Units=1/GPa)
#
#
# Indices 1 2 3 4 5 6 
#
# 1 0.018108 -0.009313 -0.002409 0.000000 -0.017216 0.000000
# 2 -0.009313 0.051435 -0.006022 0.000000 -0.007825 0.000000
# 3 -0.002409 -0.006022 0.022999 0.000000 -0.014838 0.000000
# 4 0.000000 0.000000 0.000000 0.045216 0.000000 0.004095
# 5 -0.017216 -0.007825 -0.014838 0.000000 0.078858 0.000000
# 6 0.000000 0.000000 0.000000 0.004095 0.000000 0.055112
#
#
# Mechanical properties :
#
#
# Convention : Reuss Voigt Hill
#
# Bulk Modulus (GPa) = 17.52734 43.02442 30.27588
# Shear Modulus (GPa) = 15.32649 21.01994 18.17321
#
# Velocity S-wave (km/s) = 2.85668 3.34546 3.11069
# Velocity P-wave (km/s) = 4.49592 6.15071 5.38723
#
# Compressibility (1/GPa) = 0.05705371
#
# Stress axis : x y z
#
# Youngs Moduli (GPa) = 55.22459 19.44215 43.48079
#
# Poissons Ratio (x) = 0.18107 0.10473
# Poissons Ratio (y) = 0.51433 0.26182
# Poissons Ratio (z) = 0.13302 0.11707
#
# Static dielectric constant tensor:
#      x y z
#    x 1.657460 0.000000 0.008210 
#    y 0.000000 1.631510 0.000000 
#    z 0.008210 0.000000 1.631380 
# 
# From -- ./inp_files/180846.got.cif
#   From: 2010.05.17/outbox.cif.g08.bks.cpg/sg12_91_cif.got.tgz:180846.got - 2010.06.03 13:09:07.
