data_PCOD9188527
_publ_section_title
;
Structure prediction by ZEFSAII (Michael W. Deem and Ramdas Pophale) SiO2 
 PCOD9188527
Probable space group: C 2/M
;
_chemical_formula_sum "Si O2"
_cell_formula_units_Z 56
_cell_length_a 15.491706
_cell_length_b 20.754945
_cell_length_c 8.482379
_cell_angle_alpha 90.000000
_cell_angle_beta 65.231772
_cell_angle_gamma 90.000000
_cell_volume 2476.447396
_symmetry_space_group_name_H-M "C 2/M"
_symmetry_group_IT_number 12
_symmetry_cell_setting 'monoclinic'
loop_
_space_group_symop_operation_xyz
x,y,z
-x,y,-z
-x,-y,-z
x,-y,z
1/2+x,1/2+y,z
1/2-x,1/2+y,-z
1/2-x,1/2-y,-z
1/2+x,1/2-y,z
loop_
_atom_site_type_symbol
_atom_site_label
_atom_site_fract_x
_atom_site_fract_y
_atom_site_fract_z
Si Si1 0.305279 0.368566 0.545201
Si Si2 0.636597 0.430422 0.209865
Si Si3 0.625701 0.813414 0.862090
Si Si4 0.399283 0.322878 0.993695
Si Si5 0.858675 0.428749 0.934014
Si Si6 0.584700 0.759044 0.561488
Si Si7 0.712024 0.131608 0.315827
O O1 0.361368 0.419624 0.605418
O O2 0.229885 0.331100 0.715225
O O3 0.373277 0.311374 0.434393
O O4 0.244672 0.401381 0.453129
O O5 0.594049 0.500000 0.197072
O O6 0.594755 0.364953 0.168935
O O7 0.747242 0.432806 0.070274
O O8 0.625233 0.752926 0.981830
O O9 0.569640 0.792156 0.745395
O O10 0.597516 0.875797 0.983930
O O11 0.310317 0.353587 0.152882
O O12 0.500000 0.330724 0.000000
O O13 0.900355 0.500000 0.915652
O O14 0.855230 0.404818 0.755624
O O15 0.500000 0.755110 0.500000
O O16 0.662646 0.803243 0.414055
#
# Coordination Sequence:
#
# PCOD9188527 Si02
#       7
#     8   8   8   8   8   8   8
#     4  10  19  36  60  83 121 158 195 250 298 345
#     4   9  21  36  55  87 123 162 198 241 298 361
#     4  10  20  38  58  89 120 152 203 249 297 349
#     4  11  22  35  60  88 120 160 200 244 298 355
#     4   9  20  37  62  88 121 163 197 242 304 362
#     4  11  22  36  61  89 121 153 199 255 302 348
#     4  10  20  39  59  89 120 151 200 247 296 351
#
# _framework density 22.613040000000002
#
# number of rings (size 3 to 8) (size 9 to 14) (size 15 to 20)
#    0.000    2.000    2.857    0.857    4.000    2.571 
#    0.000    2.143    0.000    6.000    0.000    0.000 
#    0.000    0.000    0.000    0.000    0.000    0.000 
#
# Total GULP energy -156237.955033 kJ/mol
# GULP energy per Si atom -5579.926965 kJ/mol
# Density = 2.256157 g / cm^3
# Si number density = 22.613040 Si / 1000 Ang^3
#
#
#
# Elastic Constant Matrix: (Units=GPa)
#
#
# Indices 1 2 3 4 5 6 
#
# 1 73.8353 31.7953 26.5646 0.0000 18.4023 0.0000
# 2 31.7953 131.0111 65.3957 0.0000 35.6977 0.0000
# 3 26.5646 65.3957 84.0948 0.0000 31.6330 0.0000
# 4 0.0000 0.0000 0.0000 1.2807 0.0000 -1.0894
# 5 18.4023 35.6977 31.6330 0.0000 43.4103 0.0000
# 6 0.0000 0.0000 0.0000 -1.0894 0.0000 -13.9381
#
#
#
# Elastic Compliance Matrix: (Units=1/GPa)
#
#
# Indices 1 2 3 4 5 6 
#
# 1 0.016045 -0.001720 -0.002348 0.000000 -0.003676 0.000000
# 2 -0.001720 0.013300 -0.008210 0.000000 -0.004225 0.000000
# 3 -0.002348 -0.008210 0.022184 0.000000 -0.008419 0.000000
# 4 0.000000 0.000000 0.000000 0.732156 0.000000 -0.057225
# 5 -0.003676 -0.004225 -0.008419 0.000000 0.034204 0.000000
# 6 0.000000 0.000000 0.000000 -0.057225 0.000000 -0.067273
#
#
# Mechanical properties :
#
#
# Convention : Reuss Voigt Hill
#
# Bulk Modulus (GPa) = 37.07350 59.60586 48.33968
# Shear Modulus (GPa) = 6.37623 17.16294 11.76958
#
# Velocity S-wave (km/s) = 1.68102 2.75796 2.28387
# Velocity P-wave (km/s) = 4.49423 6.04633 5.32711
#
# Compressibility (1/GPa) = 0.02697344
#
# Stress axis : x y z
#
# Youngs Moduli (GPa) = 62.32281 75.18995 45.07740
#
# Poissons Ratio (x) = 0.12936 0.10583
# Poissons Ratio (y) = 0.10722 0.37007
# Poissons Ratio (z) = 0.14632 0.61728
#
# Static dielectric constant tensor:
#      x y z
#    x 1.853140 0.000000 0.022000 
#    y 0.000000 1.829540 0.000000 
#    z 0.022000 0.000000 1.888960 
# 
# From -- ./inp_files/75844.got.cif
#   From: 2010.05.17/outbox.cif.g08.bks.cpg/sg12_38_cif.got.tgz:75844.got - 2010.06.03 13:09:07.
