data_PCOD9188920
_publ_section_title
;
Structure prediction by ZEFSAII (Michael W. Deem and Ramdas Pophale) SiO2 
 PCOD9188920
Probable space group: C 2/M
;
_chemical_formula_sum "Si O2"
_cell_formula_units_Z 36
_cell_length_a 24.702888
_cell_length_b 8.709102
_cell_length_c 14.318893
_cell_angle_alpha 90.000000
_cell_angle_beta 34.762263
_cell_angle_gamma 90.000000
_cell_volume 1756.454476
_symmetry_space_group_name_H-M "C 2/M"
_symmetry_group_IT_number 12
_symmetry_cell_setting 'monoclinic'
loop_
_space_group_symop_operation_xyz
x,y,z
-x,y,-z
-x,-y,-z
x,-y,z
1/2+x,1/2+y,z
1/2-x,1/2+y,-z
1/2-x,1/2-y,-z
1/2+x,1/2-y,z
loop_
_atom_site_type_symbol
_atom_site_label
_atom_site_fract_x
_atom_site_fract_y
_atom_site_fract_z
Si Si1 0.272727 0.500000 0.813354
Si Si2 0.395433 0.825602 0.338148
Si Si3 0.614397 0.331187 0.832005
Si Si4 0.922563 0.000000 0.756491
Si Si5 0.863899 0.000000 0.491267
Si Si6 0.618106 0.245312 0.035833
O O1 0.369354 0.500000 0.734231
O O2 0.286568 0.500000 0.682207
O O3 0.205807 0.639614 0.935331
O O4 0.361398 0.795117 0.279756
O O5 0.365171 0.665941 0.434530
O O6 0.367051 0.000000 0.408854
O O7 0.511392 0.823623 0.175270
O O8 0.643873 0.500000 0.755911
O O9 0.643983 0.311232 0.896795
O O10 0.500000 0.331974 0.000000
O O11 0.035750 0.000000 0.596017
O O12 0.892362 0.140784 0.863977
#
# Coordination Sequence:
#
# PCOD9188920 Si02
#       6
#     4   8   8   4   4   8
#     4  12  23  38  57  89 120 147 197 253 298 334
#     4  10  19  36  63  89 115 158 200 230 282 361
#     4   9  16  30  57  89 116 150 193 236 285 348
#     4  10  21  41  64  79 110 163 199 238 294 353
#     4  10  23  41  60  84 122 160 192 239 294 353
#     4  10  20  35  60  89 115 147 196 250 293 336
#
# _framework density 20.495835
#
# number of rings (size 3 to 8) (size 9 to 14) (size 15 to 20)
#    0.000    2.000    3.333    1.000    1.556    1.333 
#    2.000    1.111    0.000    2.667    0.000    0.000 
#    0.000    0.000    0.000    0.000    0.000    0.000 
#
# Total GULP energy -100237.381849 kJ/mol
# GULP energy per Si atom -5568.743436 kJ/mol
# Density = 2.044919 g / cm^3
# Si number density = 20.495835 Si / 1000 Ang^3
#
#
#
# Elastic Constant Matrix: (Units=GPa)
#
#
# Indices 1 2 3 4 5 6 
#
# 1 85.1573 26.1624 7.5176 -0.0001 11.6905 0.0000
# 2 26.1624 130.7859 29.4116 -0.0007 12.8352 0.0001
# 3 7.5176 29.4116 73.1702 -0.0007 3.0864 0.0000
# 4 -0.0001 -0.0007 -0.0007 -34.0102 0.0003 -9.1739
# 5 11.6905 12.8352 3.0864 0.0003 27.1547 0.0000
# 6 0.0000 0.0001 0.0000 -9.1739 0.0000 2.9375
#
#
#
# Elastic Compliance Matrix: (Units=1/GPa)
#
#
# Indices 1 2 3 4 5 6 
#
# 1 0.013042 -0.002089 -0.000306 0.000000 -0.004593 0.000000
# 2 -0.002089 0.009107 -0.003318 0.000000 -0.003028 0.000000
# 3 -0.000306 -0.003318 0.015032 0.000000 -0.000008 0.000000
# 4 0.000000 0.000000 0.000000 -0.015959 0.000000 -0.049840
# 5 -0.004593 -0.003028 -0.000008 0.000000 0.040235 0.000001
# 6 0.000000 0.000000 0.000000 -0.049840 0.000001 0.184772
#
#
# Mechanical properties :
#
#
# Convention : Reuss Voigt Hill
#
# Bulk Modulus (GPa) = 38.82917 46.14408 42.48662
# Shear Modulus (GPa) = 18.77980 14.28453 16.53216
#
# Velocity S-wave (km/s) = 3.03029 2.64284 2.84317
# Velocity P-wave (km/s) = 5.58834 5.64585 5.61717
#
# Compressibility (1/GPa) = 0.02575383
#
# Stress axis : x y z
#
# Youngs Moduli (GPa) = 76.67297 109.79968 66.52261
#
# Poissons Ratio (x) = 0.22941 0.02038
# Poissons Ratio (y) = 0.16020 0.22075
# Poissons Ratio (z) = 0.02349 0.36437
#
# Static dielectric constant tensor:
#      x y z
#    x 1.695980 0.000000 -0.012550 
#    y 0.000000 2.054650 0.000000 
#    z -0.012550 0.000000 1.717880 
# 
# From -- ./inp_files/221328.got.cif
#   From: 2010.05.17/outbox.cif.g08.bks.cpg/sg12_111_cif.got.tgz:221328.got - 2010.06.03 13:09:07.
