data_PCOD9188436
_publ_section_title
;
Structure prediction by ZEFSAII (Michael W. Deem and Ramdas Pophale) SiO2 
 PCOD9188436
Probable space group: C 2/M
;
_chemical_formula_sum "Si O2"
_cell_formula_units_Z 56
_cell_length_a 15.347803
_cell_length_b 14.319704
_cell_length_c 14.964212
_cell_angle_alpha 90.000000
_cell_angle_beta 48.227856
_cell_angle_gamma 90.000000
_cell_volume 2452.767981
_symmetry_space_group_name_H-M "C 2/M"
_symmetry_group_IT_number 12
_symmetry_cell_setting 'monoclinic'
loop_
_space_group_symop_operation_xyz
x,y,z
-x,y,-z
-x,-y,-z
x,-y,z
1/2+x,1/2+y,z
1/2-x,1/2+y,-z
1/2-x,1/2-y,-z
1/2+x,1/2-y,z
loop_
_atom_site_type_symbol
_atom_site_label
_atom_site_fract_x
_atom_site_fract_y
_atom_site_fract_z
Si Si1 0.023363 0.810316 0.267946
Si Si2 0.183931 0.890420 0.312651
Si Si3 0.469255 0.894173 0.305998
Si Si4 0.690239 0.607973 0.508989
Si Si5 0.130861 0.272744 0.900648
Si Si6 0.145694 0.599437 0.040801
Si Si7 0.622456 0.605623 0.015566
O O1 0.033055 0.701667 0.291667
O O2 0.885956 0.832856 0.370745
O O3 0.094771 0.870366 0.292449
O O4 0.062884 0.838126 0.139929
O O5 0.141361 0.873764 0.442525
O O6 0.291438 0.818430 0.227333
O O7 0.218372 0.000000 0.286906
O O8 0.330356 0.881236 0.411249
O O9 0.518176 0.895947 0.171004
O O10 0.496770 0.000000 0.322147
O O11 0.667385 0.500000 0.545746
O O12 0.185123 0.315624 0.953520
O O13 0.121510 0.163071 0.923680
O O14 0.000000 0.310828 0.000000
O O15 0.156350 0.500000 0.984072
O O16 0.240897 0.597849 0.053532
O O17 0.575817 0.500000 0.043892
#
# Coordination Sequence:
#
# PCOD9188436 Si02
#       7
#     8   8   8   8   8   8   8
#     4  12  21  38  63  88 118 158 196 239 292 350
#     4  11  23  38  60  90 120 151 194 245 298 351
#     4  10  21  37  59  88 119 152 194 243 290 342
#     4  10  22  39  60  90 121 150 192 245 299 347
#     4  12  23  36  57  84 121 155 190 238 299 350
#     4  10  19  36  59  85 116 148 189 243 294 346
#     4  11  23  39  60  87 117 156 202 240 284 351
#
# _framework density 22.831348999999999
#
# number of rings (size 3 to 8) (size 9 to 14) (size 15 to 20)
#    0.000    1.143    2.857    4.714    0.000    3.714 
#    0.000    0.000    0.000    2.571    0.000    0.000 
#    0.000    0.000    0.000    0.000    0.000    0.000 
#
# Total GULP energy -156081.216461 kJ/mol
# GULP energy per Si atom -5574.329159 kJ/mol
# Density = 2.277938 g / cm^3
# Si number density = 22.831349 Si / 1000 Ang^3
#
#
#
# Elastic Constant Matrix: (Units=GPa)
#
#
# Indices 1 2 3 4 5 6 
#
# 1 20.2228 3.3157 -0.0581 0.0000 -4.7997 0.0000
# 2 3.3157 147.1178 36.7466 0.0000 -4.2237 0.0000
# 3 -0.0581 36.7466 123.7012 0.0000 -16.7580 0.0000
# 4 0.0000 0.0000 0.0000 26.3840 0.0000 -8.6798
# 5 -4.7997 -4.2237 -16.7580 0.0000 19.2632 0.0000
# 6 0.0000 0.0000 0.0000 -8.6798 0.0000 14.5130
#
#
#
# Elastic Compliance Matrix: (Units=1/GPa)
#
#
# Indices 1 2 3 4 5 6 
#
# 1 0.053276 -0.001388 0.002487 0.000000 0.015134 0.000000
# 2 -0.001388 0.007380 -0.002291 0.000000 -0.000720 0.000000
# 3 0.002487 -0.002291 0.009955 0.000000 0.008778 0.000000
# 4 0.000000 0.000000 0.000000 0.047186 0.000000 0.028220
# 5 0.015134 -0.000720 0.008778 0.000000 0.063162 0.000000
# 6 0.000000 0.000000 0.000000 0.028220 0.000000 0.085782
#
#
# Mechanical properties :
#
#
# Convention : Reuss Voigt Hill
#
# Bulk Modulus (GPa) = 14.65648 41.22778 27.94213
# Shear Modulus (GPa) = 17.13129 28.76787 22.94958
#
# Velocity S-wave (km/s) = 2.74221 3.55352 3.17389
# Velocity P-wave (km/s) = 4.05705 5.91045 5.06917
#
# Compressibility (1/GPa) = 0.06822921
#
# Stress axis : x y z
#
# Youngs Moduli (GPa) = 18.77028 135.50165 100.45505
#
# Poissons Ratio (x) = 0.18801 -0.24988
# Poissons Ratio (y) = 0.02604 0.23009
# Poissons Ratio (z) = -0.04669 0.31037
#
# Static dielectric constant tensor:
#      x y z
#    x 1.886760 0.000000 -0.038250 
#    y 0.000000 1.939420 0.000000 
#    z -0.038250 0.000000 1.848500 
# 
# From -- ./inp_files/277800.got.cif
#   From: 2010.05.17/outbox.cif.g08.bks.cpg/sg12_139_cif.got.tgz:277800.got - 2010.06.03 13:09:07.
