data_PCOD9188461
_publ_section_title
;
Structure prediction by ZEFSAII (Michael W. Deem and Ramdas Pophale) SiO2 
 PCOD9188461
Probable space group: C 2/M
;
_chemical_formula_sum "Si O2"
_cell_formula_units_Z 56
_cell_length_a 11.947946
_cell_length_b 20.769271
_cell_length_c 12.199433
_cell_angle_alpha 90.000000
_cell_angle_beta 74.560080
_cell_angle_gamma 90.000000
_cell_volume 2918.036385
_symmetry_space_group_name_H-M "C 2/M"
_symmetry_group_IT_number 12
_symmetry_cell_setting 'monoclinic'
loop_
_space_group_symop_operation_xyz
x,y,z
-x,y,-z
-x,-y,-z
x,-y,z
1/2+x,1/2+y,z
1/2-x,1/2+y,-z
1/2-x,1/2-y,-z
1/2+x,1/2-y,z
loop_
_atom_site_type_symbol
_atom_site_label
_atom_site_fract_x
_atom_site_fract_y
_atom_site_fract_z
Si Si1 0.339632 0.927518 0.825822
Si Si2 0.456568 0.571983 0.885579
Si Si3 0.993429 0.340600 0.666510
Si Si4 0.320272 0.926740 0.077450
Si Si5 0.692780 0.812194 0.461054
Si Si6 0.849371 0.161163 0.228318
Si Si7 0.426978 0.795999 0.129955
O O1 0.438567 0.908954 0.713408
O O2 0.234779 0.879899 0.827570
O O3 0.298521 0.000000 0.822464
O O4 0.378932 0.921312 0.941573
O O5 0.488950 0.500000 0.837074
O O6 0.318057 0.577214 0.909417
O O7 0.524548 0.628948 0.808065
O O8 0.500000 0.575528 0.000000
O O9 0.118499 0.345849 0.576647
O O10 0.996347 0.304117 0.781011
O O11 0.905845 0.304117 0.607313
O O12 0.359623 0.863958 0.133660
O O13 0.344458 0.000000 0.113125
O O14 0.750000 0.750000 0.500000
O O15 0.795553 0.843921 0.363914
O O16 0.851371 0.233417 0.180273
O O17 0.500000 0.784237 0.000000
#
# Coordination Sequence:
#
# PCOD9188461 Si02
#       7
#     8   8   8   8   8   8   8
#     4  10  20  38  61  89 125 168 210 254 306 380
#     4  10  19  36  59  87 125 167 210 254 310 380
#     4  10  22  41  62  90 120 162 213 253 308 372
#     4  10  22  38  59  87 129 177 205 241 317 393
#     4  10  21  43  62  83 123 167 211 251 308 376
#     4  11  22  36  60  92 123 159 208 265 317 362
#     4  12  24  37  58  96 134 159 201 264 319 377
#
# _framework density 19.190988000000001
#
# number of rings (size 3 to 8) (size 9 to 14) (size 15 to 20)
#    0.000    1.571    4.286    0.857    0.000    3.714 
#    0.000    6.429    0.000    0.000    0.000    2.000 
#    0.000    0.000    0.000    0.000    0.000    0.000 
#
# Total GULP energy -156060.847341 kJ/mol
# GULP energy per Si atom -5573.601691 kJ/mol
# Density = 1.914731 g / cm^3
# Si number density = 19.190988 Si / 1000 Ang^3
#
#
#
# Elastic Constant Matrix: (Units=GPa)
#
#
# Indices 1 2 3 4 5 6 
#
# 1 50.6078 35.3206 23.8815 0.0000 -9.1461 0.0000
# 2 35.3206 114.6048 24.2426 0.0000 -6.2656 0.0000
# 3 23.8815 24.2426 96.0046 0.0000 -11.3427 0.0000
# 4 0.0000 0.0000 0.0000 18.3530 0.0000 -4.4132
# 5 -9.1461 -6.2656 -11.3427 0.0000 35.7136 0.0000
# 6 0.0000 0.0000 0.0000 -4.4132 0.0000 34.1031
#
#
#
# Elastic Compliance Matrix: (Units=1/GPa)
#
#
# Indices 1 2 3 4 5 6 
#
# 1 0.027850 -0.007382 -0.004545 0.000000 0.004394 0.000000
# 2 -0.007382 0.011203 -0.001022 0.000000 -0.000250 0.000000
# 3 -0.004545 -0.001022 0.012100 0.000000 0.002500 0.000000
# 4 0.000000 0.000000 0.000000 0.056237 0.000000 0.007278
# 5 0.004394 -0.000250 0.002500 0.000000 0.029876 0.000000
# 6 0.000000 0.000000 0.000000 0.007278 0.000000 0.030265
#
#
# Mechanical properties :
#
#
# Convention : Reuss Voigt Hill
#
# Bulk Modulus (GPa) = 39.59403 47.56738 43.58070
# Shear Modulus (GPa) = 24.77116 29.48546 27.12831
#
# Velocity S-wave (km/s) = 3.59663 3.92397 3.76386
# Velocity P-wave (km/s) = 6.15825 6.73574 6.45346
#
# Compressibility (1/GPa) = 0.02525633
#
# Stress axis : x y z
#
# Youngs Moduli (GPa) = 35.90605 89.25981 82.64351
#
# Poissons Ratio (x) = 0.65890 0.37559
# Poissons Ratio (y) = 0.26505 0.08448
# Poissons Ratio (z) = 0.16318 0.09124
#
# Static dielectric constant tensor:
#      x y z
#    x 1.727810 0.000000 -0.027710 
#    y 0.000000 1.689700 0.000000 
#    z -0.027710 0.000000 1.709320 
# 
# From -- ./inp_files/133890.got.cif
#   From: 2010.05.17/outbox.cif.g08.bks.cpg/sg12_67_cif.got.tgz:133890.got - 2010.06.03 13:09:07.
