data_PCOD9188065
_publ_section_title
;
Structure prediction by ZEFSAII (Michael W. Deem and Ramdas Pophale) SiO2 
 PCOD9188065
Probable space group: C 2/M
;
_chemical_formula_sum "Si O2"
_cell_formula_units_Z 56
_cell_length_a 25.049094
_cell_length_b 13.205433
_cell_length_c 8.163031
_cell_angle_alpha 90.000000
_cell_angle_beta 108.324970
_cell_angle_gamma 90.000000
_cell_volume 2563.270005
_symmetry_space_group_name_H-M "C 2/M"
_symmetry_group_IT_number 12
_symmetry_cell_setting 'monoclinic'
loop_
_space_group_symop_operation_xyz
x,y,z
-x,y,-z
-x,-y,-z
x,-y,z
1/2+x,1/2+y,z
1/2-x,1/2+y,-z
1/2-x,1/2-y,-z
1/2+x,1/2-y,z
loop_
_atom_site_type_symbol
_atom_site_label
_atom_site_fract_x
_atom_site_fract_y
_atom_site_fract_z
Si Si1 0.330261 0.242043 0.744725
Si Si2 0.420302 0.828207 0.610447
Si Si3 0.967634 0.614814 0.138738
Si Si4 0.179102 0.389862 0.709104
Si Si5 0.630898 0.273073 0.874701
Si Si6 0.262409 0.385721 0.476268
Si Si7 0.067110 0.887654 0.535810
O O1 0.382801 0.173132 0.739499
O O2 0.314880 0.318335 0.581449
O O3 0.276030 0.168820 0.696040
O O4 0.344149 0.300435 0.924154
O O5 0.480909 0.876685 0.684615
O O6 0.381298 0.881516 0.439185
O O7 0.427093 0.710220 0.572916
O O8 0.945814 0.500000 0.110275
O O9 0.920214 0.695103 0.137383
O O10 0.000000 0.638322 0.000000
O O11 0.184878 0.500000 0.795867
O O12 0.177804 0.293599 0.825720
O O13 0.224222 0.385294 0.605643
O O14 0.604127 0.358725 0.732684
O O15 0.275939 0.500000 0.445665
O O16 0.000000 0.892018 0.500000
O O17 0.083747 0.000000 0.492105
#
# Coordination Sequence:
#
# PCOD9188065 Si02
#       7
#     8   8   8   8   8   8   8
#     4  10  21  36  59  83 109 142 183 234 285 328
#     4  10  19  36  55  78 113 149 189 227 271 329
#     4  11  21  32  52  85 120 149 179 222 278 339
#     4   9  19  34  54  80 110 145 182 225 282 339
#     4  11  21  35  56  85 117 146 187 231 277 329
#     4   9  20  39  58  78 107 144 184 232 286 338
#     4  10  21  37  55  75 109 156 195 228 265 313
#
# _framework density 21.847092
#
# number of rings (size 3 to 8) (size 9 to 14) (size 15 to 20)
#    0.000    2.000    2.857    0.857    0.000    3.429 
#    0.000    2.143    0.000    2.571    0.000    0.000 
#    0.000    0.000    0.000    0.000    0.000    0.000 
#
# Total GULP energy -156275.490699 kJ/mol
# GULP energy per Si atom -5581.267525 kJ/mol
# Density = 2.179737 g / cm^3
# Si number density = 21.847092 Si / 1000 Ang^3
#
#
#
# Elastic Constant Matrix: (Units=GPa)
#
#
# Indices 1 2 3 4 5 6 
#
# 1 60.8255 7.0256 -5.3244 0.0000 10.8223 0.0000
# 2 7.0256 93.4902 -18.9576 0.0000 4.5641 0.0000
# 3 -5.3244 -18.9576 58.4498 0.0000 7.6367 0.0000
# 4 0.0000 0.0000 0.0000 14.5753 0.0000 -2.7707
# 5 10.8223 4.5641 7.6367 0.0000 24.7104 0.0000
# 6 0.0000 0.0000 0.0000 -2.7707 0.0000 15.1607
#
#
#
# Elastic Compliance Matrix: (Units=1/GPa)
#
#
# Indices 1 2 3 4 5 6 
#
# 1 0.018280 -0.000403 0.002679 0.000000 -0.008760 0.000000
# 2 -0.000403 0.011739 0.004201 0.000000 -0.003290 0.000000
# 3 0.002679 0.004201 0.019768 0.000000 -0.008058 0.000000
# 4 0.000000 0.000000 0.000000 0.071078 0.000000 0.012990
# 5 -0.008760 -0.003290 -0.008058 0.000000 0.047403 0.000000
# 6 0.000000 0.000000 0.000000 0.012990 0.000000 0.068334
#
#
# Mechanical properties :
#
#
# Convention : Reuss Voigt Hill
#
# Bulk Modulus (GPa) = 15.93863 19.80583 17.87223
# Shear Modulus (GPa) = 20.44466 26.22408 23.33437
#
# Velocity S-wave (km/s) = 3.06241 3.46836 3.27169
# Velocity P-wave (km/s) = 4.45150 5.01245 4.74028
#
# Compressibility (1/GPa) = 0.06274066
#
# Stress axis : x y z
#
# Youngs Moduli (GPa) = 54.70445 85.18629 50.58670
#
# Poissons Ratio (x) = 0.03431 -0.13552
# Poissons Ratio (y) = 0.02204 -0.21249
# Poissons Ratio (z) = -0.14656 -0.35783
#
# Static dielectric constant tensor:
#      x y z
#    x 1.826840 0.000000 -0.012510 
#    y 0.000000 1.787370 0.000000 
#    z -0.012510 0.000000 1.825970 
# 
# From -- ./inp_files/104699.got.cif
#   From: 2010.05.17/outbox.cif.g08.bks.cpg/sg12_53_cif.got.tgz:104699.got - 2010.06.03 13:09:07.
