data_PCOD9188609
_publ_section_title
;
Structure prediction by ZEFSAII (Michael W. Deem and Ramdas Pophale) SiO2 
 PCOD9188609
Probable space group: C 2/M
;
_chemical_formula_sum "Si O2"
_cell_formula_units_Z 58
_cell_length_a 24.162134
_cell_length_b 7.715838
_cell_length_c 18.449454
_cell_angle_alpha 90.000000
_cell_angle_beta 123.186043
_cell_angle_gamma 90.000000
_cell_volume 2878.553247
_symmetry_space_group_name_H-M "C 2/M"
_symmetry_group_IT_number 12
_symmetry_cell_setting 'monoclinic'
loop_
_space_group_symop_operation_xyz
x,y,z
-x,y,-z
-x,-y,-z
x,-y,z
1/2+x,1/2+y,z
1/2-x,1/2+y,-z
1/2-x,1/2-y,-z
1/2+x,1/2-y,z
loop_
_atom_site_type_symbol
_atom_site_label
_atom_site_fract_x
_atom_site_fract_y
_atom_site_fract_z
Si Si1 0.173504 0.792798 0.444543
Si Si2 0.672011 0.209709 0.869656
Si Si3 0.915983 0.793933 0.750807
Si Si4 0.180982 0.295500 0.042013
Si Si5 0.470834 0.208638 0.274883
Si Si6 0.000000 0.000000 0.500000
Si Si7 0.070265 0.205873 0.078544
Si Si8 0.934669 0.298802 0.524874
O O1 0.250000 0.750000 0.500000
O O2 0.136862 0.725773 0.345532
O O3 0.135331 0.713671 0.485356
O O4 0.164239 0.000000 0.441212
O O5 0.741927 0.262117 0.885458
O O6 0.604656 0.269241 0.783041
O O7 0.671097 0.000000 0.870223
O O8 0.670808 0.273234 0.952562
O O9 0.912717 0.722115 0.829582
O O10 0.987681 0.764583 0.765876
O O11 0.904662 0.000000 0.746601
O O12 0.170339 0.500000 0.031107
O O13 0.128696 0.227374 0.062488
O O14 0.512540 0.263415 0.375162
O O15 0.471086 0.000000 0.276306
O O16 0.944178 0.844037 0.470689
O O17 0.060617 0.000000 0.081556
O O18 0.000000 0.277102 0.000000
O O19 0.945971 0.500000 0.513738
#
# Coordination Sequence:
#
# PCOD9188609 Si02
#       8
#     8   8   8   8   8   2   8   8
#     4  10  19  36  60  87 116 152 201 251 300 353
#     4   9  18  34  53  73 103 142 184 227 275 326
#     4   9  19  33  53  80 110 144 181 231 283 334
#     4  10  20  32  49  76 105 141 186 228 272 326
#     4   9  18  33  56  82 105 138 184 232 281 329
#     4  12  22  40  60  86 124 152 188 234 294 362
#     4  10  20  34  52  76 108 146 181 218 277 337
#     4  10  21  38  61  90 119 154 195 242 297 360
#
# _framework density 20.149011000000002
#
# number of rings (size 3 to 8) (size 9 to 14) (size 15 to 20)
#    0.000    2.345    0.690    1.862    0.966    2.483 
#    0.000    1.379    0.000    3.310    0.000    0.000 
#    0.000    0.000    0.000    0.000    0.000    0.000 
#
# Total GULP energy -161542.254722 kJ/mol
# GULP energy per Si atom -5570.422577 kJ/mol
# Density = 2.010315 g / cm^3
# Si number density = 20.149011 Si / 1000 Ang^3
#
#
#
# Elastic Constant Matrix: (Units=GPa)
#
#
# Indices 1 2 3 4 5 6 
#
# 1 146.6634 0.4778 48.7889 0.0000 2.8226 0.0000
# 2 0.4778 64.6690 3.8867 0.0000 -4.7620 0.0000
# 3 48.7889 3.8867 26.4083 0.0000 4.7668 0.0000
# 4 0.0000 0.0000 0.0000 2.6622 0.0000 5.0029
# 5 2.8226 -4.7620 4.7668 0.0000 34.2104 0.0000
# 6 0.0000 0.0000 0.0000 5.0029 0.0000 29.4192
#
#
#
# Elastic Compliance Matrix: (Units=1/GPa)
#
#
# Indices 1 2 3 4 5 6 
#
# 1 0.018342 0.002230 -0.034875 0.000000 0.003656 0.000000
# 2 0.002230 0.016093 -0.007036 0.000000 0.003037 0.000000
# 3 -0.034875 -0.007036 0.105648 0.000000 -0.012823 0.000000
# 4 0.000000 0.000000 0.000000 0.552048 0.000000 -0.093879
# 5 0.003656 0.003037 -0.012823 0.000000 0.031139 0.000000
# 6 0.000000 0.000000 0.000000 -0.093879 0.000000 0.049956
#
#
# Mechanical properties :
#
#
# Convention : Reuss Voigt Hill
#
# Bulk Modulus (GPa) = 16.46886 38.22750 27.34818
# Shear Modulus (GPa) = 5.72849 25.56418 15.64634
#
# Velocity S-wave (km/s) = 1.68797 3.56582 2.78965
# Velocity P-wave (km/s) = 3.46270 5.99725 4.89680
#
# Compressibility (1/GPa) = 0.06072065
#
# Stress axis : x y z
#
# Youngs Moduli (GPa) = 54.51897 62.13732 9.46538
#
# Poissons Ratio (x) = -0.13855 0.33011
# Poissons Ratio (y) = -0.12157 0.06660
# Poissons Ratio (z) = 1.90136 0.43721
#
# Static dielectric constant tensor:
#      x y z
#    x 1.700670 0.000000 -0.014380 
#    y 0.000000 1.734700 0.000000 
#    z -0.014380 0.000000 1.766870 
# 
# From -- ./inp_files/281537.got.cif
#   From: 2010.05.17/outbox.cif.g08.bks.cpg/sg12_141_cif.got.tgz:281537.got - 2010.06.03 13:09:07.
