data_PCOD9188004
_publ_section_title
;
Structure prediction by ZEFSAII (Michael W. Deem and Ramdas Pophale) SiO2 
 PCOD9188004
Probable space group: C 2/M
;
_chemical_formula_sum "Si O2"
_cell_formula_units_Z 48
_cell_length_a 29.400442
_cell_length_b 18.588393
_cell_length_c 10.020589
_cell_angle_alpha 90.000000
_cell_angle_beta 28.641274
_cell_angle_gamma 90.000000
_cell_volume 2624.933555
_symmetry_space_group_name_H-M "C 2/M"
_symmetry_group_IT_number 12
_symmetry_cell_setting 'monoclinic'
loop_
_space_group_symop_operation_xyz
x,y,z
-x,y,-z
-x,-y,-z
x,-y,z
1/2+x,1/2+y,z
1/2-x,1/2+y,-z
1/2-x,1/2-y,-z
1/2+x,1/2-y,z
loop_
_atom_site_type_symbol
_atom_site_label
_atom_site_fract_x
_atom_site_fract_y
_atom_site_fract_z
Si Si1 0.706654 0.414946 0.276826
Si Si2 0.724582 0.173249 0.137779
Si Si3 0.996646 0.852211 0.162493
Si Si4 0.680642 0.159006 0.774084
Si Si5 0.482187 0.178845 0.199293
Si Si6 0.311131 0.668992 0.195613
O O1 0.703458 0.500000 0.295636
O O2 0.600654 0.383643 0.531277
O O3 0.755978 0.381249 0.280630
O O4 0.765376 0.386833 0.999955
O O5 0.620541 0.169202 0.471735
O O6 0.794265 0.159062 0.082871
O O7 0.750000 0.250000 0.000000
O O8 0.992408 0.765580 0.171463
O O9 0.000000 0.877101 0.000000
O O10 0.092600 0.866767 0.997017
O O11 0.687678 0.244437 0.785882
O O12 0.725587 0.144638 0.512639
O O13 0.568440 0.144405 0.060911
O O14 0.500000 0.155855 0.000000
#
# Coordination Sequence:
#
# PCOD9188004 Si02
#       6
#     8   8   8   8   8   8
#     4  12  26  43  60  91 139 176 207 259 330 393
#     4  12  22  40  62  96 131 169 210 267 321 371
#     4  10  19  36  63  96 124 164 208 262 318 379
#     4  10  19  37  63  95 120 165 210 270 311 370
#     4  10  19  35  68  96 121 153 217 275 314 363
#     4  10  19  35  67  93 126 155 222 267 304 371
#
# _framework density 18.286176000000001
#
# number of rings (size 3 to 8) (size 9 to 14) (size 15 to 20)
#    0.000    1.333    6.667    0.000    0.000    1.667 
#    0.000    4.167    0.000    1.000    0.000    0.000 
#    0.000    0.000    0.000    0.000    0.000    0.000 
#
# Total GULP energy -133826.322111 kJ/mol
# GULP energy per Si atom -5576.096755 kJ/mol
# Density = 1.824456 g / cm^3
# Si number density = 18.286176 Si / 1000 Ang^3
#
#
#
# Elastic Constant Matrix: (Units=GPa)
#
#
# Indices 1 2 3 4 5 6 
#
# 1 129.5232 30.4716 52.4531 0.0000 -5.8433 0.0000
# 2 30.4716 40.5436 14.2006 0.0000 -8.8091 0.0000
# 3 52.4531 14.2006 114.0449 0.0000 -11.0906 0.0000
# 4 0.0000 0.0000 0.0000 6.5167 0.0000 -0.2554
# 5 -5.8433 -8.8091 -11.0906 0.0000 39.1411 0.0000
# 6 0.0000 0.0000 0.0000 -0.2554 0.0000 7.8720
#
#
#
# Elastic Compliance Matrix: (Units=1/GPa)
#
#
# Indices 1 2 3 4 5 6 
#
# 1 0.011085 -0.007067 -0.004331 0.000000 -0.001163 0.000000
# 2 -0.007067 0.031296 -0.000066 0.000000 0.005970 0.000000
# 3 -0.004331 -0.000066 0.011008 0.000000 0.002458 0.000000
# 4 0.000000 0.000000 0.000000 0.153646 0.000000 0.004985
# 5 -0.001163 0.005970 0.002458 0.000000 0.027415 0.000000
# 6 0.000000 0.000000 0.000000 0.004985 0.000000 0.127194
#
#
# Mechanical properties :
#
#
# Convention : Reuss Voigt Hill
#
# Bulk Modulus (GPa) = 32.82958 53.15136 42.99047
# Shear Modulus (GPa) = 12.66701 23.17172 17.91937
#
# Velocity S-wave (km/s) = 2.63479 3.56360 3.13380
# Velocity P-wave (km/s) = 5.22000 6.78689 6.05435
#
# Compressibility (1/GPa) = 0.03046033
#
# Stress axis : x y z
#
# Youngs Moduli (GPa) = 90.21398 31.95279 90.84405
#
# Poissons Ratio (x) = 0.22580 0.39348
# Poissons Ratio (y) = 0.63751 0.00601
# Poissons Ratio (z) = 0.39075 0.00212
#
# Static dielectric constant tensor:
#      x y z
#    x 1.655540 0.000000 -0.019000 
#    y 0.000000 1.608610 0.000000 
#    z -0.019000 0.000000 1.667910 
# 
# From -- ./inp_files/77295.got.cif
#   From: 2010.05.17/outbox.cif.g08.bks.cpg/sg12_39_cif.got.tgz:77295.got - 2010.06.03 13:09:07.
