data_PCOD9188217
_publ_section_title
;
Structure prediction by ZEFSAII (Michael W. Deem and Ramdas Pophale) SiO2 
 PCOD9188217
Probable space group: C 2/M
;
_chemical_formula_sum "Si O2"
_cell_formula_units_Z 50
_cell_length_a 32.173860
_cell_length_b 16.634727
_cell_length_c 9.028274
_cell_angle_alpha 90.000000
_cell_angle_beta 32.932840
_cell_angle_gamma 90.000000
_cell_volume 2626.923614
_symmetry_space_group_name_H-M "C 2/M"
_symmetry_group_IT_number 12
_symmetry_cell_setting 'monoclinic'
loop_
_space_group_symop_operation_xyz
x,y,z
-x,y,-z
-x,-y,-z
x,-y,z
1/2+x,1/2+y,z
1/2-x,1/2+y,-z
1/2-x,1/2-y,-z
1/2+x,1/2-y,z
loop_
_atom_site_type_symbol
_atom_site_label
_atom_site_fract_x
_atom_site_fract_y
_atom_site_fract_z
Si Si1 0.372125 0.594494 0.374999
Si Si2 0.673109 0.299553 0.764123
Si Si3 0.784543 0.089269 0.096978
Si Si4 0.209653 0.404852 0.031202
Si Si5 0.919279 0.291771 0.714729
Si Si6 0.500000 0.500000 0.500000
Si Si7 0.057620 0.126815 0.528504
O O1 0.383993 0.500000 0.301065
O O2 0.367113 0.655935 0.253141
O O3 0.431105 0.618757 0.329659
O O4 0.287531 0.600795 0.703199
O O5 0.750000 0.250000 0.500000
O O6 0.703265 0.364944 0.789963
O O7 0.614351 0.245308 0.033302
O O8 0.729653 0.126100 0.136862
O O9 0.757567 0.000000 0.208840
O O10 0.866972 0.085402 0.770169
O O11 0.190809 0.500000 0.095081
O O12 0.143826 0.350863 0.160895
O O13 0.937338 0.217024 0.549593
O O14 0.000000 0.333688 0.500000
O O15 0.492331 0.571841 0.651335
#
# Coordination Sequence:
#
# PCOD9188217 Si02
#       7
#     8   8   8   8   8   2   8
#     4  10  19  36  57  88 116 149 196 246 291 336
#     4  11  22  34  56  86 116 148 188 245 294 341
#     4   9  18  34  55  82 107 149 192 238 284 340
#     4   9  19  36  61  84 110 145 201 249 289 346
#     4  11  23  38  57  84 116 158 192 237 295 355
#     4  12  16  36  56  86 118 160 196 226 284 360
#     4  10  20  32  60  82 116 155 195 233 278 357
#
# _framework density 19.033671999999999
#
# number of rings (size 3 to 8) (size 9 to 14) (size 15 to 20)
#    0.000    1.920    4.000    1.440    2.240    2.240 
#    0.000    0.800    0.000    4.800    0.000    2.240 
#    0.000    0.000    0.000    0.000    0.000    0.000 
#
# Total GULP energy -139258.682383 kJ/mol
# GULP energy per Si atom -5570.347295 kJ/mol
# Density = 1.899035 g / cm^3
# Si number density = 19.033672 Si / 1000 Ang^3
#
#
#
# Elastic Constant Matrix: (Units=GPa)
#
#
# Indices 1 2 3 4 5 6 
#
# 1 138.7981 36.1782 32.8065 0.0000 19.5522 0.0000
# 2 36.1782 38.8083 13.6422 0.0000 7.4896 0.0000
# 3 32.8065 13.6422 49.3212 0.0000 1.2239 0.0000
# 4 0.0000 0.0000 0.0000 167.8257 0.0000 -143.9573
# 5 19.5522 7.4896 1.2239 0.0000 26.6724 0.0000
# 6 0.0000 0.0000 0.0000 -143.9573 0.0000 149.0101
#
#
#
# Elastic Compliance Matrix: (Units=1/GPa)
#
#
# Indices 1 2 3 4 5 6 
#
# 1 0.011225 -0.007483 -0.005251 0.000000 -0.005887 0.000000
# 2 -0.007483 0.035185 -0.004651 0.000000 -0.004181 0.000000
# 3 -0.005251 -0.004651 0.024955 0.000000 0.004010 0.000000
# 4 0.000000 0.000000 0.000000 0.034783 0.000000 0.033603
# 5 -0.005887 -0.004181 0.004010 0.000000 0.042797 0.000000
# 6 0.000000 0.000000 0.000000 0.033603 0.000000 0.039175
#
#
# Mechanical properties :
#
#
# Convention : Reuss Voigt Hill
#
# Bulk Modulus (GPa) = 27.32545 43.57571 35.45058
# Shear Modulus (GPa) = 21.26849 78.32168 49.79509
#
# Velocity S-wave (km/s) = 3.34640 6.42171 5.12039
# Velocity P-wave (km/s) = 5.41468 8.82769 7.32280
#
# Compressibility (1/GPa) = 0.03659592
#
# Stress axis : x y z
#
# Youngs Moduli (GPa) = 89.08292 28.42094 40.07219
#
# Poissons Ratio (x) = 0.21267 0.21042
# Poissons Ratio (y) = 0.66659 0.18638
# Poissons Ratio (z) = 0.46777 0.13219
#
# Static dielectric constant tensor:
#      x y z
#    x 1.730380 0.000000 -0.018550 
#    y 0.000000 1.657670 0.000000 
#    z -0.018550 0.000000 1.700380 
# 
# From -- ./inp_files/75388.got.cif
#   From: 2010.05.17/outbox.cif.g08.bks.cpg/sg12_38_cif.got.tgz:75388.got - 2010.06.03 13:09:07.
