data_PCOD9188754
_publ_section_title
;
Structure prediction by ZEFSAII (Michael W. Deem and Ramdas Pophale) SiO2 
 PCOD9188754
Probable space group: C 2/M
;
_chemical_formula_sum "Si O2"
_cell_formula_units_Z 52
_cell_length_a 22.335340
_cell_length_b 7.536409
_cell_length_c 21.266493
_cell_angle_alpha 90.000000
_cell_angle_beta 140.082412
_cell_angle_gamma 90.000000
_cell_volume 2297.073321
_symmetry_space_group_name_H-M "C 2/M"
_symmetry_group_IT_number 12
_symmetry_cell_setting 'monoclinic'
loop_
_space_group_symop_operation_xyz
x,y,z
-x,y,-z
-x,-y,-z
x,-y,z
1/2+x,1/2+y,z
1/2-x,1/2+y,-z
1/2-x,1/2-y,-z
1/2+x,1/2-y,z
loop_
_atom_site_type_symbol
_atom_site_label
_atom_site_fract_x
_atom_site_fract_y
_atom_site_fract_z
Si Si1 0.978953 0.787986 0.344259
Si Si2 0.572149 0.500000 0.150360
Si Si3 0.913425 0.299755 0.163581
Si Si4 0.860987 0.000000 0.031280
Si Si5 0.788251 0.000000 0.838766
Si Si6 0.178179 0.786229 0.533068
Si Si7 0.665582 0.710477 0.671321
Si Si8 0.622400 0.788665 0.287969
O O1 0.908868 0.718098 0.234734
O O2 0.934636 0.756563 0.376894
O O3 0.084354 0.714851 0.425638
O O4 0.982406 0.000000 0.337803
O O5 0.463692 0.500000 0.081504
O O6 0.608194 0.500000 0.108580
O O7 0.615239 0.672826 0.219371
O O8 0.895851 0.500000 0.129556
O O9 0.856638 0.167309 0.074221
O O10 0.023684 0.256350 0.241567
O O11 0.792346 0.000000 0.917225
O O12 0.736285 0.169955 0.767838
O O13 0.168850 0.747081 0.600170
O O14 0.283333 0.730643 0.600063
O O15 0.174895 0.000000 0.523513
O O16 0.685548 0.500000 0.693659
O O17 0.629447 0.000000 0.281300
#
# Coordination Sequence:
#
# PCOD9188754 Si02
#       8
#     8   4   8   4   4   8   8   8
#     4  10  20  37  61  83 116 162 196 232 286 333
#     4  10  19  36  61  88 116 146 181 238 296 345
#     4  10  21  39  60  82 116 156 192 242 286 339
#     4  10  23  42  62  85 117 146 194 240 293 352
#     4  12  23  38  64  92 109 151 192 241 297 344
#     4   9  17  34  59  86 118 157 190 228 285 350
#     4  10  22  39  58  84 124 151 190 240 287 344
#     4   9  18  34  56  84 119 155 184 230 286 339
#
# _framework density 22.637502000000001
#
# number of rings (size 3 to 8) (size 9 to 14) (size 15 to 20)
#    0.000    2.154    2.308    0.692    1.077    3.077 
#    2.769    1.538    0.000    4.615    0.000    0.000 
#    0.000    0.000    0.000    0.000    0.000    0.000 
#
# Total GULP energy -145226.384358 kJ/mol
# GULP energy per Si atom -5585.630168 kJ/mol
# Density = 2.258598 g / cm^3
# Si number density = 22.637502 Si / 1000 Ang^3
#
#
#
# Elastic Constant Matrix: (Units=GPa)
#
#
# Indices 1 2 3 4 5 6 
#
# 1 55.7617 16.0991 6.4775 0.0000 3.6081 0.0000
# 2 16.0991 54.9677 29.9138 0.0000 0.9368 0.0000
# 3 6.4775 29.9138 97.0317 0.0000 -10.6772 0.0000
# 4 0.0000 0.0000 0.0000 7.8271 0.0000 5.2626
# 5 3.6081 0.9368 -10.6772 0.0000 34.2853 0.0000
# 6 0.0000 0.0000 0.0000 5.2626 0.0000 5.5176
#
#
#
# Elastic Compliance Matrix: (Units=1/GPa)
#
#
# Indices 1 2 3 4 5 6 
#
# 1 0.019722 -0.005912 0.000306 0.000000 -0.001819 0.000000
# 2 -0.005912 0.023893 -0.007222 0.000000 -0.002280 0.000000
# 3 0.000306 -0.007222 0.012975 0.000000 0.004206 0.000000
# 4 0.000000 0.000000 0.000000 0.356167 0.000000 -0.339709
# 5 -0.001819 -0.002280 0.004206 0.000000 0.030730 0.000000
# 6 0.000000 0.000000 0.000000 -0.339709 0.000000 0.505250
#
#
# Mechanical properties :
#
#
# Convention : Reuss Voigt Hill
#
# Bulk Modulus (GPa) = 32.32688 34.74912 33.53800
# Shear Modulus (GPa) = 5.07766 19.87739 12.47752
#
# Velocity S-wave (km/s) = 1.49930 2.96644 2.35029
# Velocity P-wave (km/s) = 4.16034 5.20736 4.71302
#
# Compressibility (1/GPa) = 0.03093401
#
# Stress axis : x y z
#
# Youngs Moduli (GPa) = 50.70375 41.85291 77.07231
#
# Poissons Ratio (x) = 0.24743 -0.02357
# Poissons Ratio (y) = 0.29975 0.55663
# Poissons Ratio (z) = -0.01551 0.30227
#
# Static dielectric constant tensor:
#      x y z
#    x 1.896920 0.000000 0.034080 
#    y 0.000000 1.807000 0.000000 
#    z 0.034080 0.000000 1.821400 
# 
# From -- ./inp_files/324413.got.cif
#   From: 2010.05.17/outbox.cif.g08.bks.cpg/sg12_163_cif.got.tgz:324413.got - 2010.06.03 13:09:07.
