data_PCOD9188175
_publ_section_title
;
Structure prediction by ZEFSAII (Michael W. Deem and Ramdas Pophale) SiO2 
 PCOD9188175
Probable space group: C 2/M
;
_chemical_formula_sum "Si O2"
_cell_formula_units_Z 44
_cell_length_a 16.442178
_cell_length_b 14.954757
_cell_length_c 15.971068
_cell_angle_alpha 90.000000
_cell_angle_beta 36.105720
_cell_angle_gamma 90.000000
_cell_volume 2314.153533
_symmetry_space_group_name_H-M "C 2/M"
_symmetry_group_IT_number 12
_symmetry_cell_setting 'monoclinic'
loop_
_space_group_symop_operation_xyz
x,y,z
-x,y,-z
-x,-y,-z
x,-y,z
1/2+x,1/2+y,z
1/2-x,1/2+y,-z
1/2-x,1/2-y,-z
1/2+x,1/2-y,z
loop_
_atom_site_type_symbol
_atom_site_label
_atom_site_fract_x
_atom_site_fract_y
_atom_site_fract_z
Si Si1 0.421066 0.104229 0.979368
Si Si2 0.325517 0.264938 0.793298
Si Si3 0.500000 0.732603 0.500000
Si Si4 0.769448 0.661652 0.590078
Si Si5 0.931093 0.679266 0.300448
Si Si6 0.162125 0.098925 0.847992
O O1 0.520034 0.121190 0.818164
O O2 0.383709 0.000000 0.016017
O O3 0.500000 0.129466 0.000000
O O4 0.287992 0.166958 0.078646
O O5 0.407259 0.313099 0.648284
O O6 0.436706 0.226537 0.766005
O O7 0.246177 0.178618 0.821503
O O8 0.603103 0.794030 0.466902
O O9 0.840219 0.627118 0.445939
O O10 0.664882 0.740408 0.652415
O O11 0.693992 0.602298 0.722103
O O12 0.202108 0.000000 0.846304
O O13 0.000000 0.111793 0.000000
#
# Coordination Sequence:
#
# PCOD9188175 Si02
#       6
#     8   8   4   8   8   8
#     4  11  23  37  55  78 107 148 192 228 264 312
#     4  10  19  36  57  80 109 140 176 225 275 326
#     4   8  16  32  58  80 102 138 176 216 270 326
#     4   9  18  34  55  82 110 142 178 217 270 328
#     4  10  20  35  57  80 108 145 182 224 274 321
#     4  10  20  34  56  84 112 144 178 218 273 331
#
# _framework density 19.013432999999999
#
# number of rings (size 3 to 8) (size 9 to 14) (size 15 to 20)
#    0.000    2.182    0.000    4.364    0.000    1.455 
#    0.000   18.636    0.000    6.545    0.000    0.000 
#    0.000    0.000    0.000    0.000    0.000    0.000 
#
# Total GULP energy -122616.798846 kJ/mol
# GULP energy per Si atom -5573.490857 kJ/mol
# Density = 1.897016 g / cm^3
# Si number density = 19.013433 Si / 1000 Ang^3
#
#
#
# Elastic Constant Matrix: (Units=GPa)
#
#
# Indices 1 2 3 4 5 6 
#
# 1 89.7595 28.7580 38.0540 -0.0001 0.0143 0.0000
# 2 28.7580 63.9117 31.9445 -0.0001 -8.7154 0.0000
# 3 38.0540 31.9445 133.8949 -0.0002 14.0938 0.0001
# 4 -0.0001 -0.0001 -0.0002 -7.3739 0.0001 5.1202
# 5 0.0143 -8.7154 14.0938 0.0001 32.5066 0.0000
# 6 0.0000 0.0000 0.0001 5.1202 0.0000 8.4175
#
#
#
# Elastic Compliance Matrix: (Units=1/GPa)
#
#
# Indices 1 2 3 4 5 6 
#
# 1 0.013877 -0.004876 -0.002769 0.000000 -0.000113 0.000000
# 2 -0.004876 0.021097 -0.004446 0.000000 0.007586 0.000000
# 3 -0.002769 -0.004446 0.009893 0.000000 -0.005480 0.000000
# 4 0.000000 0.000000 0.000000 -0.095344 0.000001 0.057995
# 5 -0.000113 0.007586 -0.005480 0.000001 0.035173 0.000000
# 6 0.000000 0.000000 0.000000 0.057995 0.000000 0.083523
#
#
# Mechanical properties :
#
#
# Convention : Reuss Voigt Hill
#
# Bulk Modulus (GPa) = 48.34193 53.89766 51.11979
# Shear Modulus (GPa) = 50.35496 19.29737 34.82617
#
# Velocity S-wave (km/s) = 5.15183 3.18926 4.28443
# Velocity P-wave (km/s) = 7.80185 6.47847 7.17075
#
# Compressibility (1/GPa) = 0.02068598
#
# Stress axis : x y z
#
# Youngs Moduli (GPa) = 72.06253 47.39959 101.08075
#
# Poissons Ratio (x) = 0.23110 0.27988
# Poissons Ratio (y) = 0.35134 0.44943
# Poissons Ratio (z) = 0.19953 0.21075
#
# Static dielectric constant tensor:
#      x y z
#    x 1.665110 0.000000 0.044320 
#    y 0.000000 1.619790 0.000000 
#    z 0.044320 0.000000 1.718110 
# 
# From -- ./inp_files/277756.got.cif
#   From: 2010.05.17/outbox.cif.g08.bks.cpg/sg12_139_cif.got.tgz:277756.got - 2010.06.03 13:09:07.
