data_PCOD9188681
_publ_section_title
;
Structure prediction by ZEFSAII (Michael W. Deem and Ramdas Pophale) SiO2 
 PCOD9188681
Probable space group: C 2/M
;
_chemical_formula_sum "Si O2"
_cell_formula_units_Z 64
_cell_length_a 8.922743
_cell_length_b 21.072530
_cell_length_c 24.482462
_cell_angle_alpha 90.000000
_cell_angle_beta 132.018231
_cell_angle_gamma 90.000000
_cell_volume 3419.945198
_symmetry_space_group_name_H-M "C 2/M"
_symmetry_group_IT_number 12
_symmetry_cell_setting 'monoclinic'
loop_
_space_group_symop_operation_xyz
x,y,z
-x,y,-z
-x,-y,-z
x,-y,z
1/2+x,1/2+y,z
1/2-x,1/2+y,-z
1/2-x,1/2-y,-z
1/2+x,1/2-y,z
loop_
_atom_site_type_symbol
_atom_site_label
_atom_site_fract_x
_atom_site_fract_y
_atom_site_fract_z
Si Si1 0.629658 0.660880 0.583885
Si Si2 0.058115 0.802560 0.247274
Si Si3 0.365336 0.568385 0.789340
Si Si4 0.498578 0.255250 0.648811
Si Si5 0.011428 0.896668 0.062417
Si Si6 0.579205 0.926224 0.280018
Si Si7 0.577565 0.824082 0.844554
Si Si8 0.125588 0.314519 0.975901
O O1 0.500000 0.642072 0.500000
O O2 0.497779 0.700359 0.595576
O O3 0.735995 0.602828 0.641095
O O4 0.808835 0.708679 0.608796
O O5 0.034522 0.871002 0.214383
O O6 0.295890 0.785145 0.303209
O O7 0.991829 0.797257 0.293820
O O8 0.953765 0.744908 0.189143
O O9 0.417782 0.500000 0.777518
O O10 0.422227 0.567571 0.867286
O O11 0.122781 0.576134 0.731862
O O12 0.184588 0.842348 0.097907
O O13 0.000000 0.928405 0.000000
O O14 0.792541 0.868969 0.020522
O O15 0.532494 0.877427 0.218958
O O16 0.605988 0.000000 0.270216
O O17 0.507254 0.823978 0.890156
O O18 0.250000 0.250000 0.000000
O O19 0.000000 0.312562 0.000000
#
# Coordination Sequence:
#
# PCOD9188681 Si02
#       8
#     8   8   8   8   8   8   8   8
#     4  11  21  38  60  91 124 155 188 236 298 350
#     4  11  19  35  59  84 114 146 196 234 290 339
#     4  10  20  34  57  83 112 151 192 243 288 342
#     4  10  20  35  58  88 117 149 186 241 278 340
#     4   9  19  35  53  80 108 143 193 238 290 346
#     4  10  20  38  60  87 115 152 204 243 287 352
#     4  10  19  36  61  82 112 152 192 246 291 338
#     4  11  22  35  52  81 116 150 190 244 297 347
#
# _framework density 18.713750999999998
#
# number of rings (size 3 to 8) (size 9 to 14) (size 15 to 20)
#    0.000    1.750    3.750    3.000    0.000    3.500 
#    0.000    2.500    0.000    0.750    0.000    1.750 
#    0.000    0.000    0.000    0.000    0.000    0.125 
#
# Total GULP energy -178645.754842 kJ/mol
# GULP energy per Si atom -5582.679839 kJ/mol
# Density = 1.867116 g / cm^3
# Si number density = 18.713751 Si / 1000 Ang^3
#
#
#
# Elastic Constant Matrix: (Units=GPa)
#
#
# Indices 1 2 3 4 5 6 
#
# 1 90.7936 30.8105 30.4285 0.0000 -21.4070 0.0000
# 2 30.8105 131.6951 43.8962 0.0000 -14.9435 0.0000
# 3 30.4285 43.8962 111.7579 0.0000 -18.0938 0.0000
# 4 0.0000 0.0000 0.0000 -2.9822 0.0000 -11.9032
# 5 -21.4070 -14.9435 -18.0938 0.0000 22.9447 0.0000
# 6 0.0000 0.0000 0.0000 -11.9032 0.0000 8.4706
#
#
#
# Elastic Compliance Matrix: (Units=1/GPa)
#
#
# Indices 1 2 3 4 5 6 
#
# 1 0.014802 -0.001649 -0.001514 0.000000 0.011543 0.000000
# 2 -0.001649 0.009161 -0.002789 0.000000 0.002229 0.000000
# 3 -0.001514 -0.002789 0.011386 0.000000 0.005751 0.000000
# 4 0.000000 0.000000 0.000000 -0.050738 0.000000 -0.071299
# 5 0.011543 0.002229 0.005751 0.000000 0.060339 0.000000
# 6 0.000000 0.000000 0.000000 -0.071299 0.000000 0.017863
#
#
# Mechanical properties :
#
#
# Convention : Reuss Voigt Hill
#
# Bulk Modulus (GPa) = 42.64777 60.50188 51.57483
# Shear Modulus (GPa) = 60.58217 20.96071 40.77144
#
# Velocity S-wave (km/s) = 5.69591 3.35038 4.67271
# Velocity P-wave (km/s) = 8.13000 6.88237 7.53206
#
# Compressibility (1/GPa) = 0.02344788
#
# Stress axis : x y z
#
# Youngs Moduli (GPa) = 67.55690 109.15267 87.82385
#
# Poissons Ratio (x) = 0.17996 0.13296
# Poissons Ratio (y) = 0.11138 0.24491
# Poissons Ratio (z) = 0.10227 0.30438
#
# Static dielectric constant tensor:
#      x y z
#    x 1.657910 0.000000 0.007110 
#    y 0.000000 1.655290 0.000000 
#    z 0.007110 0.000000 1.667930 
# 
# From -- ./inp_files/333779.got.cif
#   From: 2010.05.17/outbox.cif.g08.bks.cpg/sg12_167_cif.got.tgz:333779.got - 2010.06.03 13:09:07.
