data_PCOD9188560
_publ_section_title
;
Structure prediction by ZEFSAII (Michael W. Deem and Ramdas Pophale) SiO2 
 PCOD9188560
Probable space group: C 2/M
;
_chemical_formula_sum "Si O2"
_cell_formula_units_Z 48
_cell_length_a 30.401436
_cell_length_b 8.993487
_cell_length_c 16.855225
_cell_angle_alpha 90.000000
_cell_angle_beta 36.268515
_cell_angle_gamma 90.000000
_cell_volume 2726.233595
_symmetry_space_group_name_H-M "C 2/M"
_symmetry_group_IT_number 12
_symmetry_cell_setting 'monoclinic'
loop_
_space_group_symop_operation_xyz
x,y,z
-x,y,-z
-x,-y,-z
x,-y,z
1/2+x,1/2+y,z
1/2-x,1/2+y,-z
1/2-x,1/2-y,-z
1/2+x,1/2-y,z
loop_
_atom_site_type_symbol
_atom_site_label
_atom_site_fract_x
_atom_site_fract_y
_atom_site_fract_z
Si Si1 0.830469 0.176532 0.890767
Si Si2 0.895531 0.323204 0.469782
Si Si3 0.089183 0.674241 0.371478
Si Si4 0.482033 0.321301 0.116741
Si Si5 0.824747 0.177199 0.423712
Si Si6 0.444569 0.176958 0.840820
O O1 0.875639 0.224241 0.746650
O O2 0.875841 0.242929 0.899096
O O3 0.824821 0.000000 0.905767
O O4 0.750000 0.250000 0.000000
O O5 0.883403 0.500000 0.477156
O O6 0.884665 0.287309 0.577751
O O7 0.844363 0.235258 0.483026
O O8 0.981275 0.294435 0.320087
O O9 0.107460 0.500000 0.328811
O O10 0.000000 0.685446 0.500000
O O11 0.490477 0.500000 0.113308
O O12 0.397231 0.283757 0.264905
O O13 0.535348 0.240373 0.102006
O O14 0.500000 0.282020 0.000000
O O15 0.750000 0.250000 0.500000
O O16 0.817367 0.000000 0.434422
O O17 0.432896 0.000000 0.860062
#
# Coordination Sequence:
#
# PCOD9188560 Si02
#       6
#     8   8   8   8   8   8
#     4  12  25  40  58  83 117 154 192 236 287 337
#     4   9  18  34  59  85 112 147 185 226 279 337
#     4  10  19  37  62  87 115 149 188 230 280 339
#     4   9  19  37  59  83 110 145 189 233 279 335
#     4  10  20  35  56  81 112 146 184 231 283 333
#     4  10  19  36  60  85 113 148 189 233 284 338
#
# _framework density 17.606708999999999
#
# number of rings (size 3 to 8) (size 9 to 14) (size 15 to 20)
#    0.000    2.000    1.667    2.500    0.000    2.667 
#    3.000    0.000    0.000    0.000    0.000    0.000 
#    0.000    0.000    0.000    0.000    0.000    0.000 
#
# Total GULP energy -134011.061535 kJ/mol
# GULP energy per Si atom -5583.794231 kJ/mol
# Density = 1.756663 g / cm^3
# Si number density = 17.606709 Si / 1000 Ang^3
#
#
#
# Elastic Constant Matrix: (Units=GPa)
#
#
# Indices 1 2 3 4 5 6 
#
# 1 174.1049 88.2267 75.3481 -0.0007 -12.1705 0.0003
# 2 88.2267 87.5625 51.0264 -0.0039 -11.7968 0.0020
# 3 75.3481 51.0264 61.9020 -0.0034 -7.2789 0.0013
# 4 -0.0007 -0.0039 -0.0034 26.0435 0.0009 -0.8260
# 5 -12.1705 -11.7968 -7.2789 0.0009 33.3275 -0.0001
# 6 0.0003 0.0020 0.0013 -0.8260 -0.0001 37.5827
#
#
#
# Elastic Compliance Matrix: (Units=1/GPa)
#
#
# Indices 1 2 3 4 5 6 
#
# 1 0.014837 -0.008517 -0.011040 -0.000002 -0.000008 0.000001
# 2 -0.008517 0.027378 -0.011728 0.000002 0.004019 -0.000001
# 3 -0.011040 -0.011728 0.039308 0.000003 0.000402 -0.000001
# 4 -0.000002 0.000002 0.000003 0.038424 0.000000 0.000845
# 5 -0.000008 0.004019 0.000402 0.000000 0.031513 0.000000
# 6 0.000001 -0.000001 -0.000001 0.000845 0.000000 0.026627
#
#
# Mechanical properties :
#
#
# Convention : Reuss Voigt Hill
#
# Bulk Modulus (GPa) = 52.76499 83.64130 68.20314
# Shear Modulus (GPa) = 20.24504 26.65530 23.45017
#
# Velocity S-wave (km/s) = 3.39462 3.89514 3.65346
# Velocity P-wave (km/s) = 6.73783 8.23638 7.52451
#
# Compressibility (1/GPa) = 0.01895196
#
# Stress axis : x y z
#
# Youngs Moduli (GPa) = 67.39971 36.52546 25.44039
#
# Poissons Ratio (x) = 0.31109 0.28086
# Poissons Ratio (y) = 0.57405 0.29837
# Poissons Ratio (z) = 0.74409 0.42838
#
# Static dielectric constant tensor:
#      x y z
#    x 1.580710 0.000000 0.006360 
#    y 0.000000 1.585670 0.000000 
#    z 0.006360 0.000000 1.589420 
# 
# From -- ./inp_files/281811.got.cif
#   From: 2010.05.17/outbox.cif.g08.bks.cpg/sg12_141_cif.got.tgz:281811.got - 2010.06.03 13:09:07.
