data_PCOD9188226
_publ_section_title
;
Structure prediction by ZEFSAII (Michael W. Deem and Ramdas Pophale) SiO2 
 PCOD9188226
Probable space group: C 2/M
;
_chemical_formula_sum "Si O2"
_cell_formula_units_Z 40
_cell_length_a 10.528837
_cell_length_b 24.223491
_cell_length_c 14.369764
_cell_angle_alpha 90.000000
_cell_angle_beta 149.510422
_cell_angle_gamma 90.000000
_cell_volume 1859.522792
_symmetry_space_group_name_H-M "C 2/M"
_symmetry_group_IT_number 12
_symmetry_cell_setting 'monoclinic'
loop_
_space_group_symop_operation_xyz
x,y,z
-x,y,-z
-x,-y,-z
x,-y,z
1/2+x,1/2+y,z
1/2-x,1/2+y,-z
1/2-x,1/2-y,-z
1/2+x,1/2-y,z
loop_
_atom_site_type_symbol
_atom_site_label
_atom_site_fract_x
_atom_site_fract_y
_atom_site_fract_z
Si Si1 0.455533 0.151499 0.256358
Si Si2 0.779965 0.563037 0.284709
Si Si3 0.468085 0.343861 0.381496
Si Si4 0.762694 0.724007 0.289600
Si Si5 0.125364 0.855070 0.882119
O O1 0.391369 0.093558 0.265061
O O2 0.739818 0.168763 0.455161
O O3 0.282513 0.194831 0.202292
O O4 0.378502 0.147520 0.100616
O O5 0.706632 0.500000 0.220801
O O6 0.553520 0.599635 0.181946
O O7 0.000000 0.563560 0.500000
O O8 0.500000 0.376113 0.500000
O O9 0.315988 0.288114 0.307822
O O10 0.357754 0.367376 0.216482
O O11 0.519470 0.703190 0.190926
O O12 0.000000 0.702838 0.500000
#
# Coordination Sequence:
#
# PCOD9188226 Si02
#       5
#     8   8   8   8   8
#     4  11  21  38  59  85 119 148 187 245 290 335
#     4  10  19  37  69  94 112 144 183 237 306 346
#     4  11  24  39  54  78 119 163 198 232 275 341
#     4  10  19  36  58  76 112 155 188 238 289 322
#     4  11  22  39  58  86 120 147 190 248 288 333
#
# _framework density 21.510895999999999
#
# number of rings (size 3 to 8) (size 9 to 14) (size 15 to 20)
#    0.000    1.400    4.000    4.200    2.800    3.200 
#    7.200    0.000    0.000    2.400    0.000    2.800 
#    0.000    0.000    0.000    0.000    0.000    0.000 
#
# Total GULP energy -111732.507212 kJ/mol
# GULP energy per Si atom -5586.625361 kJ/mol
# Density = 2.146194 g / cm^3
# Si number density = 21.510896 Si / 1000 Ang^3
#
#
#
# Elastic Constant Matrix: (Units=GPa)
#
#
# Indices 1 2 3 4 5 6 
#
# 1 91.7408 31.1418 28.5401 -0.0003 -30.4722 -0.0012
# 2 31.1418 100.8486 24.7640 0.0001 9.3013 -0.0001
# 3 28.5401 24.7640 121.6418 -0.0005 -35.9449 -0.0030
# 4 -0.0003 0.0001 -0.0005 11.9172 -0.0004 2.5741
# 5 -30.4722 9.3013 -35.9449 -0.0004 44.0282 -0.0018
# 6 -0.0012 -0.0001 -0.0030 2.5741 -0.0018 -7.3149
#
#
#
# Elastic Compliance Matrix: (Units=1/GPa)
#
#
# Indices 1 2 3 4 5 6 
#
# 1 0.018032 -0.007476 0.001906 0.000003 0.015615 -0.000006
# 2 -0.007476 0.014523 -0.004795 -0.000002 -0.012157 0.000005
# 3 0.001906 -0.004795 0.012440 0.000003 0.012488 -0.000007
# 4 0.000003 -0.000002 0.000003 0.077984 0.000006 0.027443
# 5 0.015615 -0.012157 0.012488 0.000006 0.046284 -0.000017
# 6 -0.000006 0.000005 -0.000007 0.027443 -0.000017 -0.127050
#
#
# Mechanical properties :
#
#
# Convention : Reuss Voigt Hill
#
# Bulk Modulus (GPa) = 41.21353 53.68034 47.44693
# Shear Modulus (GPa) = 70.38992 25.04512 47.71752
#
# Velocity S-wave (km/s) = 5.72660 3.41588 4.71499
# Velocity P-wave (km/s) = 7.93261 6.36921 7.19351
#
# Compressibility (1/GPa) = 0.02426388
#
# Stress axis : x y z
#
# Youngs Moduli (GPa) = 55.45675 68.85514 80.38516
#
# Poissons Ratio (x) = 0.51479 -0.15318
# Poissons Ratio (y) = 0.41462 0.38544
# Poissons Ratio (z) = -0.10568 0.33016
#
# Static dielectric constant tensor:
#      x y z
#    x 1.839330 0.000000 -0.027360 
#    y 0.000000 1.762450 0.000000 
#    z -0.027360 0.000000 1.825710 
# 
# From -- ./inp_files/208712.got.cif
#   From: 2010.05.17/outbox.cif.g08.bks.cpg/sg12_105_cif.got.tgz:208712.got - 2010.06.03 13:09:07.
