data_PCOD9188372
_publ_section_title
;
Structure prediction by ZEFSAII (Michael W. Deem and Ramdas Pophale) SiO2 
 PCOD9188372
Probable space group: C 2/M
;
_chemical_formula_sum "Si O2"
_cell_formula_units_Z 56
_cell_length_a 21.180180
_cell_length_b 8.464850
_cell_length_c 23.034296
_cell_angle_alpha 90.000000
_cell_angle_beta 48.165543
_cell_angle_gamma 90.000000
_cell_volume 3076.974237
_symmetry_space_group_name_H-M "C 2/M"
_symmetry_group_IT_number 12
_symmetry_cell_setting 'monoclinic'
loop_
_space_group_symop_operation_xyz
x,y,z
-x,y,-z
-x,-y,-z
x,-y,z
1/2+x,1/2+y,z
1/2-x,1/2+y,-z
1/2-x,1/2-y,-z
1/2+x,1/2-y,z
loop_
_atom_site_type_symbol
_atom_site_label
_atom_site_fract_x
_atom_site_fract_y
_atom_site_fract_z
Si Si1 0.807074 0.311271 0.265017
Si Si2 0.930642 0.309143 0.994528
Si Si3 0.999728 0.309563 0.594048
Si Si4 0.261555 0.192706 0.161903
Si Si5 0.862231 0.690687 0.581485
Si Si6 0.005363 0.188898 0.828792
Si Si7 0.573379 0.309393 0.244045
O O1 0.814145 0.500000 0.259303
O O2 0.782789 0.256836 0.214580
O O3 0.730224 0.261252 0.353616
O O4 0.897279 0.242243 0.227416
O O5 0.931894 0.500000 0.992760
O O6 0.957285 0.249593 0.915308
O O7 0.838017 0.257619 0.073015
O O8 0.000000 0.258564 0.000000
O O9 0.999248 0.500000 0.596891
O O10 0.085375 0.261483 0.507949
O O11 0.921462 0.262132 0.599983
O O12 0.984999 0.242022 0.666512
O O13 0.169076 0.247054 0.198499
O O14 0.260602 0.000000 0.162769
O O15 0.856929 0.500000 0.585079
O O16 0.961934 0.246888 0.796002
O O17 0.002410 0.000000 0.830703
O O18 0.575578 0.500000 0.241462
#
# Coordination Sequence:
#
# PCOD9188372 Si02
#       7
#     8   8   8   8   8   8   8
#     4  11  20  35  59  84 108 144 190 230 271 327
#     4  10  19  36  59  82 108 142 185 230 275 326
#     4   9  18  33  55  83 116 148 178 222 277 330
#     4   9  18  34  57  81 107 140 182 230 270 316
#     4   9  18  33  54  85 118 143 176 228 282 323
#     4  11  24  38  54  80 116 149 180 229 284 329
#     4  10  21  38  56  79 114 151 185 225 275 326
#
# _framework density 18.199698000000001
#
# number of rings (size 3 to 8) (size 9 to 14) (size 15 to 20)
#    0.000    2.143    2.857    1.714    0.000    2.571 
#    0.000    2.857    0.000    0.000    0.000    0.000 
#    0.000    0.000    0.000    0.000    0.000    0.000 
#
# Total GULP energy -156280.054964 kJ/mol
# GULP energy per Si atom -5581.430534 kJ/mol
# Density = 1.815827 g / cm^3
# Si number density = 18.199698 Si / 1000 Ang^3
#
#
#
# Elastic Constant Matrix: (Units=GPa)
#
#
# Indices 1 2 3 4 5 6 
#
# 1 134.3635 17.4929 87.1474 0.0001 8.2794 -0.0001
# 2 17.4929 10.0303 17.8430 0.0003 3.0809 -0.0004
# 3 87.1474 17.8430 168.2708 0.0001 1.6947 0.0000
# 4 0.0001 0.0003 0.0001 31.9355 0.0000 -0.5729
# 5 8.2794 3.0809 1.6947 0.0000 31.2247 0.0000
# 6 -0.0001 -0.0004 0.0000 -0.5729 0.0000 18.2743
#
#
#
# Elastic Compliance Matrix: (Units=1/GPa)
#
#
# Indices 1 2 3 4 5 6 
#
# 1 0.012468 -0.011986 -0.005168 0.000000 -0.001843 0.000000
# 2 -0.011986 0.138609 -0.008389 -0.000001 -0.010043 0.000003
# 3 -0.005168 -0.008389 0.009492 0.000000 0.001683 0.000000
# 4 0.000000 -0.000001 0.000000 0.031331 0.000000 0.000982
# 5 -0.001843 -0.010043 0.001683 0.000000 0.033414 0.000000
# 6 0.000000 0.000003 0.000000 0.000982 0.000000 0.054752
#
#
# Mechanical properties :
#
#
# Convention : Reuss Voigt Hill
#
# Bulk Modulus (GPa) = 9.13376 61.95902 35.54639
# Shear Modulus (GPa) = 13.60001 28.96566 21.28283
#
# Velocity S-wave (km/s) = 2.73658 3.99375 3.42337
# Velocity P-wave (km/s) = 3.87488 7.44208 5.93293
#
# Compressibility (1/GPa) = 0.10948399
#
# Stress axis : x y z
#
# Youngs Moduli (GPa) = 80.20329 7.21453 105.35339
#
# Poissons Ratio (x) = 0.08647 0.54445
# Poissons Ratio (y) = 0.96128 0.88384
# Poissons Ratio (z) = 0.41448 0.06052
#
# Static dielectric constant tensor:
#      x y z
#    x 1.610970 0.000000 -0.002520 
#    y 0.000000 1.630250 0.000000 
#    z -0.002520 0.000000 1.611040 
# 
# From -- ./inp_files/275493.got.cif
#   From: 2010.05.17/outbox.cif.g08.bks.cpg/sg12_138_cif.got.tgz:275493.got - 2010.06.03 13:09:07.
