data_PCOD9188373
_publ_section_title
;
Structure prediction by ZEFSAII (Michael W. Deem and Ramdas Pophale) SiO2 
 PCOD9188373
Probable space group: C 2/M
;
_chemical_formula_sum "Si O2"
_cell_formula_units_Z 48
_cell_length_a 17.824546
_cell_length_b 14.647725
_cell_length_c 7.970214
_cell_angle_alpha 90.000000
_cell_angle_beta 106.289076
_cell_angle_gamma 90.000000
_cell_volume 1997.404306
_symmetry_space_group_name_H-M "C 2/M"
_symmetry_group_IT_number 12
_symmetry_cell_setting 'monoclinic'
loop_
_space_group_symop_operation_xyz
x,y,z
-x,y,-z
-x,-y,-z
x,-y,z
1/2+x,1/2+y,z
1/2-x,1/2+y,-z
1/2-x,1/2-y,-z
1/2+x,1/2-y,z
loop_
_atom_site_type_symbol
_atom_site_label
_atom_site_fract_x
_atom_site_fract_y
_atom_site_fract_z
Si Si1 0.030190 0.721160 0.250318
Si Si2 0.314367 0.390733 0.117700
Si Si3 0.119670 0.714404 0.663726
Si Si4 0.846476 0.398791 0.851772
Si Si5 0.244552 0.642676 0.539383
Si Si6 0.900496 0.898559 0.817771
O O1 0.075221 0.718835 0.456963
O O2 0.081806 0.665555 0.150404
O O3 0.035164 0.825172 0.192860
O O4 0.943876 0.686528 0.237462
O O5 0.321061 0.500000 0.164978
O O6 0.350884 0.315233 0.265228
O O7 0.221331 0.368134 0.062766
O O8 0.357635 0.378919 0.967447
O O9 0.188435 0.643272 0.666656
O O10 0.873442 0.500000 0.912737
O O11 0.797066 0.401964 0.645171
O O12 0.250000 0.750000 0.500000
O O13 0.329230 0.607314 0.640202
O O14 0.932668 0.000000 0.837380
#
# Coordination Sequence:
#
# PCOD9188373 Si02
#       6
#     8   8   8   8   8   8
#     4  10  21  37  55  81 113 146 185 225 275 329
#     4  10  21  35  55  83 110 143 187 229 273 326
#     4  10  20  36  55  79 111 145 182 227 271 329
#     4  10  19  36  59  82 109 143 184 230 274 323
#     4  11  18  36  58  83 105 140 185 226 272 322
#     4  11  22  36  56  83 115 145 181 228 274 324
#
# _framework density 24.031189999999999
#
# number of rings (size 3 to 8) (size 9 to 14) (size 15 to 20)
#    0.000    1.667    5.000    0.500    0.000    6.000 
#    0.000   10.833    0.000    0.000    0.000    5.833 
#    0.000    0.000    0.000    0.000    0.000    0.000 
#
# Total GULP energy -134240.092991 kJ/mol
# GULP energy per Si atom -5593.337208 kJ/mol
# Density = 2.397649 g / cm^3
# Si number density = 24.031190 Si / 1000 Ang^3
#
#
#
# Elastic Constant Matrix: (Units=GPa)
#
#
# Indices 1 2 3 4 5 6 
#
# 1 98.1604 -3.1563 -2.2894 0.0000 -15.8555 0.0000
# 2 -3.1563 40.7335 -17.7446 0.0000 -10.5587 0.0000
# 3 -2.2894 -17.7446 91.8768 0.0000 -10.2430 0.0000
# 4 0.0000 0.0000 0.0000 19.2685 0.0000 -16.9162
# 5 -15.8555 -10.5587 -10.2430 0.0000 41.6469 0.0000
# 6 0.0000 0.0000 0.0000 -16.9162 0.0000 -13.8728
#
#
#
# Elastic Compliance Matrix: (Units=1/GPa)
#
#
# Indices 1 2 3 4 5 6 
#
# 1 0.011174 0.002870 0.001427 0.000000 0.005333 0.000000
# 2 0.002870 0.030654 0.007177 0.000000 0.010630 0.000000
# 3 0.001427 0.007177 0.012924 0.000000 0.005542 0.000000
# 4 0.000000 0.000000 0.000000 0.025065 0.000000 -0.030564
# 5 0.005333 0.010630 0.005542 0.000000 0.030100 0.000000
# 6 0.000000 0.000000 0.000000 -0.030564 0.000000 -0.034814
#
#
# Mechanical properties :
#
#
# Convention : Reuss Voigt Hill
#
# Bulk Modulus (GPa) = 12.86992 20.48777 16.67885
# Shear Modulus (GPa) = 64.05791 26.33925 45.19858
#
# Velocity S-wave (km/s) = 5.16856 3.31425 4.34156
# Velocity P-wave (km/s) = 6.40202 4.81556 5.66460
#
# Compressibility (1/GPa) = 0.07770054
#
# Stress axis : x y z
#
# Youngs Moduli (GPa) = 89.49035 32.62213 77.37769
#
# Poissons Ratio (x) = -0.09363 -0.11044
# Poissons Ratio (y) = -0.25684 -0.55533
# Poissons Ratio (z) = -0.12773 -0.23413
#
# Static dielectric constant tensor:
#      x y z
#    x 1.963670 0.000000 -0.011130 
#    y 0.000000 1.865410 0.000000 
#    z -0.011130 0.000000 1.945210 
# 
# From -- ./inp_files/73627.got.cif
#   From: 2010.05.17/outbox.cif.g08.bks.cpg/sg12_37_cif.got.tgz:73627.got - 2010.06.03 13:09:07.
