data_PCOD9188808
_publ_section_title
;
Structure prediction by ZEFSAII (Michael W. Deem and Ramdas Pophale) SiO2 
 PCOD9188808
Probable space group: C 2/M
;
_chemical_formula_sum "Si O2"
_cell_formula_units_Z 50
_cell_length_a 13.757421
_cell_length_b 11.961185
_cell_length_c 23.498523
_cell_angle_alpha 90.000000
_cell_angle_beta 141.099531
_cell_angle_gamma 90.000000
_cell_volume 2428.232692
_symmetry_space_group_name_H-M "C 2/M"
_symmetry_group_IT_number 12
_symmetry_cell_setting 'monoclinic'
loop_
_space_group_symop_operation_xyz
x,y,z
-x,y,-z
-x,-y,-z
x,-y,z
1/2+x,1/2+y,z
1/2-x,1/2+y,-z
1/2-x,1/2-y,-z
1/2+x,1/2-y,z
loop_
_atom_site_type_symbol
_atom_site_label
_atom_site_fract_x
_atom_site_fract_y
_atom_site_fract_z
Si Si1 0.198535 0.125379 0.850412
Si Si2 0.588178 0.212827 0.287633
Si Si3 0.694448 0.800527 0.217832
Si Si4 0.837598 0.372247 0.459521
Si Si5 0.615203 0.721831 0.984930
Si Si6 0.532966 0.874296 0.653804
Si Si7 0.000000 0.000000 0.000000
O O1 0.232019 0.124392 0.798022
O O2 0.045266 0.198759 0.789807
O O3 0.181933 0.000000 0.864702
O O4 0.336773 0.190472 0.944217
O O5 0.645765 0.152536 0.256881
O O6 0.722081 0.284992 0.378899
O O7 0.516491 0.134621 0.303277
O O8 0.544282 0.746286 0.120323
O O9 0.823886 0.707325 0.289928
O O10 0.775927 0.500000 0.428940
O O11 0.000000 0.370051 0.500000
O O12 0.888841 0.346011 0.547397
O O13 0.592631 0.600733 0.004976
O O14 0.750000 0.750000 0.000000
O O15 0.580355 0.000000 0.660617
#
# Coordination Sequence:
#
# PCOD9188808 Si02
#       7
#     8   8   8   8   8   8   2
#     4  11  25  45  65  94 134 177 226 279 339 411
#     4  11  22  39  66  93 126 168 221 269 338 401
#     4  11  23  41  62  93 129 164 221 272 335 399
#     4  10  19  36  61  94 124 163 210 267 330 393
#     4  12  26  45  69 104 132 189 232 281 363 408
#     4  10  23  39  63  92 128 168 218 271 332 406
#     4  12  28  52  74  98 156 178 238 314 338 434
#
# _framework density 20.591107999999998
#
# number of rings (size 3 to 8) (size 9 to 14) (size 15 to 20)
#    0.000    1.120    4.800    0.960    2.240    2.560 
#    0.000    0.000    0.000    0.480    0.000    0.000 
#    0.000    0.000    0.000    0.000    0.000    0.000 
#
# Total GULP energy -139247.187448 kJ/mol
# GULP energy per Si atom -5569.887498 kJ/mol
# Density = 2.054424 g / cm^3
# Si number density = 20.591108 Si / 1000 Ang^3
#
#
#
# Elastic Constant Matrix: (Units=GPa)
#
#
# Indices 1 2 3 4 5 6 
#
# 1 107.6894 -1.5224 -3.2313 0.0000 -20.6691 0.0000
# 2 -1.5224 78.1009 21.8879 0.0000 1.6082 0.0000
# 3 -3.2313 21.8879 73.5331 0.0000 -7.7183 0.0000
# 4 0.0000 0.0000 0.0000 3.1700 0.0000 -4.3673
# 5 -20.6691 1.6082 -7.7183 0.0000 38.5057 0.0000
# 6 0.0000 0.0000 0.0000 -4.3673 0.0000 5.6694
#
#
#
# Elastic Compliance Matrix: (Units=1/GPa)
#
#
# Indices 1 2 3 4 5 6 
#
# 1 0.010438 -0.000237 0.001142 0.000000 0.005842 0.000000
# 2 -0.000237 0.014054 -0.004360 0.000000 -0.001588 0.000000
# 3 0.001142 -0.004360 0.015354 0.000000 0.003873 0.000000
# 4 0.000000 0.000000 0.000000 -5.146902 0.000000 -3.964853
# 5 0.005842 -0.001588 0.003873 0.000000 0.029949 0.000000
# 6 0.000000 0.000000 0.000000 -3.964853 0.000000 -2.877889
#
#
# Mechanical properties :
#
#
# Convention : Reuss Voigt Hill
#
# Bulk Modulus (GPa) = 30.36180 32.62130 31.49155
# Shear Modulus (GPa) = -0.62995 25.61498 12.49251
#
# Velocity S-wave (km/s) = -0.55371 3.53084 2.46579
# Velocity P-wave (km/s) = 3.79056 5.70081 4.84085
#
# Compressibility (1/GPa) = 0.03293612
#
# Stress axis : x y z
#
# Youngs Moduli (GPa) = 95.80256 71.15387 65.12968
#
# Poissons Ratio (x) = 0.01686 -0.07441
# Poissons Ratio (y) = 0.02270 0.28399
# Poissons Ratio (z) = -0.10945 0.31026
#
# Static dielectric constant tensor:
#      x y z
#    x 1.811270 0.000000 -0.041080 
#    y 0.000000 1.677700 0.000000 
#    z -0.041080 0.000000 1.743050 
# 
# From -- ./inp_files/339644.got.cif
#   From: 2010.05.17/outbox.cif.g08.bks.cpg/sg12_170_cif.got.tgz:339644.got - 2010.06.03 13:09:07.
