data_PCOD9188214
_publ_section_title
;
Structure prediction by ZEFSAII (Michael W. Deem and Ramdas Pophale) SiO2 
 PCOD9188214
Probable space group: C 2/M
;
_chemical_formula_sum "Si O2"
_cell_formula_units_Z 56
_cell_length_a 12.916509
_cell_length_b 28.741753
_cell_length_c 8.789122
_cell_angle_alpha 90.000000
_cell_angle_beta 61.872780
_cell_angle_gamma 90.000000
_cell_volume 2877.562174
_symmetry_space_group_name_H-M "C 2/M"
_symmetry_group_IT_number 12
_symmetry_cell_setting 'monoclinic'
loop_
_space_group_symop_operation_xyz
x,y,z
-x,y,-z
-x,-y,-z
x,-y,z
1/2+x,1/2+y,z
1/2-x,1/2+y,-z
1/2-x,1/2-y,-z
1/2+x,1/2-y,z
loop_
_atom_site_type_symbol
_atom_site_label
_atom_site_fract_x
_atom_site_fract_y
_atom_site_fract_z
Si Si1 0.837006 0.162408 0.703741
Si Si2 0.504614 0.248168 0.326681
Si Si3 0.130844 0.375135 0.343193
Si Si4 0.173211 0.053934 0.808250
Si Si5 0.599254 0.833046 0.050340
Si Si6 0.974724 0.899010 0.818966
Si Si7 0.162157 0.177919 0.650130
O O1 0.917702 0.206347 0.692083
O O2 0.901360 0.116815 0.724165
O O3 0.821619 0.160520 0.534217
O O4 0.717366 0.171260 0.874074
O O5 0.500000 0.226437 0.500000
O O6 0.560555 0.213714 0.166273
O O7 0.383868 0.269207 0.339308
O O8 0.206479 0.421415 0.322196
O O9 0.117936 0.369395 0.171988
O O10 0.218624 0.334021 0.343398
O O11 0.000000 0.375926 0.500000
O O12 0.075173 0.061852 0.745167
O O13 0.185100 0.000000 0.836776
O O14 0.116056 0.082541 0.990340
O O15 0.500000 0.846420 0.000000
O O16 0.056021 0.852844 0.795800
#
# Coordination Sequence:
#
# PCOD9188214 Si02
#       7
#     8   8   8   8   8   8   8
#     4  10  19  36  57  87 121 161 193 239 290 348
#     4   9  20  37  56  82 119 156 201 245 295 336
#     4  11  23  41  61  86 116 162 202 238 293 361
#     4  10  20  36  63  96 122 147 189 246 300 356
#     4  12  24  37  53  83 115 160 205 248 287 343
#     4   9  16  33  59  91 119 146 185 228 298 345
#     4   9  20  37  62  86 121 161 195 243 292 344
#
# _framework density 19.460916000000001
#
# number of rings (size 3 to 8) (size 9 to 14) (size 15 to 20)
#    0.000    2.000    1.429    3.857    0.000    2.571 
#    5.143    3.571    0.000   16.714    0.000    0.000 
#    0.000    0.000    0.000    0.000    0.000    0.000 
#
# Total GULP energy -156127.180495 kJ/mol
# GULP energy per Si atom -5575.970732 kJ/mol
# Density = 1.941662 g / cm^3
# Si number density = 19.460916 Si / 1000 Ang^3
#
#
#
# Elastic Constant Matrix: (Units=GPa)
#
#
# Indices 1 2 3 4 5 6 
#
# 1 127.7781 28.2447 52.9306 0.0000 -7.6696 0.0000
# 2 28.2447 67.7836 33.7027 0.0000 -4.6601 0.0000
# 3 52.9306 33.7027 105.6829 0.0000 -16.1658 0.0000
# 4 0.0000 0.0000 0.0000 2.4003 0.0000 -35.5973
# 5 -7.6696 -4.6601 -16.1658 0.0000 43.2710 0.0000
# 6 0.0000 0.0000 0.0000 -35.5973 0.0000 -239.7421
#
#
#
# Elastic Compliance Matrix: (Units=1/GPa)
#
#
# Indices 1 2 3 4 5 6 
#
# 1 0.010101 -0.002012 -0.004430 0.000000 -0.000081 0.000000
# 2 -0.002012 0.017935 -0.004742 0.000000 -0.000197 0.000000
# 3 -0.004430 -0.004742 0.013783 0.000000 0.003853 0.000000
# 4 0.000000 0.000000 0.000000 0.130109 0.000000 -0.019319
# 5 -0.000081 -0.000197 0.003853 0.000000 0.024514 0.000000
# 6 0.000000 0.000000 0.000000 -0.019319 0.000000 -0.001303
#
#
# Mechanical properties :
#
#
# Convention : Reuss Voigt Hill
#
# Bulk Modulus (GPa) = 51.41054 59.00007 55.20531
# Shear Modulus (GPa) = 22.32235 -26.38971 -2.03368
#
# Velocity S-wave (km/s) = 3.39046 -3.68643 -1.02336
# Velocity P-wave (km/s) = 6.46542 3.50190 5.19928
#
# Compressibility (1/GPa) = 0.01945126
#
# Stress axis : x y z
#
# Youngs Moduli (GPa) = 99.00092 55.75537 72.55539
#
# Poissons Ratio (x) = 0.11218 0.32140
# Poissons Ratio (y) = 0.19919 0.34406
# Poissons Ratio (z) = 0.43855 0.26440
#
# Static dielectric constant tensor:
#      x y z
#    x 1.752340 0.000000 -0.019120 
#    y 0.000000 1.688750 0.000000 
#    z -0.019120 0.000000 1.721540 
# 
# From -- ./inp_files/54615.got.cif
#   From: 2010.05.17/outbox.cif.g08.bks.cpg/sg12_28_cif.got.tgz:54615.got - 2010.06.03 13:09:07.
