data_PCOD9188667
_publ_section_title
;
Structure prediction by ZEFSAII (Michael W. Deem and Ramdas Pophale) SiO2 
 PCOD9188667
Probable space group: C 2/M
;
_chemical_formula_sum "Si O2"
_cell_formula_units_Z 52
_cell_length_a 9.556377
_cell_length_b 19.548837
_cell_length_c 12.591318
_cell_angle_alpha 90.000000
_cell_angle_beta 93.142674
_cell_angle_gamma 90.000000
_cell_volume 2348.722844
_symmetry_space_group_name_H-M "C 2/M"
_symmetry_group_IT_number 12
_symmetry_cell_setting 'monoclinic'
loop_
_space_group_symop_operation_xyz
x,y,z
-x,y,-z
-x,-y,-z
x,-y,z
1/2+x,1/2+y,z
1/2-x,1/2+y,-z
1/2-x,1/2-y,-z
1/2+x,1/2-y,z
loop_
_atom_site_type_symbol
_atom_site_label
_atom_site_fract_x
_atom_site_fract_y
_atom_site_fract_z
Si Si1 0.902042 0.815466 0.592794
Si Si2 0.793779 0.626057 0.772451
Si Si3 0.290603 0.500000 0.904951
Si Si4 0.208985 0.771042 0.116672
Si Si5 0.570500 0.120268 0.895495
Si Si6 0.013237 0.879323 0.179252
Si Si7 0.632777 0.840983 0.450641
O O1 0.941074 0.856222 0.699979
O O2 0.744386 0.827581 0.547659
O O3 0.918226 0.732892 0.598026
O O4 0.000000 0.838406 0.500000
O O5 0.796290 0.705565 0.808651
O O6 0.650333 0.601394 0.820811
O O7 0.795825 0.621587 0.645498
O O8 0.940002 0.596014 0.819581
O O9 0.175159 0.559807 0.928979
O O10 0.400493 0.440683 0.867439
O O11 0.333871 0.822513 0.156963
O O12 0.063114 0.812245 0.116705
O O13 0.250000 0.750000 0.000000
O O14 0.500000 0.148486 0.000000
O O15 0.500000 0.875914 0.500000
#
# Coordination Sequence:
#
# PCOD9188667 Si02
#       7
#     8   8   4   8   8   8   8
#     4  10  19  36  60  92 132 170 198 258 326 391
#     4  12  23  38  68 102 130 166 210 272 334 389
#     4  10  27  48  64  85 125 183 231 261 317 366
#     4  11  23  40  64 101 138 167 205 258 341 392
#     4  11  24  44  67  91 130 174 215 271 318 383
#     4  11  24  42  67  92 133 175 219 266 312 390
#     4  10  22  33  59 101 137 159 204 253 333 404
#
# _framework density 22.139693000000001
#
# number of rings (size 3 to 8) (size 9 to 14) (size 15 to 20)
#    0.000    1.231    4.615    1.154    4.308    0.615 
#    0.000    1.154    0.000    0.923    0.000    0.000 
#    0.000    0.000    0.000    0.000    0.000    0.000 
#
# Total GULP energy -144798.739438 kJ/mol
# GULP energy per Si atom -5569.182286 kJ/mol
# Density = 2.208930 g / cm^3
# Si number density = 22.139693 Si / 1000 Ang^3
#
#
#
# Elastic Constant Matrix: (Units=GPa)
#
#
# Indices 1 2 3 4 5 6 
#
# 1 137.2325 0.9206 20.0025 0.0000 -24.4722 0.0000
# 2 0.9206 35.4737 -13.3035 0.0000 -10.2945 0.0000
# 3 20.0025 -13.3035 76.0714 0.0000 -14.4063 0.0000
# 4 0.0000 0.0000 0.0000 -8.4112 0.0000 -7.5527
# 5 -24.4722 -10.2945 -14.4063 0.0000 39.6179 0.0000
# 6 0.0000 0.0000 0.0000 -7.5527 0.0000 15.1445
#
#
#
# Elastic Compliance Matrix: (Units=1/GPa)
#
#
# Indices 1 2 3 4 5 6 
#
# 1 0.008326 0.000803 -0.001112 0.000000 0.004947 0.000000
# 2 0.000803 0.034925 0.008279 0.000000 0.012582 0.000000
# 3 -0.001112 0.008279 0.016285 0.000000 0.007386 0.000000
# 4 0.000000 0.000000 0.000000 -0.082117 0.000000 -0.040953
# 5 0.004947 0.012582 0.007386 0.000000 0.034252 0.000000
# 6 0.000000 0.000000 0.000000 -0.040953 0.000000 0.045607
#
#
# Mechanical properties :
#
#
# Convention : Reuss Voigt Hill
#
# Bulk Modulus (GPa) = 13.24929 29.33520 21.29224
# Shear Modulus (GPa) = 75.19181 25.34746 50.26963
#
# Velocity S-wave (km/s) = 5.83405 3.38729 4.77021
# Velocity P-wave (km/s) = 7.16791 5.34576 6.32282
#
# Compressibility (1/GPa) = 0.07547573
#
# Stress axis : x y z
#
# Youngs Moduli (GPa) = 120.10866 28.63259 61.40760
#
# Poissons Ratio (x) = -0.02298 0.06828
# Poissons Ratio (y) = -0.09639 -0.50842
# Poissons Ratio (z) = 0.13356 -0.23706
#
# Static dielectric constant tensor:
#      x y z
#    x 1.871910 0.000000 0.029920 
#    y 0.000000 1.790150 0.000000 
#    z 0.029920 0.000000 1.847910 
# 
# From -- ./inp_files/197080.got.cif
#   From: 2010.05.17/outbox.cif.g08.bks.cpg/sg12_99_cif.got.tgz:197080.got - 2010.06.03 13:09:07.
