data_PCOD9188859
_publ_section_title
;
Structure prediction by ZEFSAII (Michael W. Deem and Ramdas Pophale) SiO2 
 PCOD9188859
Probable space group: C 2/M
;
_chemical_formula_sum "Si O2"
_cell_formula_units_Z 48
_cell_length_a 19.807378
_cell_length_b 8.188770
_cell_length_c 25.007713
_cell_angle_alpha 90.000000
_cell_angle_beta 150.472498
_cell_angle_gamma 90.000000
_cell_volume 1999.064060
_symmetry_space_group_name_H-M "C 2/M"
_symmetry_group_IT_number 12
_symmetry_cell_setting 'monoclinic'
loop_
_space_group_symop_operation_xyz
x,y,z
-x,y,-z
-x,-y,-z
x,-y,z
1/2+x,1/2+y,z
1/2-x,1/2+y,-z
1/2-x,1/2-y,-z
1/2+x,1/2-y,z
loop_
_atom_site_type_symbol
_atom_site_label
_atom_site_fract_x
_atom_site_fract_y
_atom_site_fract_z
Si Si1 0.857204 0.190515 0.432377
Si Si2 0.460749 0.187786 0.611410
Si Si3 0.842350 0.691087 0.977415
Si Si4 0.596361 0.746567 0.205671
Si Si5 0.454474 0.815035 0.217130
Si Si6 0.747162 0.183189 0.201255
O O1 0.742215 0.311604 0.329956
O O2 0.000000 0.217140 0.500000
O O3 0.879621 0.213557 0.510736
O O4 0.817546 0.000000 0.393941
O O5 0.461616 0.248116 0.673473
O O6 0.621485 0.201337 0.705718
O O7 0.415572 0.000000 0.578709
O O8 0.880349 0.500000 0.014201
O O9 0.685801 0.717117 0.887192
O O10 0.838553 0.718986 0.911134
O O11 0.949305 0.808769 0.080690
O O12 0.540521 0.821112 0.222635
O O13 0.655962 0.816931 0.191059
O O14 0.413374 0.000000 0.203305
O O15 0.804426 0.000000 0.233638
#
# Coordination Sequence:
#
# PCOD9188859 Si02
#       6
#     8   8   8   8   8   8
#     4  11  22  38  63  89 114 150 198 247 289 338
#     4  10  22  40  58  83 120 159 192 234 294 348
#     4  10  21  37  61  90 120 152 191 243 293 343
#     4  12  22  37  62  91 118 152 199 244 290 343
#     4  10  22  40  61  84 120 161 191 232 292 355
#     4  10  19  36  62  89 115 150 197 245 289 339
#
# _framework density 24.011237000000001
#
# number of rings (size 3 to 8) (size 9 to 14) (size 15 to 20)
#    0.000    1.500    1.667    4.500    0.000    3.000 
#    0.000    3.333    0.000    4.000    0.000    0.000 
#    0.000    0.000    0.000    0.000    0.000    0.000 
#
# Total GULP energy -133701.684532 kJ/mol
# GULP energy per Si atom -5570.903522 kJ/mol
# Density = 2.395659 g / cm^3
# Si number density = 24.011237 Si / 1000 Ang^3
#
#
#
# Elastic Constant Matrix: (Units=GPa)
#
#
# Indices 1 2 3 4 5 6 
#
# 1 163.0036 15.6351 52.1491 -0.0017 -16.7598 0.0002
# 2 15.6351 50.6397 24.8360 -0.0104 -3.3381 0.0013
# 3 52.1491 24.8360 149.7705 0.0058 -22.4377 -0.0008
# 4 -0.0017 -0.0104 0.0058 4935.3455 0.0006 -668.4828
# 5 -16.7598 -3.3381 -22.4377 0.0006 40.1337 -0.0001
# 6 0.0002 0.0013 -0.0008 -668.4828 -0.0001 84.6479
#
#
#
# Elastic Compliance Matrix: (Units=1/GPa)
#
#
# Indices 1 2 3 4 5 6 
#
# 1 0.007063 -0.001075 -0.002022 0.000000 0.001730 0.000000
# 2 -0.001075 0.021661 -0.003291 0.000000 -0.000487 0.000000
# 3 -0.002022 -0.003291 0.008468 0.000000 0.003616 0.000000
# 4 0.000000 0.000000 0.000000 -0.002909 0.000000 -0.022970
# 5 0.001730 -0.000487 0.003616 0.000000 0.027620 0.000000
# 6 0.000000 0.000000 0.000000 -0.022970 0.000000 -0.169583
#
#
# Mechanical properties :
#
#
# Convention : Reuss Voigt Hill
#
# Bulk Modulus (GPa) = 40.95487 60.96157 50.95822
# Shear Modulus (GPa) = -57.62651 1030.07833 486.22591
#
# Velocity S-wave (km/s) = -4.90427 20.73475 14.24566
# Velocity P-wave (km/s) = 3.86984 24.46801 17.08373
#
# Compressibility (1/GPa) = 0.02441712
#
# Stress axis : x y z
#
# Youngs Moduli (GPa) = 141.59096 46.16588 118.08725
#
# Poissons Ratio (x) = 0.04963 0.23874
# Poissons Ratio (y) = 0.15221 0.38858
# Poissons Ratio (z) = 0.28626 0.15191
#
# Static dielectric constant tensor:
#      x y z
#    x 1.867190 0.000000 -0.017540 
#    y 0.000000 1.901420 0.000000 
#    z -0.017540 0.000000 1.918430 
# 
# From -- ./inp_files/365571.got.cif
#   From: 2010.05.17/outbox.cif.g08.bks.cpg/sg12_183_cif.got.tgz:365571.got - 2010.06.03 13:09:07.
