data_PCOD9188131
_publ_section_title
;
Structure prediction by ZEFSAII (Michael W. Deem and Ramdas Pophale) SiO2 
 PCOD9188131
Probable space group: C 2/M
;
_chemical_formula_sum "Si O2"
_cell_formula_units_Z 48
_cell_length_a 17.600032
_cell_length_b 18.989973
_cell_length_c 9.993229
_cell_angle_alpha 90.000000
_cell_angle_beta 49.241470
_cell_angle_gamma 90.000000
_cell_volume 2529.925994
_symmetry_space_group_name_H-M "C 2/M"
_symmetry_group_IT_number 12
_symmetry_cell_setting 'monoclinic'
loop_
_space_group_symop_operation_xyz
x,y,z
-x,y,-z
-x,-y,-z
x,-y,z
1/2+x,1/2+y,z
1/2-x,1/2+y,-z
1/2-x,1/2-y,-z
1/2+x,1/2-y,z
loop_
_atom_site_type_symbol
_atom_site_label
_atom_site_fract_x
_atom_site_fract_y
_atom_site_fract_z
Si Si1 0.000000 0.342599 0.000000
Si Si2 0.280057 0.635264 0.026161
Si Si3 0.887408 0.083370 0.647493
Si Si4 0.604479 0.222239 0.122280
Si Si5 0.500000 0.813342 0.500000
Si Si6 0.794601 0.584301 0.325234
Si Si7 0.671949 0.082446 0.405474
O O1 0.025752 0.296593 0.099723
O O2 0.899914 0.386303 0.149325
O O3 0.349260 0.594503 0.842337
O O4 0.331604 0.710476 0.994548
O O5 0.177728 0.655845 0.065596
O O6 0.251526 0.596204 0.195243
O O7 0.801606 0.112832 0.646145
O O8 0.000000 0.111103 0.500000
O O9 0.891798 0.000000 0.614521
O O10 0.553203 0.232392 0.325044
O O11 0.419612 0.865051 0.521834
O O12 0.797396 0.500000 0.304908
O O13 0.787919 0.598246 0.491913
O O14 0.641170 0.000000 0.437866
#
# Coordination Sequence:
#
# PCOD9188131 Si02
#       7
#     4   8   8   8   4   8   8
#     4  12  19  40  58  92 121 156 188 250 304 366
#     4  10  21  40  55  83 116 159 201 235 288 350
#     4  10  21  39  62  84 111 154 206 248 291 347
#     4  10  22  36  59  82 121 155 195 237 291 363
#     4  10  19  36  56  90 119 158 194 234 308 368
#     4  10  21  37  60  92 122 152 191 248 311 361
#     4  10  20  36  59  87 123 152 192 250 304 359
#
# _framework density 18.972888000000001
#
# number of rings (size 3 to 8) (size 9 to 14) (size 15 to 20)
#    0.000    1.833    3.333    1.000    1.167    0.000 
#    3.000    0.833    0.000    4.000    0.000    0.000 
#    0.000    0.000    0.000    0.000    0.000    0.000 
#
# Total GULP energy -133890.518823 kJ/mol
# GULP energy per Si atom -5578.771618 kJ/mol
# Density = 1.892971 g / cm^3
# Si number density = 18.972888 Si / 1000 Ang^3
#
#
#
# Elastic Constant Matrix: (Units=GPa)
#
#
# Indices 1 2 3 4 5 6 
#
# 1 118.5140 11.9799 50.1815 0.0000 -2.1962 0.0000
# 2 11.9799 21.2371 -4.3231 0.0000 2.5371 0.0000
# 3 50.1815 -4.3231 90.2261 0.0000 -1.9772 0.0000
# 4 0.0000 0.0000 0.0000 30.4646 0.0000 0.5472
# 5 -2.1962 2.5371 -1.9772 0.0000 29.4800 0.0000
# 6 0.0000 0.0000 0.0000 0.5472 0.0000 -12.3639
#
#
#
# Elastic Compliance Matrix: (Units=1/GPa)
#
#
# Indices 1 2 3 4 5 6 
#
# 1 0.012422 -0.008633 -0.007297 0.000000 0.001179 0.000000
# 2 -0.008633 0.054014 0.007285 0.000000 -0.004803 0.000000
# 3 -0.007297 0.007285 0.015488 0.000000 -0.000132 0.000000
# 4 0.000000 0.000000 0.000000 0.032799 0.000000 0.001452
# 5 0.001179 -0.004803 -0.000132 0.000000 0.034414 0.000000
# 6 0.000000 0.000000 0.000000 0.001452 0.000000 -0.080816
#
#
# Mechanical properties :
#
#
# Convention : Reuss Voigt Hill
#
# Bulk Modulus (GPa) = 15.47201 38.40596 26.93898
# Shear Modulus (GPa) = 46.66109 20.99206 33.82657
#
# Velocity S-wave (km/s) = 4.96457 3.32990 4.22701
# Velocity P-wave (km/s) = 6.40586 5.92206 6.16871
#
# Compressibility (1/GPa) = 0.06463285
#
# Stress axis : x y z
#
# Youngs Moduli (GPa) = 80.50286 18.51359 64.56782
#
# Poissons Ratio (x) = 0.15984 0.47112
# Poissons Ratio (y) = 0.69502 -0.47035
# Poissons Ratio (z) = 0.58740 -0.13486
#
# Static dielectric constant tensor:
#      x y z
#    x 1.661070 0.000000 -0.013870 
#    y 0.000000 1.648430 0.000000 
#    z -0.013870 0.000000 1.661040 
# 
# From -- ./inp_files/77316.got.cif
#   From: 2010.05.17/outbox.cif.g08.bks.cpg/sg12_39_cif.got.tgz:77316.got - 2010.06.03 13:09:07.
