data_PCOD9188637
_publ_section_title
;
Structure prediction by ZEFSAII (Michael W. Deem and Ramdas Pophale) SiO2 
 PCOD9188637
Probable space group: C 2/M
;
_chemical_formula_sum "Si O2"
_cell_formula_units_Z 48
_cell_length_a 14.952125
_cell_length_b 15.135776
_cell_length_c 14.185964
_cell_angle_alpha 90.000000
_cell_angle_beta 50.797198
_cell_angle_gamma 90.000000
_cell_volume 2487.824472
_symmetry_space_group_name_H-M "C 2/M"
_symmetry_group_IT_number 12
_symmetry_cell_setting 'monoclinic'
loop_
_space_group_symop_operation_xyz
x,y,z
-x,y,-z
-x,-y,-z
x,-y,z
1/2+x,1/2+y,z
1/2-x,1/2+y,-z
1/2-x,1/2-y,-z
1/2+x,1/2-y,z
loop_
_atom_site_type_symbol
_atom_site_label
_atom_site_fract_x
_atom_site_fract_y
_atom_site_fract_z
Si Si1 0.364614 0.101706 0.063796
Si Si2 0.909537 0.896242 0.482119
Si Si3 0.297779 0.603627 0.001335
Si Si4 0.766426 0.721659 0.784939
Si Si5 0.288246 0.225057 0.368902
Si Si6 0.523329 0.711801 0.245330
O O1 0.300172 0.184742 0.154331
O O2 0.328850 0.000000 0.113830
O O3 0.500000 0.108351 0.000000
O O4 0.319279 0.111250 0.984997
O O5 0.783439 0.864233 0.596662
O O6 0.000000 0.863200 0.500000
O O7 0.951773 0.858791 0.354252
O O8 0.914498 0.000000 0.475855
O O9 0.327154 0.500000 0.985741
O O10 0.284056 0.647070 0.112875
O O11 0.394771 0.661138 0.882522
O O12 0.756802 0.706739 0.680207
O O13 0.894758 0.737089 0.737049
O O14 0.250000 0.250000 0.500000
O O15 0.425766 0.224648 0.268147
#
# Coordination Sequence:
#
# PCOD9188637 Si02
#       6
#     8   8   8   8   8   8
#     4   9  19  34  57  87 119 150 191 243 298 356
#     4  10  19  36  60  89 117 145 188 251 307 352
#     4  10  22  39  58  89 123 163 204 244 299 358
#     4  11  22  36  60  86 125 159 197 246 301 356
#     4  10  23  38  58  85 113 156 203 241 294 354
#     4  10  20  38  61  85 119 159 195 246 297 359
#
# _framework density 19.293965
#
# number of rings (size 3 to 8) (size 9 to 14) (size 15 to 20)
#    0.000    2.000    1.667    2.500    4.667    1.333 
#    0.000    5.833    0.000    0.000    0.000    7.000 
#    0.000    0.000    0.000    0.000    0.000    0.000 
#
# Total GULP energy -133728.570929 kJ/mol
# GULP energy per Si atom -5572.023789 kJ/mol
# Density = 1.925005 g / cm^3
# Si number density = 19.293965 Si / 1000 Ang^3
#
#
#
# Elastic Constant Matrix: (Units=GPa)
#
#
# Indices 1 2 3 4 5 6 
#
# 1 109.0262 20.0570 49.2129 0.0000 -11.4402 0.0000
# 2 20.0570 32.4378 21.7611 0.0000 -7.0266 0.0000
# 3 49.2129 21.7611 83.6946 0.0000 12.8562 0.0000
# 4 0.0000 0.0000 0.0000 23.4950 0.0000 -4.4870
# 5 -11.4402 -7.0266 12.8562 0.0000 43.7594 0.0000
# 6 0.0000 0.0000 0.0000 -4.4870 0.0000 6.5315
#
#
#
# Elastic Compliance Matrix: (Units=1/GPa)
#
#
# Indices 1 2 3 4 5 6 
#
# 1 0.014049 -0.001478 -0.008801 0.000000 0.006021 0.000000
# 2 -0.001478 0.041467 -0.011390 0.000000 0.009618 0.000000
# 3 -0.008801 -0.011390 0.021698 0.000000 -0.010505 0.000000
# 4 0.000000 0.000000 0.000000 0.048990 0.000000 0.033655
# 5 0.006021 0.009618 -0.010505 0.000000 0.029057 0.000000
# 6 0.000000 0.000000 0.000000 0.033655 0.000000 0.176223
#
#
# Mechanical properties :
#
#
# Convention : Reuss Voigt Hill
#
# Bulk Modulus (GPa) = 29.52000 45.24672 37.38336
# Shear Modulus (GPa) = 12.94954 23.69902 18.32428
#
# Velocity S-wave (km/s) = 2.59351 3.50853 3.08513
# Velocity P-wave (km/s) = 4.92968 6.31785 5.66643
#
# Compressibility (1/GPa) = 0.03387534
#
# Stress axis : x y z
#
# Youngs Moduli (GPa) = 71.18166 24.11576 46.08616
#
# Poissons Ratio (x) = 0.03564 0.40562
# Poissons Ratio (y) = 0.10519 0.52492
# Poissons Ratio (z) = 0.62649 0.27468
#
# Static dielectric constant tensor:
#      x y z
#    x 1.752940 0.000000 0.028380 
#    y 0.000000 1.661550 0.000000 
#    z 0.028380 0.000000 1.703180 
# 
# From -- ./inp_files/143581.got.cif
#   From: 2010.05.17/outbox.cif.g08.bks.cpg/sg12_72_cif.got.tgz:143581.got - 2010.06.03 13:09:07.
