data_PCOD9188037
_publ_section_title
;
Structure prediction by ZEFSAII (Michael W. Deem and Ramdas Pophale) SiO2 
 PCOD9188037
Probable space group: C 2/M
;
_chemical_formula_sum "Si O2"
_cell_formula_units_Z 40
_cell_length_a 17.892151
_cell_length_b 21.718277
_cell_length_c 11.604603
_cell_angle_alpha 90.000000
_cell_angle_beta 28.928063
_cell_angle_gamma 90.000000
_cell_volume 2181.244163
_symmetry_space_group_name_H-M "C 2/M"
_symmetry_group_IT_number 12
_symmetry_cell_setting 'monoclinic'
loop_
_space_group_symop_operation_xyz
x,y,z
-x,y,-z
-x,-y,-z
x,-y,z
1/2+x,1/2+y,z
1/2-x,1/2+y,-z
1/2-x,1/2-y,-z
1/2+x,1/2-y,z
loop_
_atom_site_type_symbol
_atom_site_label
_atom_site_fract_x
_atom_site_fract_y
_atom_site_fract_z
Si Si1 0.153926 0.070544 0.713255
Si Si2 0.687825 0.678262 0.006712
Si Si3 0.319785 0.292747 0.730887
Si Si4 0.671134 0.307167 0.538175
Si Si5 0.170643 0.429352 0.296200
O O1 0.178298 0.127481 0.594423
O O2 0.291937 0.073044 0.619644
O O3 0.145452 0.000000 0.677339
O O4 0.000000 0.079313 0.000000
O O5 0.747745 0.682170 0.057243
O O6 0.513595 0.703579 0.229073
O O7 0.791790 0.720044 0.782968
O O8 0.702470 0.609516 0.942760
O O9 0.500000 0.308524 0.500000
O O10 0.263654 0.311959 0.680510
O O11 0.750000 0.250000 0.500000
O O12 0.178297 0.500000 0.248554
O O13 0.000000 0.405527 0.500000
#
# Coordination Sequence:
#
# PCOD9188037 Si02
#       5
#     8   8   8   8   8
#     4  10  20  36  57  80 111 148 184 230 283 329
#     4  10  19  36  54  73 112 145 180 231 284 330
#     4   9  20  34  50  76 104 143 180 225 280 335
#     4  11  22  33  54  83 111 141 192 235 278 334
#     4  10  20  34  57  84 107 142 190 231 273 332
#
# _framework density 18.338158
#
# number of rings (size 3 to 8) (size 9 to 14) (size 15 to 20)
#    0.000    2.000    2.000    1.800    0.000    3.200 
#    0.000    1.000    0.000    3.600    0.000    7.000 
#    0.000    0.000    0.000    0.000    0.000    0.200 
#
# Total GULP energy -111351.715172 kJ/mol
# GULP energy per Si atom -5567.585759 kJ/mol
# Density = 1.829642 g / cm^3
# Si number density = 18.338158 Si / 1000 Ang^3
#
#
#
# Elastic Constant Matrix: (Units=GPa)
#
#
# Indices 1 2 3 4 5 6 
#
# 1 117.4109 63.4493 31.5230 -0.0033 11.9219 0.0040
# 2 63.4493 123.7156 31.2150 -0.0011 24.6618 0.0013
# 3 31.5230 31.2150 31.7723 -0.0047 8.3628 0.0005
# 4 -0.0033 -0.0011 -0.0047 27.1416 0.0012 1.8143
# 5 11.9219 24.6618 8.3628 0.0012 27.1466 -0.0021
# 6 0.0040 0.0013 0.0005 1.8143 -0.0021 27.9853
#
#
#
# Elastic Compliance Matrix: (Units=1/GPa)
#
#
# Indices 1 2 3 4 5 6 
#
# 1 0.013406 -0.004907 -0.008818 0.000000 0.001287 -0.000001
# 2 -0.004907 0.013961 -0.006613 -0.000001 -0.008491 0.000000
# 3 -0.008818 -0.006613 0.048012 0.000007 -0.004911 0.000000
# 4 0.000000 -0.000001 0.000007 0.037004 -0.000003 -0.002399
# 5 0.001287 -0.008491 -0.004911 -0.000003 0.045498 0.000004
# 6 -0.000001 0.000000 0.000000 -0.002399 0.000004 0.035889
#
#
# Mechanical properties :
#
#
# Convention : Reuss Voigt Hill
#
# Bulk Modulus (GPa) = 28.81600 58.36370 43.58985
# Shear Modulus (GPa) = 20.32413 26.23547 23.27980
#
# Velocity S-wave (km/s) = 3.33272 3.78650 3.56683
# Velocity P-wave (km/s) = 5.52785 7.14228 6.38629
#
# Compressibility (1/GPa) = 0.03470294
#
# Stress axis : x y z
#
# Youngs Moduli (GPa) = 74.59510 71.63024 20.82798
#
# Poissons Ratio (x) = 0.35148 0.18367
# Poissons Ratio (y) = 0.36603 0.13773
# Poissons Ratio (z) = 0.65782 0.47366
#
# Static dielectric constant tensor:
#      x y z
#    x 1.683220 0.000000 -0.028300 
#    y 0.000000 1.661620 0.000000 
#    z -0.028300 0.000000 1.683670 
# 
# From -- ./inp_files/50398.got.cif
#   From: 2010.05.17/outbox.cif.g08.bks.cpg/sg12_26_cif.got.tgz:50398.got - 2010.06.03 13:09:07.
