data_PCOD9188438
_publ_section_title
;
Structure prediction by ZEFSAII (Michael W. Deem and Ramdas Pophale) SiO2 
 PCOD9188438
Probable space group: C 2/M
;
_chemical_formula_sum "Si O2"
_cell_formula_units_Z 56
_cell_length_a 22.365096
_cell_length_b 12.915077
_cell_length_c 25.771639
_cell_angle_alpha 90.000000
_cell_angle_beta 156.545509
_cell_angle_gamma 90.000000
_cell_volume 2962.888370
_symmetry_space_group_name_H-M "C 2/M"
_symmetry_group_IT_number 12
_symmetry_cell_setting 'monoclinic'
loop_
_space_group_symop_operation_xyz
x,y,z
-x,y,-z
-x,-y,-z
x,-y,z
1/2+x,1/2+y,z
1/2-x,1/2+y,-z
1/2-x,1/2-y,-z
1/2+x,1/2-y,z
loop_
_atom_site_type_symbol
_atom_site_label
_atom_site_fract_x
_atom_site_fract_y
_atom_site_fract_z
Si Si1 0.330654 0.752414 0.334930
Si Si2 0.290123 0.117193 0.677409
Si Si3 0.174542 0.380752 0.123774
Si Si4 0.877665 0.683403 0.032976
Si Si5 0.101562 0.878977 0.881724
Si Si6 0.124215 0.618379 0.540909
Si Si7 0.693141 0.715954 0.398543
O O1 0.327319 0.657572 0.373358
O O2 0.246134 0.702753 0.219471
O O3 0.270114 0.841083 0.327225
O O4 0.479036 0.807958 0.430840
O O5 0.457319 0.132525 0.833770
O O6 0.290130 0.185609 0.625978
O O7 0.261064 0.000000 0.641624
O O8 0.233792 0.500000 0.174861
O O9 0.186605 0.338225 0.075007
O O10 0.000000 0.386208 0.000000
O O11 0.895228 0.802701 0.065757
O O12 0.763340 0.632321 0.983013
O O13 0.974760 0.829776 0.742365
O O14 0.069520 0.000000 0.866667
O O15 0.084737 0.500000 0.516937
O O16 0.200949 0.633878 0.546682
O O17 0.750000 0.750000 0.500000
#
# Coordination Sequence:
#
# PCOD9188438 Si02
#       7
#     8   8   8   8   8   8   8
#     4  10  20  35  60  87 111 149 202 236 275 355
#     4  10  19  36  59  85 118 152 185 237 300 351
#     4  11  21  35  59  88 123 157 184 235 303 352
#     4  10  21  37  60  89 120 151 195 236 290 363
#     4  10  21  39  63  85 115 157 197 243 293 344
#     4  10  22  43  64  79 115 164 198 240 298 341
#     4  10  23  39  59  86 116 149 202 248 285 349
#
# _framework density 18.900476000000001
#
# number of rings (size 3 to 8) (size 9 to 14) (size 15 to 20)
#    0.000    1.857    1.429    3.000    2.000    1.143 
#    0.000   15.714    0.000    2.143    0.000    0.000 
#    0.000    0.000    0.000    0.000    0.000    0.000 
#
# Total GULP energy -155919.712459 kJ/mol
# GULP energy per Si atom -5568.561159 kJ/mol
# Density = 1.885746 g / cm^3
# Si number density = 18.900476 Si / 1000 Ang^3
#
#
#
# Elastic Constant Matrix: (Units=GPa)
#
#
# Indices 1 2 3 4 5 6 
#
# 1 80.3178 23.9392 34.6341 -0.0005 -8.4803 0.0001
# 2 23.9392 138.9453 49.3066 0.0002 -3.8110 -0.0003
# 3 34.6341 49.3066 73.5150 0.0005 -10.0550 -0.0006
# 4 -0.0005 0.0002 0.0005 17.9958 0.0007 6.3681
# 5 -8.4803 -3.8110 -10.0550 0.0007 38.9755 -0.0002
# 6 0.0001 -0.0003 -0.0006 6.3681 -0.0002 9.5511
#
#
#
# Elastic Compliance Matrix: (Units=1/GPa)
#
#
# Indices 1 2 3 4 5 6 
#
# 1 0.015719 -0.000149 -0.007090 0.000001 0.001576 -0.000001
# 2 -0.000149 0.009467 -0.006382 0.000000 -0.000753 0.000000
# 3 -0.007090 -0.006382 0.021692 -0.000002 0.003430 0.000002
# 4 0.000001 0.000000 -0.000002 0.072728 -0.000002 -0.048491
# 5 0.001576 -0.000753 0.003430 -0.000002 0.026811 0.000002
# 6 -0.000001 0.000000 0.000002 -0.048491 0.000002 0.137031
#
#
# Mechanical properties :
#
#
# Convention : Reuss Voigt Hill
#
# Bulk Modulus (GPa) = 50.92719 56.50421 53.71570
# Shear Modulus (GPa) = 15.76118 25.63103 20.69611
#
# Velocity S-wave (km/s) = 2.89087 3.68653 3.31268
# Velocity P-wave (km/s) = 6.17627 6.93406 6.56611
#
# Compressibility (1/GPa) = 0.01963587
#
# Stress axis : x y z
#
# Youngs Moduli (GPa) = 63.61900 105.63076 46.09903
#
# Poissons Ratio (x) = 0.01575 0.32683
# Poissons Ratio (y) = 0.00948 0.29422
# Poissons Ratio (z) = 0.45104 0.67417
#
# Static dielectric constant tensor:
#      x y z
#    x 1.675710 0.000000 0.014710 
#    y 0.000000 1.667600 0.000000 
#    z 0.014710 0.000000 1.706620 
# 
# From -- ./inp_files/347043.got.cif
#   From: 2010.05.17/outbox.cif.g08.bks.cpg/sg12_174_cif.got.tgz:347043.got - 2010.06.03 13:09:07.
