data_PCOD9188353
_publ_section_title
;
Structure prediction by ZEFSAII (Michael W. Deem and Ramdas Pophale) SiO2 
 PCOD9188353
Probable space group: C 2/M
;
_chemical_formula_sum "Si O2"
_cell_formula_units_Z 56
_cell_length_a 14.817460
_cell_length_b 8.434951
_cell_length_c 28.425372
_cell_angle_alpha 90.000000
_cell_angle_beta 120.518400
_cell_angle_gamma 90.000000
_cell_volume 3060.558528
_symmetry_space_group_name_H-M "C 2/M"
_symmetry_group_IT_number 12
_symmetry_cell_setting 'monoclinic'
loop_
_space_group_symop_operation_xyz
x,y,z
-x,y,-z
-x,-y,-z
x,-y,z
1/2+x,1/2+y,z
1/2-x,1/2+y,-z
1/2-x,1/2-y,-z
1/2+x,1/2-y,z
loop_
_atom_site_type_symbol
_atom_site_label
_atom_site_fract_x
_atom_site_fract_y
_atom_site_fract_z
Si Si1 0.038461 0.810193 0.646626
Si Si2 0.389119 0.688726 0.145710
Si Si3 0.839959 0.307634 0.936955
Si Si4 0.945868 0.691928 0.058785
Si Si5 0.753215 0.193061 0.351867
Si Si6 0.479932 0.810906 0.732333
Si Si7 0.810942 0.689705 0.561523
O O1 0.143149 0.751564 0.647829
O O2 0.033553 0.760250 0.699927
O O3 0.930998 0.747247 0.595329
O O4 0.037310 0.000000 0.643717
O O5 0.389216 0.500000 0.152798
O O6 0.268896 0.748302 0.113343
O O7 0.429709 0.729654 0.104539
O O8 0.458909 0.764435 0.204715
O O9 0.836394 0.500000 0.937569
O O10 0.940674 0.266833 0.932579
O O11 0.862793 0.256617 0.996666
O O12 0.940304 0.500000 0.061951
O O13 0.642169 0.241624 0.299486
O O14 0.744405 0.242204 0.404223
O O15 0.756090 0.000000 0.351831
O O16 0.479648 0.000000 0.726812
O O17 0.811290 0.500000 0.561608
O O18 0.750000 0.750000 0.500000
#
# Coordination Sequence:
#
# PCOD9188353 Si02
#       7
#     8   8   8   8   8   8   8
#     4  10  19  36  59  80 101 135 176 218 261 303
#     4  11  21  33  50  77 105 131 165 214 264 306
#     4   8  17  33  53  73  99 133 170 206 255 318
#     4   9  17  34  55  73  95 133 174 208 250 314
#     4   8  18  36  57  75 101 140 177 208 255 312
#     4  10  21  38  54  74 103 138 175 213 254 310
#     4  10  20  36  55  82 115 146 177 213 252 301
#
# _framework density 18.297312000000002
#
# number of rings (size 3 to 8) (size 9 to 14) (size 15 to 20)
#    0.000    2.571    0.000    3.857    0.000    1.714 
#    0.000   20.714    0.000    0.000    0.000    0.000 
#    0.000    0.000    0.000    0.000    0.000    0.000 
#
# Total GULP energy -156188.219802 kJ/mol
# GULP energy per Si atom -5578.150707 kJ/mol
# Density = 1.825567 g / cm^3
# Si number density = 18.297312 Si / 1000 Ang^3
#
#
#
# Elastic Constant Matrix: (Units=GPa)
#
#
# Indices 1 2 3 4 5 6 
#
# 1 242.2359 36.5748 220.5985 0.0000 -29.7764 0.0000
# 2 36.5748 35.2174 44.7827 0.0000 -5.3315 0.0000
# 3 220.5985 44.7827 369.8561 0.0000 -43.1596 0.0000
# 4 0.0000 0.0000 0.0000 30.9874 0.0000 -5.8609
# 5 -29.7764 -5.3315 -43.1596 0.0000 24.0754 0.0000
# 6 0.0000 0.0000 0.0000 -5.8609 0.0000 21.4388
#
#
#
# Elastic Compliance Matrix: (Units=1/GPa)
#
#
# Indices 1 2 3 4 5 6 
#
# 1 0.009385 -0.003100 -0.004992 0.000000 0.001971 0.000000
# 2 -0.003100 0.034587 -0.002393 0.000000 -0.000465 0.000000
# 3 -0.004992 -0.002393 0.006561 0.000000 0.005058 0.000000
# 4 0.000000 0.000000 0.000000 0.034031 0.000000 0.009303
# 5 0.001971 -0.000465 0.005058 0.000000 0.052939 0.000000
# 6 0.000000 0.000000 0.000000 0.009303 0.000000 0.049188
#
#
# Mechanical properties :
#
#
# Convention : Reuss Voigt Hill
#
# Bulk Modulus (GPa) = 33.82626 139.02458 86.42542
# Shear Modulus (GPa) = 22.98682 38.32387 30.65534
#
# Velocity S-wave (km/s) = 3.54827 4.58154 4.09761
# Velocity P-wave (km/s) = 5.94257 10.20457 8.35007
#
# Compressibility (1/GPa) = 0.02956283
#
# Stress axis : x y z
#
# Youngs Moduli (GPa) = 106.55532 28.91228 152.40947
#
# Poissons Ratio (x) = 0.08963 0.76084
# Poissons Ratio (y) = 0.33033 0.36473
# Poissons Ratio (z) = 0.53194 0.06919
#
# Static dielectric constant tensor:
#      x y z
#    x 1.635000 0.000000 0.013870 
#    y 0.000000 1.635400 0.000000 
#    z 0.013870 0.000000 1.604650 
# 
# From -- ./inp_files/360040.got.cif
#   From: 2010.05.17/outbox.cif.g08.bks.cpg/sg12_181_cif.got.tgz:360040.got - 2010.06.03 13:09:07.
