data_PCOD9188330
_publ_section_title
;
Structure prediction by ZEFSAII (Michael W. Deem and Ramdas Pophale) SiO2 
 PCOD9188330
Probable space group: C 2/M
;
_chemical_formula_sum "Si O2"
_cell_formula_units_Z 64
_cell_length_a 9.181113
_cell_length_b 26.241202
_cell_length_c 15.028644
_cell_angle_alpha 90.000000
_cell_angle_beta 116.329102
_cell_angle_gamma 90.000000
_cell_volume 3245.140335
_symmetry_space_group_name_H-M "C 2/M"
_symmetry_group_IT_number 12
_symmetry_cell_setting 'monoclinic'
loop_
_space_group_symop_operation_xyz
x,y,z
-x,y,-z
-x,-y,-z
x,-y,z
1/2+x,1/2+y,z
1/2-x,1/2+y,-z
1/2-x,1/2-y,-z
1/2+x,1/2-y,z
loop_
_atom_site_type_symbol
_atom_site_label
_atom_site_fract_x
_atom_site_fract_y
_atom_site_fract_z
Si Si1 0.594117 0.102030 0.191944
Si Si2 0.266762 0.939362 0.065458
Si Si3 0.800100 0.899466 0.757951
Si Si4 0.545716 0.059979 0.373753
Si Si5 0.373623 0.557171 0.161424
Si Si6 0.830255 0.129835 0.492258
Si Si7 0.930926 0.193213 0.693776
Si Si8 0.780240 0.301119 0.703595
O O1 0.447427 0.080708 0.093503
O O2 0.590830 0.069138 0.281824
O O3 0.764627 0.093688 0.190520
O O4 0.586744 0.161528 0.215314
O O5 0.222091 0.910171 0.143427
O O6 0.268155 0.000000 0.084839
O O7 0.152181 0.931121 0.949893
O O8 0.627306 0.911196 0.665881
O O9 0.878787 0.844911 0.758608
O O10 0.939028 0.938131 0.763242
O O11 0.690295 0.087766 0.465629
O O12 0.530615 0.000000 0.388228
O O13 0.312423 0.500000 0.158712
O O14 0.863218 0.163075 0.588758
O O15 0.771946 0.168282 0.399162
O O16 0.000000 0.107469 0.500000
O O17 0.847756 0.246941 0.692041
O O18 0.120894 0.202436 0.723118
#
# Coordination Sequence:
#
# PCOD9188330 Si02
#       8
#     8   8   8   8   8   8   8   8
#     4  10  19  36  58  90 119 150 196 243 286 349
#     4  10  21  36  59  89 120 160 196 234 289 344
#     4  11  22  37  56  86 125 152 198 239 291 348
#     4  10  21  38  59  85 125 166 192 228 292 352
#     4  11  20  35  60  89 120 154 196 241 286 346
#     4   9  21  41  61  90 120 147 198 246 289 345
#     4  11  23  40  62  88 111 156 196 246 301 344
#     4  10  22  39  63  87 115 149 195 246 300 349
#
# _framework density 19.721798
#
# number of rings (size 3 to 8) (size 9 to 14) (size 15 to 20)
#    0.000    1.750    1.250    4.125    5.250    2.750 
#    0.000    2.500    0.000    4.500    0.000    0.000 
#    0.000    0.000    0.000    0.000    0.000    0.000 
#
# Total GULP energy -178601.624510 kJ/mol
# GULP energy per Si atom -5581.300766 kJ/mol
# Density = 1.967691 g / cm^3
# Si number density = 19.721798 Si / 1000 Ang^3
#
#
#
# Elastic Constant Matrix: (Units=GPa)
#
#
# Indices 1 2 3 4 5 6 
#
# 1 93.9238 23.2908 17.6239 0.0000 -0.9870 0.0000
# 2 23.2908 59.0567 10.6957 0.0000 0.7502 0.0000
# 3 17.6239 10.6957 36.7469 0.0000 0.3198 0.0000
# 4 0.0000 0.0000 0.0000 15.2236 0.0000 -2.8332
# 5 -0.9870 0.7502 0.3198 0.0000 27.5728 0.0000
# 6 0.0000 0.0000 0.0000 -2.8332 0.0000 34.3371
#
#
#
# Elastic Compliance Matrix: (Units=1/GPa)
#
#
# Indices 1 2 3 4 5 6 
#
# 1 0.012577 -0.004090 -0.004847 0.000000 0.000618 0.000000
# 2 -0.004090 0.019210 -0.003624 0.000000 -0.000627 0.000000
# 3 -0.004847 -0.003624 0.030596 0.000000 -0.000430 0.000000
# 4 0.000000 0.000000 0.000000 0.066712 0.000000 0.005504
# 5 0.000618 -0.000627 -0.000430 0.000000 0.036312 0.000000
# 6 0.000000 0.000000 0.000000 0.005504 0.000000 0.029577
#
#
# Mechanical properties :
#
#
# Convention : Reuss Voigt Hill
#
# Bulk Modulus (GPa) = 26.83764 32.54978 29.69371
# Shear Modulus (GPa) = 21.50280 24.63451 23.06865
#
# Velocity S-wave (km/s) = 3.30556 3.53810 3.42380
# Velocity P-wave (km/s) = 5.31099 5.76464 5.54246
#
# Compressibility (1/GPa) = 0.03726110
#
# Stress axis : x y z
#
# Youngs Moduli (GPa) = 79.50917 52.05529 32.68357
#
# Poissons Ratio (x) = 0.21292 0.15841
# Poissons Ratio (y) = 0.32521 0.11846
# Poissons Ratio (z) = 0.38537 0.18866
#
# Static dielectric constant tensor:
#      x y z
#    x 1.736040 0.000000 0.008110 
#    y 0.000000 1.664790 0.000000 
#    z 0.008110 0.000000 1.714570 
# 
# From -- ./inp_files/199888.got.cif
#   From: 2010.05.17/outbox.cif.g08.bks.cpg/sg12_100_cif.got.tgz:199888.got - 2010.06.03 13:09:07.
