data_PCOD9188901
_publ_section_title
;
Structure prediction by ZEFSAII (Michael W. Deem and Ramdas Pophale) SiO2 
 PCOD9188901
Probable space group: C 2/M
;
_chemical_formula_sum "Si O2"
_cell_formula_units_Z 56
_cell_length_a 11.435996
_cell_length_b 21.680424
_cell_length_c 11.270296
_cell_angle_alpha 90.000000
_cell_angle_beta 109.957119
_cell_angle_gamma 90.000000
_cell_volume 2626.522160
_symmetry_space_group_name_H-M "C 2/M"
_symmetry_group_IT_number 12
_symmetry_cell_setting 'monoclinic'
loop_
_space_group_symop_operation_xyz
x,y,z
-x,y,-z
-x,-y,-z
x,-y,z
1/2+x,1/2+y,z
1/2-x,1/2+y,-z
1/2-x,1/2-y,-z
1/2+x,1/2-y,z
loop_
_atom_site_type_symbol
_atom_site_label
_atom_site_fract_x
_atom_site_fract_y
_atom_site_fract_z
Si Si1 0.167171 0.128500 0.260166
Si Si2 0.137693 0.429187 0.494935
Si Si3 0.848480 0.245835 0.919820
Si Si4 0.231166 0.378389 0.161332
Si Si5 0.250460 0.570792 0.929191
Si Si6 0.524950 0.927938 0.217086
Si Si7 0.966690 0.928407 0.350838
O O1 0.279382 0.112455 0.389861
O O2 0.174747 0.189879 0.181537
O O3 0.166980 0.076429 0.158120
O O4 0.047708 0.118355 0.300401
O O5 0.191008 0.500000 0.506932
O O6 0.106770 0.402431 0.354272
O O7 0.000000 0.434643 0.500000
O O8 0.813478 0.309035 0.840822
O O9 0.750000 0.250000 0.000000
O O10 0.000000 0.245422 0.000000
O O11 0.105929 0.418329 0.128530
O O12 0.326576 0.406859 0.285932
O O13 0.293075 0.389249 0.054614
O O14 0.240577 0.500000 0.963162
O O15 0.114085 0.596207 0.844554
O O16 0.510544 0.000000 0.239750
O O17 0.000000 0.924908 0.500000
O O18 0.982031 0.000000 0.318380
#
# Coordination Sequence:
#
# PCOD9188901 Si02
#       7
#     8   8   8   8   8   8   8
#     4  12  24  41  67 100 136 186 240 288 352 439
#     4  10  19  36  62  94 133 172 215 278 355 419
#     4  12  27  49  71  98 143 197 247 298 364 432
#     4  12  24  42  66  94 133 185 240 287 350 425
#     4  11  21  35  63 102 135 166 223 297 355 418
#     4  10  20  36  61  96 134 170 214 281 359 417
#     4  11  25  47  72 102 146 192 234 295 374 441
#
# _framework density 21.320969000000002
#
# number of rings (size 3 to 8) (size 9 to 14) (size 15 to 20)
#    0.000    0.857    2.857    5.571    0.000    3.429 
#    0.000    5.000    0.000    0.000    0.000    0.000 
#    0.000    0.000    0.000    0.000    0.000    0.000 
#
# Total GULP energy -156175.422005 kJ/mol
# GULP energy per Si atom -5577.693643 kJ/mol
# Density = 2.127244 g / cm^3
# Si number density = 21.320969 Si / 1000 Ang^3
#
#
#
# Elastic Constant Matrix: (Units=GPa)
#
#
# Indices 1 2 3 4 5 6 
#
# 1 90.3796 11.2634 19.7109 0.0000 -6.5361 0.0000
# 2 11.2634 92.5361 48.4959 0.0000 12.0316 0.0000
# 3 19.7109 48.4959 100.8438 0.0000 15.7795 0.0000
# 4 0.0000 0.0000 0.0000 83.7598 0.0000 -20.4551
# 5 -6.5361 12.0316 15.7795 0.0000 33.8960 0.0000
# 6 0.0000 0.0000 0.0000 -20.4551 0.0000 25.6261
#
#
#
# Elastic Compliance Matrix: (Units=1/GPa)
#
#
# Indices 1 2 3 4 5 6 
#
# 1 0.011985 -0.000549 -0.002665 0.000000 0.003747 0.000000
# 2 -0.000549 0.014605 -0.006567 0.000000 -0.002233 0.000000
# 3 -0.002665 -0.006567 0.014357 0.000000 -0.004866 0.000000
# 4 0.000000 0.000000 0.000000 0.014830 0.000000 0.011837
# 5 0.003747 -0.002233 -0.004866 0.000000 0.033283 0.000000
# 6 0.000000 0.000000 0.000000 0.011837 0.000000 0.048471
#
#
# Mechanical properties :
#
#
# Convention : Reuss Voigt Hill
#
# Bulk Modulus (GPa) = 46.76162 49.18887 47.97524
# Shear Modulus (GPa) = 30.44678 42.27566 36.36122
#
# Velocity S-wave (km/s) = 3.78302 4.45772 4.13415
# Velocity P-wave (km/s) = 6.40792 7.04384 6.73339
#
# Compressibility (1/GPa) = 0.02138506
#
# Stress axis : x y z
#
# Youngs Moduli (GPa) = 83.43771 68.46796 69.65433
#
# Poissons Ratio (x) = 0.03762 0.18560
# Poissons Ratio (y) = 0.04585 0.45741
# Poissons Ratio (z) = 0.22233 0.44962
#
# Static dielectric constant tensor:
#      x y z
#    x 1.839520 0.000000 -0.026210 
#    y 0.000000 1.775310 0.000000 
#    z -0.026210 0.000000 1.827470 
# 
# From -- ./inp_files/133998.got.cif
#   From: 2010.05.17/outbox.cif.g08.bks.cpg/sg12_67_cif.got.tgz:133998.got - 2010.06.03 13:09:07.
