data_PCOD9188550
_publ_section_title
;
Structure prediction by ZEFSAII (Michael W. Deem and Ramdas Pophale) SiO2 
 PCOD9188550
Probable space group: C 2/M
;
_chemical_formula_sum "Si O2"
_cell_formula_units_Z 56
_cell_length_a 25.766440
_cell_length_b 7.663090
_cell_length_c 17.475700
_cell_angle_alpha 90.000000
_cell_angle_beta 133.915438
_cell_angle_gamma 90.000000
_cell_volume 2485.679204
_symmetry_space_group_name_H-M "C 2/M"
_symmetry_group_IT_number 12
_symmetry_cell_setting 'monoclinic'
loop_
_space_group_symop_operation_xyz
x,y,z
-x,y,-z
-x,-y,-z
x,-y,z
1/2+x,1/2+y,z
1/2-x,1/2+y,-z
1/2-x,1/2-y,-z
1/2+x,1/2-y,z
loop_
_atom_site_type_symbol
_atom_site_label
_atom_site_fract_x
_atom_site_fract_y
_atom_site_fract_z
Si Si1 0.603809 0.295411 0.802430
Si Si2 0.057592 0.704353 0.335109
Si Si3 0.322408 0.712293 0.972681
Si Si4 0.340133 0.711855 0.701004
Si Si5 0.419942 0.287615 0.935232
Si Si6 0.683339 0.203331 0.565814
Si Si7 0.677754 0.297344 0.734535
O O1 0.621906 0.500000 0.814842
O O2 0.521723 0.283963 0.745827
O O3 0.617599 0.223905 0.731434
O O4 0.657561 0.222918 0.922255
O O5 0.044866 0.500000 0.335297
O O6 0.103193 0.728378 0.304288
O O7 0.110702 0.778533 0.455075
O O8 0.318368 0.500000 0.969551
O O9 0.387872 0.764319 0.983610
O O10 0.250605 0.778920 0.858653
O O11 0.339264 0.500000 0.698193
O O12 0.367841 0.765684 0.813054
O O13 0.258178 0.777289 0.609009
O O14 0.421698 0.500000 0.936837
O O15 0.500000 0.224871 0.000000
O O16 0.684766 0.211148 0.659008
O O17 0.682981 0.000000 0.542808
O O18 0.663879 0.500000 0.703124
#
# Coordination Sequence:
#
# PCOD9188550 Si02
#       7
#     8   8   8   8   8   8   8
#     4  10  23  41  61  86 118 160 200 236 293 359
#     4  11  24  39  59  88 119 152 197 252 299 342
#     4  10  19  37  62  85 116 158 199 235 282 357
#     4  10  19  36  60  84 116 155 195 237 287 359
#     4   9  16  28  53  85 112 148 193 228 269 340
#     4  10  22  41  62  85 115 159 204 236 290 362
#     4  11  23  38  60  91 121 151 195 250 298 341
#
# _framework density 22.529052
#
# number of rings (size 3 to 8) (size 9 to 14) (size 15 to 20)
#    0.000    1.857    1.429    2.571    0.000    6.286 
#    0.000    2.857    0.000    1.714    0.000    0.000 
#    0.000    0.000    0.000    0.000    0.000    0.000 
#
# Total GULP energy -156450.828553 kJ/mol
# GULP energy per Si atom -5587.529591 kJ/mol
# Density = 2.247778 g / cm^3
# Si number density = 22.529052 Si / 1000 Ang^3
#
#
#
# Elastic Constant Matrix: (Units=GPa)
#
#
# Indices 1 2 3 4 5 6 
#
# 1 97.9942 -12.5470 4.6003 0.0000 -11.0142 0.0000
# 2 -12.5470 42.4592 -11.1965 0.0000 2.2551 0.0000
# 3 4.6003 -11.1965 52.9292 0.0000 5.1983 0.0000
# 4 0.0000 0.0000 0.0000 7.3275 0.0000 -1.5853
# 5 -11.0142 2.2551 5.1983 0.0000 20.8854 0.0000
# 6 0.0000 0.0000 0.0000 -1.5853 0.0000 16.3473
#
#
#
# Elastic Compliance Matrix: (Units=1/GPa)
#
#
# Indices 1 2 3 4 5 6 
#
# 1 0.011265 0.002760 -0.000973 0.000000 0.005885 0.000000
# 2 0.002760 0.025968 0.005521 0.000000 -0.002723 0.000000
# 3 -0.000973 0.005521 0.020762 0.000000 -0.006277 0.000000
# 4 0.000000 0.000000 0.000000 0.139397 0.000000 0.013518
# 5 0.005885 -0.002723 -0.006277 0.000000 0.052840 0.000000
# 6 0.000000 0.000000 0.000000 0.013518 0.000000 0.062483
#
#
# Mechanical properties :
#
#
# Convention : Reuss Voigt Hill
#
# Bulk Modulus (GPa) = 13.77231 17.23291 15.50261
# Shear Modulus (GPa) = 15.51326 23.08041 19.29683
#
# Velocity S-wave (km/s) = 2.62694 3.20421 2.92983
# Velocity P-wave (km/s) = 3.91504 4.62116 4.28268
#
# Compressibility (1/GPa) = 0.07260946
#
# Stress axis : x y z
#
# Youngs Moduli (GPa) = 88.76892 38.50903 48.16470
#
# Poissons Ratio (x) = -0.10627 0.04688
# Poissons Ratio (y) = -0.24498 -0.26590
# Poissons Ratio (z) = 0.08640 -0.21260
#
# Static dielectric constant tensor:
#      x y z
#    x 1.834860 0.000000 0.006920 
#    y 0.000000 1.829350 0.000000 
#    z 0.006920 0.000000 1.825290 
# 
# From -- ./inp_files/288454.got.cif
#   From: 2010.05.17/outbox.cif.g08.bks.cpg/sg12_145_cif.got.tgz:288454.got - 2010.06.03 13:09:07.
