data_PCOD9188232
_publ_section_title
;
Structure prediction by ZEFSAII (Michael W. Deem and Ramdas Pophale) SiO2 
 PCOD9188232
Probable space group: C 2/M
;
_chemical_formula_sum "Si O2"
_cell_formula_units_Z 64
_cell_length_a 15.210042
_cell_length_b 7.829291
_cell_length_c 30.838261
_cell_angle_alpha 90.000000
_cell_angle_beta 59.384093
_cell_angle_gamma 90.000000
_cell_volume 3160.417134
_symmetry_space_group_name_H-M "C 2/M"
_symmetry_group_IT_number 12
_symmetry_cell_setting 'monoclinic'
loop_
_space_group_symop_operation_xyz
x,y,z
-x,y,-z
-x,-y,-z
x,-y,z
1/2+x,1/2+y,z
1/2-x,1/2+y,-z
1/2-x,1/2-y,-z
1/2+x,1/2-y,z
loop_
_atom_site_type_symbol
_atom_site_label
_atom_site_fract_x
_atom_site_fract_y
_atom_site_fract_z
Si Si1 0.406485 0.800060 0.994748
Si Si2 0.919209 0.200561 0.814204
Si Si3 0.060904 0.300108 0.443994
Si Si4 0.315709 0.800188 0.928262
Si Si5 0.672206 0.793521 0.251852
Si Si6 0.501446 0.790557 0.363983
Si Si7 0.354992 0.707124 0.266707
Si Si8 0.288037 0.200893 0.379925
O O1 0.296315 0.784023 0.045685
O O2 0.431471 0.000000 0.982212
O O3 0.500000 0.726781 0.000000
O O4 0.381339 0.730006 0.952706
O O5 0.875421 0.282121 0.868550
O O6 0.845813 0.226226 0.791588
O O7 0.030499 0.267347 0.771729
O O8 0.930266 0.000000 0.820295
O O9 0.032262 0.500000 0.448894
O O10 0.182101 0.286709 0.419125
O O11 0.000000 0.224350 0.500000
O O12 0.033979 0.228696 0.403289
O O13 0.296683 0.000000 0.941859
O O14 0.580869 0.736159 0.306856
O O15 0.777804 0.742908 0.247932
O O16 0.669318 0.000000 0.250706
O O17 0.387513 0.735970 0.380500
O O18 0.504269 0.000000 0.362818
O O19 0.355219 0.500000 0.269508
O O20 0.312496 0.772109 0.323073
O O21 0.276711 0.000000 0.391040
#
# Coordination Sequence:
#
# PCOD9188232 Si02
#       8
#     8   8   8   8   8   8   8   8
#     4   9  19  38  63  88 116 151 193 239 284 327
#     4  11  23  37  55  84 119 148 188 240 280 326
#     4  10  21  39  60  80 107 146 187 226 275 337
#     4  10  21  37  58  85 118 156 192 231 283 338
#     4  10  19  36  58  78 108 147 185 227 278 337
#     4   9  18  34  56  80 108 142 178 222 277 334
#     4  10  21  37  57  80 109 147 189 227 273 335
#     4  11  21  34  56  82 110 141 178 227 280 331
#
# _framework density 20.250492000000001
#
# number of rings (size 3 to 8) (size 9 to 14) (size 15 to 20)
#    0.000    2.000    2.500    1.125    0.000    3.500 
#    0.000    3.750    0.000    0.000    0.000    0.000 
#    0.000    0.000    0.000    0.000    0.000    0.000 
#
# Total GULP energy -178660.531472 kJ/mol
# GULP energy per Si atom -5583.141609 kJ/mol
# Density = 2.020440 g / cm^3
# Si number density = 20.250492 Si / 1000 Ang^3
#
#
#
# Elastic Constant Matrix: (Units=GPa)
#
#
# Indices 1 2 3 4 5 6 
#
# 1 88.3678 5.8816 -11.5716 0.0002 6.0571 0.0001
# 2 5.8816 19.3520 4.3436 0.0003 6.0161 0.0001
# 3 -11.5716 4.3436 64.2417 0.0002 4.4992 0.0001
# 4 0.0002 0.0003 0.0002 4.6097 0.0001 -9.3049
# 5 6.0571 6.0161 4.4992 0.0001 19.4722 0.0001
# 6 0.0001 0.0001 0.0001 -9.3049 0.0001 15.7142
#
#
#
# Elastic Compliance Matrix: (Units=1/GPa)
#
#
# Indices 1 2 3 4 5 6 
#
# 1 0.012107 -0.003221 0.002635 0.000003 -0.003380 0.000002
# 2 -0.003221 0.058476 -0.003394 0.000017 -0.016281 0.000010
# 3 0.002635 -0.003394 0.016522 0.000004 -0.003589 0.000002
# 4 0.000003 0.000017 0.000004 -1.111030 0.000001 -0.657880
# 5 -0.003380 -0.016281 -0.003589 0.000001 0.058266 0.000001
# 6 0.000002 0.000010 0.000002 -0.657880 0.000001 -0.325918
#
#
# Mechanical properties :
#
#
# Convention : Reuss Voigt Hill
#
# Bulk Modulus (GPa) = 12.63462 18.80763 15.72113
# Shear Modulus (GPa) = -3.97698 19.51309 7.76806
#
# Velocity S-wave (km/s) = -1.40291 3.10754 1.96069
# Velocity P-wave (km/s) = 1.90486 4.70992 3.59248
#
# Compressibility (1/GPa) = 0.07914759
#
# Stress axis : x y z
#
# Youngs Moduli (GPa) = 82.59360 17.10105 60.52649
#
# Poissons Ratio (x) = 0.05507 -0.15951
# Poissons Ratio (y) = 0.26599 0.20540
# Poissons Ratio (z) = -0.21766 0.05803
#
# Static dielectric constant tensor:
#      x y z
#    x 1.716690 0.000000 0.009770 
#    y 0.000000 1.746810 0.000000 
#    z 0.009770 0.000000 1.682120 
# 
# From -- ./inp_files/374996.got.cif
#   From: 2010.05.17/outbox.cif.g08.bks.cpg/sg12_188_cif.got.tgz:374996.got - 2010.06.03 13:09:07.
