data_PCOD9188585
_publ_section_title
;
Structure prediction by ZEFSAII (Michael W. Deem and Ramdas Pophale) SiO2 
 PCOD9188585
Probable space group: C 2/M
;
_chemical_formula_sum "Si O2"
_cell_formula_units_Z 64
_cell_length_a 29.600387
_cell_length_b 7.976473
_cell_length_c 19.648571
_cell_angle_alpha 90.000000
_cell_angle_beta 139.284128
_cell_angle_gamma 90.000000
_cell_volume 3026.162378
_symmetry_space_group_name_H-M "C 2/M"
_symmetry_group_IT_number 12
_symmetry_cell_setting 'monoclinic'
loop_
_space_group_symop_operation_xyz
x,y,z
-x,y,-z
-x,-y,-z
x,-y,z
1/2+x,1/2+y,z
1/2-x,1/2+y,-z
1/2-x,1/2-y,-z
1/2+x,1/2-y,z
loop_
_atom_site_type_symbol
_atom_site_label
_atom_site_fract_x
_atom_site_fract_y
_atom_site_fract_z
Si Si1 0.574851 0.696428 0.611617
Si Si2 0.423960 0.806126 0.835627
Si Si3 0.857867 0.299902 0.894965
Si Si4 0.321017 0.690744 0.614716
Si Si5 0.952552 0.294593 0.120633
Si Si6 0.293215 0.196139 0.322148
Si Si7 0.378068 0.797970 0.544330
Si Si8 0.035148 0.701112 0.709491
O O1 0.500000 0.763486 0.500000
O O2 0.577416 0.500000 0.597121
O O3 0.641016 0.779451 0.651971
O O4 0.576935 0.719569 0.695328
O O5 0.406802 0.730939 0.889823
O O6 0.352172 0.795656 0.711872
O O7 0.482687 0.735623 0.852272
O O8 0.443532 0.000000 0.868317
O O9 0.867105 0.500000 0.904001
O O10 0.777933 0.267349 0.787695
O O11 0.885525 0.244968 0.000030
O O12 0.314559 0.500000 0.630164
O O13 0.250000 0.750000 0.500000
O O14 0.372932 0.710762 0.610811
O O15 0.957740 0.500000 0.130410
O O16 0.951643 0.239343 0.198066
O O17 0.319319 0.262383 0.425242
O O18 0.281353 0.000000 0.318303
O O19 0.454014 0.766640 0.601828
O O20 0.371618 0.000000 0.547428
O O21 0.045682 0.500000 0.719550
#
# Coordination Sequence:
#
# PCOD9188585 Si02
#       8
#     8   8   8   8   8   8   8   8
#     4  11  23  38  60  90 121 149 188 239 291 350
#     4  10  19  36  60  86 116 153 198 242 288 342
#     4  10  21  37  60  88 118 154 197 245 289 337
#     4  12  24  35  51  78 116 157 196 238 288 345
#     4   9  18  36  62  89 117 153 198 241 286 342
#     4  11  23  39  60  85 118 156 194 236 291 354
#     4  10  20  36  58  83 114 150 188 234 286 347
#     4  10  19  36  62  88 116 149 188 234 287 347
#
# _framework density 21.148900000000001
#
# number of rings (size 3 to 8) (size 9 to 14) (size 15 to 20)
#    0.000    1.625    2.500    3.000    0.000    6.000 
#    0.000    1.875    0.000    1.500    0.000    0.000 
#    0.000    0.000    0.000    0.000    0.000    0.000 
#
# Total GULP energy -178713.481637 kJ/mol
# GULP energy per Si atom -5584.796301 kJ/mol
# Density = 2.110076 g / cm^3
# Si number density = 21.148900 Si / 1000 Ang^3
#
#
#
# Elastic Constant Matrix: (Units=GPa)
#
#
# Indices 1 2 3 4 5 6 
#
# 1 75.6289 -6.2701 33.8564 0.0000 -16.3487 0.0000
# 2 -6.2701 17.2588 2.2566 0.0000 1.5111 0.0000
# 3 33.8564 2.2566 143.4440 0.0000 -15.3652 0.0000
# 4 0.0000 0.0000 0.0000 15.9692 0.0000 -1.2580
# 5 -16.3487 1.5111 -15.3652 0.0000 29.1158 0.0000
# 6 0.0000 0.0000 0.0000 -1.2580 0.0000 8.0792
#
#
#
# Elastic Compliance Matrix: (Units=1/GPa)
#
#
# Indices 1 2 3 4 5 6 
#
# 1 0.016765 0.005870 -0.003258 0.000000 0.007390 0.000000
# 2 0.005870 0.060495 -0.002459 0.000000 -0.001142 0.000000
# 3 -0.003258 -0.002459 0.008052 0.000000 0.002548 0.000000
# 4 0.000000 0.000000 0.000000 0.063398 0.000000 0.009872
# 5 0.007390 -0.001142 0.002548 0.000000 0.039899 0.000000
# 6 0.000000 0.000000 0.000000 0.009872 0.000000 0.125312
#
#
# Mechanical properties :
#
#
# Convention : Reuss Voigt Hill
#
# Bulk Modulus (GPa) = 11.67989 32.89082 22.28536
# Shear Modulus (GPa) = 14.61326 24.39876 19.50601
#
# Velocity S-wave (km/s) = 2.63148 3.40025 3.04026
# Velocity P-wave (km/s) = 3.84287 5.56789 4.78378
#
# Compressibility (1/GPa) = 0.08561727
#
# Stress axis : x y z
#
# Youngs Moduli (GPa) = 59.64846 16.53016 124.19524
#
# Poissons Ratio (x) = -0.09702 0.40459
# Poissons Ratio (y) = -0.35011 0.30544
# Poissons Ratio (z) = 0.19432 0.04065
#
# Static dielectric constant tensor:
#      x y z
#    x 1.785950 0.000000 -0.000330 
#    y 0.000000 1.779030 0.000000 
#    z -0.000330 0.000000 1.786710 
# 
# From -- ./inp_files/295725.got.cif
#   From: 2010.05.17/outbox.cif.g08.bks.cpg/sg12_148_cif.got.tgz:295725.got - 2010.06.03 13:09:07.
