data_PCOD9188488
_publ_section_title
;
Structure prediction by ZEFSAII (Michael W. Deem and Ramdas Pophale) SiO2 
 PCOD9188488
Probable space group: C 2/M
;
_chemical_formula_sum "Si O2"
_cell_formula_units_Z 64
_cell_length_a 10.937756
_cell_length_b 18.840405
_cell_length_c 26.256898
_cell_angle_alpha 90.000000
_cell_angle_beta 147.749478
_cell_angle_gamma 90.000000
_cell_volume 2887.325779
_symmetry_space_group_name_H-M "C 2/M"
_symmetry_group_IT_number 12
_symmetry_cell_setting 'monoclinic'
loop_
_space_group_symop_operation_xyz
x,y,z
-x,y,-z
-x,-y,-z
x,-y,z
1/2+x,1/2+y,z
1/2-x,1/2+y,-z
1/2-x,1/2-y,-z
1/2+x,1/2-y,z
loop_
_atom_site_type_symbol
_atom_site_label
_atom_site_fract_x
_atom_site_fract_y
_atom_site_fract_z
Si Si1 0.552414 0.416670 0.169547
Si Si2 0.144068 0.698202 0.167376
Si Si3 0.642736 0.820513 0.283218
Si Si4 0.072433 0.915449 0.413949
Si Si5 0.899826 0.166104 0.908600
Si Si6 0.457860 0.917399 0.378378
Si Si7 0.182043 0.816008 0.356195
Si Si8 0.833315 0.420474 0.892909
O O1 0.514681 0.500000 0.155411
O O2 0.493148 0.386855 0.094254
O O3 0.816561 0.402921 0.277422
O O4 0.394874 0.389861 0.160199
O O5 0.130424 0.715563 0.222121
O O6 0.044146 0.757005 0.095098
O O7 0.412921 0.691527 0.251539
O O8 0.062786 0.622797 0.117457
O O9 0.376222 0.842391 0.193675
O O10 0.741115 0.765813 0.360716
O O11 0.824277 0.884874 0.341661
O O12 0.269187 0.910141 0.526447
O O13 0.169859 0.860597 0.405094
O O14 0.061791 0.000000 0.395127
O O15 0.000000 0.158914 0.000000
O O16 0.342473 0.864974 0.378134
O O17 0.410081 0.000000 0.375912
O O18 0.782088 0.500000 0.856959
O O19 0.000000 0.422451 0.000000
#
# Coordination Sequence:
#
# PCOD9188488 Si02
#       8
#     8   8   8   8   8   8   8   8
#     4  10  22  41  63  88 124 164 210 261 312 378
#     4  10  21  37  61  90 126 162 211 256 315 376
#     4  10  24  41  60  94 133 174 209 265 326 389
#     4  10  22  40  66  97 128 167 221 272 320 381
#     4  11  25  41  63  90 123 171 215 258 310 385
#     4  10  19  36  65  94 123 166 216 268 321 376
#     4  10  19  36  59  91 131 164 203 261 318 381
#     4  10  21  37  61  93 123 157 206 269 329 373
#
# _framework density 22.165838000000001
#
# number of rings (size 3 to 8) (size 9 to 14) (size 15 to 20)
#    0.000    1.875    1.250    1.875    3.500    4.750 
#    0.000    3.125    0.000    2.250    0.000    0.000 
#    0.000    0.000    0.000    0.000    0.000    0.000 
#
# Total GULP energy -178174.127023 kJ/mol
# GULP energy per Si atom -5567.941469 kJ/mol
# Density = 2.211539 g / cm^3
# Si number density = 22.165838 Si / 1000 Ang^3
#
#
#
# Elastic Constant Matrix: (Units=GPa)
#
#
# Indices 1 2 3 4 5 6 
#
# 1 57.6926 49.1643 22.9325 -0.0001 1.8411 -0.0001
# 2 49.1643 54.9052 46.8579 -0.0005 -9.6005 -0.0002
# 3 22.9325 46.8579 85.3646 -0.0018 4.7748 -0.0005
# 4 -0.0001 -0.0005 -0.0018 6.7537 -0.0004 -13.4844
# 5 1.8411 -9.6005 4.7748 -0.0004 25.8202 -0.0001
# 6 -0.0001 -0.0002 -0.0005 -13.4844 -0.0001 16.2686
#
#
#
# Elastic Compliance Matrix: (Units=1/GPa)
#
#
# Indices 1 2 3 4 5 6 
#
# 1 -0.150557 0.237672 -0.096558 0.000006 0.116963 0.000004
# 2 0.237672 -0.332348 0.127763 -0.000006 -0.164148 -0.000004
# 3 -0.096558 0.127763 -0.035891 -0.000004 0.061027 -0.000003
# 4 0.000006 -0.000006 -0.000004 -0.226091 -0.000006 -0.187398
# 5 0.116963 -0.164148 0.061027 -0.000006 -0.041930 -0.000004
# 6 0.000004 -0.000004 -0.000003 -0.187398 -0.000004 -0.093859
#
#
# Mechanical properties :
#
#
# Convention : Reuss Voigt Hill
#
# Bulk Modulus (GPa) = 52.74370 48.43020 50.58695
# Shear Modulus (GPa) = -3.54080 15.03569 5.74744
#
# Velocity S-wave (km/s) = -1.26526 2.60730 1.61200
# Velocity P-wave (km/s) = 4.65963 5.56421 5.13189
#
# Compressibility (1/GPa) = 0.01895961
#
# Stress axis : x y z
#
# Youngs Moduli (GPa) = -6.64202 -3.00890 -27.86238
#
# Poissons Ratio (x) = 0.71513 -2.69034
# Poissons Ratio (y) = 1.57862 3.55979
# Poissons Ratio (z) = -0.64134 0.38443
#
# Static dielectric constant tensor:
#      x y z
#    x 1.865540 0.000000 0.018880 
#    y 0.000000 1.976870 0.000000 
#    z 0.018880 0.000000 1.871440 
# 
# From -- ./inp_files/374509.got.cif
#   From: 2010.05.17/outbox.cif.g08.bks.cpg/sg12_188_cif.got.tgz:374509.got - 2010.06.03 13:09:07.
