data_PCOD9188755
_publ_section_title
;
Structure prediction by ZEFSAII (Michael W. Deem and Ramdas Pophale) SiO2 
 PCOD9188755
Probable space group: C 2/M
;
_chemical_formula_sum "Si O2"
_cell_formula_units_Z 56
_cell_length_a 13.726946
_cell_length_b 14.067891
_cell_length_c 13.143741
_cell_angle_alpha 90.000000
_cell_angle_beta 64.448628
_cell_angle_gamma 90.000000
_cell_volume 2289.940593
_symmetry_space_group_name_H-M "C 2/M"
_symmetry_group_IT_number 12
_symmetry_cell_setting 'monoclinic'
loop_
_space_group_symop_operation_xyz
x,y,z
-x,y,-z
-x,-y,-z
x,-y,z
1/2+x,1/2+y,z
1/2-x,1/2+y,-z
1/2-x,1/2-y,-z
1/2+x,1/2-y,z
loop_
_atom_site_type_symbol
_atom_site_label
_atom_site_fract_x
_atom_site_fract_y
_atom_site_fract_z
Si Si1 0.952811 0.255455 0.126068
Si Si2 0.610660 0.113822 0.671323
Si Si3 0.341582 0.330762 0.860017
Si Si4 0.712345 0.645950 0.901930
Si Si5 0.227415 0.885690 0.576630
Si Si6 0.390904 0.893604 0.667985
Si Si7 0.003583 0.885871 0.382004
O O1 0.889002 0.329289 0.224248
O O2 0.891958 0.156445 0.123249
O O3 0.058402 0.229051 0.141800
O O4 0.000000 0.297271 0.000000
O O5 0.717837 0.128459 0.557289
O O6 0.506738 0.145034 0.649195
O O7 0.597995 0.000000 0.693995
O O8 0.243757 0.258016 0.891074
O O9 0.388656 0.369080 0.733098
O O10 0.310751 0.390922 0.974581
O O11 0.813965 0.601033 0.800999
O O12 0.312466 0.845397 0.620559
O O13 0.104707 0.850625 0.627805
O O14 0.222322 0.000000 0.598739
O O15 0.413588 0.000000 0.619834
O O16 0.000000 0.849851 0.500000
O O17 0.992048 0.000000 0.393479
#
# Coordination Sequence:
#
# PCOD9188755 Si02
#       7
#     8   8   8   8   8   8   8
#     4  10  21  38  58  82 117 155 193 246 300 348
#     4  10  20  36  59  86 116 154 197 242 297 351
#     4  10  21  40  57  81 118 154 191 238 296 349
#     4  10  21  37  60  83 116 155 190 239 295 349
#     4   9  19  36  57  82 114 150 187 238 295 339
#     4  10  19  36  61  88 116 147 193 245 290 345
#     4  10  22  40  60  85 119 157 200 246 290 348
#
# _framework density 24.454785000000001
#
# number of rings (size 3 to 8) (size 9 to 14) (size 15 to 20)
#    0.000    2.143    1.429    1.286    2.000    2.571 
#    2.571    1.429    0.000    5.143    0.000    0.000 
#    0.000    0.000    0.000    0.000    0.000    0.000 
#
# Total GULP energy -156344.540148 kJ/mol
# GULP energy per Si atom -5583.733577 kJ/mol
# Density = 2.439912 g / cm^3
# Si number density = 24.454785 Si / 1000 Ang^3
#
#
#
# Elastic Constant Matrix: (Units=GPa)
#
#
# Indices 1 2 3 4 5 6 
#
# 1 73.3000 16.3393 26.2166 0.0000 -7.6546 0.0000
# 2 16.3393 53.5064 24.3922 0.0000 1.9552 0.0000
# 3 26.2166 24.3922 163.5233 0.0000 -10.9604 0.0000
# 4 0.0000 0.0000 0.0000 0.8134 0.0000 -12.0600
# 5 -7.6546 1.9552 -10.9604 0.0000 42.1628 0.0000
# 6 0.0000 0.0000 0.0000 -12.0600 0.0000 16.6974
#
#
#
# Elastic Compliance Matrix: (Units=1/GPa)
#
#
# Indices 1 2 3 4 5 6 
#
# 1 0.015413 -0.004025 -0.001700 0.000000 0.002543 0.000000
# 2 -0.004025 0.021230 -0.002683 0.000000 -0.002413 0.000000
# 3 -0.001700 -0.002683 0.006896 0.000000 0.001608 0.000000
# 4 0.000000 0.000000 0.000000 -0.126628 0.000000 -0.091459
# 5 0.002543 -0.002413 0.001608 0.000000 0.024709 0.000000
# 6 0.000000 0.000000 0.000000 -0.091459 0.000000 -0.006169
#
#
# Mechanical properties :
#
#
# Convention : Reuss Voigt Hill
#
# Bulk Modulus (GPa) = 37.42126 47.13621 42.27874
# Shear Modulus (GPa) = -128.78441 26.82683 -50.97879
#
# Velocity S-wave (km/s) = -7.26475 3.31569 -4.57071
# Velocity P-wave (km/s) = 7.41845 5.82881 3.24486
#
# Compressibility (1/GPa) = 0.02672277
#
# Stress axis : x y z
#
# Youngs Moduli (GPa) = 64.87866 47.10378 145.01166
#
# Poissons Ratio (x) = 0.18957 0.24657
# Poissons Ratio (y) = 0.26111 0.38910
# Poissons Ratio (z) = 0.11032 0.12639
#
# Static dielectric constant tensor:
#      x y z
#    x 1.956650 0.000000 0.018490 
#    y 0.000000 1.976680 0.000000 
#    z 0.018490 0.000000 1.964690 
# 
# From -- ./inp_files/146018.got.cif
#   From: 2010.05.17/outbox.cif.g08.bks.cpg/sg12_74_cif.got.tgz:146018.got - 2010.06.03 13:09:07.
