data_PCOD9188296
_publ_section_title
;
Structure prediction by ZEFSAII (Michael W. Deem and Ramdas Pophale) SiO2 
 PCOD9188296
Probable space group: C 2/M
;
_chemical_formula_sum "Si O2"
_cell_formula_units_Z 48
_cell_length_a 19.907387
_cell_length_b 12.828181
_cell_length_c 7.973826
_cell_angle_alpha 90.000000
_cell_angle_beta 72.907162
_cell_angle_gamma 90.000000
_cell_volume 1946.375558
_symmetry_space_group_name_H-M "C 2/M"
_symmetry_group_IT_number 12
_symmetry_cell_setting 'monoclinic'
loop_
_space_group_symop_operation_xyz
x,y,z
-x,y,-z
-x,-y,-z
x,-y,z
1/2+x,1/2+y,z
1/2-x,1/2+y,-z
1/2-x,1/2-y,-z
1/2+x,1/2-y,z
loop_
_atom_site_type_symbol
_atom_site_label
_atom_site_fract_x
_atom_site_fract_y
_atom_site_fract_z
Si Si1 0.952756 0.387481 0.696626
Si Si2 0.304365 0.888522 0.622906
Si Si3 0.113800 0.000000 0.473269
Si Si4 0.645358 0.885474 0.798000
Si Si5 0.708548 0.669852 0.238366
Si Si6 0.910789 0.208066 0.946496
Si Si7 0.480940 0.500000 0.794770
O O1 0.970472 0.500000 0.758330
O O2 0.872815 0.391172 0.691224
O O3 0.958738 0.288037 0.806066
O O4 0.000000 0.374249 0.500000
O O5 0.332666 0.882001 0.412483
O O6 0.269440 0.780821 0.698878
O O7 0.265846 0.000000 0.669064
O O8 0.163431 0.101329 0.405562
O O9 0.062360 0.000000 0.349505
O O10 0.062701 0.000000 0.673222
O O11 0.718049 0.885457 0.850101
O O12 0.611894 0.000000 0.851033
O O13 0.606656 0.779890 0.881152
O O14 0.660043 0.686087 0.111128
O O15 0.951391 0.100010 0.914479
#
# Coordination Sequence:
#
# PCOD9188296 Si02
#       7
#     8   8   4   8   8   8   4
#     4   9  18  34  57  83 105 139 192 237 275 332
#     4   9  20  35  55  83 111 146 186 234 286 337
#     4   9  18  34  61  85 105 147 195 241 273 322
#     4  11  21  37  55  81 120 151 186 231 288 349
#     4  10  19  36  58  84 109 149 195 234 279 331
#     4  10  21  34  56  83 113 149 184 237 287 333
#     4   9  20  34  55  85 117 141 193 239 279 333
#
# _framework density 24.661225000000002
#
# number of rings (size 3 to 8) (size 9 to 14) (size 15 to 20)
#    0.000    2.333    0.833    1.500    7.000    0.667 
#    1.500    1.667    0.000    5.000    0.000    0.000 
#    0.000    0.000    0.000    0.000    0.000    0.000 
#
# Total GULP energy -134098.748519 kJ/mol
# GULP energy per Si atom -5587.447855 kJ/mol
# Density = 2.460509 g / cm^3
# Si number density = 24.661225 Si / 1000 Ang^3
#
#
#
# Elastic Constant Matrix: (Units=GPa)
#
#
# Indices 1 2 3 4 5 6 
#
# 1 83.2799 28.2663 24.3278 0.0000 9.8457 0.0000
# 2 28.2663 199.1911 41.3497 0.0000 3.8705 0.0000
# 3 24.3278 41.3497 58.6706 0.0000 -0.6576 0.0000
# 4 0.0000 0.0000 0.0000 133.5017 0.0000 -28.2283
# 5 9.8457 3.8705 -0.6576 0.0000 21.4045 0.0000
# 6 0.0000 0.0000 0.0000 -28.2283 0.0000 25.8950
#
#
#
# Elastic Compliance Matrix: (Units=1/GPa)
#
#
# Indices 1 2 3 4 5 6 
#
# 1 0.014723 -0.000789 -0.005625 0.000000 -0.006802 0.000000
# 2 -0.000789 0.005954 -0.003878 0.000000 -0.000833 0.000000
# 3 -0.005625 -0.003878 0.022154 0.000000 0.003969 0.000000
# 4 0.000000 0.000000 0.000000 0.009734 0.000000 0.010611
# 5 -0.006802 -0.000833 0.003969 0.000000 0.050121 0.000000
# 6 0.000000 0.000000 0.000000 0.010611 0.000000 0.050185
#
#
# Mechanical properties :
#
#
# Convention : Reuss Voigt Hill
#
# Bulk Modulus (GPa) = 44.95096 58.78100 51.86598
# Shear Modulus (GPa) = 27.64413 52.64009 40.14211
#
# Velocity S-wave (km/s) = 3.35170 4.62511 4.03891
# Velocity P-wave (km/s) = 5.76589 7.23943 6.54426
#
# Compressibility (1/GPa) = 0.02224647
#
# Stress axis : x y z
#
# Youngs Moduli (GPa) = 67.92107 167.96812 45.13828
#
# Poissons Ratio (x) = 0.13260 0.25389
# Poissons Ratio (y) = 0.05362 0.17504
# Poissons Ratio (z) = 0.38204 0.65136
#
# Static dielectric constant tensor:
#      x y z
#    x 1.949380 0.000000 0.020990 
#    y 0.000000 2.519880 0.000000 
#    z 0.020990 0.000000 1.936730 
# 
# From -- ./inp_files/94953.got.cif
#   From: 2010.05.17/outbox.cif.g08.bks.cpg/sg12_48_cif.got.tgz:94953.got - 2010.06.03 13:09:07.
