data_PCOD9188166
_publ_section_title
;
Structure prediction by ZEFSAII (Michael W. Deem and Ramdas Pophale) SiO2 
 PCOD9188166
Probable space group: C 2/M
;
_chemical_formula_sum "Si O2"
_cell_formula_units_Z 32
_cell_length_a 21.137795
_cell_length_b 8.637484
_cell_length_c 25.982847
_cell_angle_alpha 90.000000
_cell_angle_beta 157.562736
_cell_angle_gamma 90.000000
_cell_volume 1810.604189
_symmetry_space_group_name_H-M "C 2/M"
_symmetry_group_IT_number 12
_symmetry_cell_setting 'monoclinic'
loop_
_space_group_symop_operation_xyz
x,y,z
-x,y,-z
-x,-y,-z
x,-y,z
1/2+x,1/2+y,z
1/2-x,1/2+y,-z
1/2-x,1/2-y,-z
1/2+x,1/2-y,z
loop_
_atom_site_type_symbol
_atom_site_label
_atom_site_fract_x
_atom_site_fract_y
_atom_site_fract_z
Si Si1 0.113660 0.686678 0.936178
Si Si2 0.236883 0.185978 0.647404
Si Si3 0.167127 0.313094 0.094586
Si Si4 0.413771 0.184077 0.360378
O O1 0.117143 0.500000 0.937851
O O2 0.926306 0.734197 0.780860
O O3 0.250000 0.750000 0.000000
O O4 0.149496 0.734417 0.022014
O O5 0.182686 0.239407 0.663815
O O6 0.102504 0.258719 0.508032
O O7 0.225617 0.000000 0.636848
O O8 0.181793 0.500000 0.107889
O O9 0.322237 0.238628 0.240203
O O10 0.000000 0.270823 0.000000
O O11 0.407367 0.000000 0.360870
#
# Coordination Sequence:
#
# PCOD9188166 Si02
#       4
#     8   8   8   8
#     4  10  22  38  59  83 111 148 186 228 277 332
#     4  10  19  36  57  79 110 153 189 220 273 340
#     4  10  19  37  59  81 110 147 191 227 270 336
#     4  11  21  32  53  88 116 140 180 239 286 314
#
# _framework density 17.673658
#
# number of rings (size 3 to 8) (size 9 to 14) (size 15 to 20)
#    0.000    1.750    2.500    4.500    0.000    3.500 
#    0.000    1.250    0.000    0.000    0.000    0.000 
#    0.000    0.000    0.000    0.000    0.000    0.000 
#
# Total GULP energy -89348.118184 kJ/mol
# GULP energy per Si atom -5584.257386 kJ/mol
# Density = 1.763343 g / cm^3
# Si number density = 17.673658 Si / 1000 Ang^3
#
#
#
# Elastic Constant Matrix: (Units=GPa)
#
#
# Indices 1 2 3 4 5 6 
#
# 1 105.2015 16.9930 75.4727 0.0013 4.6724 -0.0001
# 2 16.9930 31.3768 27.0312 0.0018 -0.4119 -0.0005
# 3 75.4727 27.0312 175.8527 0.0044 0.8182 -0.0025
# 4 0.0013 0.0018 0.0044 2.2106 -0.0004 13.7237
# 5 4.6724 -0.4119 0.8182 -0.0004 26.3994 -0.0005
# 6 -0.0001 -0.0005 -0.0025 13.7237 -0.0005 19.6060
#
#
#
# Elastic Compliance Matrix: (Units=1/GPa)
#
#
# Indices 1 2 3 4 5 6 
#
# 1 0.014085 -0.002836 -0.005598 -0.000003 -0.002364 0.000001
# 2 -0.002836 0.037321 -0.004525 0.000006 0.001225 -0.000004
# 3 -0.005598 -0.004525 0.008782 0.000005 0.000648 -0.000002
# 4 -0.000003 0.000006 0.000005 -0.135215 0.000000 0.094647
# 5 -0.002364 0.001225 0.000648 0.000000 0.038297 0.000001
# 6 0.000001 -0.000004 -0.000002 0.094647 0.000001 -0.015246
#
#
# Mechanical properties :
#
#
# Convention : Reuss Voigt Hill
#
# Bulk Modulus (GPa) = 29.18114 61.26944 45.22529
# Shear Modulus (GPa) = -341.66093 22.50549 -159.57772
#
# Velocity S-wave (km/s) = -13.91891 3.57233 -9.51248
# Velocity P-wave (km/s) = 15.54889 7.19429 9.74705
#
# Compressibility (1/GPa) = 0.03426871
#
# Stress axis : x y z
#
# Youngs Moduli (GPa) = 70.99908 26.79431 113.87357
#
# Poissons Ratio (x) = 0.07600 0.63745
# Poissons Ratio (y) = 0.20138 0.51530
# Poissons Ratio (z) = 0.39745 0.12125
#
# Static dielectric constant tensor:
#      x y z
#    x 1.571800 0.000000 -0.006800 
#    y 0.000000 1.593830 0.000000 
#    z -0.006800 0.000000 1.611910 
# 
# From -- ./inp_files/92097.got.cif
#   From: 2010.05.17/outbox.cif.g08.bks.cpg/sg12_47_cif.got.tgz:92097.got - 2010.06.03 13:09:07.
