data_PCOD9188897
_publ_section_title
;
Structure prediction by ZEFSAII (Michael W. Deem and Ramdas Pophale) SiO2 
 PCOD9188897
Probable space group: C 2/M
;
_chemical_formula_sum "Si O2"
_cell_formula_units_Z 56
_cell_length_a 18.593160
_cell_length_b 28.726788
_cell_length_c 9.654401
_cell_angle_alpha 90.000000
_cell_angle_beta 37.734707
_cell_angle_gamma 90.000000
_cell_volume 3155.886970
_symmetry_space_group_name_H-M "C 2/M"
_symmetry_group_IT_number 12
_symmetry_cell_setting 'monoclinic'
loop_
_space_group_symop_operation_xyz
x,y,z
-x,y,-z
-x,-y,-z
x,-y,z
1/2+x,1/2+y,z
1/2-x,1/2+y,-z
1/2-x,1/2-y,-z
1/2+x,1/2-y,z
loop_
_atom_site_type_symbol
_atom_site_label
_atom_site_fract_x
_atom_site_fract_y
_atom_site_fract_z
Si Si1 0.517370 0.306988 0.313710
Si Si2 0.521319 0.052268 0.803908
Si Si3 0.875883 0.350889 0.407833
Si Si4 0.748047 0.646550 0.887442
Si Si5 0.625969 0.946712 0.230818
Si Si6 0.258880 0.707928 0.596193
Si Si7 0.614002 0.793254 0.094653
O O1 0.500000 0.320187 0.500000
O O2 0.392880 0.303975 0.426834
O O3 0.571613 0.255082 0.224658
O O4 0.610940 0.341683 0.102554
O O5 0.603038 0.094184 0.632429
O O6 0.405410 0.056965 0.884694
O O7 0.566978 0.000000 0.706553
O O8 0.500000 0.056594 0.000000
O O9 0.803501 0.339476 0.656082
O O10 0.807169 0.334272 0.377858
O O11 0.000177 0.323964 0.227380
O O12 0.784473 0.593234 0.861569
O O13 0.810492 0.677445 0.910953
O O14 0.500000 0.938666 0.500000
O O15 0.661506 0.000000 0.206564
O O16 0.250000 0.750000 0.500000
O O17 0.190896 0.718119 0.842234
#
# Coordination Sequence:
#
# PCOD9188897 Si02
#       7
#     8   8   8   8   8   8   8
#     4  12  26  42  61  85 120 166 208 245 296 367
#     4  10  20  34  56  90 127 156 189 246 313 362
#     4  12  23  37  62  90 122 156 198 256 309 356
#     4  12  23  39  62  89 123 160 199 249 306 367
#     4  10  19  36  62  94 124 152 198 255 306 357
#     4  12  26  42  59  86 120 164 207 253 298 361
#     4  12  23  40  62  87 120 159 203 256 304 352
#
# _framework density 17.744616000000001
#
# number of rings (size 3 to 8) (size 9 to 14) (size 15 to 20)
#    0.000    0.571    5.714    3.857    0.000    1.714 
#    0.000    0.000    0.000    1.286    0.000    2.000 
#    0.000    0.000    0.000    0.000    0.000    0.000 
#
# Total GULP energy -156518.429364 kJ/mol
# GULP energy per Si atom -5589.943906 kJ/mol
# Density = 1.770423 g / cm^3
# Si number density = 17.744616 Si / 1000 Ang^3
#
#
#
# Elastic Constant Matrix: (Units=GPa)
#
#
# Indices 1 2 3 4 5 6 
#
# 1 62.0981 -6.2326 22.5054 0.0000 -11.5742 0.0000
# 2 -6.2326 66.6080 18.9435 0.0000 -12.3141 0.0000
# 3 22.5054 18.9435 105.5995 0.0000 -4.6312 0.0000
# 4 0.0000 0.0000 0.0000 21.3064 0.0000 3.0527
# 5 -11.5742 -12.3141 -4.6312 0.0000 34.9187 0.0000
# 6 0.0000 0.0000 0.0000 3.0527 0.0000 26.6046
#
#
#
# Elastic Compliance Matrix: (Units=1/GPa)
#
#
# Indices 1 2 3 4 5 6 
#
# 1 0.019654 0.004556 -0.004677 0.000000 0.007501 0.000000
# 2 0.004556 0.017888 -0.003859 0.000000 0.007306 0.000000
# 3 -0.004677 -0.003859 0.011096 0.000000 -0.001440 0.000000
# 4 0.000000 0.000000 0.000000 0.047719 0.000000 -0.005475
# 5 0.007501 0.007306 -0.001440 0.000000 0.033510 0.000000
# 6 0.000000 0.000000 0.000000 -0.005475 0.000000 0.038216
#
#
# Mechanical properties :
#
#
# Convention : Reuss Voigt Hill
#
# Bulk Modulus (GPa) = 24.58424 33.85981 29.22203
# Shear Modulus (GPa) = 26.37108 29.83857 28.10483
#
# Velocity S-wave (km/s) = 3.85924 4.10513 3.98408
# Velocity P-wave (km/s) = 5.80886 6.44923 6.13740
#
# Compressibility (1/GPa) = 0.04067646
#
# Stress axis : x y z
#
# Youngs Moduli (GPa) = 50.88057 55.90372 90.12504
#
# Poissons Ratio (x) = -0.25469 0.42151
# Poissons Ratio (y) = -0.23181 0.34783
# Poissons Ratio (z) = 0.23797 0.21576
#
# Static dielectric constant tensor:
#      x y z
#    x 1.613450 0.000000 0.017550 
#    y 0.000000 1.605010 0.000000 
#    z 0.017550 0.000000 1.609530 
# 
# From -- ./inp_files/53148.got.cif
#   From: 2010.05.17/outbox.cif.g08.bks.cpg/sg12_27_cif.got.tgz:53148.got - 2010.06.03 13:09:07.
