data_PCOD9188618
_publ_section_title
;
Structure prediction by ZEFSAII (Michael W. Deem and Ramdas Pophale) SiO2 
 PCOD9188618
Probable space group: C 2/M
;
_chemical_formula_sum "Si O2"
_cell_formula_units_Z 40
_cell_length_a 15.014832
_cell_length_b 17.792987
_cell_length_c 9.149562
_cell_angle_alpha 90.000000
_cell_angle_beta 121.948077
_cell_angle_gamma 90.000000
_cell_volume 2074.129213
_symmetry_space_group_name_H-M "C 2/M"
_symmetry_group_IT_number 12
_symmetry_cell_setting 'monoclinic'
loop_
_space_group_symop_operation_xyz
x,y,z
-x,y,-z
-x,-y,-z
x,-y,z
1/2+x,1/2+y,z
1/2-x,1/2+y,-z
1/2-x,1/2-y,-z
1/2+x,1/2-y,z
loop_
_atom_site_type_symbol
_atom_site_label
_atom_site_fract_x
_atom_site_fract_y
_atom_site_fract_z
Si Si1 0.544072 0.768138 0.689955
Si Si2 0.110778 0.829030 0.020033
Si Si3 0.380633 0.084428 0.889558
Si Si4 0.318019 0.914892 0.172679
Si Si5 0.831990 0.713732 0.679492
O O1 0.500000 0.735104 0.500000
O O2 0.613585 0.842577 0.715654
O O3 0.441498 0.792526 0.690390
O O4 0.598495 0.708844 0.848355
O O5 0.196691 0.894479 0.093628
O O6 0.154326 0.764456 0.165231
O O7 0.000000 0.850605 0.000000
O O8 0.307635 0.131986 0.720216
O O9 0.390296 0.000000 0.842497
O O10 0.500000 0.115895 0.000000
O O11 0.338214 0.084826 0.016322
O O12 0.344182 0.000000 0.248982
O O13 0.750000 0.750000 0.500000
#
# Coordination Sequence:
#
# PCOD9188618 Si02
#       5
#     8   8   8   8   8
#     4  11  22  36  60  91 118 152 198 249 295 352
#     4  10  22  41  60  85 120 157 202 249 293 356
#     4  10  19  36  60  87 122 158 194 242 301 364
#     4  11  22  37  62  89 120 161 196 244 306 354
#     4  11  21  36  59  89 119 158 200 242 298 351
#
# _framework density 19.285202000000002
#
# number of rings (size 3 to 8) (size 9 to 14) (size 15 to 20)
#    0.000    1.400    4.000    2.400    2.800    0.800 
#    0.000    3.000    0.000    1.800    0.000    0.000 
#    0.000    0.000    0.000    0.000    0.000    0.000 
#
# Total GULP energy -111545.670688 kJ/mol
# GULP energy per Si atom -5577.283534 kJ/mol
# Density = 1.924131 g / cm^3
# Si number density = 19.285202 Si / 1000 Ang^3
#
#
#
# Elastic Constant Matrix: (Units=GPa)
#
#
# Indices 1 2 3 4 5 6 
#
# 1 74.4527 33.1106 11.4695 0.0000 8.3969 0.0000
# 2 33.1106 52.8816 24.5196 0.0000 9.5126 0.0000
# 3 11.4695 24.5196 108.0937 0.0000 -5.4186 0.0000
# 4 0.0000 0.0000 0.0000 25.6789 0.0000 1.5251
# 5 8.3969 9.5126 -5.4186 0.0000 29.2182 0.0000
# 6 0.0000 0.0000 0.0000 1.5251 0.0000 24.6979
#
#
#
# Elastic Compliance Matrix: (Units=1/GPa)
#
#
# Indices 1 2 3 4 5 6 
#
# 1 0.018724 -0.011744 0.000605 0.000000 -0.001445 0.000000
# 2 -0.011744 0.030443 -0.006043 0.000000 -0.007657 0.000000
# 3 0.000605 -0.006043 0.010748 0.000000 0.003787 0.000000
# 4 0.000000 0.000000 0.000000 0.039086 0.000000 -0.002414
# 5 -0.001445 -0.007657 0.003787 0.000000 0.037836 0.000000
# 6 0.000000 0.000000 0.000000 -0.002414 0.000000 0.040638
#
#
# Mechanical properties :
#
#
# Convention : Reuss Voigt Hill
#
# Bulk Modulus (GPa) = 39.13963 41.51417 40.32690
# Shear Modulus (GPa) = 22.69053 27.00755 24.84904
#
# Velocity S-wave (km/s) = 3.43385 3.74629 3.59347
# Velocity P-wave (km/s) = 6.00508 6.34713 6.17847
#
# Compressibility (1/GPa) = 0.02554955
#
# Stress axis : x y z
#
# Youngs Moduli (GPa) = 53.40734 32.84835 93.04288
#
# Poissons Ratio (x) = 0.38577 -0.05627
# Poissons Ratio (y) = 0.62722 0.56228
# Poissons Ratio (z) = -0.03230 0.19851
#
# Static dielectric constant tensor:
#      x y z
#    x 1.709810 0.000000 0.017660 
#    y 0.000000 1.703600 0.000000 
#    z 0.017660 0.000000 1.704020 
# 
# From -- ./inp_files/60829.got.cif
#   From: 2010.05.17/outbox.cif.g08.bks.cpg/sg12_31_cif.got.tgz:60829.got - 2010.06.03 13:09:07.
