data_PCOD9188930
_publ_section_title
;
Structure prediction by ZEFSAII (Michael W. Deem and Ramdas Pophale) SiO2 
 PCOD9188930
Probable space group: C 2/M
;
_chemical_formula_sum "Si O2"
_cell_formula_units_Z 64
_cell_length_a 17.299900
_cell_length_b 34.384085
_cell_length_c 10.962694
_cell_angle_alpha 90.000000
_cell_angle_beta 150.005568
_cell_angle_gamma 90.000000
_cell_volume 3259.982373
_symmetry_space_group_name_H-M "C 2/M"
_symmetry_group_IT_number 12
_symmetry_cell_setting 'monoclinic'
loop_
_space_group_symop_operation_xyz
x,y,z
-x,y,-z
-x,-y,-z
x,-y,z
1/2+x,1/2+y,z
1/2-x,1/2+y,-z
1/2-x,1/2-y,-z
1/2+x,1/2-y,z
loop_
_atom_site_type_symbol
_atom_site_label
_atom_site_fract_x
_atom_site_fract_y
_atom_site_fract_z
Si Si1 0.054858 0.310833 0.433178
Si Si2 0.340474 0.889310 0.334085
Si Si3 0.815083 0.545132 0.725834
Si Si4 0.247874 0.307828 0.137549
Si Si5 0.133811 0.117572 0.579499
Si Si6 0.093454 0.164299 0.872168
Si Si7 0.314783 0.456508 0.728665
Si Si8 0.343935 0.267237 0.851131
O O1 0.105782 0.355579 0.500729
O O2 0.202485 0.287269 0.587087
O O3 0.000000 0.302704 0.500000
O O4 0.907875 0.304294 0.151606
O O5 0.500000 0.905389 0.500000
O O6 0.248216 0.922847 0.272156
O O7 0.236025 0.865120 0.094670
O O8 0.782525 0.500000 0.716816
O O9 0.722287 0.577832 0.673718
O O10 0.752885 0.549047 0.500926
O O11 0.000000 0.550899 0.000000
O O12 0.255683 0.347801 0.222827
O O13 0.382534 0.312578 0.221426
O O14 0.244929 0.268715 0.209510
O O15 0.000000 0.111767 0.500000
O O16 0.051584 0.136208 0.347330
O O17 0.098838 0.197600 0.981574
O O18 0.264562 0.500000 0.697638
O O19 0.500000 0.455402 0.000000
O O20 0.500000 0.253497 0.000000
#
# Coordination Sequence:
#
# PCOD9188930 Si02
#       8
#     8   8   8   8   8   8   8   8
#     4  10  21  39  63  84 112 162 198 241 308 363
#     4  10  19  36  63  90 115 153 200 247 294 353
#     4  10  23  43  63  91 132 170 198 240 313 379
#     4  11  22  41  61  84 119 161 202 247 302 368
#     4  10  24  39  65  94 116 156 212 255 294 358
#     4  10  21  42  62  87 120 161 197 248 309 369
#     4  10  22  39  62  91 124 161 198 242 301 365
#     4  11  25  39  59  90 119 153 204 258 301 351
#
# _framework density 19.632009
#
# number of rings (size 3 to 8) (size 9 to 14) (size 15 to 20)
#    0.000    1.750    3.750    1.125    3.500    6.000 
#    0.000    0.000    0.000    5.250    0.000    0.000 
#    0.000    0.000    0.000    0.000    0.000    0.000 
#
# Total GULP energy -178376.699776 kJ/mol
# GULP energy per Si atom -5574.271868 kJ/mol
# Density = 1.958733 g / cm^3
# Si number density = 19.632009 Si / 1000 Ang^3
#
#
#
# Elastic Constant Matrix: (Units=GPa)
#
#
# Indices 1 2 3 4 5 6 
#
# 1 27.2834 41.0379 16.3148 0.0000 7.0200 0.0000
# 2 41.0379 107.7334 23.6506 0.0000 15.2870 0.0000
# 3 16.3148 23.6506 74.8625 0.0000 2.0599 0.0000
# 4 0.0000 0.0000 0.0000 14.7506 0.0000 15.6741
# 5 7.0200 15.2870 2.0599 0.0000 21.6433 0.0000
# 6 0.0000 0.0000 0.0000 15.6741 0.0000 34.4242
#
#
#
# Elastic Compliance Matrix: (Units=1/GPa)
#
#
# Indices 1 2 3 4 5 6 
#
# 1 0.092646 -0.032231 -0.009833 0.000000 -0.006348 0.000000
# 2 -0.032231 0.022283 0.000130 0.000000 -0.005297 0.000000
# 3 -0.009833 0.000130 0.015415 0.000000 0.001630 0.000000
# 4 0.000000 0.000000 0.000000 0.131339 0.000000 -0.059802
# 5 -0.006348 -0.005297 0.001630 0.000000 0.051849 0.000000
# 6 0.000000 0.000000 0.000000 -0.059802 0.000000 0.056278
#
#
# Mechanical properties :
#
#
# Convention : Reuss Voigt Hill
#
# Bulk Modulus (GPa) = 21.51688 41.32066 31.41877
# Shear Modulus (GPa) = 10.65713 22.75536 16.70625
#
# Velocity S-wave (km/s) = 2.33243 3.40824 2.92030
# Velocity P-wave (km/s) = 4.27054 6.04826 5.23541
#
# Compressibility (1/GPa) = 0.04647513
#
# Stress axis : x y z
#
# Youngs Moduli (GPa) = 10.79379 44.87777 64.87298
#
# Poissons Ratio (x) = 1.44647 0.63791
# Poissons Ratio (y) = 0.34790 -0.00846
# Poissons Ratio (z) = 0.10614 -0.00585
#
# Static dielectric constant tensor:
#      x y z
#    x 1.762610 0.000000 0.008930 
#    y 0.000000 1.666140 0.000000 
#    z 0.008930 0.000000 1.737900 
# 
# From -- ./inp_files/161237.got.cif
#   From: 2010.05.17/outbox.cif.g08.bks.cpg/sg12_81_cif.got.tgz:161237.got - 2010.06.03 13:09:07.
