data_PCOD9188161
_publ_section_title
;
Structure prediction by ZEFSAII (Michael W. Deem and Ramdas Pophale) SiO2 
 PCOD9188161
Probable space group: C 2/M
;
_chemical_formula_sum "Si O2"
_cell_formula_units_Z 64
_cell_length_a 15.527854
_cell_length_b 7.801925
_cell_length_c 29.890519
_cell_angle_alpha 90.000000
_cell_angle_beta 124.375413
_cell_angle_gamma 90.000000
_cell_volume 2988.738423
_symmetry_space_group_name_H-M "C 2/M"
_symmetry_group_IT_number 12
_symmetry_cell_setting 'monoclinic'
loop_
_space_group_symop_operation_xyz
x,y,z
-x,y,-z
-x,-y,-z
x,-y,z
1/2+x,1/2+y,z
1/2-x,1/2+y,-z
1/2-x,1/2-y,-z
1/2+x,1/2-y,z
loop_
_atom_site_type_symbol
_atom_site_label
_atom_site_fract_x
_atom_site_fract_y
_atom_site_fract_z
Si Si1 0.695744 0.297761 0.704019
Si Si2 0.072098 0.289062 0.215164
Si Si3 0.910462 0.789988 0.417249
Si Si4 0.851142 0.794147 0.499056
Si Si5 0.084822 0.705443 0.759838
Si Si6 0.497550 0.193293 0.896570
Si Si7 0.211946 0.208862 0.124378
Si Si8 0.666688 0.698963 0.012444
O O1 0.712316 0.500000 0.701882
O O2 0.808855 0.227720 0.751727
O O3 0.651237 0.228448 0.644452
O O4 0.614643 0.276239 0.720492
O O5 0.069849 0.500000 0.211126
O O6 0.000293 0.228562 0.152444
O O7 0.021246 0.239897 0.247297
O O8 0.855299 0.737645 0.447860
O O9 0.032888 0.737629 0.450377
O O10 0.911114 0.000000 0.417479
O O11 0.750000 0.750000 0.500000
O O12 0.852895 0.000000 0.498986
O O13 0.082565 0.500000 0.754855
O O14 0.176819 0.748172 0.821822
O O15 0.376026 0.202595 0.871840
O O16 0.538790 0.000000 0.905956
O O17 0.556189 0.271604 0.956198
O O18 0.192268 0.275156 0.068238
O O19 0.198415 0.000000 0.122828
O O20 0.677051 0.500000 0.023113
O O21 0.750000 0.750000 0.000000
#
# Coordination Sequence:
#
# PCOD9188161 Si02
#       8
#     8   8   8   8   8   8   8   8
#     4  10  19  36  57  79 107 145 189 229 265 318
#     4   9  19  35  55  77 106 143 181 220 271 328
#     4   8  17  33  54  77 111 151 184 219 272 329
#     4   9  17  33  55  82 111 147 186 224 269 321
#     4  10  20  36  56  78 107 143 179 224 278 327
#     4  11  21  36  57  80 105 137 180 226 273 333
#     4  10  21  37  55  75 106 141 176 220 280 334
#     4  11  23  38  55  78 106 138 176 223 278 339
#
# _framework density 21.413717999999999
#
# number of rings (size 3 to 8) (size 9 to 14) (size 15 to 20)
#    0.000    2.250    1.250    2.625    0.000    5.500 
#    0.000    6.875    0.000    0.000    0.000    0.000 
#    0.000    0.000    0.000    0.000    0.000    0.000 
#
# Total GULP energy -178453.305859 kJ/mol
# GULP energy per Si atom -5576.665808 kJ/mol
# Density = 2.136498 g / cm^3
# Si number density = 21.413718 Si / 1000 Ang^3
#
#
#
# Elastic Constant Matrix: (Units=GPa)
#
#
# Indices 1 2 3 4 5 6 
#
# 1 95.3781 -4.6109 33.4517 0.0000 -21.9439 0.0000
# 2 -4.6109 20.5319 7.9861 0.0000 0.6600 0.0000
# 3 33.4517 7.9861 124.7823 0.0000 -25.6245 0.0000
# 4 0.0000 0.0000 0.0000 10.5306 0.0000 -3.3676
# 5 -21.9439 0.6600 -25.6245 0.0000 21.8942 0.0000
# 6 0.0000 0.0000 0.0000 -3.3676 0.0000 26.4610
#
#
#
# Elastic Compliance Matrix: (Units=1/GPa)
#
#
# Indices 1 2 3 4 5 6 
#
# 1 0.013958 0.003307 -0.001450 0.000000 0.012194 0.000000
# 2 0.003307 0.051538 -0.005033 0.000000 -0.004130 0.000000
# 3 -0.001450 -0.005033 0.011133 0.000000 0.011729 0.000000
# 4 0.000000 0.000000 0.000000 0.098990 0.000000 0.012598
# 5 0.012194 -0.004130 0.011729 0.000000 0.071747 0.000000
# 6 0.000000 0.000000 0.000000 0.012598 0.000000 0.039395
#
#
# Mechanical properties :
#
#
# Convention : Reuss Voigt Hill
#
# Bulk Modulus (GPa) = 14.22934 34.92732 24.57833
# Shear Modulus (GPa) = 15.79586 25.36820 20.58203
#
# Velocity S-wave (km/s) = 2.71892 3.44564 3.10362
# Velocity P-wave (km/s) = 4.06400 5.67239 4.93417
#
# Compressibility (1/GPa) = 0.07027732
#
# Stress axis : x y z
#
# Youngs Moduli (GPa) = 71.64208 19.40332 89.82102
#
# Poissons Ratio (x) = -0.06416 0.13020
# Poissons Ratio (y) = -0.23689 0.45206
# Poissons Ratio (z) = 0.10385 0.09766
#
# Static dielectric constant tensor:
#      x y z
#    x 1.774980 0.000000 0.005850 
#    y 0.000000 1.799110 0.000000 
#    z 0.005850 0.000000 1.847430 
# 
# From -- ./inp_files/375071.got.cif
#   From: 2010.05.17/outbox.cif.g08.bks.cpg/sg12_188_cif.got.tgz:375071.got - 2010.06.03 13:09:07.
