data_PCOD9188095
_publ_section_title
;
Structure prediction by ZEFSAII (Michael W. Deem and Ramdas Pophale) SiO2 
 PCOD9188095
Probable space group: C 2/M
;
_chemical_formula_sum "Si O2"
_cell_formula_units_Z 52
_cell_length_a 27.446310
_cell_length_b 14.059578
_cell_length_c 8.678225
_cell_angle_alpha 90.000000
_cell_angle_beta 115.352986
_cell_angle_gamma 90.000000
_cell_volume 3026.252540
_symmetry_space_group_name_H-M "C 2/M"
_symmetry_group_IT_number 12
_symmetry_cell_setting 'monoclinic'
loop_
_space_group_symop_operation_xyz
x,y,z
-x,y,-z
-x,-y,-z
x,-y,z
1/2+x,1/2+y,z
1/2-x,1/2+y,-z
1/2-x,1/2-y,-z
1/2+x,1/2-y,z
loop_
_atom_site_type_symbol
_atom_site_label
_atom_site_fract_x
_atom_site_fract_y
_atom_site_fract_z
Si Si1 0.000000 0.734282 0.000000
Si Si2 0.912859 0.104710 0.332871
Si Si3 0.522060 0.393989 0.280009
Si Si4 0.607369 0.112434 0.079395
Si Si5 0.255244 0.785505 0.253739
Si Si6 0.719423 0.111385 0.397362
Si Si7 0.336994 0.237936 0.090537
O O1 0.016401 0.806558 0.158252
O O2 0.052485 0.669877 0.037238
O O3 0.929806 0.119121 0.532887
O O4 0.877266 0.187862 0.219539
O O5 0.967697 0.103440 0.307834
O O6 0.887459 0.000000 0.283598
O O7 0.528124 0.500000 0.216631
O O8 0.655914 0.127293 0.269875
O O9 0.596844 0.000000 0.057187
O O10 0.632498 0.153053 0.954956
O O11 0.266392 0.856043 0.410224
O O12 0.253072 0.680063 0.328346
O O13 0.298391 0.795705 0.176096
O O14 0.198222 0.791515 0.088312
O O15 0.730603 0.000000 0.388651
#
# Coordination Sequence:
#
# PCOD9188095 Si02
#       7
#     4   8   8   8   8   8   8
#     4  12  20  34  60  80 104 146 184 228 260 320
#     4   9  18  34  53  77 109 138 167 212 273 331
#     4   9  19  34  54  80 108 138 172 212 273 332
#     4  10  22  37  54  78 109 147 187 227 272 312
#     4   9  20  34  58  82 104 139 188 216 265 329
#     4   9  19  38  56  77 112 143 172 225 278 320
#     4  10  19  36  56  80 108 143 178 228 266 317
#
# _framework density 17.182967000000001
#
# number of rings (size 3 to 8) (size 9 to 14) (size 15 to 20)
#    0.000    2.462    1.538    1.385    2.154    1.846 
#    0.000    3.077    0.000    0.923    0.000    0.000 
#    0.000    0.000    0.000    0.000    0.000    0.000 
#
# Total GULP energy -144839.929284 kJ/mol
# GULP energy per Si atom -5570.766511 kJ/mol
# Density = 1.714386 g / cm^3
# Si number density = 17.182967 Si / 1000 Ang^3
#
#
#
# Elastic Constant Matrix: (Units=GPa)
#
#
# Indices 1 2 3 4 5 6 
#
# 1 65.1288 39.2588 23.9678 0.0000 -7.7026 0.0000
# 2 39.2588 107.4488 46.1442 0.0000 2.5697 0.0000
# 3 23.9678 46.1442 81.9358 0.0000 -4.9702 0.0000
# 4 0.0000 0.0000 0.0000 28.0903 0.0000 6.3433
# 5 -7.7026 2.5697 -4.9702 0.0000 16.3602 0.0000
# 6 0.0000 0.0000 0.0000 6.3433 0.0000 6.1071
#
#
#
# Elastic Compliance Matrix: (Units=1/GPa)
#
#
# Indices 1 2 3 4 5 6 
#
# 1 0.021763 -0.007608 -0.001414 0.000000 0.011012 0.000000
# 2 -0.007608 0.015212 -0.006830 0.000000 -0.008046 0.000000
# 3 -0.001414 -0.006830 0.016799 0.000000 0.005511 0.000000
# 4 0.000000 0.000000 0.000000 0.046508 0.000000 -0.048306
# 5 0.011012 -0.008046 0.005511 0.000000 0.069246 0.000000
# 6 0.000000 0.000000 0.000000 -0.048306 0.000000 0.213918
#
#
# Mechanical properties :
#
#
# Convention : Reuss Voigt Hill
#
# Bulk Modulus (GPa) = 45.30749 52.58385 48.94567
# Shear Modulus (GPa) = 11.83420 19.78770 15.81095
#
# Velocity S-wave (km/s) = 2.62719 3.39719 3.03669
# Velocity P-wave (km/s) = 5.96890 6.78650 6.39079
#
# Compressibility (1/GPa) = 0.02207140
#
# Stress axis : x y z
#
# Youngs Moduli (GPa) = 45.95052 65.73837 59.52847
#
# Poissons Ratio (x) = 0.50012 0.08414
# Poissons Ratio (y) = 0.34958 0.40655
# Poissons Ratio (z) = 0.06495 0.44897
#
# Static dielectric constant tensor:
#      x y z
#    x 1.585250 0.000000 0.005390 
#    y 0.000000 1.564550 0.000000 
#    z 0.005390 0.000000 1.582640 
# 
# From -- ./inp_files/103267.got.cif
#   From: 2010.05.17/outbox.cif.g08.bks.cpg/sg12_52_cif.got.tgz:103267.got - 2010.06.03 13:09:07.
