data_PCOD9188454
_publ_section_title
;
Structure prediction by ZEFSAII (Michael W. Deem and Ramdas Pophale) SiO2 
 PCOD9188454
Probable space group: C 2/M
;
_chemical_formula_sum "Si O2"
_cell_formula_units_Z 56
_cell_length_a 15.398339
_cell_length_b 22.302538
_cell_length_c 7.495228
_cell_angle_alpha 90.000000
_cell_angle_beta 85.161235
_cell_angle_gamma 90.000000
_cell_volume 2564.852708
_symmetry_space_group_name_H-M "C 2/M"
_symmetry_group_IT_number 12
_symmetry_cell_setting 'monoclinic'
loop_
_space_group_symop_operation_xyz
x,y,z
-x,y,-z
-x,-y,-z
x,-y,z
1/2+x,1/2+y,z
1/2-x,1/2+y,-z
1/2-x,1/2-y,-z
1/2+x,1/2-y,z
loop_
_atom_site_type_symbol
_atom_site_label
_atom_site_fract_x
_atom_site_fract_y
_atom_site_fract_z
Si Si1 0.200154 0.128752 0.362448
Si Si2 0.029526 0.069137 0.284565
Si Si3 0.785665 0.568504 0.853958
Si Si4 0.134963 0.568575 0.522315
Si Si5 0.413348 0.891706 0.106192
Si Si6 0.128588 0.150168 0.760759
Si Si7 0.681601 0.776817 0.873359
O O1 0.124966 0.099049 0.256563
O O2 0.266447 0.078330 0.423682
O O3 0.152455 0.151750 0.547403
O O4 0.258395 0.182253 0.269499
O O5 0.000000 0.067375 0.500000
O O6 0.958733 0.111632 0.203634
O O7 0.029833 0.000000 0.222836
O O8 0.757950 0.500000 0.821704
O O9 0.856303 0.585320 0.686845
O O10 0.706649 0.614367 0.845499
O O11 0.832268 0.571917 0.036532
O O12 0.107255 0.500000 0.538391
O O13 0.081029 0.604357 0.680584
O O14 0.389039 0.824784 0.048305
O O15 0.500000 0.914384 0.000000
O O16 0.129738 0.219167 0.814497
O O17 0.750000 0.750000 0.000000
#
# Coordination Sequence:
#
# PCOD9188454 Si02
#       7
#     8   8   8   8   8   8   8
#     4   9  19  34  59  87 117 152 193 241 293 355
#     4   9  17  32  59  94 124 148 185 243 305 360
#     4  10  20  37  62  88 117 153 192 237 293 357
#     4   9  19  36  60  87 117 154 192 235 294 360
#     4  11  24  40  58  85 115 153 195 249 296 339
#     4  10  19  36  59  87 117 152 198 237 292 355
#     4  11  22  39  59  77 112 157 199 241 290 347
#
# _framework density 21.833613
#
# number of rings (size 3 to 8) (size 9 to 14) (size 15 to 20)
#    0.000    2.143    1.429    1.714    0.000    6.286 
#    0.000    1.429    0.000    0.857    0.000    0.000 
#    0.000    0.000    0.000    0.000    0.000    0.000 
#
# Total GULP energy -156244.695086 kJ/mol
# GULP energy per Si atom -5580.167682 kJ/mol
# Density = 2.178392 g / cm^3
# Si number density = 21.833613 Si / 1000 Ang^3
#
#
#
# Elastic Constant Matrix: (Units=GPa)
#
#
# Indices 1 2 3 4 5 6 
#
# 1 63.8305 24.2801 -11.5545 0.0000 9.5995 0.0000
# 2 24.2801 128.4471 6.4877 0.0000 10.9115 0.0000
# 3 -11.5545 6.4877 67.6748 0.0000 -0.0844 0.0000
# 4 0.0000 0.0000 0.0000 26.8116 0.0000 8.0983
# 5 9.5995 10.9115 -0.0844 0.0000 17.2880 0.0000
# 6 0.0000 0.0000 0.0000 8.0983 0.0000 16.3688
#
#
#
# Elastic Compliance Matrix: (Units=1/GPa)
#
#
# Indices 1 2 3 4 5 6 
#
# 1 0.018708 -0.002991 0.003470 0.000000 -0.008483 0.000000
# 2 -0.002991 0.008748 -0.001354 0.000000 -0.003867 0.000000
# 3 0.003470 -0.001354 0.015498 0.000000 -0.000997 0.000000
# 4 0.000000 0.000000 0.000000 0.043850 0.000000 -0.021694
# 5 -0.008483 -0.003867 -0.000997 0.000000 0.064990 0.000000
# 6 0.000000 0.000000 0.000000 -0.021694 0.000000 0.071825
#
#
# Mechanical properties :
#
#
# Convention : Reuss Voigt Hill
#
# Bulk Modulus (GPa) = 24.26955 33.15323 28.71139
# Shear Modulus (GPa) = 20.91154 28.14295 24.52725
#
# Velocity S-wave (km/s) = 3.09814 3.59412 3.35531
# Velocity P-wave (km/s) = 4.89262 5.69571 5.30937
#
# Compressibility (1/GPa) = 0.04120390
#
# Stress axis : x y z
#
# Youngs Moduli (GPa) = 53.45239 114.31743 64.52597
#
# Poissons Ratio (x) = 0.34192 -0.22393
# Poissons Ratio (y) = 0.15988 0.08737
# Poissons Ratio (z) = -0.18550 0.15480
#
# Static dielectric constant tensor:
#      x y z
#    x 1.810280 0.000000 -0.019850 
#    y 0.000000 1.772800 0.000000 
#    z -0.019850 0.000000 1.846360 
# 
# From -- ./inp_files/64073.got.cif
#   From: 2010.05.17/outbox.cif.g08.bks.cpg/sg12_33_cif.got.tgz:64073.got - 2010.06.03 13:09:07.
