data_PCOD9188501
_publ_section_title
;
Structure prediction by ZEFSAII (Michael W. Deem and Ramdas Pophale) SiO2 
 PCOD9188501
Probable space group: C 2/M
;
_chemical_formula_sum "Si O2"
_cell_formula_units_Z 44
_cell_length_a 34.820976
_cell_length_b 10.559616
_cell_length_c 20.613848
_cell_angle_alpha 90.000000
_cell_angle_beta 160.606018
_cell_angle_gamma 90.000000
_cell_volume 2516.908294
_symmetry_space_group_name_H-M "C 2/M"
_symmetry_group_IT_number 12
_symmetry_cell_setting 'monoclinic'
loop_
_space_group_symop_operation_xyz
x,y,z
-x,y,-z
-x,-y,-z
x,-y,z
1/2+x,1/2+y,z
1/2-x,1/2+y,-z
1/2-x,1/2-y,-z
1/2+x,1/2-y,z
loop_
_atom_site_type_symbol
_atom_site_label
_atom_site_fract_x
_atom_site_fract_y
_atom_site_fract_z
Si Si1 0.318491 0.854099 0.568390
Si Si2 0.297252 0.500000 0.001684
Si Si3 0.917982 0.500000 0.244785
Si Si4 0.910905 0.648007 0.014986
Si Si5 0.676453 0.000000 0.671710
Si Si6 0.059498 0.760076 0.799098
Si Si7 0.203832 0.728335 0.615083
O O1 0.250000 0.750000 0.500000
O O2 0.456782 0.837288 0.798003
O O3 0.291415 0.830973 0.449152
O O4 0.289379 0.000000 0.538787
O O5 0.372381 0.372762 0.126687
O O6 0.191202 0.500000 0.882270
O O7 0.250978 0.500000 0.854551
O O8 0.920503 0.626911 0.205474
O O9 0.041898 0.500000 0.477640
O O10 0.897308 0.500000 0.011033
O O11 0.901319 0.732942 0.064536
O O12 0.813644 0.686371 0.808202
O O13 0.699841 0.880829 0.662844
O O14 0.922786 0.792124 0.582544
#
# Coordination Sequence:
#
# PCOD9188501 Si02
#       7
#     8   4   4   8   4   8   8
#     4  10  22  41  60  86 117 150 185 230 286 339
#     4  12  21  34  57  91 113 139 201 248 279 321
#     4  10  21  38  55  78 119 163 178 233 297 341
#     4  10  20  38  62  80 112 157 189 223 281 350
#     4  10  19  36  60  80 109 150 199 227 280 341
#     4  10  21  36  58  82 115 151 192 233 281 338
#     4  10  20  38  60  83 111 150 192 233 278 333
#
# _framework density 17.481764999999999
#
# number of rings (size 3 to 8) (size 9 to 14) (size 15 to 20)
#    0.000    1.818    3.636    0.818    1.273    1.455 
#    6.545    2.727    0.000    1.091    0.000    0.000 
#    0.000    0.000    0.000    0.000    0.000    0.000 
#
# Total GULP energy -122690.165104 kJ/mol
# GULP energy per Si atom -5576.825687 kJ/mol
# Density = 1.744198 g / cm^3
# Si number density = 17.481765 Si / 1000 Ang^3
#
#
#
# Elastic Constant Matrix: (Units=GPa)
#
#
# Indices 1 2 3 4 5 6 
#
# 1 65.8450 32.5206 37.5335 0.0000 9.7540 0.0000
# 2 32.5206 97.0609 50.5220 0.0000 16.7289 0.0000
# 3 37.5335 50.5220 109.2362 0.0000 -7.3720 0.0000
# 4 0.0000 0.0000 0.0000 24.8839 0.0000 4.6449
# 5 9.7540 16.7289 -7.3720 0.0000 21.1431 0.0000
# 6 0.0000 0.0000 0.0000 4.6449 0.0000 23.1168
#
#
#
# Elastic Compliance Matrix: (Units=1/GPa)
#
#
# Indices 1 2 3 4 5 6 
#
# 1 0.022003 -0.001293 -0.007761 0.000000 -0.011833 0.000000
# 2 -0.001293 0.018577 -0.009319 0.000000 -0.017351 0.000000
# 3 -0.007761 -0.009319 0.017277 0.000000 0.016977 0.000000
# 4 0.000000 0.000000 0.000000 0.041753 0.000000 -0.008389
# 5 -0.011833 -0.017351 0.016977 0.000000 0.072405 0.000000
# 6 0.000000 0.000000 0.000000 -0.008389 0.000000 0.044944
#
#
# Mechanical properties :
#
#
# Convention : Reuss Voigt Hill
#
# Bulk Modulus (GPa) = 47.36696 57.03273 52.19984
# Shear Modulus (GPa) = 19.17620 23.93314 21.55467
#
# Velocity S-wave (km/s) = 3.31558 3.70406 3.51519
# Velocity P-wave (km/s) = 6.46617 7.14061 6.81174
#
# Compressibility (1/GPa) = 0.02111176
#
# Stress axis : x y z
#
# Youngs Moduli (GPa) = 45.44934 53.82945 57.88125
#
# Poissons Ratio (x) = 0.06960 0.44920
# Poissons Ratio (y) = 0.05876 0.53938
# Poissons Ratio (z) = 0.35272 0.50162
#
# Static dielectric constant tensor:
#      x y z
#    x 1.564080 0.000000 0.001260 
#    y 0.000000 1.587320 0.000000 
#    z 0.001260 0.000000 1.595600 
# 
# From -- ./inp_files/212004.got.cif
#   From: 2010.05.17/outbox.cif.g08.bks.cpg/sg12_107_cif.got.tgz:212004.got - 2010.06.03 13:09:07.
