data_PCOD9188399
_publ_section_title
;
Structure prediction by ZEFSAII (Michael W. Deem and Ramdas Pophale) SiO2 
 PCOD9188399
Probable space group: C 2/M
;
_chemical_formula_sum "Si O2"
_cell_formula_units_Z 56
_cell_length_a 17.430345
_cell_length_b 13.935360
_cell_length_c 20.194554
_cell_angle_alpha 90.000000
_cell_angle_beta 141.518172
_cell_angle_gamma 90.000000
_cell_volume 3052.353213
_symmetry_space_group_name_H-M "C 2/M"
_symmetry_group_IT_number 12
_symmetry_cell_setting 'monoclinic'
loop_
_space_group_symop_operation_xyz
x,y,z
-x,y,-z
-x,-y,-z
x,-y,z
1/2+x,1/2+y,z
1/2-x,1/2+y,-z
1/2-x,1/2-y,-z
1/2+x,1/2-y,z
loop_
_atom_site_type_symbol
_atom_site_label
_atom_site_fract_x
_atom_site_fract_y
_atom_site_fract_z
Si Si1 0.538634 0.735152 0.229677
Si Si2 0.871905 0.111053 0.337276
Si Si3 0.854044 0.609376 0.909831
Si Si4 0.248379 0.385136 0.379551
Si Si5 0.411967 0.614414 0.612497
Si Si6 0.273225 0.225455 0.091187
Si Si7 0.547095 0.387706 0.957127
O O1 0.629704 0.823587 0.281684
O O2 0.596643 0.661625 0.321742
O O3 0.419727 0.775230 0.189323
O O4 0.506355 0.679959 0.138563
O O5 0.732987 0.113224 0.213637
O O6 0.855551 0.147294 0.400641
O O7 0.968514 0.150555 0.349149
O O8 0.910042 0.000000 0.369485
O O9 0.842497 0.500000 0.928181
O O10 0.790252 0.687585 0.912542
O O11 0.000000 0.627600 0.000000
O O12 0.230290 0.500000 0.359084
O O13 0.296174 0.368440 0.486147
O O14 0.426552 0.500000 0.631521
O O15 0.250000 0.250000 0.000000
O O16 0.194075 0.132543 0.056447
O O17 0.520826 0.500000 0.926079
O O18 0.500000 0.364876 0.000000
#
# Coordination Sequence:
#
# PCOD9188399 Si02
#       7
#     8   8   8   8   8   8   8
#     4  11  22  36  59  83 109 149 185 222 275 331
#     4   9  18  33  54  79 108 145 178 217 276 329
#     4  10  20  33  54  81 110 140 177 223 269 328
#     4  10  22  36  54  84 116 145 180 230 281 323
#     4  10  19  36  59  83 113 144 185 231 271 325
#     4  10  22  34  52  79 108 141 178 225 272 323
#     4  10  23  41  57  76 106 145 189 229 267 320
#
# _framework density 18.346501
#
# number of rings (size 3 to 8) (size 9 to 14) (size 15 to 20)
#    0.000    2.000    1.429    1.714    6.000    4.571 
#    0.000    0.000    0.000    0.429    0.000    0.000 
#    0.000   12.571    0.000    0.000    0.000    0.000 
#
# Total GULP energy -155905.135742 kJ/mol
# GULP energy per Si atom -5568.040562 kJ/mol
# Density = 1.830474 g / cm^3
# Si number density = 18.346501 Si / 1000 Ang^3
#
#
#
# Elastic Constant Matrix: (Units=GPa)
#
#
# Indices 1 2 3 4 5 6 
#
# 1 94.8714 42.9963 32.1175 0.0000 -2.3840 0.0000
# 2 42.9963 64.7633 46.2728 0.0000 2.6473 0.0000
# 3 32.1175 46.2728 67.9199 0.0000 -7.6220 0.0000
# 4 0.0000 0.0000 0.0000 21.2527 0.0000 -6.3633
# 5 -2.3840 2.6473 -7.6220 0.0000 36.0012 0.0000
# 6 0.0000 0.0000 0.0000 -6.3633 0.0000 17.6564
#
#
#
# Elastic Compliance Matrix: (Units=1/GPa)
#
#
# Indices 1 2 3 4 5 6 
#
# 1 0.015187 -0.010052 -0.000141 0.000000 0.001715 0.000000
# 2 -0.010052 0.038410 -0.022337 0.000000 -0.008219 0.000000
# 3 -0.000141 -0.022337 0.030926 0.000000 0.008181 0.000000
# 4 0.000000 0.000000 0.000000 0.052744 0.000000 0.019009
# 5 0.001715 -0.008219 0.008181 0.000000 0.030227 0.000000
# 6 0.000000 0.000000 0.000000 0.019009 0.000000 0.063487
#
#
# Mechanical properties :
#
#
# Convention : Reuss Voigt Hill
#
# Bulk Modulus (GPa) = 51.38004 52.25863 51.81933
# Shear Modulus (GPa) = 16.52732 22.05993 19.29363
#
# Velocity S-wave (km/s) = 3.00466 3.47133 3.24639
# Velocity P-wave (km/s) = 6.33273 6.67929 6.50832
#
# Compressibility (1/GPa) = 0.01946281
#
# Stress axis : x y z
#
# Youngs Moduli (GPa) = 65.84561 26.03467 32.33551
#
# Poissons Ratio (x) = 0.26171 0.00455
# Poissons Ratio (y) = 0.66190 0.72229
# Poissons Ratio (z) = 0.00926 0.58154
#
# Static dielectric constant tensor:
#      x y z
#    x 1.662510 0.000000 0.035480 
#    y 0.000000 1.621850 0.000000 
#    z 0.035480 0.000000 1.694290 
# 
# From -- ./inp_files/270362.got.cif
#   From: 2010.05.17/outbox.cif.g08.bks.cpg/sg12_136_cif.got.tgz:270362.got - 2010.06.03 13:09:07.
