data_PCOD9188183
_publ_section_title
;
Structure prediction by ZEFSAII (Michael W. Deem and Ramdas Pophale) SiO2 
 PCOD9188183
Probable space group: C 2/M
;
_chemical_formula_sum "Si O2"
_cell_formula_units_Z 58
_cell_length_a 17.010686
_cell_length_b 13.566742
_cell_length_c 24.063390
_cell_angle_alpha 90.000000
_cell_angle_beta 30.662855
_cell_angle_gamma 90.000000
_cell_volume 2832.121744
_symmetry_space_group_name_H-M "C 2/M"
_symmetry_group_IT_number 12
_symmetry_cell_setting 'monoclinic'
loop_
_space_group_symop_operation_xyz
x,y,z
-x,y,-z
-x,-y,-z
x,-y,z
1/2+x,1/2+y,z
1/2-x,1/2+y,-z
1/2-x,1/2-y,-z
1/2+x,1/2-y,z
loop_
_atom_site_type_symbol
_atom_site_label
_atom_site_fract_x
_atom_site_fract_y
_atom_site_fract_z
Si Si1 0.971205 0.822547 0.770572
Si Si2 0.579101 0.695512 0.823334
Si Si3 0.876167 0.700634 0.032992
Si Si4 0.388994 0.385712 0.428716
Si Si5 0.717174 0.605727 0.842865
Si Si6 0.046237 0.613077 0.679562
Si Si7 0.000000 0.000000 0.500000
Si Si8 0.603047 0.696404 0.392051
O O1 0.791016 0.847478 0.871494
O O2 0.020519 0.850426 0.802119
O O3 0.067806 0.869304 0.661395
O O4 0.004699 0.703813 0.745355
O O5 0.627943 0.616914 0.839895
O O6 0.735596 0.755362 0.717462
O O7 0.456348 0.769744 0.926521
O O8 0.835140 0.804154 0.087780
O O9 0.000000 0.651952 0.000000
O O10 0.417662 0.500000 0.428596
O O11 0.210920 0.365846 0.551222
O O12 0.502233 0.321594 0.398148
O O13 0.686506 0.500000 0.888073
O O14 0.902286 0.613716 0.724361
O O15 0.052324 0.500000 0.698266
O O16 0.121253 0.911113 0.409517
O O17 0.500000 0.754352 0.500000
#
# Coordination Sequence:
#
# PCOD9188183 Si02
#       8
#     8   8   8   8   8   8   2   8
#     4  11  22  35  55  82 114 144 178 221 280 336
#     4  11  22  34  56  82 112 145 175 227 279 329
#     4   9  19  37  58  79 102 143 184 229 271 312
#     4  11  20  35  56  79 112 148 182 220 272 331
#     4   9  19  37  58  83 108 144 192 233 268 315
#     4   9  19  35  57  81 105 139 188 235 268 311
#     4   8  20  36  60  80 108 140 188 236 262 312
#     4  10  19  36  57  82 106 139 186 226 269 316
#
# _framework density 20.479346
#
# number of rings (size 3 to 8) (size 9 to 14) (size 15 to 20)
#    0.414    1.655    0.690    4.138    0.000    4.138 
#    0.000    0.000    1.517    5.793    0.000    0.000 
#    0.000    0.000    0.000    0.000    0.000    0.000 
#
# Total GULP energy -161483.113853 kJ/mol
# GULP energy per Si atom -5568.383236 kJ/mol
# Density = 2.043273 g / cm^3
# Si number density = 20.479346 Si / 1000 Ang^3
#
#
#
# Elastic Constant Matrix: (Units=GPa)
#
#
# Indices 1 2 3 4 5 6 
#
# 1 102.8063 -14.1367 37.4398 -0.0002 -7.1055 0.0001
# 2 -14.1367 28.7272 -2.6821 -0.0002 -9.3732 0.0000
# 3 37.4398 -2.6821 119.6589 -0.0009 -18.5778 0.0003
# 4 -0.0002 -0.0002 -0.0009 11.7761 0.0003 -4.3487
# 5 -7.1055 -9.3732 -18.5778 0.0003 36.3869 -0.0002
# 6 0.0001 0.0000 0.0003 -4.3487 -0.0002 11.2940
#
#
#
# Elastic Compliance Matrix: (Units=1/GPa)
#
#
# Indices 1 2 3 4 5 6 
#
# 1 0.011934 0.006324 -0.003234 0.000000 0.002308 0.000000
# 2 0.006324 0.042101 0.000913 0.000001 0.012546 0.000000
# 3 -0.003234 0.000913 0.010131 0.000001 0.004776 0.000000
# 4 0.000000 0.000001 0.000001 0.098994 0.000000 0.038117
# 5 0.002308 0.012546 0.004776 0.000000 0.033604 0.000000
# 6 0.000000 0.000000 0.000000 0.038117 0.000000 0.103220
#
#
# Mechanical properties :
#
#
# Convention : Reuss Voigt Hill
#
# Bulk Modulus (GPa) = 13.85583 32.49270 23.17426
# Shear Modulus (GPa) = 15.82106 27.26282 21.54194
#
# Velocity S-wave (km/s) = 2.78247 3.65257 3.24680
# Velocity P-wave (km/s) = 4.13561 5.80421 5.03945
#
# Compressibility (1/GPa) = 0.07217181
#
# Stress axis : x y z
#
# Youngs Moduli (GPa) = 83.79524 23.75235 98.70800
#
# Poissons Ratio (x) = -0.15021 0.31920
# Poissons Ratio (y) = -0.52991 -0.09011
# Poissons Ratio (z) = 0.27098 -0.02168
#
# Static dielectric constant tensor:
#      x y z
#    x 1.826830 0.000000 -0.004900 
#    y 0.000000 1.731750 0.000000 
#    z -0.004900 0.000000 1.754750 
# 
# From -- ./inp_files/343825.got.cif
#   From: 2010.05.17/outbox.cif.g08.bks.cpg/sg12_172_cif.got.tgz:343825.got - 2010.06.03 13:09:07.
