data_PCOD9188926
_publ_section_title
;
Structure prediction by ZEFSAII (Michael W. Deem and Ramdas Pophale) SiO2 
 PCOD9188926
Probable space group: C 2/M
;
_chemical_formula_sum "Si O2"
_cell_formula_units_Z 40
_cell_length_a 18.097099
_cell_length_b 19.748855
_cell_length_c 6.909946
_cell_angle_alpha 90.000000
_cell_angle_beta 134.815374
_cell_angle_gamma 90.000000
_cell_volume 1751.884540
_symmetry_space_group_name_H-M "C 2/M"
_symmetry_group_IT_number 12
_symmetry_cell_setting 'monoclinic'
loop_
_space_group_symop_operation_xyz
x,y,z
-x,y,-z
-x,-y,-z
x,-y,z
1/2+x,1/2+y,z
1/2-x,1/2+y,-z
1/2-x,1/2-y,-z
1/2+x,1/2-y,z
loop_
_atom_site_type_symbol
_atom_site_label
_atom_site_fract_x
_atom_site_fract_y
_atom_site_fract_z
Si Si1 0.991235 0.000000 0.714846
Si Si2 0.619814 0.000000 0.638957
Si Si3 0.144053 0.638605 0.100847
Si Si4 0.500000 0.377006 0.000000
Si Si5 0.171831 0.778937 0.520813
Si Si6 0.745119 0.000000 0.247895
Si Si7 0.579399 0.852433 0.419579
O O1 0.034492 0.931317 0.896519
O O2 0.000000 0.000000 0.500000
O O3 0.866090 0.000000 0.519745
O O4 0.500000 0.000000 0.500000
O O5 0.626410 0.926148 0.551365
O O6 0.285317 0.000000 0.034284
O O7 0.245402 0.676089 0.208762
O O8 0.184836 0.564100 0.214026
O O9 0.101447 0.659829 0.231020
O O10 0.044706 0.641982 0.779311
O O11 0.413165 0.327620 0.742202
O O12 0.250000 0.750000 0.500000
O O13 0.124271 0.720088 0.566583
#
# Coordination Sequence:
#
# PCOD9188926 Si02
#       7
#     4   4   8   4   8   4   8
#     4  11  27  45  69 100 134 176 229 273 319 395
#     4  12  23  38  62  89 133 172 210 274 338 377
#     4  10  19  36  63  89 125 160 207 271 314 383
#     4  11  22  46  74  95 132 182 214 275 336 384
#     4  10  20  36  66  97 126 165 221 265 323 401
#     4  12  22  41  63  87 131 166 216 270 327 384
#     4  10  21  38  62  98 124 163 219 269 321 393
#
# _framework density 22.832556
#
# number of rings (size 3 to 8) (size 9 to 14) (size 15 to 20)
#    0.000    1.400    4.000    3.000    0.000    4.800 
#    0.000    2.000    0.000    0.000    0.000    0.000 
#    0.000    0.000    0.000    0.000    0.000    0.000 
#
# Total GULP energy -111376.192216 kJ/mol
# GULP energy per Si atom -5568.809611 kJ/mol
# Density = 2.278059 g / cm^3
# Si number density = 22.832556 Si / 1000 Ang^3
#
#
#
# Elastic Constant Matrix: (Units=GPa)
#
#
# Indices 1 2 3 4 5 6 
#
# 1 42.0608 35.7858 17.1641 0.0000 3.4866 0.0000
# 2 35.7858 161.0798 47.5938 0.0000 22.5752 0.0000
# 3 17.1641 47.5938 117.1557 0.0000 17.9707 0.0000
# 4 0.0000 0.0000 0.0000 4.1460 0.0000 0.7015
# 5 3.4866 22.5752 17.9707 0.0000 40.8119 0.0000
# 6 0.0000 0.0000 0.0000 0.7015 0.0000 27.2374
#
#
#
# Elastic Compliance Matrix: (Units=1/GPa)
#
#
# Indices 1 2 3 4 5 6 
#
# 1 0.029806 -0.006257 -0.002107 0.000000 0.001843 0.000000
# 2 -0.006257 0.008688 -0.002099 0.000000 -0.003347 0.000000
# 3 -0.002107 -0.002099 0.010179 0.000000 -0.003141 0.000000
# 4 0.000000 0.000000 0.000000 0.242253 0.000000 -0.006239
# 5 0.001843 -0.003347 -0.003141 0.000000 0.027579 0.000000
# 6 0.000000 0.000000 0.000000 -0.006239 0.000000 0.036875
#
#
# Mechanical properties :
#
#
# Convention : Reuss Voigt Hill
#
# Bulk Modulus (GPa) = 36.04296 57.93153 46.98725
# Shear Modulus (GPa) = 12.96828 29.08923 21.02875
#
# Velocity S-wave (km/s) = 2.38580 3.57322 3.03809
# Velocity P-wave (km/s) = 4.83833 6.51547 5.73850
#
# Compressibility (1/GPa) = 0.02774467
#
# Stress axis : x y z
#
# Youngs Moduli (GPa) = 33.55000 115.10766 98.24177
#
# Poissons Ratio (x) = 0.72028 0.20704
# Poissons Ratio (y) = 0.20994 0.20622
# Poissons Ratio (z) = 0.07071 0.24163
#
# Static dielectric constant tensor:
#      x y z
#    x 1.939970 0.000000 -0.086410 
#    y 0.000000 2.018720 0.000000 
#    z -0.086410 0.000000 1.997010 
# 
# From -- ./inp_files/89340.got.cif
#   From: 2010.05.17/outbox.cif.g08.bks.cpg/sg12_45_cif.got.tgz:89340.got - 2010.06.03 13:09:07.
