data_PCOD9188730
_publ_section_title
;
Structure prediction by ZEFSAII (Michael W. Deem and Ramdas Pophale) SiO2 
 PCOD9188730
Probable space group: C 2/M
;
_chemical_formula_sum "Si O2"
_cell_formula_units_Z 56
_cell_length_a 24.415862
_cell_length_b 8.339971
_cell_length_c 17.579535
_cell_angle_alpha 90.000000
_cell_angle_beta 45.740654
_cell_angle_gamma 90.000000
_cell_volume 2563.722960
_symmetry_space_group_name_H-M "C 2/M"
_symmetry_group_IT_number 12
_symmetry_cell_setting 'monoclinic'
loop_
_space_group_symop_operation_xyz
x,y,z
-x,y,-z
-x,-y,-z
x,-y,z
1/2+x,1/2+y,z
1/2-x,1/2+y,-z
1/2-x,1/2-y,-z
1/2+x,1/2-y,z
loop_
_atom_site_type_symbol
_atom_site_label
_atom_site_fract_x
_atom_site_fract_y
_atom_site_fract_z
Si Si1 0.454181 0.194587 0.435158
Si Si2 0.926216 0.689436 0.892001
Si Si3 0.203913 0.685523 0.702904
Si Si4 0.410074 0.316324 0.070639
Si Si5 0.838855 0.687654 0.670193
Si Si6 0.118626 0.813560 0.220659
Si Si7 0.097566 0.305583 0.675957
O O1 0.413926 0.245998 0.551692
O O2 0.536082 0.266524 0.335987
O O3 0.401235 0.237339 0.413831
O O4 0.461867 0.000000 0.429431
O O5 0.928649 0.500000 0.904557
O O6 0.877652 0.721221 0.862772
O O7 0.013929 0.744433 0.788939
O O8 0.896976 0.777815 0.995025
O O9 0.227155 0.500000 0.671138
O O10 0.135205 0.698829 0.830328
O O11 0.271380 0.783724 0.676061
O O12 0.167287 0.751057 0.660341
O O13 0.387264 0.500000 0.109437
O O14 0.500000 0.300321 0.000000
O O15 0.848755 0.500000 0.676027
O O16 0.825378 0.770885 0.764158
O O17 0.122079 0.000000 0.200326
O O18 0.098233 0.500000 0.680012
#
# Coordination Sequence:
#
# PCOD9188730 Si02
#       7
#     8   8   8   8   8   8   8
#     4   9  19  37  60  84 112 152 196 237 285 341
#     4  10  19  36  61  87 115 149 190 234 286 339
#     4  11  22  37  57  83 117 155 195 235 285 343
#     4  11  22  36  58  89 121 149 188 235 281 335
#     4  11  23  39  57  80 115 157 197 238 288 341
#     4  11  22  37  59  87 116 147 192 243 288 336
#     4   8  16  32  55  83 113 146 187 231 279 336
#
# _framework density 21.843233999999999
#
# number of rings (size 3 to 8) (size 9 to 14) (size 15 to 20)
#    0.000    1.857    1.429    4.286    0.000    4.000 
#    0.000    1.429    0.000    0.000    0.000    0.000 
#    0.000    0.000    0.000    0.000    0.000    0.000 
#
# Total GULP energy -156439.408344 kJ/mol
# GULP energy per Si atom -5587.121727 kJ/mol
# Density = 2.179352 g / cm^3
# Si number density = 21.843234 Si / 1000 Ang^3
#
#
#
# Elastic Constant Matrix: (Units=GPa)
#
#
# Indices 1 2 3 4 5 6 
#
# 1 101.1917 -5.7960 5.2452 0.0014 29.4682 -0.0013
# 2 -5.7960 26.9441 -2.2085 -0.0018 -0.4076 -0.0067
# 3 5.2452 -2.2085 21.6930 0.0019 17.1323 -0.0046
# 4 0.0014 -0.0018 0.0019 29.3526 -0.0033 -4.3986
# 5 29.4682 -0.4076 17.1323 -0.0033 30.1428 0.0044
# 6 -0.0013 -0.0067 -0.0046 -4.3986 0.0044 31.3023
#
#
#
# Elastic Compliance Matrix: (Units=1/GPa)
#
#
# Indices 1 2 3 4 5 6 
#
# 1 0.016860 0.004625 0.016988 -0.000004 -0.026076 0.000007
# 2 0.004625 0.038846 0.010873 0.000002 -0.010176 0.000012
# 3 0.016988 0.010873 0.101788 -0.000011 -0.074314 0.000027
# 4 -0.000004 0.000002 -0.000011 0.034801 0.000013 0.004890
# 5 -0.026076 -0.010176 -0.074314 0.000013 0.100768 -0.000027
# 6 0.000007 0.000012 0.000027 0.004890 -0.000027 0.032634
#
#
# Mechanical properties :
#
#
# Convention : Reuss Voigt Hill
#
# Bulk Modulus (GPa) = 4.49506 16.03446 10.26476
# Shear Modulus (GPa) = 14.93068 28.33207 21.63137
#
# Velocity S-wave (km/s) = 2.61729 3.60538 3.15032
# Velocity P-wave (km/s) = 3.34604 4.96874 4.23582
#
# Compressibility (1/GPa) = 0.22246646
#
# Stress axis : x y z
#
# Youngs Moduli (GPa) = 59.31155 25.74266 9.82432
#
# Poissons Ratio (x) = -0.11905 -0.16689
# Poissons Ratio (y) = -0.27430 -0.10682
# Poissons Ratio (z) = -1.00758 -0.27991
#
# Static dielectric constant tensor:
#      x y z
#    x 1.872120 0.000000 -0.012190 
#    y 0.000000 1.739900 0.000000 
#    z -0.012190 0.000000 1.776750 
# 
# From -- ./inp_files/288245.got.cif
#   From: 2010.05.17/outbox.cif.g08.bks.cpg/sg12_145_cif.got.tgz:288245.got - 2010.06.03 13:09:07.
