data_PCOD9188292
_publ_section_title
;
Structure prediction by ZEFSAII (Michael W. Deem and Ramdas Pophale) SiO2 
 PCOD9188292
Probable space group: C 2/M
;
_chemical_formula_sum "Si O2"
_cell_formula_units_Z 64
_cell_length_a 31.177061
_cell_length_b 8.223273
_cell_length_c 15.571627
_cell_angle_alpha 90.000000
_cell_angle_beta 52.411422
_cell_angle_gamma 90.000000
_cell_volume 3163.475767
_symmetry_space_group_name_H-M "C 2/M"
_symmetry_group_IT_number 12
_symmetry_cell_setting 'monoclinic'
loop_
_space_group_symop_operation_xyz
x,y,z
-x,y,-z
-x,-y,-z
x,-y,z
1/2+x,1/2+y,z
1/2-x,1/2+y,-z
1/2-x,1/2-y,-z
1/2+x,1/2-y,z
loop_
_atom_site_type_symbol
_atom_site_label
_atom_site_fract_x
_atom_site_fract_y
_atom_site_fract_z
Si Si1 0.501573 0.305561 0.727459
Si Si2 0.622323 0.698601 0.142631
Si Si3 0.526871 0.185166 0.885467
Si Si4 0.324151 0.696822 0.742999
Si Si5 0.300917 0.694976 0.109621
Si Si6 0.308676 0.318450 0.444838
Si Si7 0.847849 0.319719 0.230348
Si Si8 0.888930 0.199591 0.492602
O O1 0.499183 0.500000 0.719195
O O2 0.440014 0.244484 0.790062
O O3 0.519540 0.268752 0.803020
O O4 0.549831 0.245673 0.605351
O O5 0.621334 0.500000 0.141838
O O6 0.647321 0.747775 0.203333
O O7 0.662638 0.749388 0.016372
O O8 0.588223 0.171611 0.840327
O O9 0.504725 0.000000 0.903061
O O10 0.500000 0.270498 0.000000
O O11 0.321937 0.500000 0.743740
O O12 0.262343 0.758134 0.817512
O O13 0.360607 0.748027 0.616551
O O14 0.304659 0.500000 0.110028
O O15 0.326053 0.771057 0.164693
O O16 0.301948 0.500000 0.484949
O O17 0.250000 0.250000 0.500000
O O18 0.333468 0.308817 0.320508
O O19 0.349321 0.240514 0.464179
O O20 0.826054 0.500000 0.279865
O O21 0.891034 0.000000 0.489393
#
# Coordination Sequence:
#
# PCOD9188292 Si02
#       8
#     8   8   8   8   8   8   8   8
#     4  10  19  36  58  83 114 149 188 236 287 342
#     4   9  20  36  59  87 114 146 191 240 293 347
#     4  10  21  36  54  80 113 148 188 232 282 343
#     4  10  20  38  60  84 114 151 190 237 290 347
#     4  11  22  37  56  85 117 148 191 242 289 349
#     4  11  21  35  54  82 116 152 191 234 280 338
#     4  11  22  36  55  81 111 149 190 230 284 344
#     4   9  19  34  56  83 113 146 189 234 279 336
#
# _framework density 20.230913000000001
#
# number of rings (size 3 to 8) (size 9 to 14) (size 15 to 20)
#    0.000    1.875    1.250    3.000    0.000    2.250 
#    0.000    5.625    0.000    0.000    0.000    1.750 
#    0.000    0.000    0.000    0.000    0.000    0.000 
#
# Total GULP energy -178451.022754 kJ/mol
# GULP energy per Si atom -5576.594461 kJ/mol
# Density = 2.018487 g / cm^3
# Si number density = 20.230913 Si / 1000 Ang^3
#
#
#
# Elastic Constant Matrix: (Units=GPa)
#
#
# Indices 1 2 3 4 5 6 
#
# 1 164.6129 3.3091 81.7389 0.0010 -2.8548 0.0000
# 2 3.3091 13.8908 -3.2300 0.0152 -6.1578 -0.0002
# 3 81.7389 -3.2300 153.0675 -0.0019 -7.7358 0.0001
# 4 0.0010 0.0152 -0.0019 2158.1177 -0.0008 -84.2187
# 5 -2.8548 -6.1578 -7.7358 -0.0008 38.5891 0.0000
# 6 0.0000 -0.0002 0.0001 -84.2187 0.0000 23.7103
#
#
#
# Elastic Compliance Matrix: (Units=1/GPa)
#
#
# Indices 1 2 3 4 5 6 
#
# 1 0.008420 -0.003457 -0.004612 0.000000 -0.000853 0.000000
# 2 -0.003457 0.079687 0.004200 -0.000001 0.013302 -0.000002
# 3 -0.004612 0.004200 0.009194 0.000000 0.002172 0.000000
# 4 0.000000 -0.000001 0.000000 0.000538 0.000000 0.001911
# 5 -0.000853 0.013302 0.002172 0.000000 0.028409 0.000000
# 6 0.000000 -0.000002 0.000000 0.001911 0.000000 0.048963
#
#
# Mechanical properties :
#
#
# Convention : Reuss Voigt Hill
#
# Bulk Modulus (GPa) = 11.16540 55.02304 33.09422
# Shear Modulus (GPa) = 23.49593 460.73365 242.11479
#
# Velocity S-wave (km/s) = 3.41161 15.10734 10.95151
# Velocity P-wave (km/s) = 4.58800 18.20895 13.27809
#
# Compressibility (1/GPa) = 0.08956237
#
# Stress axis : x y z
#
# Youngs Moduli (GPa) = 118.76801 12.54917 108.76143
#
# Poissons Ratio (x) = 0.04338 0.50164
# Poissons Ratio (y) = 0.41053 -0.45676
# Poissons Ratio (z) = 0.54779 -0.05270
#
# Static dielectric constant tensor:
#      x y z
#    x 1.674640 0.000000 0.007880 
#    y 0.000000 1.746430 0.000000 
#    z 0.007880 0.000000 1.700220 
# 
# From -- ./inp_files/249734.got.cif
#   From: 2010.05.17/outbox.cif.g08.bks.cpg/sg12_125_cif.got.tgz:249734.got - 2010.06.03 13:09:07.
