data_PCOD9188191
_publ_section_title
;
Structure prediction by ZEFSAII (Michael W. Deem and Ramdas Pophale) SiO2 
 PCOD9188191
Probable space group: C 2/M
;
_chemical_formula_sum "Si O2"
_cell_formula_units_Z 36
_cell_length_a 14.776761
_cell_length_b 8.549550
_cell_length_c 12.147077
_cell_angle_alpha 90.000000
_cell_angle_beta 101.359363
_cell_angle_gamma 90.000000
_cell_volume 1504.535768
_symmetry_space_group_name_H-M "C 2/M"
_symmetry_group_IT_number 12
_symmetry_cell_setting 'monoclinic'
loop_
_space_group_symop_operation_xyz
x,y,z
-x,y,-z
-x,-y,-z
x,-y,z
1/2+x,1/2+y,z
1/2-x,1/2+y,-z
1/2-x,1/2-y,-z
1/2+x,1/2-y,z
loop_
_atom_site_type_symbol
_atom_site_label
_atom_site_fract_x
_atom_site_fract_y
_atom_site_fract_z
Si Si1 0.806206 0.000000 0.486980
Si Si2 0.044642 0.000000 0.748707
Si Si3 0.721827 0.000000 0.708324
Si Si4 0.765132 0.500000 0.757057
Si Si5 0.399258 0.500000 0.907381
Si Si6 0.660955 0.818233 0.039997
Si Si7 0.925196 0.262068 0.402648
O O1 0.771725 0.000000 0.601554
O O2 0.865862 0.849665 0.468435
O O3 0.728806 0.000000 0.372094
O O4 0.980341 0.000000 0.837970
O O5 0.022737 0.847881 0.671325
O O6 0.158148 0.000000 0.775639
O O7 0.798999 0.000000 0.820726
O O8 0.649195 0.857758 0.685056
O O9 0.814264 0.354053 0.826681
O O10 0.401827 0.664091 0.974703
O O11 0.636850 0.000000 0.994840
O O12 0.750000 0.750000 0.000000
O O13 0.000000 0.339889 0.500000
#
# Coordination Sequence:
#
# PCOD9188191 Si02
#       7
#     4   4   4   4   4   8   8
#     4  10  19  36  57  82 120 164 211 241 291 356
#     4  10  21  38  58  83 119 166 193 244 313 355
#     4  12  23  33  58  93 115 166 211 245 292 353
#     4   8  19  38  60  90 126 160 200 254 303 363
#     4  12  21  39  67  92 121 160 206 246 302 361
#     4  10  21  41  68  94 118 152 201 252 307 363
#     4  10  20  36  51  78 122 165 206 247 294 346
#
# _framework density 23.927647
#
# number of rings (size 3 to 8) (size 9 to 14) (size 15 to 20)
#    0.667    1.333    1.111    6.333    0.000    1.778 
#    2.000    2.222    0.000    1.333    0.000    0.000 
#    0.000    0.000    0.000    0.000    0.000    0.000 
#
# Total GULP energy -100342.953996 kJ/mol
# GULP energy per Si atom -5574.608555 kJ/mol
# Density = 2.387319 g / cm^3
# Si number density = 23.927647 Si / 1000 Ang^3
#
#
#
# Elastic Constant Matrix: (Units=GPa)
#
#
# Indices 1 2 3 4 5 6 
#
# 1 86.7007 43.7584 27.0251 0.0000 14.1007 0.0000
# 2 43.7584 188.7179 28.5679 0.0000 -7.0975 0.0000
# 3 27.0251 28.5679 52.8995 0.0000 -10.5321 0.0000
# 4 0.0000 0.0000 0.0000 -27.0744 0.0000 16.0324
# 5 14.1007 -7.0975 -10.5321 0.0000 60.8627 0.0000
# 6 0.0000 0.0000 0.0000 16.0324 0.0000 -14.0191
#
#
#
# Elastic Compliance Matrix: (Units=1/GPa)
#
#
# Indices 1 2 3 4 5 6 
#
# 1 0.016295 -0.002787 -0.007909 0.000000 -0.005469 0.000000
# 2 -0.002787 0.006248 -0.001737 0.000000 0.001074 0.000000
# 3 -0.007909 -0.001737 0.025070 0.000000 0.005968 0.000000
# 4 0.000000 0.000000 0.000000 -0.114422 0.000000 -0.130854
# 5 -0.005469 0.001074 0.005968 0.000000 0.018855 0.000000
# 6 0.000000 0.000000 0.000000 -0.130854 0.000000 -0.220978
#
#
# Mechanical properties :
#
#
# Convention : Reuss Voigt Hill
#
# Bulk Modulus (GPa) = 43.95770 58.55790 51.25780
# Shear Modulus (GPa) = -21.14315 19.21827 -0.96244
#
# Velocity S-wave (km/s) = -2.97581 2.83712 -0.63490
# Velocity P-wave (km/s) = 2.56976 5.93788 4.57504
#
# Compressibility (1/GPa) = 0.02274914
#
# Stress axis : x y z
#
# Youngs Moduli (GPa) = 61.36832 160.04050 39.88785
#
# Poissons Ratio (x) = 0.44601 0.31546
# Poissons Ratio (y) = 0.17102 0.06928
# Poissons Ratio (z) = 0.48534 0.27797
#
# Static dielectric constant tensor:
#      x y z
#    x 1.903730 0.000000 0.054160 
#    y 0.000000 2.018210 0.000000 
#    z 0.054160 0.000000 1.901360 
# 
# From -- ./inp_files/210804.got.cif
#   From: 2010.05.17/outbox.cif.g08.bks.cpg/sg12_106_cif.got.tgz:210804.got - 2010.06.03 13:09:07.
