data_PCOD9188263
_publ_section_title
;
Structure prediction by ZEFSAII (Michael W. Deem and Ramdas Pophale) SiO2 
 PCOD9188263
Probable space group: C 2/M
;
_chemical_formula_sum "Si O2"
_cell_formula_units_Z 42
_cell_length_a 14.970780
_cell_length_b 7.521291
_cell_length_c 21.579856
_cell_angle_alpha 90.000000
_cell_angle_beta 47.943540
_cell_angle_gamma 90.000000
_cell_volume 1804.151910
_symmetry_space_group_name_H-M "C 2/M"
_symmetry_group_IT_number 12
_symmetry_cell_setting 'monoclinic'
loop_
_space_group_symop_operation_xyz
x,y,z
-x,y,-z
-x,-y,-z
x,-y,z
1/2+x,1/2+y,z
1/2-x,1/2+y,-z
1/2-x,1/2-y,-z
1/2+x,1/2-y,z
loop_
_atom_site_type_symbol
_atom_site_label
_atom_site_fract_x
_atom_site_fract_y
_atom_site_fract_z
Si Si1 0.000000 0.500000 0.500000
Si Si2 0.161652 0.716939 0.218631
Si Si3 0.183161 0.197032 0.430362
Si Si4 0.626687 0.211056 0.093324
Si Si5 0.072748 0.204120 0.908083
Si Si6 0.417646 0.214443 0.390491
O O1 0.898456 0.344758 0.563081
O O2 0.156856 0.500000 0.224722
O O3 0.137852 0.769312 0.158721
O O4 0.296876 0.778858 0.169690
O O5 0.049988 0.776704 0.311615
O O6 0.324054 0.239880 0.377235
O O7 0.133345 0.196580 0.524382
O O8 0.172003 0.000000 0.408592
O O9 0.516448 0.293691 0.107816
O O10 0.608203 0.000000 0.101831
O O11 0.750000 0.250000 0.000000
O O12 0.098355 0.000000 0.915717
O O13 0.000000 0.286654 0.000000
O O14 0.419247 0.000000 0.404651
#
# Coordination Sequence:
#
# PCOD9188263 Si02
#       6
#     2   8   8   8   8   8
#     4  12  22  40  64  98 124 158 202 260 306 358
#     4   9  19  37  60  83 116 161 199 244 305 361
#     4  10  21  38  65  92 125 163 206 248 306 369
#     4  11  21  36  57  82 114 152 200 249 303 361
#     4  10  19  36  58  81 112 153 197 243 303 364
#     4   9  18  39  63  86 117 164 204 246 304 372
#
# _framework density 23.279636
#
# number of rings (size 3 to 8) (size 9 to 14) (size 15 to 20)
#    0.000    2.095    2.857    0.857    1.333    0.381 
#    3.429    2.857    0.000    0.000    0.000    0.000 
#    0.000    0.000    0.000    0.000    0.000    0.000 
#
# Total GULP energy -117122.853338 kJ/mol
# GULP energy per Si atom -5577.278730 kJ/mol
# Density = 2.322665 g / cm^3
# Si number density = 23.279636 Si / 1000 Ang^3
#
#
#
# Elastic Constant Matrix: (Units=GPa)
#
#
# Indices 1 2 3 4 5 6 
#
# 1 80.4371 8.1255 38.4224 0.0000 -33.5398 0.0001
# 2 8.1255 92.0707 -3.4058 0.0001 -15.6329 0.0002
# 3 38.4224 -3.4058 135.0981 0.0000 -45.6629 0.0000
# 4 0.0000 0.0001 0.0000 5.4202 0.0000 -2.2574
# 5 -33.5398 -15.6329 -45.6629 0.0000 41.7462 0.0000
# 6 0.0001 0.0002 0.0000 -2.2574 0.0000 25.0124
#
#
#
# Elastic Compliance Matrix: (Units=1/GPa)
#
#
# Indices 1 2 3 4 5 6 
#
# 1 0.018777 0.000928 -0.000159 0.000000 0.015259 0.000000
# 2 0.000928 0.012349 0.002955 0.000000 0.008602 0.000000
# 3 -0.000159 0.002955 0.012459 0.000000 0.014606 0.000000
# 4 0.000000 0.000000 0.000000 0.191700 0.000000 0.017301
# 5 0.015259 0.008602 0.014606 0.000000 0.055411 0.000000
# 6 0.000000 0.000000 0.000000 0.017301 0.000000 0.041542
#
#
# Mechanical properties :
#
#
# Convention : Reuss Voigt Hill
#
# Bulk Modulus (GPa) = 19.59565 43.76557 31.68061
# Shear Modulus (GPa) = 14.62836 32.06667 23.34752
#
# Velocity S-wave (km/s) = 2.50946 3.71544 3.17032
# Velocity P-wave (km/s) = 4.10272 6.10301 5.19995
#
# Compressibility (1/GPa) = 0.05103173
#
# Stress axis : x y z
#
# Youngs Moduli (GPa) = 53.25673 80.97685 80.26532
#
# Poissons Ratio (x) = -0.07513 0.01279
# Poissons Ratio (y) = -0.04941 -0.23718
# Poissons Ratio (z) = 0.00849 -0.23928
#
# Static dielectric constant tensor:
#      x y z
#    x 1.973710 0.000000 0.000160 
#    y 0.000000 1.887960 0.000000 
#    z 0.000160 0.000000 1.862260 
# 
# From -- ./inp_files/359560.got.cif
#   From: 2010.05.17/outbox.cif.g08.bks.cpg/sg12_180_cif.got.tgz:359560.got - 2010.06.03 13:09:07.
