data_PCOD9188012
_publ_section_title
;
Structure prediction by ZEFSAII (Michael W. Deem and Ramdas Pophale) SiO2 
 PCOD9188012
Probable space group: C 2/M
;
_chemical_formula_sum "Si O2"
_cell_formula_units_Z 56
_cell_length_a 14.353546
_cell_length_b 17.379290
_cell_length_c 17.379010
_cell_angle_alpha 90.000000
_cell_angle_beta 127.695880
_cell_angle_gamma 90.000000
_cell_volume 3430.359208
_symmetry_space_group_name_H-M "C 2/M"
_symmetry_group_IT_number 12
_symmetry_cell_setting 'monoclinic'
loop_
_space_group_symop_operation_xyz
x,y,z
-x,y,-z
-x,-y,-z
x,-y,z
1/2+x,1/2+y,z
1/2-x,1/2+y,-z
1/2-x,1/2-y,-z
1/2+x,1/2-y,z
loop_
_atom_site_type_symbol
_atom_site_label
_atom_site_fract_x
_atom_site_fract_y
_atom_site_fract_z
Si Si1 0.695113 0.589596 0.595741
Si Si2 0.364889 0.203787 0.766310
Si Si3 0.049793 0.822432 0.805836
Si Si4 0.285383 0.735886 0.889299
Si Si5 0.507881 0.411904 0.376978
Si Si6 0.932044 0.370181 0.039081
Si Si7 0.807770 0.912452 0.997500
O O1 0.737740 0.500000 0.612447
O O2 0.787324 0.653665 0.668976
O O3 0.595600 0.589846 0.612004
O O4 0.627149 0.609848 0.482499
O O5 0.432740 0.276023 0.765688
O O6 0.297215 0.238043 0.806738
O O7 0.466077 0.146670 0.848899
O O8 0.157919 0.762703 0.853961
O O9 0.030337 0.862925 0.714767
O O10 0.092902 0.881744 0.893079
O O11 0.380935 0.788570 0.982100
O O12 0.303345 0.648302 0.924894
O O13 0.522027 0.500000 0.358921
O O14 0.817346 0.408709 0.019005
O O15 0.000000 0.406904 0.000000
O O16 0.828988 0.000000 0.984720
#
# Coordination Sequence:
#
# PCOD9188012 Si02
#       7
#     8   8   8   8   8   8   8
#     4   9  19  34  54  80 105 129 162 211 274 314
#     4  11  19  32  57  76 100 140 175 210 248 303
#     4  11  19  34  54  75 104 137 178 206 252 304
#     4  10  19  36  50  73 106 142 172 207 251 300
#     4   9  18  35  54  77 108 131 158 215 269 310
#     4   9  18  32  51  72 102 132 169 215 254 298
#     4  11  21  34  50  74 107 143 174 207 255 300
#
# _framework density 16.324821
#
# number of rings (size 3 to 8) (size 9 to 14) (size 15 to 20)
#    0.000    2.000    4.286    2.143    0.000    1.429 
#    0.000    2.143    0.000    0.000    0.000    0.000 
#    0.000    3.429    0.000    0.000    0.000    0.000 
#
# Total GULP energy -156009.222586 kJ/mol
# GULP energy per Si atom -5571.757949 kJ/mol
# Density = 1.628767 g / cm^3
# Si number density = 16.324821 Si / 1000 Ang^3
#
#
#
# Elastic Constant Matrix: (Units=GPa)
#
#
# Indices 1 2 3 4 5 6 
#
# 1 33.9301 12.1762 5.6162 0.0000 10.4351 0.0000
# 2 12.1762 103.3647 46.8739 0.0000 5.5146 0.0000
# 3 5.6162 46.8739 83.1800 0.0000 3.9022 0.0000
# 4 0.0000 0.0000 0.0000 21.5362 0.0000 -3.2514
# 5 10.4351 5.5146 3.9022 0.0000 18.3046 0.0000
# 6 0.0000 0.0000 0.0000 -3.2514 0.0000 13.3020
#
#
#
# Elastic Compliance Matrix: (Units=1/GPa)
#
#
# Indices 1 2 3 4 5 6 
#
# 1 0.036803 -0.003447 0.000397 0.000000 -0.020027 0.000000
# 2 -0.003447 0.013422 -0.007306 0.000000 -0.000521 0.000000
# 3 0.000397 -0.007306 0.016182 0.000000 -0.001475 0.000000
# 4 0.000000 0.000000 0.000000 0.048213 0.000000 0.011785
# 5 -0.020027 -0.000521 -0.001475 0.000000 0.066519 0.000000
# 6 0.000000 0.000000 0.000000 0.011785 0.000000 0.078057
#
#
# Mechanical properties :
#
#
# Convention : Reuss Voigt Hill
#
# Bulk Modulus (GPa) = 21.88473 38.86748 30.37610
# Shear Modulus (GPa) = 16.94120 21.01580 18.97850
#
# Velocity S-wave (km/s) = 3.22492 3.59186 3.41332
# Velocity P-wave (km/s) = 5.22510 6.40800 5.84654
#
# Compressibility (1/GPa) = 0.04569396
#
# Stress axis : x y z
#
# Youngs Moduli (GPa) = 27.17186 74.50718 61.79815
#
# Poissons Ratio (x) = 0.25682 -0.02454
# Poissons Ratio (y) = 0.09366 0.45151
# Poissons Ratio (z) = -0.01079 0.54436
#
# Static dielectric constant tensor:
#      x y z
#    x 1.577930 0.000000 -0.005170 
#    y 0.000000 1.547460 0.000000 
#    z -0.005170 0.000000 1.541030 
# 
# From -- ./inp_files/251132.got.cif
#   From: 2010.05.17/outbox.cif.g08.bks.cpg/sg12_126_cif.got.tgz:251132.got - 2010.06.03 13:09:07.
