data_PCOD9188583
_publ_section_title
;
Structure prediction by ZEFSAII (Michael W. Deem and Ramdas Pophale) SiO2 
 PCOD9188583
Probable space group: C 2/M
;
_chemical_formula_sum "Si O2"
_cell_formula_units_Z 64
_cell_length_a 15.042068
_cell_length_b 9.032784
_cell_length_c 30.913179
_cell_angle_alpha 90.000000
_cell_angle_beta 126.519777
_cell_angle_gamma 90.000000
_cell_volume 3375.519324
_symmetry_space_group_name_H-M "C 2/M"
_symmetry_group_IT_number 12
_symmetry_cell_setting 'monoclinic'
loop_
_space_group_symop_operation_xyz
x,y,z
-x,y,-z
-x,-y,-z
x,-y,z
1/2+x,1/2+y,z
1/2-x,1/2+y,-z
1/2-x,1/2-y,-z
1/2+x,1/2-y,z
loop_
_atom_site_type_symbol
_atom_site_label
_atom_site_fract_x
_atom_site_fract_y
_atom_site_fract_z
Si Si1 0.842454 0.178891 0.740555
Si Si2 0.891300 0.177262 0.939064
Si Si3 0.412969 0.177553 0.347831
Si Si4 0.091115 0.676511 0.325727
Si Si5 0.709801 0.677349 0.943769
Si Si6 0.574181 0.669507 0.458250
Si Si7 0.239787 0.330638 0.564476
Si Si8 0.456564 0.320435 0.861796
O O1 0.713874 0.219806 0.696610
O O2 0.912832 0.248197 0.722049
O O3 0.887534 0.228700 0.800222
O O4 0.849301 0.000000 0.740305
O O5 0.791250 0.265884 0.930610
O O6 0.911602 0.224066 0.895635
O O7 0.870346 0.000000 0.934338
O O8 0.000000 0.202878 0.000000
O O9 0.488709 0.214354 0.327839
O O10 0.469506 0.254244 0.405429
O O11 0.419131 0.000000 0.355339
O O12 0.095825 0.500000 0.323221
O O13 0.201304 0.736901 0.381271
O O14 0.712767 0.500000 0.949044
O O15 0.584646 0.723435 0.896966
O O16 0.750000 0.750000 0.000000
O O17 0.551539 0.500000 0.463299
O O18 0.670099 0.668412 0.448686
O O19 0.629007 0.758547 0.513462
O O20 0.222238 0.500000 0.573248
O O21 0.453842 0.500000 0.860741
#
# Coordination Sequence:
#
# PCOD9188583 Si02
#       8
#     8   8   8   8   8   8   8   8
#     4  10  21  39  59  78 105 148 193 229 271 333
#     4  10  19  36  60  86 116 152 186 224 277 336
#     4   9  19  35  55  77 105 143 185 226 276 336
#     4  10  20  35  55  81 111 142 180 235 287 327
#     4  11  21  36  58  87 118 151 187 228 276 331
#     4   9  16  27  48  78 109 140 177 226 282 331
#     4   9  16  28  49  77 108 144 183 222 272 340
#     4   9  20  38  58  80 113 151 187 227 279 334
#
# _framework density 18.960045000000001
#
# number of rings (size 3 to 8) (size 9 to 14) (size 15 to 20)
#    0.000    2.375    1.250    1.500    0.000    5.250 
#    0.000    3.750    0.000    3.750    0.000    0.000 
#    0.000    0.000    0.000    0.000    0.000    0.000 
#
# Total GULP energy -178704.988017 kJ/mol
# GULP energy per Si atom -5584.530876 kJ/mol
# Density = 1.891689 g / cm^3
# Si number density = 18.960045 Si / 1000 Ang^3
#
#
#
# Elastic Constant Matrix: (Units=GPa)
#
#
# Indices 1 2 3 4 5 6 
#
# 1 87.7661 26.6273 38.5886 0.0000 -0.2385 0.0000
# 2 26.6273 37.3905 20.4172 0.0000 4.4168 0.0000
# 3 38.5886 20.4172 90.7509 0.0000 -0.9958 0.0000
# 4 0.0000 0.0000 0.0000 21.4844 0.0000 -4.8738
# 5 -0.2385 4.4168 -0.9958 0.0000 31.4367 0.0000
# 6 0.0000 0.0000 0.0000 -4.8738 0.0000 24.5481
#
#
#
# Elastic Compliance Matrix: (Units=1/GPa)
#
#
# Indices 1 2 3 4 5 6 
#
# 1 0.016298 -0.009094 -0.004870 0.000000 0.001247 0.000000
# 2 -0.009094 0.036216 -0.004339 0.000000 -0.005295 0.000000
# 3 -0.004870 -0.004339 0.014077 0.000000 0.001019 0.000000
# 4 0.000000 0.000000 0.000000 0.048741 0.000000 0.009677
# 5 0.001247 -0.005295 0.001019 0.000000 0.032596 0.000000
# 6 0.000000 0.000000 0.000000 0.009677 0.000000 0.042658
#
#
# Mechanical properties :
#
#
# Convention : Reuss Voigt Hill
#
# Bulk Modulus (GPa) = 33.35099 43.01929 38.18514
# Shear Modulus (GPa) = 21.08045 24.17881 22.62963
#
# Velocity S-wave (km/s) = 3.33804 3.57494 3.45852
# Velocity P-wave (km/s) = 5.69956 6.30706 6.01099
#
# Compressibility (1/GPa) = 0.02998412
#
# Stress axis : x y z
#
# Youngs Moduli (GPa) = 61.35821 27.61221 71.03545
#
# Poissons Ratio (x) = 0.25111 0.34597
# Poissons Ratio (y) = 0.55800 0.30822
# Poissons Ratio (z) = 0.29884 0.11981
#
# Static dielectric constant tensor:
#      x y z
#    x 1.678020 0.000000 -0.013660 
#    y 0.000000 1.633870 0.000000 
#    z -0.013660 0.000000 1.634140 
# 
# From -- ./inp_files/375695.got.cif
#   From: 2010.05.17/outbox.cif.g08.bks.cpg/sg12_188_cif.got.tgz:375695.got - 2010.06.03 13:09:07.
