data_PCOD9188320
_publ_section_title
;
Structure prediction by ZEFSAII (Michael W. Deem and Ramdas Pophale) SiO2 
 PCOD9188320
Probable space group: C 2/M
;
_chemical_formula_sum "Si O2"
_cell_formula_units_Z 56
_cell_length_a 14.435378
_cell_length_b 22.724925
_cell_length_c 14.352415
_cell_angle_alpha 90.000000
_cell_angle_beta 139.259435
_cell_angle_gamma 90.000000
_cell_volume 3072.741030
_symmetry_space_group_name_H-M "C 2/M"
_symmetry_group_IT_number 12
_symmetry_cell_setting 'monoclinic'
loop_
_space_group_symop_operation_xyz
x,y,z
-x,y,-z
-x,-y,-z
x,-y,z
1/2+x,1/2+y,z
1/2-x,1/2+y,-z
1/2-x,1/2-y,-z
1/2+x,1/2-y,z
loop_
_atom_site_type_symbol
_atom_site_label
_atom_site_fract_x
_atom_site_fract_y
_atom_site_fract_z
Si Si1 0.352199 0.341410 0.053091
Si Si2 0.776188 0.564501 0.174786
Si Si3 0.096814 0.567114 0.415994
Si Si4 0.238066 0.242507 0.858759
Si Si5 0.757611 0.263381 0.345737
Si Si6 0.844080 0.107132 0.738648
Si Si7 0.559923 0.199432 0.342332
O O1 0.284629 0.315007 0.095432
O O2 0.501560 0.375142 0.181644
O O3 0.254286 0.388408 0.926989
O O4 0.365442 0.284292 0.993654
O O5 0.764294 0.500000 0.124599
O O6 0.662623 0.572499 0.170185
O O7 0.937059 0.569787 0.338008
O O8 0.104902 0.500000 0.381573
O O9 0.234264 0.575056 0.586075
O O10 0.094561 0.629909 0.359738
O O11 0.231722 0.230059 0.744161
O O12 0.102931 0.283087 0.781279
O O13 0.721584 0.329404 0.287530
O O14 0.639739 0.233878 0.321320
O O15 0.885129 0.274635 0.516143
#
# Coordination Sequence:
#
# PCOD9188320 Si02
#       7
#     8   8   8   8   8   8   8
#     4  11  23  35  53  81 121 154 187 228 281 345
#     4  11  22  36  56  82 116 158 195 233 289 350
#     4  10  21  37  57  80 113 150 192 242 287 341
#     4  11  21  37  55  83 122 154 188 233 291 341
#     4  10  20  33  59  86 113 145 191 244 287 338
#     4  11  20  34  54  83 113 148 191 235 287 347
#     4  10  19  36  58  88 111 148 193 240 291 342
#
# _framework density 18.224771
#
# number of rings (size 3 to 8) (size 9 to 14) (size 15 to 20)
#    0.000    1.429    4.286    1.714    0.000    5.143 
#    0.000    0.000    0.000    0.857    0.000    3.000 
#    0.000    0.000    0.000    0.000    0.000    0.000 
#
# Total GULP energy -155868.785440 kJ/mol
# GULP energy per Si atom -5566.742337 kJ/mol
# Density = 1.818329 g / cm^3
# Si number density = 18.224771 Si / 1000 Ang^3
#
#
#
# Elastic Constant Matrix: (Units=GPa)
#
#
# Indices 1 2 3 4 5 6 
#
# 1 47.7692 26.5929 25.9720 0.0000 -14.8320 0.0000
# 2 26.5929 89.5576 32.1241 0.0000 -11.1792 0.0000
# 3 25.9720 32.1241 78.8229 0.0000 -1.0561 0.0000
# 4 0.0000 0.0000 0.0000 24.5350 0.0000 4.6338
# 5 -14.8320 -11.1792 -1.0561 0.0000 28.5647 0.0000
# 6 0.0000 0.0000 0.0000 4.6338 0.0000 20.3645
#
#
#
# Elastic Compliance Matrix: (Units=1/GPa)
#
#
# Indices 1 2 3 4 5 6 
#
# 1 0.032976 -0.004806 -0.008707 0.000000 0.014919 0.000000
# 2 -0.004806 0.014509 -0.004289 0.000000 0.003024 0.000000
# 3 -0.008707 -0.004289 0.017229 0.000000 -0.005562 0.000000
# 4 0.000000 0.000000 0.000000 0.042588 0.000000 -0.009691
# 5 0.014919 0.003024 -0.005562 0.000000 0.043733 0.000000
# 6 0.000000 0.000000 0.000000 -0.009691 0.000000 0.051310
#
#
# Mechanical properties :
#
#
# Convention : Reuss Voigt Hill
#
# Bulk Modulus (GPa) = 34.35265 42.83640 38.59452
# Shear Modulus (GPa) = 20.18957 23.45689 21.82323
#
# Velocity S-wave (km/s) = 3.33199 3.59149 3.46417
# Velocity P-wave (km/s) = 5.80458 6.38388 6.10111
#
# Compressibility (1/GPa) = 0.02910984
#
# Stress axis : x y z
#
# Youngs Moduli (GPa) = 30.32527 68.92236 58.04174
#
# Poissons Ratio (x) = 0.33126 0.50536
# Poissons Ratio (y) = 0.14575 0.24894
# Poissons Ratio (z) = 0.26404 0.29561
#
# Static dielectric constant tensor:
#      x y z
#    x 1.626800 0.000000 0.030700 
#    y 0.000000 1.624710 0.000000 
#    z 0.030700 0.000000 1.723390 
# 
# From -- ./inp_files/217727.got.cif
#   From: 2010.05.17/outbox.cif.g08.bks.cpg/sg12_109_cif.got.tgz:217727.got - 2010.06.03 13:09:07.
