data_PCOD9188710
_publ_section_title
;
Structure prediction by ZEFSAII (Michael W. Deem and Ramdas Pophale) SiO2 
 PCOD9188710
Probable space group: C 2/M
;
_chemical_formula_sum "Si O2"
_cell_formula_units_Z 44
_cell_length_a 11.636293
_cell_length_b 22.161227
_cell_length_c 7.131139
_cell_angle_alpha 90.000000
_cell_angle_beta 107.390385
_cell_angle_gamma 90.000000
_cell_volume 1754.882131
_symmetry_space_group_name_H-M "C 2/M"
_symmetry_group_IT_number 12
_symmetry_cell_setting 'monoclinic'
loop_
_space_group_symop_operation_xyz
x,y,z
-x,y,-z
-x,-y,-z
x,-y,z
1/2+x,1/2+y,z
1/2-x,1/2+y,-z
1/2-x,1/2-y,-z
1/2+x,1/2-y,z
loop_
_atom_site_type_symbol
_atom_site_label
_atom_site_fract_x
_atom_site_fract_y
_atom_site_fract_z
Si Si1 0.000000 0.694658 0.500000
Si Si2 0.845389 0.293801 0.762973
Si Si3 0.500000 0.696929 0.000000
Si Si4 0.855725 0.133548 0.203562
Si Si5 0.673820 0.500000 0.252764
Si Si6 0.500000 0.097793 0.000000
Si Si7 0.095629 0.000000 0.770162
Si Si8 0.325653 0.898576 0.211408
O O1 0.084229 0.726486 0.388665
O O2 0.097151 0.652614 0.652874
O O3 0.707778 0.315431 0.701318
O O4 0.910316 0.356841 0.848776
O O5 0.886530 0.242776 0.929284
O O6 0.481065 0.655389 0.173723
O O7 0.861974 0.065281 0.284686
O O8 0.773853 0.128659 0.975537
O O9 0.548958 0.500000 0.299180
O O10 0.757565 0.442021 0.320162
O O11 0.638495 0.500000 0.011462
O O12 0.418922 0.066942 0.117660
#
# Coordination Sequence:
#
# PCOD9188710 Si02
#       8
#     4   8   4   8   4   4   4   8
#     4  10  20  37  52  74 118 155 190 228 272 338
#     4   9  19  34  54  80 110 147 187 232 279 327
#     4  11  20  35  60  87 114 144 188 239 286 337
#     4  10  19  36  61  86 112 145 188 236 287 333
#     4   9  16  28  49  81 107 134 185 234 284 328
#     4   7  14  29  46  70 100 135 180 225 270 321
#     4   9  18  34  59  86 109 139 187 239 280 337
#     4   9  17  30  50  74 107 146 183 230 276 328
#
# _framework density 25.07291
#
# number of rings (size 3 to 8) (size 9 to 14) (size 15 to 20)
#    0.000    2.727    0.000    3.818    0.000    0.727 
#    0.000   10.000    0.000    6.000    0.000    0.000 
#    0.000    0.727    0.000    0.000    0.000    0.000 
#
# Total GULP energy -122751.407853 kJ/mol
# GULP energy per Si atom -5579.609448 kJ/mol
# Density = 2.501584 g / cm^3
# Si number density = 25.072910 Si / 1000 Ang^3
#
#
#
# Elastic Constant Matrix: (Units=GPa)
#
#
# Indices 1 2 3 4 5 6 
#
# 1 116.6116 37.2936 1.2718 0.0000 -8.9081 0.0000
# 2 37.2936 127.2303 25.2301 0.0000 6.4854 0.0000
# 3 1.2718 25.2301 49.4276 0.0000 5.5495 0.0000
# 4 0.0000 0.0000 0.0000 14.0964 0.0000 1.6532
# 5 -8.9081 6.4854 5.5495 0.0000 25.4045 0.0000
# 6 0.0000 0.0000 0.0000 1.6532 0.0000 39.7863
#
#
#
# Elastic Compliance Matrix: (Units=1/GPa)
#
#
# Indices 1 2 3 4 5 6 
#
# 1 0.009940 -0.003317 0.000975 0.000000 0.004119 0.000000
# 2 -0.003317 0.009893 -0.004665 0.000000 -0.002670 0.000000
# 3 0.000975 -0.004665 0.022979 0.000000 -0.003487 0.000000
# 4 0.000000 0.000000 0.000000 0.071287 0.000000 -0.002962
# 5 0.004119 -0.002670 -0.003487 0.000000 0.042251 0.000000
# 6 0.000000 0.000000 0.000000 -0.002962 0.000000 0.025257
#
#
# Mechanical properties :
#
#
# Convention : Reuss Voigt Hill
#
# Bulk Modulus (GPa) = 34.72370 46.76226 40.74298
# Shear Modulus (GPa) = 24.36391 31.15573 27.75982
#
# Velocity S-wave (km/s) = 3.12063 3.52888 3.33102
# Velocity P-wave (km/s) = 5.18301 5.94096 5.57488
#
# Compressibility (1/GPa) = 0.02879877
#
# Stress axis : x y z
#
# Youngs Moduli (GPa) = 100.60014 101.07981 43.51762
#
# Poissons Ratio (x) = 0.33528 -0.04242
# Poissons Ratio (y) = 0.33369 0.20300
# Poissons Ratio (z) = -0.09807 0.47152
#
# Static dielectric constant tensor:
#      x y z
#    x 2.127010 0.000000 -0.064000 
#    y 0.000000 1.964410 0.000000 
#    z -0.064000 0.000000 2.019780 
# 
# From -- ./inp_files/51628.got.cif
#   From: 2010.05.17/outbox.cif.g08.bks.cpg/sg12_26_cif.got.tgz:51628.got - 2010.06.03 13:09:07.
