data_PCOD9188829
_publ_section_title
;
Structure prediction by ZEFSAII (Michael W. Deem and Ramdas Pophale) SiO2 
 PCOD9188829
Probable space group: C 2/M
;
_chemical_formula_sum "Si O2"
_cell_formula_units_Z 64
_cell_length_a 30.467518
_cell_length_b 7.823526
_cell_length_c 19.061204
_cell_angle_alpha 90.000000
_cell_angle_beta 39.369067
_cell_angle_gamma 90.000000
_cell_volume 2881.998226
_symmetry_space_group_name_H-M "C 2/M"
_symmetry_group_IT_number 12
_symmetry_cell_setting 'monoclinic'
loop_
_space_group_symop_operation_xyz
x,y,z
-x,y,-z
-x,-y,-z
x,-y,z
1/2+x,1/2+y,z
1/2-x,1/2+y,-z
1/2-x,1/2-y,-z
1/2+x,1/2-y,z
loop_
_atom_site_type_symbol
_atom_site_label
_atom_site_fract_x
_atom_site_fract_y
_atom_site_fract_z
Si Si1 0.333198 0.208653 0.805311
Si Si2 0.928333 0.699039 0.812039
Si Si3 0.945447 0.302249 0.123778
Si Si4 0.686424 0.707063 0.944477
Si Si5 0.073721 0.293875 0.440250
Si Si6 0.693095 0.302015 0.774642
Si Si7 0.931829 0.707401 0.298701
Si Si8 0.838608 0.198534 0.535817
O O1 0.382254 0.274302 0.806506
O O2 0.253940 0.265331 0.904328
O O3 0.367976 0.254102 0.688450
O O4 0.331852 0.000000 0.810296
O O5 0.939437 0.500000 0.779885
O O6 0.002696 0.773273 0.737443
O O7 0.881943 0.713640 0.938646
O O8 0.967249 0.500000 0.106148
O O9 0.868444 0.295473 0.187701
O O10 0.940465 0.228103 0.208514
O O11 0.000000 0.226331 0.000000
O O12 0.681622 0.500000 0.954799
O O13 0.697619 0.754096 0.849911
O O14 0.069699 0.500000 0.448080
O O15 0.100440 0.237401 0.483175
O O16 0.000000 0.233532 0.500000
O O17 0.671848 0.500000 0.801085
O O18 0.768160 0.289284 0.646629
O O19 0.934119 0.500000 0.293894
O O20 0.864436 0.755198 0.426236
O O21 0.823215 0.000000 0.558122
#
# Coordination Sequence:
#
# PCOD9188829 Si02
#       8
#     8   8   8   8   8   8   8   8
#     4   9  17  32  53  82 117 153 199 243 291 355
#     4  10  20  35  59  87 115 155 203 246 294 358
#     4  10  22  42  68  97 127 156 196 253 309 363
#     4  10  20  35  55  82 120 158 194 246 302 356
#     4  10  19  36  62  85 116 165 213 254 301 363
#     4  11  23  41  65  89 121 164 209 252 303 371
#     4  10  22  41  63  88 121 159 198 243 302 369
#     4  12  25  40  61  90 125 160 203 258 308 359
#
# _framework density 22.206814999999999
#
# number of rings (size 3 to 8) (size 9 to 14) (size 15 to 20)
#    0.000    1.750    1.250    3.375    0.000    6.000 
#    0.000    0.625    0.000    0.000    0.000    0.000 
#    0.000    0.000    0.000    0.000    0.000    0.000 
#
# Total GULP energy -178808.527963 kJ/mol
# GULP energy per Si atom -5587.766499 kJ/mol
# Density = 2.215627 g / cm^3
# Si number density = 22.206815 Si / 1000 Ang^3
#
#
#
# Elastic Constant Matrix: (Units=GPa)
#
#
# Indices 1 2 3 4 5 6 
#
# 1 83.7211 -4.3539 33.3394 -0.0003 4.0105 -0.0035
# 2 -4.3539 29.2805 -12.3793 -0.0139 3.3868 -0.0236
# 3 33.3394 -12.3793 115.0685 0.0004 17.7969 -0.0011
# 4 -0.0003 -0.0139 0.0004 18.0655 0.0075 -1.4375
# 5 4.0105 3.3868 17.7969 0.0075 33.1232 0.0001
# 6 -0.0035 -0.0236 -0.0011 -1.4375 0.0001 23.2137
#
#
#
# Elastic Compliance Matrix: (Units=1/GPa)
#
#
# Indices 1 2 3 4 5 6 
#
# 1 0.013512 0.000284 -0.003956 0.000001 0.000460 0.000002
# 2 0.000284 0.037011 0.004897 0.000034 -0.006450 0.000040
# 3 -0.003956 0.004897 0.011306 0.000006 -0.006097 0.000005
# 4 0.000001 0.000034 0.000006 0.055628 -0.000020 0.003445
# 5 0.000460 -0.006450 -0.006097 -0.000020 0.034070 -0.000008
# 6 0.000002 0.000040 0.000005 0.003445 -0.000008 0.043291
#
#
# Mechanical properties :
#
#
# Convention : Reuss Voigt Hill
#
# Bulk Modulus (GPa) = 15.55694 29.03136 22.29415
# Shear Modulus (GPa) = 23.38681 28.97809 26.18245
#
# Velocity S-wave (km/s) = 3.24873 3.61628 3.43742
# Velocity P-wave (km/s) = 4.59271 5.52614 5.08091
#
# Compressibility (1/GPa) = 0.06427999
#
# Stress axis : x y z
#
# Youngs Moduli (GPa) = 74.00638 27.01887 88.44584
#
# Poissons Ratio (x) = -0.00766 0.34986
# Poissons Ratio (y) = -0.02099 -0.43313
# Poissons Ratio (z) = 0.29275 -0.13232
#
# Static dielectric constant tensor:
#      x y z
#    x 1.819660 -0.000010 0.009340 
#    y -0.000010 1.814040 0.000010 
#    z 0.009340 0.000010 1.803010 
# 
# From -- ./inp_files/295513.got.cif
#   From: 2010.05.17/outbox.cif.g08.bks.cpg/sg12_148_cif.got.tgz:295513.got - 2010.06.03 13:09:07.
