data_PCOD9188312
_publ_section_title
;
Structure prediction by ZEFSAII (Michael W. Deem and Ramdas Pophale) SiO2 
 PCOD9188312
Probable space group: C 2/M
;
_chemical_formula_sum "Si O2"
_cell_formula_units_Z 48
_cell_length_a 14.835920
_cell_length_b 15.193052
_cell_length_c 10.201233
_cell_angle_alpha 90.000000
_cell_angle_beta 101.506145
_cell_angle_gamma 90.000000
_cell_volume 2253.177480
_symmetry_space_group_name_H-M "C 2/M"
_symmetry_group_IT_number 12
_symmetry_cell_setting 'monoclinic'
loop_
_space_group_symop_operation_xyz
x,y,z
-x,y,-z
-x,-y,-z
x,-y,z
1/2+x,1/2+y,z
1/2-x,1/2+y,-z
1/2-x,1/2-y,-z
1/2+x,1/2-y,z
loop_
_atom_site_type_symbol
_atom_site_label
_atom_site_fract_x
_atom_site_fract_y
_atom_site_fract_z
Si Si1 0.121220 0.892122 0.413258
Si Si2 0.231348 0.398314 0.750028
Si Si3 0.024750 0.392034 0.652529
Si Si4 0.923417 0.605591 0.875587
Si Si5 0.732415 0.348711 0.952992
Si Si6 0.911850 0.893311 0.303585
O O1 0.199031 0.858747 0.336311
O O2 0.131761 0.866586 0.568669
O O3 0.018707 0.866447 0.338119
O O4 0.122014 0.000000 0.411090
O O5 0.219994 0.500000 0.707076
O O6 0.127616 0.361738 0.719959
O O7 0.271086 0.397271 0.908246
O O8 0.023439 0.500000 0.652635
O O9 0.000000 0.362690 0.500000
O O10 0.951627 0.362434 0.739887
O O11 0.933026 0.500000 0.876376
O O12 0.821466 0.623208 0.895444
O O13 0.000000 0.639729 0.000000
O O14 0.644191 0.359802 0.836591
O O15 0.750000 0.250000 0.000000
O O16 0.908942 0.000000 0.298302
#
# Coordination Sequence:
#
# PCOD9188312 Si02
#       6
#     8   8   8   8   8   8
#     4   8  17  34  61  90 111 138 190 253 299 341
#     4  10  19  36  58  85 116 145 190 248 295 344
#     4   9  18  31  56  91 115 138 184 244 299 341
#     4  10  19  37  62  83 110 150 196 245 292 342
#     4  12  25  38  53  83 121 160 196 232 288 356
#     4   9  18  37  62  86 110 147 198 244 292 348
#
# _framework density 21.303249000000001
#
# number of rings (size 3 to 8) (size 9 to 14) (size 15 to 20)
#    0.000    2.333    1.667    2.500    2.333    0.667 
#    3.000    3.333    3.667    0.000    0.000    0.000 
#    0.000    0.000    0.000    0.000    0.000    0.000 
#
# Total GULP energy -134001.554781 kJ/mol
# GULP energy per Si atom -5583.398116 kJ/mol
# Density = 2.125476 g / cm^3
# Si number density = 21.303249 Si / 1000 Ang^3
#
#
#
# Elastic Constant Matrix: (Units=GPa)
#
#
# Indices 1 2 3 4 5 6 
#
# 1 52.7816 -0.6398 32.5562 0.0000 -27.0395 0.0000
# 2 -0.6398 20.1352 4.8333 0.0000 -2.1457 0.0000
# 3 32.5562 4.8333 133.0180 0.0000 -5.3125 0.0000
# 4 0.0000 0.0000 0.0000 0.5511 0.0000 8.9537
# 5 -27.0395 -2.1457 -5.3125 0.0000 43.9667 0.0000
# 6 0.0000 0.0000 0.0000 8.9537 0.0000 -7.0261
#
#
#
# Elastic Compliance Matrix: (Units=1/GPa)
#
#
# Indices 1 2 3 4 5 6 
#
# 1 0.034214 0.005116 -0.007747 0.000000 0.020355 0.000000
# 2 0.005116 0.051086 -0.002897 0.000000 0.005289 0.000000
# 3 -0.007747 -0.002897 0.009368 0.000000 -0.003774 0.000000
# 4 0.000000 0.000000 0.000000 0.083605 0.000000 0.106541
# 5 0.020355 0.005289 -0.003774 0.000000 0.035065 0.000000
# 6 0.000000 0.000000 0.000000 0.106541 0.000000 -0.006557
#
#
# Mechanical properties :
#
#
# Convention : Reuss Voigt Hill
#
# Bulk Modulus (GPa) = 11.96001 31.04825 21.50413
# Shear Modulus (GPa) = 20.34936 18.77734 19.56335
#
# Velocity S-wave (km/s) = 3.09402 2.97211 3.03368
# Velocity P-wave (km/s) = 4.28839 5.13653 4.73151
#
# Compressibility (1/GPa) = 0.08361197
#
# Stress axis : x y z
#
# Youngs Moduli (GPa) = 29.22771 19.57493 106.74211
#
# Poissons Ratio (x) = -0.10014 0.82691
# Poissons Ratio (y) = -0.14952 0.30924
# Poissons Ratio (z) = 0.22642 0.05671
#
# Static dielectric constant tensor:
#      x y z
#    x 1.830030 0.000000 -0.047000 
#    y 0.000000 1.895250 0.000000 
#    z -0.047000 0.000000 1.769080 
# 
# From -- ./inp_files/63629.got.cif
#   From: 2010.05.17/outbox.cif.g08.bks.cpg/sg12_32_cif.got.tgz:63629.got - 2010.06.03 13:09:07.
