data_PCOD9188306
_publ_section_title
;
Structure prediction by ZEFSAII (Michael W. Deem and Ramdas Pophale) SiO2 
 PCOD9188306
Probable space group: C 2/M
;
_chemical_formula_sum "Si O2"
_cell_formula_units_Z 56
_cell_length_a 11.095970
_cell_length_b 19.695791
_cell_length_c 13.905617
_cell_angle_alpha 90.000000
_cell_angle_beta 98.998817
_cell_angle_gamma 90.000000
_cell_volume 3001.582687
_symmetry_space_group_name_H-M "C 2/M"
_symmetry_group_IT_number 12
_symmetry_cell_setting 'monoclinic'
loop_
_space_group_symop_operation_xyz
x,y,z
-x,y,-z
-x,-y,-z
x,-y,z
1/2+x,1/2+y,z
1/2-x,1/2+y,-z
1/2-x,1/2-y,-z
1/2+x,1/2-y,z
loop_
_atom_site_type_symbol
_atom_site_label
_atom_site_fract_x
_atom_site_fract_y
_atom_site_fract_z
Si Si1 0.216594 0.153737 0.402817
Si Si2 0.375260 0.919410 0.926459
Si Si3 0.505057 0.315236 0.755585
Si Si4 0.069073 0.334669 0.254809
Si Si5 0.562959 0.077784 0.607243
Si Si6 0.902621 0.920707 0.074746
Si Si7 0.186582 0.799620 0.602695
O O1 0.123794 0.161972 0.304303
O O2 0.294852 0.087114 0.396627
O O3 0.157531 0.161538 0.500481
O O4 0.308470 0.218674 0.413853
O O5 0.380408 0.876411 0.829216
O O6 0.243212 0.908121 0.961917
O O7 0.381133 0.000000 0.905895
O O8 0.500000 0.902783 0.000000
O O9 0.487772 0.237042 0.785660
O O10 0.555071 0.366658 0.840672
O O11 0.594912 0.314880 0.676189
O O12 0.179151 0.319073 0.342459
O O13 0.974472 0.378447 0.305273
O O14 0.500000 0.100762 0.500000
O O15 0.528032 0.000000 0.619764
O O16 0.910412 0.000000 0.107742
O O17 0.000000 0.913821 0.000000
#
# Coordination Sequence:
#
# PCOD9188306 Si02
#       7
#     8   8   8   8   8   8   8
#     4  10  21  34  58  87 122 164 201 246 288 360
#     4  10  22  42  66  89 115 157 206 254 310 372
#     4  11  22  37  63  93 119 158 203 250 305 366
#     4  11  21  37  62  89 119 157 202 249 302 361
#     4  11  22  36  55  84 124 163 204 250 298 352
#     4  10  23  45  68  89 122 162 203 257 321 383
#     4  10  19  36  58  84 122 161 203 240 295 352
#
# _framework density 18.656825000000001
#
# number of rings (size 3 to 8) (size 9 to 14) (size 15 to 20)
#    0.000    1.571    4.286    0.857    0.000    2.286 
#    0.000    3.571    0.000    1.714    0.000    0.000 
#    0.000    0.000    0.000    0.000    0.000    0.000 
#
# Total GULP energy -156134.430550 kJ/mol
# GULP energy per Si atom -5576.229663 kJ/mol
# Density = 1.861436 g / cm^3
# Si number density = 18.656825 Si / 1000 Ang^3
#
#
#
# Elastic Constant Matrix: (Units=GPa)
#
#
# Indices 1 2 3 4 5 6 
#
# 1 92.2008 40.1804 34.1685 0.0000 -6.2413 0.0000
# 2 40.1804 65.5328 45.3235 0.0000 1.7164 0.0000
# 3 34.1685 45.3235 67.3710 0.0000 -4.2844 0.0000
# 4 0.0000 0.0000 0.0000 20.5309 0.0000 2.9578
# 5 -6.2413 1.7164 -4.2844 0.0000 33.5300 0.0000
# 6 0.0000 0.0000 0.0000 2.9578 0.0000 24.0983
#
#
#
# Elastic Compliance Matrix: (Units=1/GPa)
#
#
# Indices 1 2 3 4 5 6 
#
# 1 0.015335 -0.007914 -0.002264 0.000000 0.002970 0.000000
# 2 -0.007914 0.033149 -0.018640 0.000000 -0.005552 0.000000
# 3 -0.002264 -0.018640 0.028800 0.000000 0.004213 0.000000
# 4 0.000000 0.000000 0.000000 0.049584 0.000000 -0.006086
# 5 0.002970 -0.005552 0.004213 0.000000 0.031199 0.000000
# 6 0.000000 0.000000 0.000000 -0.006086 0.000000 0.042244
#
#
# Mechanical properties :
#
#
# Convention : Reuss Voigt Hill
#
# Bulk Modulus (GPa) = 50.89991 51.60548 51.25270
# Shear Modulus (GPa) = 18.90377 22.66065 20.78221
#
# Velocity S-wave (km/s) = 3.18659 3.48890 3.34116
# Velocity P-wave (km/s) = 6.39379 6.62950 6.51271
#
# Compressibility (1/GPa) = 0.01964640
#
# Stress axis : x y z
#
# Youngs Moduli (GPa) = 65.21014 30.16650 34.72259
#
# Poissons Ratio (x) = 0.23874 0.07862
# Poissons Ratio (y) = 0.51609 0.64724
# Poissons Ratio (z) = 0.14766 0.56231
#
# Static dielectric constant tensor:
#      x y z
#    x 1.685230 0.000000 0.006260 
#    y 0.000000 1.651400 0.000000 
#    z 0.006260 0.000000 1.619980 
# 
# From -- ./inp_files/133317.got.cif
#   From: 2010.05.17/outbox.cif.g08.bks.cpg/sg12_67_cif.got.tgz:133317.got - 2010.06.03 13:09:07.
