data_PCOD9188216
_publ_section_title
;
Structure prediction by ZEFSAII (Michael W. Deem and Ramdas Pophale) SiO2 
 PCOD9188216
Probable space group: C 2/M
;
_chemical_formula_sum "Si O2"
_cell_formula_units_Z 64
_cell_length_a 11.903247
_cell_length_b 17.844062
_cell_length_c 20.603329
_cell_angle_alpha 90.000000
_cell_angle_beta 134.715034
_cell_angle_gamma 90.000000
_cell_volume 3109.788593
_symmetry_space_group_name_H-M "C 2/M"
_symmetry_group_IT_number 12
_symmetry_cell_setting 'monoclinic'
loop_
_space_group_symop_operation_xyz
x,y,z
-x,y,-z
-x,-y,-z
x,-y,z
1/2+x,1/2+y,z
1/2-x,1/2+y,-z
1/2-x,1/2-y,-z
1/2+x,1/2-y,z
loop_
_atom_site_type_symbol
_atom_site_label
_atom_site_fract_x
_atom_site_fract_y
_atom_site_fract_z
Si Si1 0.801399 0.848492 0.287224
Si Si2 0.276300 0.583918 0.133938
Si Si3 0.174963 0.264625 0.041457
Si Si4 0.623351 0.410656 0.461504
Si Si5 0.676222 0.909012 0.581899
Si Si6 0.307220 0.192744 0.217662
Si Si7 0.605845 0.089913 0.321261
Si Si8 0.622968 0.585399 0.212723
O O1 0.795622 0.894486 0.217410
O O2 0.804180 0.762328 0.266072
O O3 0.657858 0.875654 0.273626
O O4 0.958560 0.868014 0.391945
O O5 0.213704 0.500000 0.102595
O O6 0.180367 0.646388 0.056612
O O7 0.450920 0.586243 0.173667
O O8 0.297334 0.227531 0.142117
O O9 0.250000 0.250000 0.000000
O O10 0.000000 0.242635 0.000000
O O11 0.587985 0.500000 0.445064
O O12 0.713350 0.387322 0.432572
O O13 0.746850 0.399402 0.569662
O O14 0.500000 0.880129 0.500000
O O15 0.756011 0.889311 0.681808
O O16 0.669698 0.000000 0.578105
O O17 0.456011 0.137264 0.284682
O O18 0.152453 0.142381 0.167257
O O19 0.575356 0.000000 0.305704
O O20 0.660285 0.500000 0.209120
#
# Coordination Sequence:
#
# PCOD9188216 Si02
#       8
#     8   8   8   8   8   8   8   8
#     4  11  23  37  62  92 131 179 221 266 318 380
#     4  10  21  39  69  99 126 164 215 267 320 394
#     4  11  26  47  72  98 130 169 208 264 343 418
#     4  10  19  36  57  87 129 176 225 269 316 371
#     4   9  16  27  51  82 117 161 210 257 301 353
#     4  11  26  41  67  92 130 168 216 267 331 400
#     4  11  24  41  64  95 133 176 226 273 320 379
#     4  10  19  37  63  92 127 169 215 264 322 386
#
# _framework density 20.580176000000002
#
# number of rings (size 3 to 8) (size 9 to 14) (size 15 to 20)
#    0.000    1.625    1.250    3.375    7.000    3.750 
#    0.000    3.750    0.000    3.375    0.000    0.000 
#    0.000    0.000    0.000    0.000    0.000    0.000 
#
# Total GULP energy -178605.580570 kJ/mol
# GULP energy per Si atom -5581.424393 kJ/mol
# Density = 2.053333 g / cm^3
# Si number density = 20.580176 Si / 1000 Ang^3
#
#
#
# Elastic Constant Matrix: (Units=GPa)
#
#
# Indices 1 2 3 4 5 6 
#
# 1 105.0554 57.4439 19.6964 0.0000 -12.1148 0.0000
# 2 57.4439 125.2451 44.1505 0.0000 -15.5460 0.0000
# 3 19.6964 44.1505 44.7776 0.0000 -3.7430 0.0000
# 4 0.0000 0.0000 0.0000 1.7638 0.0000 -8.6360
# 5 -12.1148 -15.5460 -3.7430 0.0000 28.5348 0.0000
# 6 0.0000 0.0000 0.0000 -8.6360 0.0000 23.1961
#
#
#
# Elastic Compliance Matrix: (Units=1/GPa)
#
#
# Indices 1 2 3 4 5 6 
#
# 1 0.012858 -0.005635 0.000101 0.000000 0.002402 0.000000
# 2 -0.005635 0.015501 -0.012436 0.000000 0.004422 0.000000
# 3 0.000101 -0.012436 0.034364 -0.000001 -0.002225 0.000000
# 4 0.000000 0.000000 -0.000001 -0.688991 0.000000 -0.256513
# 5 0.002402 0.004422 -0.002225 0.000000 0.038182 0.000000
# 6 0.000000 0.000000 0.000000 -0.256513 0.000000 -0.052390
#
#
# Mechanical properties :
#
#
# Convention : Reuss Voigt Hill
#
# Bulk Modulus (GPa) = 37.33648 57.51776 47.42712
# Shear Modulus (GPa) = -8.39480 20.95143 6.27832
#
# Velocity S-wave (km/s) = -2.02186 3.19413 1.74851
# Velocity P-wave (km/s) = 3.56802 6.45075 5.21263
#
# Compressibility (1/GPa) = 0.02678345
#
# Stress axis : x y z
#
# Youngs Moduli (GPa) = 77.77300 64.50999 29.09987
#
# Poissons Ratio (x) = 0.36349 -0.00293
# Poissons Ratio (y) = 0.43822 0.36189
# Poissons Ratio (z) = -0.00783 0.80226
#
# Static dielectric constant tensor:
#      x y z
#    x 1.788010 0.000000 0.009890 
#    y 0.000000 1.721380 0.000000 
#    z 0.009890 0.000000 1.730950 
# 
# From -- ./inp_files/306255.got.cif
#   From: 2010.05.17/outbox.cif.g08.bks.cpg/sg12_154_cif.got.tgz:306255.got - 2010.06.03 13:09:07.
