data_PCOD9188580
_publ_section_title
;
Structure prediction by ZEFSAII (Michael W. Deem and Ramdas Pophale) SiO2 
 PCOD9188580
Probable space group: C 2/M
;
_chemical_formula_sum "Si O2"
_cell_formula_units_Z 52
_cell_length_a 18.365988
_cell_length_b 24.053972
_cell_length_c 7.441801
_cell_angle_alpha 90.000000
_cell_angle_beta 134.714659
_cell_angle_gamma 90.000000
_cell_volume 2336.233588
_symmetry_space_group_name_H-M "C 2/M"
_symmetry_group_IT_number 12
_symmetry_cell_setting 'monoclinic'
loop_
_space_group_symop_operation_xyz
x,y,z
-x,y,-z
-x,-y,-z
x,-y,z
1/2+x,1/2+y,z
1/2-x,1/2+y,-z
1/2-x,1/2-y,-z
1/2+x,1/2-y,z
loop_
_atom_site_type_symbol
_atom_site_label
_atom_site_fract_x
_atom_site_fract_y
_atom_site_fract_z
Si Si1 0.541153 0.500000 0.872888
Si Si2 0.014743 0.870684 0.313601
Si Si3 0.282579 0.000000 0.371014
Si Si4 0.608345 0.000000 0.081563
Si Si5 0.129049 0.617665 0.548735
Si Si6 0.775955 0.188585 0.276664
Si Si7 0.811540 0.190632 0.901964
Si Si8 0.909968 0.381291 0.102623
O O1 0.501401 0.438274 0.737053
O O2 0.500000 0.500000 0.000000
O O3 0.665998 0.500000 0.095963
O O4 0.000000 0.862870 0.500000
O O5 0.124034 0.840917 0.463632
O O6 0.924535 0.834255 0.064607
O O7 0.297718 0.000000 0.613773
O O8 0.344808 0.946713 0.414745
O O9 0.500000 0.000000 0.000000
O O10 0.609034 0.945758 0.962690
O O11 0.231902 0.648169 0.677208
O O12 0.105236 0.632365 0.713926
O O13 0.027542 0.631422 0.261536
O O14 0.731813 0.250065 0.238273
O O15 0.799036 0.189936 0.099595
O O16 0.678863 0.150507 0.150842
#
# Coordination Sequence:
#
# PCOD9188580 Si02
#       8
#     4   8   4   4   8   8   8   8
#     4  12  27  42  59  85 121 165 203 251 300 356
#     4  10  21  40  63  89 118 156 203 245 297 359
#     4  12  23  39  58  81 113 159 196 244 299 344
#     4  12  23  37  54  82 117 154 191 236 287 350
#     4  10  19  36  60  86 115 149 193 242 294 343
#     4   9  20  33  58  90 119 149 187 245 296 345
#     4   9  18  35  57  89 118 148 189 242 296 349
#     4  10  21  35  57  88 118 150 190 240 290 348
#
# _framework density 22.258047000000001
#
# number of rings (size 3 to 8) (size 9 to 14) (size 15 to 20)
#    0.000    1.846    3.077    0.692    4.308    1.231 
#    0.000    0.000    0.000    4.615    0.000    0.000 
#    0.000    0.000    0.000    0.000    0.000    0.000 
#
# Total GULP energy -144938.287050 kJ/mol
# GULP energy per Si atom -5574.549502 kJ/mol
# Density = 2.220739 g / cm^3
# Si number density = 22.258047 Si / 1000 Ang^3
#
#
#
# Elastic Constant Matrix: (Units=GPa)
#
#
# Indices 1 2 3 4 5 6 
#
# 1 47.0384 30.3462 51.6377 0.0000 25.7765 0.0000
# 2 30.3462 140.9956 85.8417 0.0000 58.1471 0.0000
# 3 51.6377 85.8417 170.4746 0.0000 56.3902 0.0000
# 4 0.0000 0.0000 0.0000 -12.6362 0.0000 47.7001
# 5 25.7765 58.1471 56.3902 0.0000 55.0155 0.0000
# 6 0.0000 0.0000 0.0000 47.7001 0.0000 -27.4461
#
#
#
# Elastic Compliance Matrix: (Units=1/GPa)
#
#
# Indices 1 2 3 4 5 6 
#
# 1 0.034231 0.001292 -0.007962 0.000000 -0.009243 0.000000
# 2 0.001292 0.013668 -0.003472 0.000000 -0.011492 0.000000
# 3 -0.007962 -0.003472 0.011466 0.000000 -0.004352 0.000000
# 4 0.000000 0.000000 0.000000 0.014232 0.000000 0.024734
# 5 -0.009243 -0.011492 -0.004352 0.000000 0.039114 0.000000
# 6 0.000000 0.000000 0.000000 0.024734 0.000000 0.006552
#
#
# Mechanical properties :
#
#
# Convention : Reuss Voigt Hill
#
# Bulk Modulus (GPa) = 25.58886 77.12886 51.35886
# Shear Modulus (GPa) = 32.77097 15.69885 24.23491
#
# Velocity S-wave (km/s) = 3.84125 2.65865 3.30330
# Velocity P-wave (km/s) = 5.58524 6.64469 6.13787
#
# Compressibility (1/GPa) = 0.03907951
#
# Stress axis : x y z
#
# Youngs Moduli (GPa) = 29.21307 73.16532 87.21729
#
# Poissons Ratio (x) = -0.09450 0.69441
# Poissons Ratio (y) = -0.03773 0.30284
# Poissons Ratio (z) = 0.23259 0.25405
#
# Static dielectric constant tensor:
#      x y z
#    x 1.884580 0.000000 0.041670 
#    y 0.000000 2.106280 0.000000 
#    z 0.041670 0.000000 1.942740 
# 
# From -- ./inp_files/90739.got.cif
#   From: 2010.05.17/outbox.cif.g08.bks.cpg/sg12_46_cif.got.tgz:90739.got - 2010.06.03 13:09:07.
