data_PCOD9188872
_publ_section_title
;
Structure prediction by ZEFSAII (Michael W. Deem and Ramdas Pophale) SiO2 
 PCOD9188872
Probable space group: C 2/M
;
_chemical_formula_sum "Si O2"
_cell_formula_units_Z 56
_cell_length_a 21.872599
_cell_length_b 12.864178
_cell_length_c 10.395068
_cell_angle_alpha 90.000000
_cell_angle_beta 83.121467
_cell_angle_gamma 90.000000
_cell_volume 2903.839001
_symmetry_space_group_name_H-M "C 2/M"
_symmetry_group_IT_number 12
_symmetry_cell_setting 'monoclinic'
loop_
_space_group_symop_operation_xyz
x,y,z
-x,y,-z
-x,-y,-z
x,-y,z
1/2+x,1/2+y,z
1/2-x,1/2+y,-z
1/2-x,1/2-y,-z
1/2+x,1/2-y,z
loop_
_atom_site_type_symbol
_atom_site_label
_atom_site_fract_x
_atom_site_fract_y
_atom_site_fract_z
Si Si1 0.456190 0.117571 0.291212
Si Si2 0.255885 0.623410 0.367998
Si Si3 0.379792 0.380368 0.723388
Si Si4 0.867907 0.386121 0.069380
Si Si5 0.857460 0.741585 0.483612
Si Si6 0.454082 0.745142 0.889373
Si Si7 0.255183 0.283673 0.852200
O O1 0.418007 0.107505 0.168590
O O2 0.413060 0.184396 0.396726
O O3 0.515146 0.180421 0.225721
O O4 0.469030 0.000000 0.335233
O O5 0.260277 0.500000 0.358554
O O6 0.195862 0.658443 0.465168
O O7 0.317934 0.673681 0.412456
O O8 0.245942 0.681523 0.235440
O O9 0.382080 0.500000 0.682547
O O10 0.383110 0.302384 0.601504
O O11 0.431104 0.354879 0.817713
O O12 0.313963 0.352488 0.803160
O O13 0.860085 0.500000 0.011383
O O14 0.806055 0.350356 0.154141
O O15 0.894423 0.304232 0.961240
O O16 0.500000 0.727359 0.000000
O O17 0.250000 0.250000 0.000000
#
# Coordination Sequence:
#
# PCOD9188872 Si02
#       7
#     8   8   8   8   8   8   8
#     4  10  20  38  65  89 115 157 199 246 297 350
#     4  10  21  37  59  88 125 161 190 239 298 353
#     4  11  24  41  61  87 121 161 201 248 301 351
#     4  10  19  36  62  90 119 153 190 241 304 356
#     4  10  21  39  60  87 123 153 206 245 287 359
#     4  10  22  41  61  87 122 152 202 250 294 358
#     4  11  21  38  59  93 123 151 194 244 294 366
#
# _framework density 19.284815999999999
#
# number of rings (size 3 to 8) (size 9 to 14) (size 15 to 20)
#    0.000    1.714    2.857    1.714    0.000    3.714 
#    0.000    5.000    0.000    0.000    0.000    0.000 
#    0.000    0.000    0.000    0.000    0.000    0.000 
#
# Total GULP energy -156211.159644 kJ/mol
# GULP energy per Si atom -5578.969987 kJ/mol
# Density = 1.924092 g / cm^3
# Si number density = 19.284816 Si / 1000 Ang^3
#
#
#
# Elastic Constant Matrix: (Units=GPa)
#
#
# Indices 1 2 3 4 5 6 
#
# 1 62.6685 38.1075 23.0184 0.0000 -10.2763 0.0000
# 2 38.1075 91.8108 21.6757 0.0000 1.6438 0.0000
# 3 23.0184 21.6757 82.2101 0.0000 -13.5124 0.0000
# 4 0.0000 0.0000 0.0000 14.7956 0.0000 3.5592
# 5 -10.2763 1.6438 -13.5124 0.0000 28.5855 0.0000
# 6 0.0000 0.0000 0.0000 3.5592 0.0000 17.7605
#
#
#
# Elastic Compliance Matrix: (Units=1/GPa)
#
#
# Indices 1 2 3 4 5 6 
#
# 1 0.024054 -0.009422 -0.002971 0.000000 0.007785 0.000000
# 2 -0.009422 0.015446 -0.002317 0.000000 -0.005371 0.000000
# 3 -0.002971 -0.002317 0.014586 0.000000 0.005960 0.000000
# 4 0.000000 0.000000 0.000000 0.071011 0.000000 -0.014231
# 5 0.007785 -0.005371 0.005960 0.000000 0.040907 0.000000
# 6 0.000000 0.000000 0.000000 -0.014231 0.000000 0.059157
#
#
# Mechanical properties :
#
#
# Convention : Reuss Voigt Hill
#
# Bulk Modulus (GPa) = 40.54207 44.69917 42.62062
# Shear Modulus (GPa) = 19.02557 22.48750 20.75654
#
# Velocity S-wave (km/s) = 3.14436 3.41849 3.28428
# Velocity P-wave (km/s) = 5.85244 6.22978 6.04406
#
# Compressibility (1/GPa) = 0.02466574
#
# Stress axis : x y z
#
# Youngs Moduli (GPa) = 41.57287 64.74220 68.55656
#
# Poissons Ratio (x) = 0.60999 0.20371
# Poissons Ratio (y) = 0.39170 0.15886
# Poissons Ratio (z) = 0.12353 0.15002
#
# Static dielectric constant tensor:
#      x y z
#    x 1.717130 0.000000 0.021070 
#    y 0.000000 1.665590 0.000000 
#    z 0.021070 0.000000 1.674080 
# 
# From -- ./inp_files/165631.got.cif
#   From: 2010.05.17/outbox.cif.g08.bks.cpg/sg12_83_cif.got.tgz:165631.got - 2010.06.03 13:09:07.
