data_PCOD9188744
_publ_section_title
;
Structure prediction by ZEFSAII (Michael W. Deem and Ramdas Pophale) SiO2 
 PCOD9188744
Probable space group: C 2/M
;
_chemical_formula_sum "Si O2"
_cell_formula_units_Z 64
_cell_length_a 23.712630
_cell_length_b 11.495391
_cell_length_c 11.585136
_cell_angle_alpha 90.000000
_cell_angle_beta 85.806495
_cell_angle_gamma 90.000000
_cell_volume 3149.490806
_symmetry_space_group_name_H-M "C 2/M"
_symmetry_group_IT_number 12
_symmetry_cell_setting 'monoclinic'
loop_
_space_group_symop_operation_xyz
x,y,z
-x,y,-z
-x,-y,-z
x,-y,z
1/2+x,1/2+y,z
1/2-x,1/2+y,-z
1/2-x,1/2-y,-z
1/2+x,1/2-y,z
loop_
_atom_site_type_symbol
_atom_site_label
_atom_site_fract_x
_atom_site_fract_y
_atom_site_fract_z
Si Si1 0.597889 0.137184 0.287531
Si Si2 0.551628 0.264827 0.903704
Si Si3 0.683845 0.868494 0.462359
Si Si4 0.154462 0.747224 0.056666
Si Si5 0.237510 0.370657 0.882298
Si Si6 0.080639 0.126188 0.677675
Si Si7 0.205926 0.205432 0.676392
Si Si8 0.463329 0.132228 0.314256
O O1 0.633372 0.180473 0.391625
O O2 0.619863 0.202505 0.171549
O O3 0.530808 0.145818 0.313066
O O4 0.611033 0.000000 0.272391
O O5 0.548389 0.363491 0.805694
O O6 0.552853 0.151278 0.819117
O O7 0.500000 0.260895 0.000000
O O8 0.608786 0.278571 0.966772
O O9 0.739577 0.865175 0.373567
O O10 0.695539 0.797050 0.575098
O O11 0.670589 0.000000 0.496514
O O12 0.198463 0.846955 0.086649
O O13 0.195657 0.649426 0.996173
O O14 0.231233 0.500000 0.836004
O O15 0.220844 0.274773 0.790005
O O16 0.147502 0.135897 0.693615
O O17 0.063503 0.251493 0.624165
O O18 0.068750 0.000000 0.624860
O O19 0.448559 0.000000 0.353750
#
# Coordination Sequence:
#
# PCOD9188744 Si02
#       8
#     8   8   8   8   8   8   8   8
#     4  10  19  36  61  87 118 153 198 250 302 352
#     4  10  20  35  58  87 121 161 202 242 293 357
#     4  10  22  38  63  89 113 150 199 256 302 350
#     4  11  20  37  52  86 118 154 196 244 300 358
#     4  11  23  36  55  84 120 157 197 247 303 361
#     4  10  22  39  60  88 121 160 201 244 297 361
#     4  11  21  40  62  84 118 155 202 244 300 363
#     4   9  20  36  59  87 117 155 200 248 294 348
#
# _framework density 20.320744999999999
#
# number of rings (size 3 to 8) (size 9 to 14) (size 15 to 20)
#    0.750    1.000    3.750    1.125    0.000    4.000 
#    0.000    2.500    0.000    3.000    0.000    0.000 
#    0.000    0.000    0.000    0.000    0.000    0.000 
#
# Total GULP energy -178370.382286 kJ/mol
# GULP energy per Si atom -5574.074446 kJ/mol
# Density = 2.027449 g / cm^3
# Si number density = 20.320745 Si / 1000 Ang^3
#
#
#
# Elastic Constant Matrix: (Units=GPa)
#
#
# Indices 1 2 3 4 5 6 
#
# 1 77.8425 27.1060 17.0069 0.0000 -4.3305 0.0000
# 2 27.1060 99.4214 11.2185 0.0000 -3.9212 0.0000
# 3 17.0069 11.2185 46.2236 0.0000 6.4858 0.0000
# 4 0.0000 0.0000 0.0000 -5.0795 0.0000 8.9896
# 5 -4.3305 -3.9212 6.4858 0.0000 33.5137 0.0000
# 6 0.0000 0.0000 0.0000 8.9896 0.0000 13.4396
#
#
#
# Elastic Compliance Matrix: (Units=1/GPa)
#
#
# Indices 1 2 3 4 5 6 
#
# 1 0.015333 -0.003498 -0.005153 0.000000 0.002569 0.000000
# 2 -0.003498 0.011239 -0.001606 0.000000 0.001174 0.000000
# 3 -0.005153 -0.001606 0.024710 0.000000 -0.005636 0.000000
# 4 0.000000 0.000000 0.000000 -0.090150 0.000000 0.060301
# 5 0.002569 0.001174 -0.005636 0.000000 0.031399 0.000000
# 6 0.000000 0.000000 0.000000 0.060301 0.000000 0.034072
#
#
# Mechanical properties :
#
#
# Convention : Reuss Voigt Hill
#
# Bulk Modulus (GPa) = 32.49904 37.12781 34.81342
# Shear Modulus (GPa) = 87.14955 19.58517 53.36736
#
# Velocity S-wave (km/s) = 6.55592 3.10788 5.13025
# Velocity P-wave (km/s) = 8.56356 5.58472 7.22924
#
# Compressibility (1/GPa) = 0.03077014
#
# Stress axis : x y z
#
# Youngs Moduli (GPa) = 65.21815 88.97396 40.46877
#
# Poissons Ratio (x) = 0.31119 0.20854
# Poissons Ratio (y) = 0.22811 0.06498
# Poissons Ratio (z) = 0.33608 0.14286
#
# Static dielectric constant tensor:
#      x y z
#    x 1.727490 0.000000 -0.004820 
#    y 0.000000 1.735300 0.000000 
#    z -0.004820 0.000000 1.709070 
# 
# From -- ./inp_files/174625.got.cif
#   From: 2010.05.17/outbox.cif.g08.bks.cpg/sg12_88_cif.got.tgz:174625.got - 2010.06.03 13:09:07.
