data_PCOD9188880
_publ_section_title
;
Structure prediction by ZEFSAII (Michael W. Deem and Ramdas Pophale) SiO2 
 PCOD9188880
Probable space group: C 2/M
;
_chemical_formula_sum "Si O2"
_cell_formula_units_Z 42
_cell_length_a 23.647004
_cell_length_b 11.598697
_cell_length_c 24.491886
_cell_angle_alpha 90.000000
_cell_angle_beta 161.873209
_cell_angle_gamma 90.000000
_cell_volume 2089.953733
_symmetry_space_group_name_H-M "C 2/M"
_symmetry_group_IT_number 12
_symmetry_cell_setting 'monoclinic'
loop_
_space_group_symop_operation_xyz
x,y,z
-x,y,-z
-x,-y,-z
x,-y,z
1/2+x,1/2+y,z
1/2-x,1/2+y,-z
1/2-x,1/2-y,-z
1/2+x,1/2-y,z
loop_
_atom_site_type_symbol
_atom_site_label
_atom_site_fract_x
_atom_site_fract_y
_atom_site_fract_z
Si Si1 0.841846 0.635158 0.918101
Si Si2 0.482061 0.369028 0.190334
Si Si3 0.136555 0.366611 0.522600
Si Si4 0.137701 0.267329 0.817349
Si Si5 0.500000 0.500000 0.000000
Si Si6 0.791792 0.770854 0.766878
O O1 0.861595 0.500000 0.926789
O O2 0.731755 0.661863 0.871776
O O3 0.745905 0.698575 0.778932
O O4 0.036943 0.698443 0.100158
O O5 0.479317 0.500000 0.208734
O O6 0.663802 0.356090 0.321716
O O7 0.469245 0.279376 0.228254
O O8 0.303189 0.347321 0.989537
O O9 0.103608 0.500000 0.506255
O O10 0.146393 0.291297 0.586265
O O11 0.991147 0.329077 0.344177
O O12 0.366500 0.396682 0.853024
#
# Coordination Sequence:
#
# PCOD9188880 Si02
#       6
#     8   8   8   8   2   8
#     4  10  21  39  61  86 124 162 205 245 294 364
#     4  10  22  40  62  85 122 161 197 253 308 356
#     4  11  22  39  61  94 124 154 199 255 305 362
#     4  11  22  39  62  90 119 158 209 245 300 362
#     4   8  16  32  58  86 120 160 194 238 300 354
#     4  10  19  36  62  91 122 163 198 244 306 358
#
# _framework density 20.096139000000001
#
# number of rings (size 3 to 8) (size 9 to 14) (size 15 to 20)
#    0.000    1.905    2.857    2.857    0.000    0.762 
#    6.857    5.714    0.000    0.000    0.000    0.000 
#    0.000    0.000    0.000    0.000    0.000    0.000 
#
# Total GULP energy -117026.926373 kJ/mol
# GULP energy per Si atom -5572.710780 kJ/mol
# Density = 2.005040 g / cm^3
# Si number density = 20.096139 Si / 1000 Ang^3
#
#
#
# Elastic Constant Matrix: (Units=GPa)
#
#
# Indices 1 2 3 4 5 6 
#
# 1 47.3606 11.9948 13.5663 -0.0017 -9.4166 -0.0012
# 2 11.9948 125.9189 20.6893 -0.0098 -2.0437 -0.0082
# 3 13.5663 20.6893 82.8405 0.0118 -25.8224 0.0005
# 4 -0.0017 -0.0098 0.0118 0.8292 0.0032 -9.6262
# 5 -9.4166 -2.0437 -25.8224 0.0032 34.5258 0.0006
# 6 -0.0012 -0.0082 0.0005 -9.6262 0.0006 14.5571
#
#
#
# Elastic Compliance Matrix: (Units=1/GPa)
#
#
# Indices 1 2 3 4 5 6 
#
# 1 0.023055 -0.001819 -0.001819 -0.000006 0.004820 -0.000003
# 2 -0.001819 0.008476 -0.002370 -0.000029 -0.001767 -0.000014
# 3 -0.001819 -0.002370 0.016643 0.000052 0.011811 0.000032
# 4 -0.000006 -0.000029 0.000052 -0.180622 0.000054 -0.119441
# 5 0.004820 -0.001767 0.011811 0.000054 0.039008 0.000033
# 6 -0.000003 -0.000014 0.000032 -0.119441 0.000033 -0.010288
#
#
# Mechanical properties :
#
#
# Convention : Reuss Voigt Hill
#
# Bulk Modulus (GPa) = 27.65634 38.73564 33.19599
# Shear Modulus (GPa) = -62.76467 23.97371 -19.39548
#
# Velocity S-wave (km/s) = -5.59464 3.45766 -3.11003
# Velocity P-wave (km/s) = 5.28597 5.93781 1.91260
#
# Compressibility (1/GPa) = 0.03615807
#
# Stress axis : x y z
#
# Youngs Moduli (GPa) = 43.37525 117.98637 60.08652
#
# Poissons Ratio (x) = 0.21463 0.10928
# Poissons Ratio (y) = 0.07890 0.14238
# Poissons Ratio (z) = 0.07889 0.27957
#
# Static dielectric constant tensor:
#      x y z
#    x 1.743220 0.000000 0.012830 
#    y 0.000000 1.659660 0.000000 
#    z 0.012830 0.000000 1.720360 
# 
# From -- ./inp_files/349435.got.cif
#   From: 2010.05.17/outbox.cif.g08.bks.cpg/sg12_175_cif.got.tgz:349435.got - 2010.06.03 13:09:07.
