data_PCOD9188163
_publ_section_title
;
Structure prediction by ZEFSAII (Michael W. Deem and Ramdas Pophale) SiO2 
 PCOD9188163
Probable space group: C 2/M
;
_chemical_formula_sum "Si O2"
_cell_formula_units_Z 64
_cell_length_a 24.535073
_cell_length_b 8.912450
_cell_length_c 21.981611
_cell_angle_alpha 90.000000
_cell_angle_beta 46.509672
_cell_angle_gamma 90.000000
_cell_volume 3487.191080
_symmetry_space_group_name_H-M "C 2/M"
_symmetry_group_IT_number 12
_symmetry_cell_setting 'monoclinic'
loop_
_space_group_symop_operation_xyz
x,y,z
-x,y,-z
-x,-y,-z
x,-y,z
1/2+x,1/2+y,z
1/2-x,1/2+y,-z
1/2-x,1/2-y,-z
1/2+x,1/2-y,z
loop_
_atom_site_type_symbol
_atom_site_label
_atom_site_fract_x
_atom_site_fract_y
_atom_site_fract_z
Si Si1 0.538146 0.674944 0.536993
Si Si2 0.434173 0.177474 0.715811
Si Si3 0.214004 0.181261 0.226469
Si Si4 0.983323 0.681717 0.112321
Si Si5 0.698832 0.678935 0.591655
Si Si6 0.290249 0.320915 0.627048
Si Si7 0.618716 0.818184 0.922203
Si Si8 0.970131 0.179603 0.255174
O O1 0.500000 0.687762 0.500000
O O2 0.530342 0.500000 0.562248
O O3 0.494393 0.776975 0.617818
O O4 0.626116 0.708810 0.462637
O O5 0.354956 0.244630 0.755202
O O6 0.464544 0.250325 0.754296
O O7 0.429375 0.000000 0.725494
O O8 0.211253 0.217873 0.300547
O O9 0.295377 0.230296 0.139296
O O10 0.207403 0.000000 0.226936
O O11 0.981732 0.500000 0.119881
O O12 0.918681 0.724958 0.113513
O O13 0.973144 0.757750 0.184710
O O14 0.061836 0.725562 0.019495
O O15 0.704183 0.500000 0.583587
O O16 0.750000 0.750000 0.500000
O O17 0.730492 0.735146 0.631940
O O18 0.611235 0.720993 0.654026
O O19 0.276555 0.500000 0.632687
O O20 0.619080 0.000000 0.921646
O O21 0.975610 0.000000 0.250783
#
# Coordination Sequence:
#
# PCOD9188163 Si02
#       8
#     8   8   8   8   8   8   8   8
#     4  10  19  36  57  79 109 148 189 227 273 333
#     4  12  25  38  55  81 111 148 193 242 282 323
#     4  10  19  36  58  83 114 150 184 221 277 340
#     4   9  17  35  62  92 117 143 183 229 274 330
#     4  11  24  39  56  80 112 146 185 231 279 329
#     4  10  20  34  58  85 110 144 185 226 275 332
#     4   8  16  32  61  93 119 144 177 225 281 335
#     4  11  24  41  58  79 111 154 193 228 278 340
#
# _framework density 18.352879999999999
#
# number of rings (size 3 to 8) (size 9 to 14) (size 15 to 20)
#    0.000    1.875    1.250    4.125    0.000    7.250 
#    0.000    3.125    0.000    0.000    0.000    0.000 
#    0.000    0.000    0.000    0.000    0.000    0.000 
#
# Total GULP energy -178785.844172 kJ/mol
# GULP energy per Si atom -5587.057630 kJ/mol
# Density = 1.831111 g / cm^3
# Si number density = 18.352880 Si / 1000 Ang^3
#
#
#
# Elastic Constant Matrix: (Units=GPa)
#
#
# Indices 1 2 3 4 5 6 
#
# 1 117.1440 46.9364 56.0647 0.0002 -10.3829 -0.0001
# 2 46.9364 47.1140 41.4193 0.0011 -3.9847 -0.0014
# 3 56.0647 41.4193 100.3630 -0.0001 -4.6123 0.0000
# 4 0.0002 0.0011 -0.0001 15.3495 -0.0003 3.0284
# 5 -10.3829 -3.9847 -4.6123 -0.0003 27.1547 0.0002
# 6 -0.0001 -0.0014 0.0000 3.0284 0.0002 27.4403
#
#
#
# Elastic Compliance Matrix: (Units=1/GPa)
#
#
# Indices 1 2 3 4 5 6 
#
# 1 0.015257 -0.011852 -0.003470 0.000001 0.003505 -0.000001
# 2 -0.011852 0.042697 -0.011006 -0.000003 -0.000136 0.000002
# 3 -0.003470 -0.011006 0.016438 0.000001 -0.000150 -0.000001
# 4 0.000001 -0.000003 0.000001 0.066599 0.000001 -0.007350
# 5 0.003505 -0.000136 -0.000150 0.000001 0.038121 0.000000
# 6 -0.000001 0.000002 -0.000001 -0.007350 0.000000 0.037254
#
#
# Mechanical properties :
#
#
# Convention : Reuss Voigt Hill
#
# Bulk Modulus (GPa) = 46.01054 61.49577 53.75315
# Shear Modulus (GPa) = 18.09843 22.00228 20.05035
#
# Velocity S-wave (km/s) = 3.14369 3.46619 3.30887
# Velocity P-wave (km/s) = 6.18881 7.04269 6.62951
#
# Compressibility (1/GPa) = 0.02173415
#
# Stress axis : x y z
#
# Youngs Moduli (GPa) = 65.54441 23.42099 60.83515
#
# Poissons Ratio (x) = 0.27758 0.21113
# Poissons Ratio (y) = 0.77682 0.66957
# Poissons Ratio (z) = 0.22747 0.25778
#
# Static dielectric constant tensor:
#      x y z
#    x 1.619040 0.000000 -0.012700 
#    y 0.000000 1.610300 0.000000 
#    z -0.012700 0.000000 1.629500 
# 
# From -- ./inp_files/324180.got.cif
#   From: 2010.05.17/outbox.cif.g08.bks.cpg/sg12_163_cif.got.tgz:324180.got - 2010.06.03 13:09:07.
