data_PCOD9188884
_publ_section_title
;
Structure prediction by ZEFSAII (Michael W. Deem and Ramdas Pophale) SiO2 
 PCOD9188884
Probable space group: C 2/M
;
_chemical_formula_sum "Si O2"
_cell_formula_units_Z 48
_cell_length_a 14.664657
_cell_length_b 11.706709
_cell_length_c 15.618976
_cell_angle_alpha 90.000000
_cell_angle_beta 116.187236
_cell_angle_gamma 90.000000
_cell_volume 2406.159438
_symmetry_space_group_name_H-M "C 2/M"
_symmetry_group_IT_number 12
_symmetry_cell_setting 'monoclinic'
loop_
_space_group_symop_operation_xyz
x,y,z
-x,y,-z
-x,-y,-z
x,-y,z
1/2+x,1/2+y,z
1/2-x,1/2+y,-z
1/2-x,1/2-y,-z
1/2+x,1/2-y,z
loop_
_atom_site_type_symbol
_atom_site_label
_atom_site_fract_x
_atom_site_fract_y
_atom_site_fract_z
Si Si1 0.145504 0.366718 0.844448
Si Si2 0.391857 0.868328 0.985304
Si Si3 0.590357 0.870375 0.293239
Si Si4 0.113638 0.627185 0.506097
Si Si5 0.246499 0.693376 0.227271
Si Si6 0.620778 0.374413 0.570831
O O1 0.171581 0.500000 0.854407
O O2 0.210895 0.305458 0.799805
O O3 0.027683 0.351532 0.771503
O O4 0.151411 0.319670 0.943899
O O5 0.311937 0.866744 0.875322
O O6 0.415730 0.000000 0.017655
O O7 0.500000 0.816440 0.000000
O O8 0.608316 0.866135 0.401497
O O9 0.661162 0.791811 0.264867
O O10 0.614355 0.000000 0.273586
O O11 0.157666 0.500000 0.546881
O O12 0.158277 0.750668 0.551838
O O13 0.000000 0.625553 0.500000
O O14 0.340654 0.632236 0.314802
O O15 0.500000 0.374616 0.500000
O O16 0.657997 0.500000 0.553497
#
# Coordination Sequence:
#
# PCOD9188884 Si02
#       6
#     8   8   8   8   8   8
#     4  10  21  37  60  91 124 156 200 257 311 366
#     4  10  19  36  62  92 120 151 200 259 308 361
#     4  10  20  37  62  91 119 155 207 260 303 360
#     4   9  18  35  58  83 114 156 205 255 304 355
#     4  12  22  36  61  89 120 160 206 248 306 369
#     4  10  21  36  54  82 123 162 199 246 307 373
#
# _framework density 19.948803000000002
#
# number of rings (size 3 to 8) (size 9 to 14) (size 15 to 20)
#    0.000    1.833    1.667    4.000    0.000    2.667 
#    0.000    0.833    0.000    3.500    0.000    0.000 
#    0.000    0.000    0.000    0.000    0.000    0.000 
#
# Total GULP energy -133607.769442 kJ/mol
# GULP energy per Si atom -5566.990393 kJ/mol
# Density = 1.990340 g / cm^3
# Si number density = 19.948803 Si / 1000 Ang^3
#
#
#
# Elastic Constant Matrix: (Units=GPa)
#
#
# Indices 1 2 3 4 5 6 
#
# 1 99.7845 40.0802 36.1632 0.0000 -23.9147 0.0000
# 2 40.0802 124.1585 50.6928 0.0000 -15.3650 0.0000
# 3 36.1632 50.6928 102.9142 0.0000 -2.7545 0.0000
# 4 0.0000 0.0000 0.0000 39.2681 0.0000 10.4320
# 5 -23.9147 -15.3650 -2.7545 0.0000 35.1041 0.0000
# 6 0.0000 0.0000 0.0000 10.4320 0.0000 42.4083
#
#
#
# Elastic Compliance Matrix: (Units=1/GPa)
#
#
# Indices 1 2 3 4 5 6 
#
# 1 0.014242 -0.001992 -0.003795 0.000000 0.008533 0.000000
# 2 -0.001992 0.010964 -0.004618 0.000000 0.003079 0.000000
# 3 -0.003795 -0.004618 0.013230 0.000000 -0.003569 0.000000
# 4 0.000000 0.000000 0.000000 0.027247 0.000000 -0.006702
# 5 0.008533 0.003079 -0.003569 0.000000 0.035367 0.000000
# 6 0.000000 0.000000 0.000000 -0.006702 0.000000 0.025229
#
#
# Mechanical properties :
#
#
# Convention : Reuss Voigt Hill
#
# Bulk Modulus (GPa) = 56.73673 64.52550 60.63112
# Shear Modulus (GPa) = 32.68746 36.68419 34.68582
#
# Velocity S-wave (km/s) = 4.05231 4.29291 4.17435
# Velocity P-wave (km/s) = 7.09915 7.54903 7.32754
#
# Compressibility (1/GPa) = 0.01762527
#
# Stress axis : x y z
#
# Youngs Moduli (GPa) = 70.21444 91.20825 75.58833
#
# Poissons Ratio (x) = 0.18170 0.28685
# Poissons Ratio (y) = 0.13988 0.34907
# Poissons Ratio (z) = 0.26646 0.42121
#
# Static dielectric constant tensor:
#      x y z
#    x 1.718220 0.000000 -0.000840 
#    y 0.000000 1.751150 0.000000 
#    z -0.000840 0.000000 1.734570 
# 
# From -- ./inp_files/213525.got.cif
#   From: 2010.05.17/outbox.cif.g08.bks.cpg/sg12_107_cif.got.tgz:213525.got - 2010.06.03 13:09:07.
