data_PCOD9188243
_publ_section_title
;
Structure prediction by ZEFSAII (Michael W. Deem and Ramdas Pophale) SiO2 
 PCOD9188243
Probable space group: C 2/M
;
_chemical_formula_sum "Si O2"
_cell_formula_units_Z 64
_cell_length_a 21.781528
_cell_length_b 16.976913
_cell_length_c 17.685701
_cell_angle_alpha 90.000000
_cell_angle_beta 149.712340
_cell_angle_gamma 90.000000
_cell_volume 3298.330626
_symmetry_space_group_name_H-M "C 2/M"
_symmetry_group_IT_number 12
_symmetry_cell_setting 'monoclinic'
loop_
_space_group_symop_operation_xyz
x,y,z
-x,y,-z
-x,-y,-z
x,-y,z
1/2+x,1/2+y,z
1/2-x,1/2+y,-z
1/2-x,1/2-y,-z
1/2+x,1/2-y,z
loop_
_atom_site_type_symbol
_atom_site_label
_atom_site_fract_x
_atom_site_fract_y
_atom_site_fract_z
Si Si1 0.788575 0.661693 0.358157
Si Si2 0.360100 0.406227 0.570569
Si Si3 0.895281 0.593566 0.624981
Si Si4 0.732785 0.410311 0.145018
Si Si5 0.064643 0.812752 0.498030
Si Si6 0.973560 0.156869 0.844939
Si Si7 0.336118 0.757272 0.181066
Si Si8 0.593626 0.802016 0.906895
O O1 0.868837 0.634174 0.515698
O O2 0.797177 0.606938 0.293694
O O3 0.825491 0.750472 0.373666
O O4 0.649048 0.655091 0.237195
O O5 0.369873 0.500000 0.575971
O O6 0.221062 0.386027 0.446119
O O7 0.399330 0.366764 0.534121
O O8 0.439327 0.376405 0.725705
O O9 0.898476 0.500000 0.617556
O O10 0.015475 0.625056 0.794574
O O11 0.752293 0.500000 0.141681
O O12 0.782559 0.343785 0.140998
O O13 0.588244 0.391982 0.998074
O O14 0.000000 0.856007 0.500000
O O15 0.952725 0.757118 0.355039
O O16 0.016404 0.246886 0.879938
O O17 0.380361 0.752710 0.142128
O O18 0.230362 0.692986 0.084261
#
# Coordination Sequence:
#
# PCOD9188243 Si02
#       8
#     8   8   8   8   8   8   8   8
#     4  11  21  35  56  86 115 153 187 221 271 340
#     4  10  21  37  59  85 109 141 192 244 285 325
#     4  10  20  35  58  87 115 145 184 234 286 327
#     4  11  23  37  54  83 122 153 182 225 275 332
#     4  12  22  39  59  80 114 150 188 230 279 335
#     4  10  20  36  60  82 110 148 192 232 278 324
#     4  10  21  37  55  81 109 152 191 223 269 335
#     4  10  19  36  58  79 110 146 192 237 271 323
#
# _framework density 19.403756000000001
#
# number of rings (size 3 to 8) (size 9 to 14) (size 15 to 20)
#    0.000    1.500    3.750    1.875    0.000    4.750 
#    0.000    1.250    0.000    0.000    0.000    1.750 
#    0.000    0.000    0.000    0.000    0.000    0.000 
#
# Total GULP energy -178465.226688 kJ/mol
# GULP energy per Si atom -5577.038334 kJ/mol
# Density = 1.935959 g / cm^3
# Si number density = 19.403756 Si / 1000 Ang^3
#
#
#
# Elastic Constant Matrix: (Units=GPa)
#
#
# Indices 1 2 3 4 5 6 
#
# 1 87.5416 36.0588 15.7685 0.0000 -3.7526 0.0000
# 2 36.0588 42.3204 21.2464 0.0000 7.6539 0.0000
# 3 15.7685 21.2464 58.1375 0.0000 11.8611 0.0000
# 4 0.0000 0.0000 0.0000 23.5735 0.0000 -1.5115
# 5 -3.7526 7.6539 11.8611 0.0000 17.4131 0.0000
# 6 0.0000 0.0000 0.0000 -1.5115 0.0000 22.5216
#
#
#
# Elastic Compliance Matrix: (Units=1/GPa)
#
#
# Indices 1 2 3 4 5 6 
#
# 1 0.019979 -0.018809 -0.001290 0.000000 0.013451 0.000000
# 2 -0.018809 0.047274 -0.008256 0.000000 -0.019209 0.000000
# 3 -0.001290 -0.008256 0.023093 0.000000 -0.012379 0.000000
# 4 0.000000 0.000000 0.000000 0.042604 0.000000 0.002859
# 5 0.013451 -0.019209 -0.012379 0.000000 0.077202 0.000000
# 6 0.000000 0.000000 0.000000 0.002859 0.000000 0.044594
#
#
# Mechanical properties :
#
#
# Convention : Reuss Voigt Hill
#
# Bulk Modulus (GPa) = 29.72831 37.12745 33.42788
# Shear Modulus (GPa) = 15.49584 20.36336 17.92960
#
# Velocity S-wave (km/s) = 2.82902 3.24304 3.04308
# Velocity P-wave (km/s) = 5.10150 5.76184 5.44169
#
# Compressibility (1/GPa) = 0.03363796
#
# Stress axis : x y z
#
# Youngs Moduli (GPa) = 50.05143 21.15338 43.30301
#
# Poissons Ratio (x) = 0.39787 0.05585
# Poissons Ratio (y) = 0.94140 0.35750
# Poissons Ratio (z) = 0.06455 0.17464
#
# Static dielectric constant tensor:
#      x y z
#    x 1.702810 0.000000 -0.008650 
#    y 0.000000 1.648930 0.000000 
#    z -0.008650 0.000000 1.748040 
# 
# From -- ./inp_files/285235.got.cif
#   From: 2010.05.17/outbox.cif.g08.bks.cpg/sg12_143_cif.got.tgz:285235.got - 2010.06.03 13:09:07.
