data_PCOD9188629
_publ_section_title
;
Structure prediction by ZEFSAII (Michael W. Deem and Ramdas Pophale) SiO2 
 PCOD9188629
Probable space group: C 2/M
;
_chemical_formula_sum "Si O2"
_cell_formula_units_Z 56
_cell_length_a 18.816286
_cell_length_b 17.330206
_cell_length_c 9.661260
_cell_angle_alpha 90.000000
_cell_angle_beta 66.185457
_cell_angle_gamma 90.000000
_cell_volume 2882.203991
_symmetry_space_group_name_H-M "C 2/M"
_symmetry_group_IT_number 12
_symmetry_cell_setting 'monoclinic'
loop_
_space_group_symop_operation_xyz
x,y,z
-x,y,-z
-x,-y,-z
x,-y,z
1/2+x,1/2+y,z
1/2-x,1/2+y,-z
1/2-x,1/2-y,-z
1/2+x,1/2-y,z
loop_
_atom_site_type_symbol
_atom_site_label
_atom_site_fract_x
_atom_site_fract_y
_atom_site_fract_z
Si Si1 0.861584 0.676352 0.938999
Si Si2 0.536300 0.582502 0.121296
Si Si3 0.948908 0.821367 0.406959
Si Si4 0.307633 0.591637 0.626603
Si Si5 0.690267 0.647395 0.060354
Si Si6 0.014623 0.354095 0.641994
Si Si7 0.127997 0.588390 0.785790
O O1 0.837058 0.766234 0.956698
O O2 0.931843 0.661267 0.780002
O O3 0.780869 0.635224 0.958190
O O4 0.883871 0.645543 0.074476
O O5 0.518967 0.500000 0.204378
O O6 0.498187 0.650508 0.238069
O O7 0.628336 0.592562 0.037660
O O8 0.500000 0.583094 0.000000
O O9 0.866865 0.864437 0.480034
O O10 0.943831 0.729133 0.411661
O O11 0.000000 0.844370 0.500000
O O12 0.324866 0.500000 0.620721
O O13 0.318322 0.630774 0.768996
O O14 0.216509 0.600208 0.664052
O O15 0.067668 0.399522 0.709231
O O16 0.000000 0.387525 0.500000
O O17 0.122573 0.500000 0.841617
#
# Coordination Sequence:
#
# PCOD9188629 Si02
#       7
#     8   8   8   8   8   8   8
#     4  10  21  38  64  88 116 156 205 252 295 360
#     4  11  23  36  54  88 126 159 198 244 295 356
#     4  11  21  36  62  88 119 162 204 234 295 367
#     4  10  20  38  63  93 125 159 203 250 294 360
#     4  10  19  36  60  88 120 157 203 245 298 345
#     4  11  23  40  61  90 124 154 200 254 307 361
#     4  10  24  43  65  90 116 156 209 257 305 362
#
# _framework density 19.429576000000001
#
# number of rings (size 3 to 8) (size 9 to 14) (size 15 to 20)
#    0.000    1.571    2.857    2.143    2.000    3.143 
#    2.571    0.000    0.000    0.000    0.000    0.000 
#    0.000    0.000    0.000    0.000    0.000    0.000 
#
# Total GULP energy -156274.539490 kJ/mol
# GULP energy per Si atom -5581.233553 kJ/mol
# Density = 1.938535 g / cm^3
# Si number density = 19.429576 Si / 1000 Ang^3
#
#
#
# Elastic Constant Matrix: (Units=GPa)
#
#
# Indices 1 2 3 4 5 6 
#
# 1 114.7275 24.3157 47.8079 0.0000 4.3858 0.0000
# 2 24.3157 45.1548 21.3463 0.0000 -1.2088 0.0000
# 3 47.8079 21.3463 70.7542 0.0000 -6.5274 0.0000
# 4 0.0000 0.0000 0.0000 26.8913 0.0000 2.8199
# 5 4.3858 -1.2088 -6.5274 0.0000 29.3851 0.0000
# 6 0.0000 0.0000 0.0000 2.8199 0.0000 25.8118
#
#
#
# Elastic Compliance Matrix: (Units=1/GPa)
#
#
# Indices 1 2 3 4 5 6 
#
# 1 0.012933 -0.003229 -0.008121 0.000000 -0.003867 0.000000
# 2 -0.003229 0.026649 -0.005832 0.000000 0.000282 0.000000
# 3 -0.008121 -0.005832 0.021919 0.000000 0.005841 0.000000
# 4 0.000000 0.000000 0.000000 0.037618 0.000000 -0.004110
# 5 -0.003867 0.000282 0.005841 0.000000 0.035917 0.000000
# 6 0.000000 0.000000 0.000000 -0.004110 0.000000 0.039191
#
#
# Mechanical properties :
#
#
# Convention : Reuss Voigt Hill
#
# Bulk Modulus (GPa) = 36.85002 46.39735 41.62368
# Shear Modulus (GPa) = 22.97406 25.56207 24.26807
#
# Velocity S-wave (km/s) = 3.44237 3.63109 3.53799
# Velocity P-wave (km/s) = 5.89975 6.44293 6.17731
#
# Compressibility (1/GPa) = 0.02713703
#
# Stress axis : x y z
#
# Youngs Moduli (GPa) = 77.32454 37.52433 45.62195
#
# Poissons Ratio (x) = 0.12115 0.37050
# Poissons Ratio (y) = 0.24964 0.26609
# Poissons Ratio (z) = 0.62796 0.21886
#
# Static dielectric constant tensor:
#      x y z
#    x 1.689960 0.000000 -0.014060 
#    y 0.000000 1.688820 0.000000 
#    z -0.014060 0.000000 1.657720 
# 
# From -- ./inp_files/75840.got.cif
#   From: 2010.05.17/outbox.cif.g08.bks.cpg/sg12_38_cif.got.tgz:75840.got - 2010.06.03 13:09:07.
