data_PCOD9188841
_publ_section_title
;
Structure prediction by ZEFSAII (Michael W. Deem and Ramdas Pophale) SiO2 
 PCOD9188841
Probable space group: C 2/M
;
_chemical_formula_sum "Si O2"
_cell_formula_units_Z 58
_cell_length_a 24.917100
_cell_length_b 7.646847
_cell_length_c 12.218935
_cell_angle_alpha 90.000000
_cell_angle_beta 98.347583
_cell_angle_gamma 90.000000
_cell_volume 2303.496721
_symmetry_space_group_name_H-M "C 2/M"
_symmetry_group_IT_number 12
_symmetry_cell_setting 'monoclinic'
loop_
_space_group_symop_operation_xyz
x,y,z
-x,y,-z
-x,-y,-z
x,-y,z
1/2+x,1/2+y,z
1/2-x,1/2+y,-z
1/2-x,1/2-y,-z
1/2+x,1/2-y,z
loop_
_atom_site_type_symbol
_atom_site_label
_atom_site_fract_x
_atom_site_fract_y
_atom_site_fract_z
Si Si1 0.083533 0.701858 0.253389
Si Si2 0.246486 0.789128 0.267505
Si Si3 0.177865 0.200673 0.437864
Si Si4 0.861902 0.208650 0.343662
Si Si5 0.192595 0.208040 0.037059
Si Si6 0.500000 0.500000 0.000000
Si Si7 0.517099 0.711595 0.630149
Si Si8 0.423999 0.201485 0.002167
O O1 0.099968 0.500000 0.255306
O O2 0.127153 0.800488 0.339758
O O3 0.080696 0.762243 0.127290
O O4 0.026347 0.716833 0.297775
O O5 0.226754 0.722201 0.380018
O O6 0.307907 0.738460 0.257315
O O7 0.203836 0.728202 0.164322
O O8 0.244301 0.000000 0.268524
O O9 0.156214 0.283794 0.543118
O O10 0.191732 0.000000 0.465852
O O11 0.921295 0.273557 0.329272
O O12 0.868782 0.000000 0.356963
O O13 0.137547 0.286593 0.973260
O O14 0.184929 0.000000 0.034585
O O15 0.250000 0.250000 0.000000
O O16 0.534418 0.345081 0.943517
O O17 0.500000 0.757936 0.500000
O O18 0.514528 0.500000 0.635901
O O19 0.441647 0.000000 0.015034
#
# Coordination Sequence:
#
# PCOD9188841 Si02
#       8
#     8   8   8   8   8   2   8   8
#     4  11  23  37  62  95 126 167 212 271 325 388
#     4  10  22  38  61  90 125 168 211 267 332 396
#     4  10  19  36  62  86 123 167 213 258 314 389
#     4  10  21  36  56  89 125 168 215 267 321 380
#     4  11  23  44  72 100 134 182 228 286 359 420
#     4  12  26  48  80 106 138 184 214 294 366 410
#     4  10  20  37  59  82 121 175 222 262 313 388
#     4  11  25  47  73 107 139 173 233 286 344 431
#
# _framework density 25.179109
#
# number of rings (size 3 to 8) (size 9 to 14) (size 15 to 20)
#    0.000    1.517    3.448    1.448    1.931    3.034 
#    2.483    0.000    0.000    0.000    0.000    0.000 
#    0.000    0.000    0.000    0.000    0.000    0.000 
#
# Total GULP energy -162009.983711 kJ/mol
# GULP energy per Si atom -5586.551162 kJ/mol
# Density = 2.512180 g / cm^3
# Si number density = 25.179109 Si / 1000 Ang^3
#
#
#
# Elastic Constant Matrix: (Units=GPa)
#
#
# Indices 1 2 3 4 5 6 
#
# 1 192.9788 23.3124 5.0045 0.0000 0.9533 0.0000
# 2 23.3124 90.6604 7.5023 0.0000 10.2597 0.0000
# 3 5.0045 7.5023 35.1555 0.0000 -4.3905 0.0000
# 4 0.0000 0.0000 0.0000 1.4854 0.0000 0.5428
# 5 0.9533 10.2597 -4.3905 0.0000 41.8981 0.0000
# 6 0.0000 0.0000 0.0000 0.5428 0.0000 37.9611
#
#
#
# Elastic Compliance Matrix: (Units=1/GPa)
#
#
# Indices 1 2 3 4 5 6 
#
# 1 0.005357 -0.001359 -0.000452 0.000000 0.000163 0.000000
# 2 -0.001359 0.011969 -0.002759 0.000000 -0.003189 0.000000
# 3 -0.000452 -0.002759 0.029571 0.000000 0.003785 0.000000
# 4 0.000000 0.000000 0.000000 0.676761 0.000000 -0.009677
# 5 0.000163 -0.003189 0.003785 0.000000 0.025041 0.000000
# 6 0.000000 0.000000 0.000000 -0.009677 0.000000 0.026481
#
#
# Mechanical properties :
#
#
# Convention : Reuss Voigt Hill
#
# Bulk Modulus (GPa) = 26.48524 43.38145 34.93335
# Shear Modulus (GPa) = 6.27427 35.13394 20.70410
#
# Velocity S-wave (km/s) = 1.58027 3.73951 2.87064
# Velocity P-wave (km/s) = 3.72441 5.99264 4.98914
#
# Compressibility (1/GPa) = 0.03775687
#
# Stress axis : x y z
#
# Youngs Moduli (GPa) = 186.67321 83.55111 33.81702
#
# Poissons Ratio (x) = 0.11351 0.01529
# Poissons Ratio (y) = 0.25361 0.09330
# Poissons Ratio (z) = 0.08442 0.23052
#
# Static dielectric constant tensor:
#      x y z
#    x 2.032810 0.000000 0.024240 
#    y 0.000000 1.952520 0.000000 
#    z 0.024240 0.000000 2.085300 
# 
# From -- ./inp_files/237753.got.cif
#   From: 2010.05.17/outbox.cif.g08.bks.cpg/sg12_119_cif.got.tgz:237753.got - 2010.06.03 13:09:07.
