data_PCOD9188270
_publ_section_title
;
Structure prediction by ZEFSAII (Michael W. Deem and Ramdas Pophale) SiO2 
 PCOD9188270
Probable space group: C 2/M
;
_chemical_formula_sum "Si O2"
_cell_formula_units_Z 60
_cell_length_a 15.270424
_cell_length_b 20.259400
_cell_length_c 12.558886
_cell_angle_alpha 90.000000
_cell_angle_beta 49.440763
_cell_angle_gamma 90.000000
_cell_volume 2951.823714
_symmetry_space_group_name_H-M "C 2/M"
_symmetry_group_IT_number 12
_symmetry_cell_setting 'monoclinic'
loop_
_space_group_symop_operation_xyz
x,y,z
-x,y,-z
-x,-y,-z
x,-y,z
1/2+x,1/2+y,z
1/2-x,1/2+y,-z
1/2-x,1/2-y,-z
1/2+x,1/2-y,z
loop_
_atom_site_type_symbol
_atom_site_label
_atom_site_fract_x
_atom_site_fract_y
_atom_site_fract_z
Si Si1 0.104205 0.278800 0.993544
Si Si2 0.315578 0.924565 0.075843
Si Si3 0.925654 0.103636 0.664282
Si Si4 0.540811 0.425444 0.789353
Si Si5 0.000000 0.340061 0.500000
Si Si6 0.192608 0.921587 0.949420
Si Si7 0.713108 0.078469 0.356227
Si Si8 0.871938 0.252478 0.775990
O O1 0.115140 0.357537 0.957998
O O2 0.231822 0.246373 0.874857
O O3 0.090179 0.268789 0.132532
O O4 0.000000 0.254148 0.000000
O O5 0.203357 0.924705 0.240646
O O6 0.364389 0.000000 0.036827
O O7 0.264463 0.908624 0.998429
O O8 0.909298 0.178758 0.715095
O O9 0.000000 0.098047 0.500000
O O10 0.991158 0.070367 0.710608
O O11 0.560295 0.500000 0.817465
O O12 0.667968 0.395743 0.686384
O O13 0.436329 0.392651 0.938160
O O14 0.097328 0.384835 0.478390
O O15 0.064248 0.297658 0.360019
O O16 0.262154 0.908730 0.788343
O O17 0.173465 0.000000 0.967062
O O18 0.698749 0.000000 0.385608
#
# Coordination Sequence:
#
# PCOD9188270 Si02
#       8
#     8   8   8   8   4   8   8   8
#     4  10  22  43  67  89 118 156 202 255 299 353
#     4   9  18  33  58  92 120 151 193 235 293 360
#     4  10  19  36  58  81 115 158 196 244 293 344
#     4   9  18  32  54  88 118 147 195 249 297 352
#     4  12  23  40  58  82 117 164 196 248 304 362
#     4   8  14  29  55  82 114 152 189 235 284 336
#     4  10  20  34  54  84 121 156 193 239 300 366
#     4  10  23  43  63  87 117 157 209 251 296 353
#
# _framework density 20.326416999999999
#
# number of rings (size 3 to 8) (size 9 to 14) (size 15 to 20)
#    0.000    2.400    0.667    2.600    0.000    5.067 
#    4.800    2.000    0.000    0.000    0.000    0.000 
#    0.000    0.000    0.000    0.000    0.000    0.000 
#
# Total GULP energy -167235.388386 kJ/mol
# GULP energy per Si atom -5574.512946 kJ/mol
# Density = 2.028015 g / cm^3
# Si number density = 20.326417 Si / 1000 Ang^3
#
#
#
# Elastic Constant Matrix: (Units=GPa)
#
#
# Indices 1 2 3 4 5 6 
#
# 1 107.6841 25.6750 43.4051 0.0000 -16.5926 0.0000
# 2 25.6750 80.3507 19.2921 0.0000 -12.9328 0.0000
# 3 43.4051 19.2921 75.9799 0.0000 5.3288 0.0000
# 4 0.0000 0.0000 0.0000 -27.3497 0.0000 -12.6119
# 5 -16.5926 -12.9328 5.3288 0.0000 23.9870 0.0000
# 6 0.0000 0.0000 0.0000 -12.6119 0.0000 13.1798
#
#
#
# Elastic Compliance Matrix: (Units=1/GPa)
#
#
# Indices 1 2 3 4 5 6 
#
# 1 0.015051 -0.000625 -0.009291 0.000000 0.012138 0.000000
# 2 -0.000625 0.014994 -0.004050 0.000000 0.008552 0.000000
# 3 -0.009291 -0.004050 0.020419 0.000000 -0.013146 0.000000
# 4 0.000000 0.000000 0.000000 -0.025369 0.000000 -0.024276
# 5 0.012138 0.008552 -0.013146 0.000000 0.057617 0.000000
# 6 0.000000 0.000000 0.000000 -0.024276 0.000000 0.052644
#
#
# Mechanical properties :
#
#
# Convention : Reuss Voigt Hill
#
# Bulk Modulus (GPa) = 44.37957 48.97323 46.67640
# Shear Modulus (GPa) = 29.27455 13.67291 21.47373
#
# Velocity S-wave (km/s) = 3.79914 2.59640 3.25383
# Velocity P-wave (km/s) = 6.41292 5.75622 6.09342
#
# Compressibility (1/GPa) = 0.02253289
#
# Stress axis : x y z
#
# Youngs Moduli (GPa) = 66.44278 66.69375 48.97359
#
# Poissons Ratio (x) = 0.04168 0.45499
# Poissons Ratio (y) = 0.04152 0.19834
# Poissons Ratio (z) = 0.61729 0.27010
#
# Static dielectric constant tensor:
#      x y z
#    x 1.740720 0.000000 -0.028150 
#    y 0.000000 1.809800 0.000000 
#    z -0.028150 0.000000 1.709820 
# 
# From -- ./inp_files/148908.got.cif
#   From: 2010.05.17/outbox.cif.g08.bks.cpg/sg12_75_cif.got.tgz:148908.got - 2010.06.03 13:09:07.
