data_PCOD9188188
_publ_section_title
;
Structure prediction by ZEFSAII (Michael W. Deem and Ramdas Pophale) SiO2 
 PCOD9188188
Probable space group: C 2/M
;
_chemical_formula_sum "Si O2"
_cell_formula_units_Z 56
_cell_length_a 17.896571
_cell_length_b 13.211294
_cell_length_c 16.934899
_cell_angle_alpha 90.000000
_cell_angle_beta 145.084440
_cell_angle_gamma 90.000000
_cell_volume 2291.783477
_symmetry_space_group_name_H-M "C 2/M"
_symmetry_group_IT_number 12
_symmetry_cell_setting 'monoclinic'
loop_
_space_group_symop_operation_xyz
x,y,z
-x,y,-z
-x,-y,-z
x,-y,z
1/2+x,1/2+y,z
1/2-x,1/2+y,-z
1/2-x,1/2-y,-z
1/2+x,1/2-y,z
loop_
_atom_site_type_symbol
_atom_site_label
_atom_site_fract_x
_atom_site_fract_y
_atom_site_fract_z
Si Si1 0.193334 0.383890 0.003715
Si Si2 0.788005 0.116331 0.695370
Si Si3 0.097451 0.619676 0.242592
Si Si4 0.102237 0.328635 0.652805
Si Si5 0.023514 0.120441 0.794388
Si Si6 0.094720 0.298650 0.401475
Si Si7 0.289254 0.383993 0.267009
O O1 0.178948 0.500000 0.963642
O O2 0.324669 0.347220 0.074063
O O3 0.227430 0.385421 0.126397
O O4 0.049217 0.337149 0.876552
O O5 0.742629 0.132786 0.746178
O O6 0.937046 0.132521 0.798707
O O7 0.695886 0.186334 0.560418
O O8 0.757927 0.000000 0.648525
O O9 0.085734 0.500000 0.223300
O O10 0.154106 0.645818 0.377180
O O11 0.183247 0.648175 0.241368
O O12 0.107877 0.206802 0.648798
O O13 0.000000 0.370796 0.500000
O O14 0.039815 0.350046 0.683292
O O15 0.947700 0.187149 0.663285
O O16 0.022348 0.000000 0.773105
O O17 0.333500 0.500000 0.322449
#
# Coordination Sequence:
#
# PCOD9188188 Si02
#       7
#     8   8   8   8   8   8   8
#     4   9  18  35  58  83 112 146 181 219 276 334
#     4  10  22  39  59  79 108 150 186 226 274 325
#     4  10  21  35  57  86 113 144 182 229 273 319
#     4  10  22  37  55  80 110 147 187 225 271 331
#     4  10  20  36  58  81 110 145 182 224 274 328
#     4  11  21  36  57  84 112 141 186 231 272 323
#     4  10  19  36  57  82 115 145 179 223 275 332
#
# _framework density 24.435119
#
# number of rings (size 3 to 8) (size 9 to 14) (size 15 to 20)
#    0.000    2.000    1.429    2.143    0.000    6.857 
#    0.000    5.000    0.000    0.000    0.000    4.000 
#    0.000    0.000    0.000    0.000    0.000    0.000 
#
# Total GULP energy -156279.998470 kJ/mol
# GULP energy per Si atom -5581.428517 kJ/mol
# Density = 2.437950 g / cm^3
# Si number density = 24.435119 Si / 1000 Ang^3
#
#
#
# Elastic Constant Matrix: (Units=GPa)
#
#
# Indices 1 2 3 4 5 6 
#
# 1 191.7082 2.7846 -3.5021 0.0000 22.1210 0.0000
# 2 2.7846 70.4291 1.6437 0.0000 15.0517 0.0000
# 3 -3.5021 1.6437 28.7829 -0.0001 15.4668 0.0000
# 4 0.0000 0.0000 -0.0001 24.4444 0.0000 8.5695
# 5 22.1210 15.0517 15.4668 0.0000 22.1423 0.0000
# 6 0.0000 0.0000 0.0000 8.5695 0.0000 31.4981
#
#
#
# Elastic Compliance Matrix: (Units=1/GPa)
#
#
# Indices 1 2 3 4 5 6 
#
# 1 0.007079 0.002740 0.008814 0.000000 -0.015092 0.000000
# 2 0.002740 0.018975 0.012250 0.000000 -0.024192 0.000000
# 3 0.008814 0.012250 0.070957 0.000000 -0.066698 0.000000
# 4 0.000000 0.000000 0.000000 0.045222 0.000000 -0.012303
# 5 -0.015092 -0.024192 -0.066698 0.000000 0.123274 0.000000
# 6 0.000000 0.000000 0.000000 -0.012303 0.000000 0.035095
#
#
# Mechanical properties :
#
#
# Convention : Reuss Voigt Hill
#
# Bulk Modulus (GPa) = 6.91478 32.53030 19.72254
# Shear Modulus (GPa) = 16.60024 34.94989 25.77507
#
# Velocity S-wave (km/s) = 2.60928 3.78605 3.25135
# Velocity P-wave (km/s) = 3.45164 5.69685 4.70998
#
# Compressibility (1/GPa) = 0.14461783
#
# Stress axis : x y z
#
# Youngs Moduli (GPa) = 141.26515 52.70188 14.09311
#
# Poissons Ratio (x) = -0.14439 -0.12422
# Poissons Ratio (y) = -0.38702 -0.17264
# Poissons Ratio (z) = -1.24518 -0.64558
#
# Static dielectric constant tensor:
#      x y z
#    x 1.977730 0.000000 0.059240 
#    y 0.000000 1.985190 0.000000 
#    z 0.059240 0.000000 1.929090 
# 
# From -- ./inp_files/277876.got.cif
#   From: 2010.05.17/outbox.cif.g08.bks.cpg/sg12_139_cif.got.tgz:277876.got - 2010.06.03 13:09:07.
