data_PCOD9188763
_publ_section_title
;
Structure prediction by ZEFSAII (Michael W. Deem and Ramdas Pophale) SiO2 
 PCOD9188763
Probable space group: C 2/M
;
_chemical_formula_sum "Si O2"
_cell_formula_units_Z 56
_cell_length_a 19.609033
_cell_length_b 8.371720
_cell_length_c 16.778500
_cell_angle_alpha 90.000000
_cell_angle_beta 70.598060
_cell_angle_gamma 90.000000
_cell_volume 2597.963530
_symmetry_space_group_name_H-M "C 2/M"
_symmetry_group_IT_number 12
_symmetry_cell_setting 'monoclinic'
loop_
_space_group_symop_operation_xyz
x,y,z
-x,y,-z
-x,-y,-z
x,-y,z
1/2+x,1/2+y,z
1/2-x,1/2+y,-z
1/2-x,1/2-y,-z
1/2+x,1/2-y,z
loop_
_atom_site_type_symbol
_atom_site_label
_atom_site_fract_x
_atom_site_fract_y
_atom_site_fract_z
Si Si1 0.099441 0.805462 0.122288
Si Si2 0.328880 0.308950 0.065333
Si Si3 0.800921 0.811808 0.779026
Si Si4 0.435765 0.309270 0.164540
Si Si5 0.794105 0.316985 0.606630
Si Si6 0.639844 0.814519 0.649836
Si Si7 0.933864 0.813223 0.471097
O O1 0.128842 0.761764 0.197616
O O2 0.018075 0.752379 0.137652
O O3 0.099971 0.000000 0.118465
O O4 0.152618 0.752532 0.030696
O O5 0.312992 0.500000 0.070766
O O6 0.265064 0.218645 0.134997
O O7 0.399855 0.285918 0.092572
O O8 0.790609 0.714139 0.702609
O O9 0.805047 0.000000 0.757802
O O10 0.434769 0.500000 0.180514
O O11 0.388534 0.228928 0.251621
O O12 0.812087 0.500000 0.581962
O O13 0.714506 0.278130 0.604733
O O14 0.858576 0.210766 0.546978
O O15 0.579457 0.770558 0.608245
O O16 0.657050 0.000000 0.639075
O O17 0.000000 0.752256 0.500000
O O18 0.947281 0.000000 0.450684
#
# Coordination Sequence:
#
# PCOD9188763 Si02
#       7
#     8   8   8   8   8   8   8
#     4   9  20  36  58  88 123 167 214 260 316 375
#     4  10  19  36  61  88 120 164 216 265 312 373
#     4  11  22  37  59  89 127 167 210 261 316 375
#     4  10  20  37  62  90 123 166 215 261 311 372
#     4  12  25  44  68  94 127 168 215 260 310 372
#     4  12  25  43  67  96 131 167 210 259 312 372
#     4  11  26  47  72 100 131 165 202 249 310 375
#
# _framework density 21.555344000000002
#
# number of rings (size 3 to 8) (size 9 to 14) (size 15 to 20)
#    0.000    1.286    1.429    4.714    2.000    2.857 
#    0.000    2.143    0.000    1.714    0.000    0.000 
#    0.000    0.000    0.000    0.000    0.000    0.000 
#
# Total GULP energy -156638.346070 kJ/mol
# GULP energy per Si atom -5594.226645 kJ/mol
# Density = 2.150628 g / cm^3
# Si number density = 21.555344 Si / 1000 Ang^3
#
#
#
# Elastic Constant Matrix: (Units=GPa)
#
#
# Indices 1 2 3 4 5 6 
#
# 1 67.1704 3.3144 -5.5402 0.0000 18.3271 0.0000
# 2 3.3144 28.1877 -3.8742 0.0000 12.7517 0.0000
# 3 -5.5402 -3.8742 58.2336 0.0000 11.7325 0.0000
# 4 0.0000 0.0000 0.0000 -7.8050 0.0000 24.4763
# 5 18.3271 12.7517 11.7325 0.0000 33.1784 0.0000
# 6 0.0000 0.0000 0.0000 24.4763 0.0000 1.3208
#
#
#
# Elastic Compliance Matrix: (Units=1/GPa)
#
#
# Indices 1 2 3 4 5 6 
#
# 1 0.018885 0.004804 0.004942 0.000000 -0.014025 0.000000
# 2 0.004804 0.046703 0.008307 0.000000 -0.023540 0.000000
# 3 0.004942 0.008307 0.020875 0.000000 -0.013304 0.000000
# 4 0.000000 0.000000 0.000000 -0.002167 0.000000 0.040165
# 5 -0.014025 -0.023540 -0.013304 0.000000 0.051639 0.000000
# 6 0.000000 0.000000 0.000000 0.040165 0.000000 0.012808
#
#
# Mechanical properties :
#
#
# Convention : Reuss Voigt Hill
#
# Bulk Modulus (GPa) = 8.15877 15.71019 11.93448
# Shear Modulus (GPa) = 32.57455 15.98495 24.27975
#
# Velocity S-wave (km/s) = 3.89164 2.72615 3.35982
# Velocity P-wave (km/s) = 4.89759 4.14889 4.53871
#
# Compressibility (1/GPa) = 0.12256747
#
# Stress axis : x y z
#
# Youngs Moduli (GPa) = 52.95258 21.41206 47.90306
#
# Poissons Ratio (x) = -0.10285 -0.23673
# Poissons Ratio (y) = -0.25436 -0.39792
# Poissons Ratio (z) = -0.26169 -0.17786
#
# Static dielectric constant tensor:
#      x y z
#    x 1.787010 0.000000 0.013300 
#    y 0.000000 1.745410 0.000000 
#    z 0.013300 0.000000 1.757860 
# 
# From -- ./inp_files/275316.got.cif
#   From: 2010.05.17/outbox.cif.g08.bks.cpg/sg12_138_cif.got.tgz:275316.got - 2010.06.03 13:09:07.
