data_PCOD9188486
_publ_section_title
;
Structure prediction by ZEFSAII (Michael W. Deem and Ramdas Pophale) SiO2 
 PCOD9188486
Probable space group: C 2/M
;
_chemical_formula_sum "Si O2"
_cell_formula_units_Z 60
_cell_length_a 16.743138
_cell_length_b 22.442043
_cell_length_c 7.253539
_cell_angle_alpha 90.000000
_cell_angle_beta 102.643636
_cell_angle_gamma 90.000000
_cell_volume 2659.425998
_symmetry_space_group_name_H-M "C 2/M"
_symmetry_group_IT_number 12
_symmetry_cell_setting 'monoclinic'
loop_
_space_group_symop_operation_xyz
x,y,z
-x,y,-z
-x,-y,-z
x,-y,z
1/2+x,1/2+y,z
1/2-x,1/2+y,-z
1/2-x,1/2-y,-z
1/2+x,1/2-y,z
loop_
_atom_site_type_symbol
_atom_site_label
_atom_site_fract_x
_atom_site_fract_y
_atom_site_fract_z
Si Si1 0.625037 0.304316 0.287275
Si Si2 0.434082 0.812306 0.614593
Si Si3 0.983574 0.111090 0.271530
Si Si4 0.722252 0.903731 0.087663
Si Si5 0.942308 0.435570 0.793584
Si Si6 0.840037 0.197855 0.256166
Si Si7 0.804517 0.326538 0.244597
Si Si8 0.628449 0.500000 0.871070
O O1 0.583780 0.239259 0.245222
O O2 0.566046 0.360932 0.231012
O O3 0.648226 0.301120 0.516871
O O4 0.708305 0.315709 0.223317
O O5 0.500000 0.787846 0.500000
O O6 0.466476 0.874954 0.704153
O O7 0.351581 0.829466 0.462077
O O8 0.917888 0.163566 0.219295
O O9 0.943039 0.052186 0.171691
O O10 0.000000 0.100737 0.500000
O O11 0.651278 0.927416 0.183674
O O12 0.760303 0.841599 0.178960
O O13 0.798268 0.948401 0.104674
O O14 0.683700 0.884691 0.872289
O O15 0.948918 0.500000 0.699370
O O16 0.000000 0.438278 0.000000
O O17 0.836444 0.264349 0.178062
#
# Coordination Sequence:
#
# PCOD9188486 Si02
#       8
#     8   8   8   8   8   8   8   4
#     4  10  19  36  59  91 126 155 201 257 310 362
#     4  11  22  40  64  94 124 157 199 258 321 371
#     4   9  18  34  59  87 115 158 207 252 295 365
#     4  11  21  39  59  85 122 165 213 250 302 364
#     4  11  24  42  62  86 118 160 208 258 310 373
#     4   9  18  34  60  85 118 158 204 252 305 364
#     4  11  21  35  59  92 123 161 202 254 313 363
#     4  10  21  38  58  80 118 170 208 248 295 354
#
# _framework density 22.561257999999999
#
# number of rings (size 3 to 8) (size 9 to 14) (size 15 to 20)
#    0.000    1.733    0.667    6.600    0.000    0.267 
#    1.200    5.333    0.000    0.000    0.000    0.000 
#    0.000    0.000    0.000    0.000    0.000    0.000 
#
# Total GULP energy -167156.168705 kJ/mol
# GULP energy per Si atom -5571.872290 kJ/mol
# Density = 2.250991 g / cm^3
# Si number density = 22.561258 Si / 1000 Ang^3
#
#
#
# Elastic Constant Matrix: (Units=GPa)
#
#
# Indices 1 2 3 4 5 6 
#
# 1 91.0253 17.2866 11.2540 0.0000 7.6088 0.0000
# 2 17.2866 124.7182 20.0604 0.0000 4.6210 0.0000
# 3 11.2540 20.0604 28.5911 0.0000 3.0729 0.0000
# 4 0.0000 0.0000 0.0000 6.5633 0.0000 1.0747
# 5 7.6088 4.6210 3.0729 0.0000 28.9882 0.0000
# 6 0.0000 0.0000 0.0000 1.0747 0.0000 34.1198
#
#
#
# Elastic Compliance Matrix: (Units=1/GPa)
#
#
# Indices 1 2 3 4 5 6 
#
# 1 0.011840 -0.000948 -0.003720 0.000000 -0.002562 0.000000
# 2 -0.000948 0.009131 -0.005972 0.000000 -0.000574 0.000000
# 3 -0.003720 -0.005972 0.040889 0.000000 -0.002406 0.000000
# 4 0.000000 0.000000 0.000000 0.153153 0.000000 -0.004824
# 5 -0.002562 -0.000574 -0.002406 0.000000 0.035516 0.000000
# 6 0.000000 0.000000 0.000000 -0.004824 0.000000 0.029460
#
#
# Mechanical properties :
#
#
# Convention : Reuss Voigt Hill
#
# Bulk Modulus (GPa) = 24.64236 37.94850 31.29543
# Shear Modulus (GPa) = 15.88329 26.98316 21.43323
#
# Velocity S-wave (km/s) = 2.65619 3.46207 3.08555
# Velocity P-wave (km/s) = 4.51146 5.73044 5.15709
#
# Compressibility (1/GPa) = 0.04058052
#
# Stress axis : x y z
#
# Youngs Moduli (GPa) = 84.45894 109.51368 24.45645
#
# Poissons Ratio (x) = 0.10380 0.09098
# Poissons Ratio (y) = 0.08005 0.14605
# Poissons Ratio (z) = 0.31419 0.65402
#
# Static dielectric constant tensor:
#      x y z
#    x 1.821160 0.000000 0.014020 
#    y 0.000000 1.815180 0.000000 
#    z 0.014020 0.000000 1.903060 
# 
# From -- ./inp_files/77553.got.cif
#   From: 2010.05.17/outbox.cif.g08.bks.cpg/sg12_39_cif.got.tgz:77553.got - 2010.06.03 13:09:07.
