data_PCOD9188311
_publ_section_title
;
Structure prediction by ZEFSAII (Michael W. Deem and Ramdas Pophale) SiO2 
 PCOD9188311
Probable space group: C 2/M
;
_chemical_formula_sum "Si O2"
_cell_formula_units_Z 52
_cell_length_a 20.703266
_cell_length_b 13.338261
_cell_length_c 8.307959
_cell_angle_alpha 90.000000
_cell_angle_beta 80.831887
_cell_angle_gamma 90.000000
_cell_volume 2264.897763
_symmetry_space_group_name_H-M "C 2/M"
_symmetry_group_IT_number 12
_symmetry_cell_setting 'monoclinic'
loop_
_space_group_symop_operation_xyz
x,y,z
-x,y,-z
-x,-y,-z
x,-y,z
1/2+x,1/2+y,z
1/2-x,1/2+y,-z
1/2-x,1/2-y,-z
1/2+x,1/2-y,z
loop_
_atom_site_type_symbol
_atom_site_label
_atom_site_fract_x
_atom_site_fract_y
_atom_site_fract_z
Si Si1 0.343547 0.000000 0.094772
Si Si2 0.174841 0.282397 0.899831
Si Si3 0.029826 0.681670 0.836620
Si Si4 0.633315 0.000000 0.283707
Si Si5 0.000899 0.889922 0.250426
Si Si6 0.616960 0.389194 0.465785
Si Si7 0.943656 0.500000 0.361912
Si Si8 0.305612 0.782023 0.736919
O O1 0.301966 0.898721 0.109742
O O2 0.387732 0.000000 0.239591
O O3 0.380451 0.000000 0.904714
O O4 0.103872 0.289435 0.850012
O O5 0.227126 0.221452 0.777012
O O6 0.173385 0.251152 0.087812
O O7 0.989868 0.784066 0.837797
O O8 0.023781 0.607235 0.689830
O O9 0.000000 0.624385 0.000000
O O10 0.671006 0.895392 0.298390
O O11 0.580129 0.000000 0.446449
O O12 0.928593 0.879667 0.358388
O O13 0.059241 0.891834 0.355746
O O14 0.002739 0.000000 0.171338
O O15 0.649211 0.500000 0.454674
O O16 0.663478 0.296922 0.400610
#
# Coordination Sequence:
#
# PCOD9188311 Si02
#       8
#     4   8   8   4   8   8   4   8
#     4   8  18  37  57  79 120 152 193 247 287 349
#     4   9  20  35  56  83 114 155 195 249 297 355
#     4  11  21  37  59  82 119 157 192 245 308 349
#     4  10  20  37  61  85 121 156 190 245 301 351
#     4   9  19  36  55  82 117 150 193 248 292 358
#     4   9  18  34  58  82 110 150 199 246 294 351
#     4  10  21  38  60  88 116 155 199 243 290 359
#     4  10  19  36  58  85 113 152 202 244 298 358
#
# _framework density 22.959092999999999
#
# number of rings (size 3 to 8) (size 9 to 14) (size 15 to 20)
#    0.000    2.462    0.000    3.000    1.077    0.308 
#    2.769    9.231    0.000   14.769    0.000    0.000 
#    0.000    0.000    0.000    0.000    0.000    0.000 
#
# Total GULP energy -144991.184180 kJ/mol
# GULP energy per Si atom -5576.584007 kJ/mol
# Density = 2.290684 g / cm^3
# Si number density = 22.959093 Si / 1000 Ang^3
#
#
#
# Elastic Constant Matrix: (Units=GPa)
#
#
# Indices 1 2 3 4 5 6 
#
# 1 68.7956 22.1999 20.8426 0.0000 -9.1907 0.0000
# 2 22.1999 129.8064 31.1009 0.0000 -10.0589 0.0000
# 3 20.8426 31.1009 79.4571 0.0000 -6.5530 0.0000
# 4 0.0000 0.0000 0.0000 72.8563 0.0000 -24.8297
# 5 -9.1907 -10.0589 -6.5530 0.0000 25.7839 0.0000
# 6 0.0000 0.0000 0.0000 -24.8297 0.0000 28.0676
#
#
#
# Elastic Compliance Matrix: (Units=1/GPa)
#
#
# Indices 1 2 3 4 5 6 
#
# 1 0.016693 -0.001710 -0.003344 0.000000 0.004433 0.000000
# 2 -0.001710 0.008840 -0.002837 0.000000 0.002118 0.000000
# 3 -0.003344 -0.002837 0.014691 0.000000 0.001435 0.000000
# 4 0.000000 0.000000 0.000000 0.019650 0.000000 0.017383
# 5 0.004433 0.002118 0.001435 0.000000 0.041555 0.000000
# 6 0.000000 0.000000 0.000000 0.017383 0.000000 0.051006
#
#
# Mechanical properties :
#
#
# Convention : Reuss Voigt Hill
#
# Bulk Modulus (GPa) = 40.91204 47.37176 44.14190
# Shear Modulus (GPa) = 28.35035 38.93593 33.64314
#
# Velocity S-wave (km/s) = 3.51781 4.12258 3.83214
# Velocity P-wave (km/s) = 5.86159 6.58322 6.23286
#
# Compressibility (1/GPa) = 0.02444268
#
# Stress axis : x y z
#
# Youngs Moduli (GPa) = 59.90545 113.12086 68.06759
#
# Poissons Ratio (x) = 0.19346 0.22760
# Poissons Ratio (y) = 0.10245 0.19310
# Poissons Ratio (z) = 0.20031 0.32091
#
# Static dielectric constant tensor:
#      x y z
#    x 1.866690 0.000000 0.009720 
#    y 0.000000 1.881780 0.000000 
#    z 0.009720 0.000000 1.882900 
# 
# From -- ./inp_files/164805.got.cif
#   From: 2010.05.17/outbox.cif.g08.bks.cpg/sg12_83_cif.got.tgz:164805.got - 2010.06.03 13:09:07.
