data_PCOD9188590
_publ_section_title
;
Structure prediction by ZEFSAII (Michael W. Deem and Ramdas Pophale) SiO2 
 PCOD9188590
Probable space group: C 2/M
;
_chemical_formula_sum "Si O2"
_cell_formula_units_Z 56
_cell_length_a 19.031475
_cell_length_b 13.990326
_cell_length_c 11.102387
_cell_angle_alpha 90.000000
_cell_angle_beta 63.462419
_cell_angle_gamma 90.000000
_cell_volume 2644.634665
_symmetry_space_group_name_H-M "C 2/M"
_symmetry_group_IT_number 12
_symmetry_cell_setting 'monoclinic'
loop_
_space_group_symop_operation_xyz
x,y,z
-x,y,-z
-x,-y,-z
x,-y,z
1/2+x,1/2+y,z
1/2-x,1/2+y,-z
1/2-x,1/2-y,-z
1/2+x,1/2-y,z
loop_
_atom_site_type_symbol
_atom_site_label
_atom_site_fract_x
_atom_site_fract_y
_atom_site_fract_z
Si Si1 0.681882 0.885857 0.584348
Si Si2 0.916508 0.889399 0.120243
Si Si3 0.050600 0.103297 0.621570
Si Si4 0.826909 0.772912 0.589008
Si Si5 0.908512 0.388717 0.102589
Si Si6 0.867252 0.109200 0.777746
Si Si7 0.323267 0.727236 0.030269
O O1 0.759516 0.835612 0.577274
O O2 0.673776 0.834790 0.460249
O O3 0.615900 0.864834 0.739495
O O4 0.688749 0.000000 0.568572
O O5 0.929018 0.887317 0.253492
O O6 0.908411 0.000000 0.089131
O O7 0.837736 0.831296 0.144243
O O8 0.000000 0.852904 0.000000
O O9 0.091096 0.188136 0.522731
O O10 0.958175 0.102792 0.673326
O O11 0.082861 0.000000 0.555337
O O12 0.824739 0.811355 0.727082
O O13 0.888490 0.500000 0.103852
O O14 0.861368 0.326634 0.041468
O O15 0.000000 0.376295 0.000000
O O16 0.869104 0.152638 0.909429
O O17 0.834668 0.000000 0.796967
O O18 0.250000 0.750000 0.000000
#
# Coordination Sequence:
#
# PCOD9188590 Si02
#       7
#     8   8   8   8   8   8   8
#     4  10  22  41  65  92 124 165 217 268 313 374
#     4  10  19  36  60  86 117 158 206 258 317 376
#     4  10  20  35  60  90 118 156 207 260 316 384
#     4  11  22  37  61  93 127 168 206 251 326 385
#     4  10  23  44  69  91 119 170 226 268 307 370
#     4  11  23  39  59  88 130 169 205 256 322 388
#     4  12  24  36  58  93 127 163 205 261 327 382
#
# _framework density 21.174947
#
# number of rings (size 3 to 8) (size 9 to 14) (size 15 to 20)
#    0.000    1.429    1.429    4.286    2.000    4.571 
#    0.000    0.714    0.000    4.286    0.000    0.000 
#    0.000    0.000    0.000    0.000    0.000    0.000 
#
# Total GULP energy -156053.988018 kJ/mol
# GULP energy per Si atom -5573.356715 kJ/mol
# Density = 2.112675 g / cm^3
# Si number density = 21.174947 Si / 1000 Ang^3
#
#
#
# Elastic Constant Matrix: (Units=GPa)
#
#
# Indices 1 2 3 4 5 6 
#
# 1 105.4809 46.1042 16.0506 0.0000 19.9965 0.0000
# 2 46.1042 132.8854 44.2240 0.0000 16.2603 0.0000
# 3 16.0506 44.2240 71.2502 0.0000 15.0923 0.0000
# 4 0.0000 0.0000 0.0000 24.3912 0.0000 8.7942
# 5 19.9965 16.2603 15.0923 0.0000 33.5979 0.0000
# 6 0.0000 0.0000 0.0000 8.7942 0.0000 24.5672
#
#
#
# Elastic Compliance Matrix: (Units=1/GPa)
#
#
# Indices 1 2 3 4 5 6 
#
# 1 0.012090 -0.003769 0.000833 0.000000 -0.005746 0.000000
# 2 -0.003769 0.010802 -0.005773 0.000000 -0.000392 0.000000
# 3 0.000833 -0.005773 0.018725 0.000000 -0.006113 0.000000
# 4 0.000000 0.000000 0.000000 0.047074 0.000000 -0.016851
# 5 -0.005746 -0.000392 -0.006113 0.000000 0.036119 0.000000
# 6 0.000000 0.000000 0.000000 -0.016851 0.000000 0.046737
#
#
# Mechanical properties :
#
#
# Convention : Reuss Voigt Hill
#
# Bulk Modulus (GPa) = 41.32197 58.04156 49.68177
# Shear Modulus (GPa) = 25.37669 30.06044 27.71857
#
# Velocity S-wave (km/s) = 3.46559 3.77188 3.62197
# Velocity P-wave (km/s) = 5.96412 6.81465 6.40352
#
# Compressibility (1/GPa) = 0.02420020
#
# Stress axis : x y z
#
# Youngs Moduli (GPa) = 82.71172 92.57664 53.40344
#
# Poissons Ratio (x) = 0.34889 -0.04447
# Poissons Ratio (y) = 0.31171 0.30828
# Poissons Ratio (z) = -0.06887 0.53441
#
# Static dielectric constant tensor:
#      x y z
#    x 1.772600 0.000000 -0.008740 
#    y 0.000000 1.793340 0.000000 
#    z -0.008740 0.000000 1.884690 
# 
# From -- ./inp_files/156515.got.cif
#   From: 2010.05.17/outbox.cif.g08.bks.cpg/sg12_79_cif.got.tgz:156515.got - 2010.06.03 13:09:07.
