data_PCOD9188636
_publ_section_title
;
Structure prediction by ZEFSAII (Michael W. Deem and Ramdas Pophale) SiO2 
 PCOD9188636
Probable space group: C 2/M
;
_chemical_formula_sum "Si O2"
_cell_formula_units_Z 50
_cell_length_a 13.766950
_cell_length_b 12.687687
_cell_length_c 21.518153
_cell_angle_alpha 90.000000
_cell_angle_beta 140.062451
_cell_angle_gamma 90.000000
_cell_volume 2412.836608
_symmetry_space_group_name_H-M "C 2/M"
_symmetry_group_IT_number 12
_symmetry_cell_setting 'monoclinic'
loop_
_space_group_symop_operation_xyz
x,y,z
-x,y,-z
-x,-y,-z
x,-y,z
1/2+x,1/2+y,z
1/2-x,1/2+y,-z
1/2-x,1/2-y,-z
1/2+x,1/2-y,z
loop_
_atom_site_type_symbol
_atom_site_label
_atom_site_fract_x
_atom_site_fract_y
_atom_site_fract_z
Si Si1 0.025132 0.123970 0.180777
Si Si2 0.844166 0.881199 0.357019
Si Si3 0.500000 0.000000 0.500000
Si Si4 0.446603 0.812424 0.562448
Si Si5 0.354176 0.756215 0.645684
Si Si6 0.686991 0.877168 0.041465
Si Si7 0.366810 0.198730 0.850930
O O1 0.844361 0.137112 0.082976
O O2 0.063293 0.179682 0.265273
O O3 0.116409 0.187240 0.172909
O O4 0.059853 0.000000 0.199890
O O5 0.730359 0.843925 0.354970
O O6 0.751594 0.866670 0.247702
O O7 0.978453 0.797473 0.420355
O O8 0.895635 0.000000 0.389427
O O9 0.525503 0.907319 0.565603
O O10 0.450450 0.811041 0.638848
O O11 0.273312 0.811905 0.453268
O O12 0.680218 0.806501 0.100329
O O13 0.681873 0.000000 0.059027
O O14 0.534387 0.852159 0.929458
#
# Coordination Sequence:
#
# PCOD9188636 Si02
#       7
#     8   8   2   8   8   8   8
#     4  10  22  38  61  87 121 158 199 242 300 361
#     4  11  22  40  60  89 118 153 199 253 295 346
#     4  12  24  44  62  84 122 158 196 238 308 352
#     4  11  24  41  60  87 116 159 194 246 290 360
#     4  10  23  40  58  87 115 152 200 237 299 345
#     4  10  19  36  60  89 116 159 200 250 299 350
#     4  10  20  35  60  88 120 152 200 247 298 351
#
# _framework density 20.722496
#
# number of rings (size 3 to 8) (size 9 to 14) (size 15 to 20)
#    0.000    1.600    1.600    3.360    2.240    3.200 
#    2.880    1.600    0.000    2.880    0.000    0.000 
#    0.000    0.000    0.000    0.000    0.000    0.000 
#
# Total GULP energy -139411.315837 kJ/mol
# GULP energy per Si atom -5576.452633 kJ/mol
# Density = 2.067533 g / cm^3
# Si number density = 20.722496 Si / 1000 Ang^3
#
#
#
# Elastic Constant Matrix: (Units=GPa)
#
#
# Indices 1 2 3 4 5 6 
#
# 1 52.6949 17.4072 -14.5467 0.0000 -3.9517 0.0000
# 2 17.4072 119.0561 8.6027 0.0000 7.6018 0.0000
# 3 -14.5467 8.6027 76.1796 0.0000 -0.7386 0.0000
# 4 0.0000 0.0000 0.0000 22.0604 0.0000 -7.8822
# 5 -3.9517 7.6018 -0.7386 0.0000 24.0437 0.0000
# 6 0.0000 0.0000 0.0000 -7.8822 0.0000 -2.5979
#
#
#
# Elastic Compliance Matrix: (Units=1/GPa)
#
#
# Indices 1 2 3 4 5 6 
#
# 1 0.021913 -0.003858 0.004668 0.000000 0.004965 0.000000
# 2 -0.003858 0.009328 -0.001825 0.000000 -0.003639 0.000000
# 3 0.004668 -0.001825 0.014242 0.000000 0.001782 0.000000
# 4 0.000000 0.000000 0.000000 0.021751 0.000000 -0.065993
# 5 0.004965 -0.003639 0.001782 0.000000 0.043612 0.000000
# 6 0.000000 0.000000 0.000000 -0.065993 0.000000 -0.184697
#
#
# Mechanical properties :
#
#
# Convention : Reuss Voigt Hill
#
# Bulk Modulus (GPa) = 23.01428 30.09521 26.55475
# Shear Modulus (GPa) = -87.20424 24.46570 -31.36927
#
# Velocity S-wave (km/s) = -6.49410 3.43976 -3.89495
# Velocity P-wave (km/s) = 6.71573 5.50731 2.71758
#
# Compressibility (1/GPa) = 0.04345128
#
# Stress axis : x y z
#
# Youngs Moduli (GPa) = 45.63575 107.20674 70.21643
#
# Poissons Ratio (x) = 0.41362 -0.32778
# Poissons Ratio (y) = 0.17607 0.12817
# Poissons Ratio (z) = -0.21303 0.19569
#
# Static dielectric constant tensor:
#      x y z
#    x 1.782850 0.000000 0.013610 
#    y 0.000000 1.709640 0.000000 
#    z 0.013610 0.000000 1.782030 
# 
# From -- ./inp_files/339647.got.cif
#   From: 2010.05.17/outbox.cif.g08.bks.cpg/sg12_170_cif.got.tgz:339647.got - 2010.06.03 13:09:07.
