data_PCOD9188315
_publ_section_title
;
Structure prediction by ZEFSAII (Michael W. Deem and Ramdas Pophale) SiO2 
 PCOD9188315
Probable space group: C 2/M
;
_chemical_formula_sum "Si O2"
_cell_formula_units_Z 64
_cell_length_a 16.517409
_cell_length_b 14.835909
_cell_length_c 18.940764
_cell_angle_alpha 90.000000
_cell_angle_beta 139.778742
_cell_angle_gamma 90.000000
_cell_volume 2997.174007
_symmetry_space_group_name_H-M "C 2/M"
_symmetry_group_IT_number 12
_symmetry_cell_setting 'monoclinic'
loop_
_space_group_symop_operation_xyz
x,y,z
-x,y,-z
-x,-y,-z
x,-y,z
1/2+x,1/2+y,z
1/2-x,1/2+y,-z
1/2-x,1/2-y,-z
1/2+x,1/2-y,z
loop_
_atom_site_type_symbol
_atom_site_label
_atom_site_fract_x
_atom_site_fract_y
_atom_site_fract_z
Si Si1 0.459934 0.650066 0.546130
Si Si2 0.377379 0.227139 0.876433
Si Si3 0.058194 0.398614 0.361115
Si Si4 0.860190 0.326358 0.330197
Si Si5 0.469285 0.397257 0.713366
Si Si6 0.003913 0.606882 0.841429
Si Si7 0.222191 0.701352 0.576997
Si Si8 0.751761 0.606772 0.912715
O O1 0.500000 0.602605 0.500000
O O2 0.557286 0.734165 0.616874
O O3 0.466697 0.602914 0.625912
O O4 0.323170 0.695826 0.444303
O O5 0.278681 0.302608 0.788550
O O6 0.423564 0.169218 0.840108
O O7 0.305456 0.160358 0.881920
O O8 0.500000 0.260629 0.000000
O O9 0.108861 0.500000 0.396246
O O10 0.935254 0.391428 0.328677
O O11 0.022243 0.375296 0.257609
O O12 0.159021 0.333006 0.463088
O O13 0.844754 0.350451 0.402098
O O14 0.443679 0.500000 0.720027
O O15 0.364978 0.328155 0.670468
O O16 0.607772 0.368472 0.829999
O O17 0.977983 0.500000 0.837766
O O18 0.149913 0.621900 0.958754
O O19 0.751614 0.500000 0.896569
#
# Coordination Sequence:
#
# PCOD9188315 Si02
#       8
#     8   8   8   8   8   8   8   8
#     4   9  19  36  56  77 109 149 186 228 280 333
#     4  10  19  36  58  86 115 148 190 229 271 338
#     4  10  21  39  62  85 109 141 192 243 280 328
#     4  10  21  38  57  81 111 146 187 232 285 328
#     4  11  21  34  55  83 117 148 183 228 278 344
#     4   9  19  36  61  88 112 146 188 234 279 324
#     4  10  22  38  57  80 111 152 193 232 277 331
#     4   9  18  35  58  85 119 153 182 223 281 338
#
# _framework density 21.353449000000001
#
# number of rings (size 3 to 8) (size 9 to 14) (size 15 to 20)
#    0.000    2.250    1.250    2.250    0.000    7.250 
#    2.250    1.250    0.000    0.375    0.000    0.000 
#    0.000    0.000    0.000    0.000    0.000    0.000 
#
# Total GULP energy -178789.319605 kJ/mol
# GULP energy per Si atom -5587.166238 kJ/mol
# Density = 2.130485 g / cm^3
# Si number density = 21.353449 Si / 1000 Ang^3
#
#
#
# Elastic Constant Matrix: (Units=GPa)
#
#
# Indices 1 2 3 4 5 6 
#
# 1 79.5592 12.7256 30.6759 0.0000 3.7746 0.0000
# 2 12.7256 43.3239 20.5020 0.0000 8.2525 0.0000
# 3 30.6759 20.5020 98.8915 0.0000 15.5820 0.0000
# 4 0.0000 0.0000 0.0000 13.6047 0.0000 -9.4526
# 5 3.7746 8.2525 15.5820 0.0000 45.1334 0.0000
# 6 0.0000 0.0000 0.0000 -9.4526 0.0000 10.9363
#
#
#
# Elastic Compliance Matrix: (Units=1/GPa)
#
#
# Indices 1 2 3 4 5 6 
#
# 1 0.014509 -0.002447 -0.004095 0.000000 0.000648 0.000000
# 2 -0.002447 0.026399 -0.004215 0.000000 -0.003167 0.000000
# 3 -0.004095 -0.004215 0.012776 0.000000 -0.003298 0.000000
# 4 0.000000 0.000000 0.000000 0.184007 0.000000 0.159042
# 5 0.000648 -0.003167 -0.003298 0.000000 0.023820 0.000000
# 6 0.000000 0.000000 0.000000 0.159042 0.000000 0.228903
#
#
# Mechanical properties :
#
#
# Convention : Reuss Voigt Hill
#
# Bulk Modulus (GPa) = 31.08604 38.84242 34.96423
# Shear Modulus (GPa) = 9.56661 24.45962 17.01311
#
# Velocity S-wave (km/s) = 2.11893 3.38814 2.82572
# Velocity P-wave (km/s) = 4.53607 5.79100 5.20152
#
# Compressibility (1/GPa) = 0.03216878
#
# Stress axis : x y z
#
# Youngs Moduli (GPa) = 68.92264 37.88086 78.27248
#
# Poissons Ratio (x) = 0.09270 0.32056
# Poissons Ratio (y) = 0.16866 0.32990
# Poissons Ratio (z) = 0.28227 0.15966
#
# Static dielectric constant tensor:
#      x y z
#    x 1.789320 0.000000 0.013430 
#    y 0.000000 1.756550 0.000000 
#    z 0.013430 0.000000 1.799000 
# 
# From -- ./inp_files/271736.got.cif
#   From: 2010.05.17/outbox.cif.g08.bks.cpg/sg12_136_cif.got.tgz:271736.got - 2010.06.03 13:09:07.
