data_PCOD9188597
_publ_section_title
;
Structure prediction by ZEFSAII (Michael W. Deem and Ramdas Pophale) SiO2 
 PCOD9188597
Probable space group: C 2/M
;
_chemical_formula_sum "Si O2"
_cell_formula_units_Z 64
_cell_length_a 15.729593
_cell_length_b 8.180286
_cell_length_c 29.328573
_cell_angle_alpha 90.000000
_cell_angle_beta 57.099062
_cell_angle_gamma 90.000000
_cell_volume 3168.509483
_symmetry_space_group_name_H-M "C 2/M"
_symmetry_group_IT_number 12
_symmetry_cell_setting 'monoclinic'
loop_
_space_group_symop_operation_xyz
x,y,z
-x,y,-z
-x,-y,-z
x,-y,z
1/2+x,1/2+y,z
1/2-x,1/2+y,-z
1/2-x,1/2-y,-z
1/2+x,1/2-y,z
loop_
_atom_site_type_symbol
_atom_site_label
_atom_site_fract_x
_atom_site_fract_y
_atom_site_fract_z
Si Si1 0.651424 0.309513 0.757133
Si Si2 0.036071 0.698531 0.132672
Si Si3 0.270039 0.809770 0.874052
Si Si4 0.457680 0.300744 0.637447
Si Si5 0.338511 0.690258 0.759269
Si Si6 0.045223 0.692705 0.940104
Si Si7 0.240114 0.195472 0.360456
Si Si8 0.312032 0.695899 0.437827
O O1 0.670874 0.500000 0.760278
O O2 0.540796 0.264520 0.806887
O O3 0.732366 0.206583 0.762973
O O4 0.675476 0.271512 0.697599
O O5 0.030648 0.500000 0.135667
O O6 0.150304 0.746061 0.111235
O O7 0.000095 0.759703 0.093800
O O8 0.325860 0.787559 0.809374
O O9 0.165537 0.713823 0.904035
O O10 0.246038 0.000000 0.887800
O O11 0.457227 0.500000 0.637508
O O12 0.421455 0.250459 0.698621
O O13 0.369549 0.250158 0.627662
O O14 0.571072 0.245128 0.594011
O O15 0.357229 0.500000 0.764523
O O16 0.020592 0.500000 0.946872
O O17 0.000000 0.763573 0.000000
O O18 0.260433 0.242752 0.406385
O O19 0.244728 0.000000 0.354537
O O20 0.314376 0.500000 0.435635
O O21 0.250000 0.750000 0.500000
#
# Coordination Sequence:
#
# PCOD9188597 Si02
#       8
#     8   8   8   8   8   8   8   8
#     4  11  21  35  59  91 123 157 198 245 298 365
#     4  10  22  39  58  86 124 160 197 248 303 358
#     4  11  23  37  57  90 122 156 198 250 304 353
#     4   8  19  38  60  83 115 157 199 238 295 360
#     4  10  19  36  60  86 119 159 196 244 302 361
#     4  10  22  42  65  85 115 165 212 250 299 361
#     4  10  21  40  62  87 117 158 199 247 303 356
#     4  11  23  41  61  88 120 159 205 252 297 360
#
# _framework density 20.198772000000002
#
# number of rings (size 3 to 8) (size 9 to 14) (size 15 to 20)
#    0.000    1.875    1.250    3.375    1.750    2.250 
#    0.000    9.375    0.000    0.000    0.000    0.000 
#    0.000    0.000    0.000    0.000    0.000    0.000 
#
# Total GULP energy -178761.452425 kJ/mol
# GULP energy per Si atom -5586.295388 kJ/mol
# Density = 2.015280 g / cm^3
# Si number density = 20.198772 Si / 1000 Ang^3
#
#
#
# Elastic Constant Matrix: (Units=GPa)
#
#
# Indices 1 2 3 4 5 6 
#
# 1 102.9934 -2.4175 64.6496 0.0000 19.0405 0.0000
# 2 -2.4175 23.9183 -2.2515 0.0000 14.9239 0.0000
# 3 64.6496 -2.2515 116.4765 0.0000 30.4250 0.0000
# 4 0.0000 0.0000 0.0000 11.3687 0.0000 3.7608
# 5 19.0405 14.9239 30.4250 0.0000 -42.1532 0.0001
# 6 0.0000 0.0000 0.0000 3.7608 0.0001 17.4441
#
#
#
# Elastic Compliance Matrix: (Units=1/GPa)
#
#
# Indices 1 2 3 4 5 6 
#
# 1 0.014882 0.000260 -0.008443 0.000000 0.000720 0.000000
# 2 0.000260 0.034875 -0.002294 0.000000 0.010809 0.000000
# 3 -0.008443 -0.002294 0.012146 0.000000 0.004141 0.000000
# 4 0.000000 0.000000 0.000000 0.094716 0.000000 -0.020420
# 5 0.000720 0.010809 0.004141 0.000000 -0.016582 0.000000
# 6 0.000000 0.000000 0.000000 -0.020420 0.000000 0.061728
#
#
# Mechanical properties :
#
#
# Convention : Reuss Voigt Hill
#
# Bulk Modulus (GPa) = 24.42051 40.37215 32.39633
# Shear Modulus (GPa) = 21.15333 9.55908 15.35621
#
# Velocity S-wave (km/s) = 3.23965 2.17779 2.76026
# Velocity P-wave (km/s) = 5.10980 5.13367 5.12175
#
# Compressibility (1/GPa) = 0.04094918
#
# Stress axis : x y z
#
# Youngs Moduli (GPa) = 67.19377 28.67387 82.33188
#
# Poissons Ratio (x) = -0.00746 0.69516
# Poissons Ratio (y) = -0.01748 0.18884
# Poissons Ratio (z) = 0.56735 0.06577
#
# Static dielectric constant tensor:
#      x y z
#    x 1.725700 0.000000 0.009190 
#    y 0.000000 1.713210 0.000000 
#    z 0.009190 0.000000 1.698310 
# 
# From -- ./inp_files/375060.got.cif
#   From: 2010.05.17/outbox.cif.g08.bks.cpg/sg12_188_cif.got.tgz:375060.got - 2010.06.03 13:09:07.
