data_PCOD9188187
_publ_section_title
;
Structure prediction by ZEFSAII (Michael W. Deem and Ramdas Pophale) SiO2 
 PCOD9188187
Probable space group: C 2/M
;
_chemical_formula_sum "Si O2"
_cell_formula_units_Z 56
_cell_length_a 11.207033
_cell_length_b 27.170457
_cell_length_c 14.821771
_cell_angle_alpha 90.000000
_cell_angle_beta 37.777545
_cell_angle_gamma 90.000000
_cell_volume 2764.794109
_symmetry_space_group_name_H-M "C 2/M"
_symmetry_group_IT_number 12
_symmetry_cell_setting 'monoclinic'
loop_
_space_group_symop_operation_xyz
x,y,z
-x,y,-z
-x,-y,-z
x,-y,z
1/2+x,1/2+y,z
1/2-x,1/2+y,-z
1/2-x,1/2-y,-z
1/2+x,1/2-y,z
loop_
_atom_site_type_symbol
_atom_site_label
_atom_site_fract_x
_atom_site_fract_y
_atom_site_fract_z
Si Si1 0.402104 0.259917 0.330597
Si Si2 0.719265 0.555442 0.825828
Si Si3 0.566744 0.358558 0.608068
Si Si4 0.009949 0.058899 0.773295
Si Si5 0.703896 0.121558 0.066087
Si Si6 0.189990 0.225556 0.940321
Si Si7 0.699803 0.169112 0.708700
O O1 0.250000 0.250000 0.500000
O O2 0.411795 0.318945 0.323137
O O3 0.611057 0.236805 0.232253
O O4 0.330432 0.227544 0.289097
O O5 0.794157 0.500000 0.788438
O O6 0.681027 0.567453 0.744735
O O7 0.839631 0.591474 0.816495
O O8 0.500000 0.555882 0.000000
O O9 0.561857 0.412949 0.650982
O O10 0.723173 0.350368 0.434950
O O11 0.362295 0.344282 0.683668
O O12 0.981078 0.000000 0.783651
O O13 0.820163 0.086298 0.928546
O O14 0.830879 0.168131 0.022949
O O15 0.505718 0.144281 0.146029
O O16 0.250000 0.250000 0.000000
O O17 0.000000 0.242812 0.000000
#
# Coordination Sequence:
#
# PCOD9188187 Si02
#       7
#     8   8   8   8   8   8   8
#     4   9  20  38  60  82 112 158 202 237 293 365
#     4   8  15  31  55  79 105 139 183 234 285 338
#     4  10  20  40  59  80 121 153 195 247 295 343
#     4  10  20  36  60  87 113 151 196 242 296 350
#     4  10  19  36  57  82 114 148 195 236 298 354
#     4  11  23  35  54  87 123 152 192 246 308 358
#     4   9  21  38  58  84 114 159 194 238 294 365
#
# _framework density 20.254671999999999
#
# number of rings (size 3 to 8) (size 9 to 14) (size 15 to 20)
#    0.000    2.429    0.000    3.429    4.000    0.571 
#    2.571    5.714    0.000    1.714    0.000    0.000 
#    0.000    0.000    0.000    0.000    0.000    0.000 
#
# Total GULP energy -156120.813132 kJ/mol
# GULP energy per Si atom -5575.743326 kJ/mol
# Density = 2.020857 g / cm^3
# Si number density = 20.254672 Si / 1000 Ang^3
#
#
#
# Elastic Constant Matrix: (Units=GPa)
#
#
# Indices 1 2 3 4 5 6 
#
# 1 70.4300 24.0627 25.5551 0.0000 4.0293 0.0000
# 2 24.0627 110.2160 21.2744 0.0000 17.4978 0.0000
# 3 25.5551 21.2744 64.5855 0.0000 -1.3992 0.0000
# 4 0.0000 0.0000 0.0000 28.3797 0.0000 8.6767
# 5 4.0293 17.4978 -1.3992 0.0000 25.3517 0.0000
# 6 0.0000 0.0000 0.0000 8.6767 0.0000 25.9188
#
#
#
# Elastic Compliance Matrix: (Units=1/GPa)
#
#
# Indices 1 2 3 4 5 6 
#
# 1 0.017304 -0.002371 -0.006097 0.000000 -0.001450 0.000000
# 2 -0.002371 0.011378 -0.002975 0.000000 -0.007641 0.000000
# 3 -0.006097 -0.002975 0.018964 0.000000 0.004069 0.000000
# 4 0.000000 0.000000 0.000000 0.039254 0.000000 -0.013141
# 5 -0.001450 -0.007641 0.004069 0.000000 0.045174 0.000000
# 6 0.000000 0.000000 0.000000 -0.013141 0.000000 0.042981
#
#
# Mechanical properties :
#
#
# Convention : Reuss Voigt Hill
#
# Bulk Modulus (GPa) = 40.38885 43.00178 41.69531
# Shear Modulus (GPa) = 24.24890 27.55263 25.90077
#
# Velocity S-wave (km/s) = 3.46381 3.69224 3.57985
# Velocity P-wave (km/s) = 5.99843 6.28120 6.14144
#
# Compressibility (1/GPa) = 0.02475931
#
# Stress axis : x y z
#
# Youngs Moduli (GPa) = 57.79083 87.88894 52.73095
#
# Poissons Ratio (x) = 0.20835 0.32152
# Poissons Ratio (y) = 0.13700 0.15690
# Poissons Ratio (z) = 0.35237 0.26151
#
# Static dielectric constant tensor:
#      x y z
#    x 0.079850 0.000000 0.284140 
#    y 0.000000 1.740160 0.000000 
#    z 0.284140 0.000000 1.733800 
# 
# From -- ./inp_files/209084.got.cif
#   From: 2010.05.17/outbox.cif.g08.bks.cpg/sg12_105_cif.got.tgz:209084.got - 2010.06.03 13:09:07.
