data_PCOD9188144
_publ_section_title
;
Structure prediction by ZEFSAII (Michael W. Deem and Ramdas Pophale) SiO2 
 PCOD9188144
Probable space group: C 2/M
;
_chemical_formula_sum "Si O2"
_cell_formula_units_Z 56
_cell_length_a 15.797385
_cell_length_b 18.429461
_cell_length_c 12.145982
_cell_angle_alpha 90.000000
_cell_angle_beta 49.657262
_cell_angle_gamma 90.000000
_cell_volume 2695.201538
_symmetry_space_group_name_H-M "C 2/M"
_symmetry_group_IT_number 12
_symmetry_cell_setting 'monoclinic'
loop_
_space_group_symop_operation_xyz
x,y,z
-x,y,-z
-x,-y,-z
x,-y,z
1/2+x,1/2+y,z
1/2-x,1/2+y,-z
1/2-x,1/2-y,-z
1/2+x,1/2-y,z
loop_
_atom_site_type_symbol
_atom_site_label
_atom_site_fract_x
_atom_site_fract_y
_atom_site_fract_z
Si Si1 0.154326 0.914916 0.934105
Si Si2 0.642721 0.850267 0.121609
Si Si3 0.820082 0.730787 0.548311
Si Si4 0.442864 0.915381 0.427152
Si Si5 0.504231 0.352080 0.615623
Si Si6 0.077062 0.086962 0.772117
Si Si7 0.228971 0.207625 0.175891
O O1 0.262542 0.904444 0.914668
O O2 0.155739 0.888428 0.806444
O O3 0.133549 0.000000 0.942815
O O4 0.044124 0.885235 0.084815
O O5 0.528049 0.883817 0.262698
O O6 0.681566 0.778276 0.153691
O O7 0.665081 0.826893 0.975911
O O8 0.750000 0.750000 0.500000
O O9 0.848079 0.645444 0.518639
O O10 0.762081 0.766080 0.705413
O O11 0.939158 0.772765 0.445729
O O12 0.500000 0.915872 0.500000
O O13 0.411392 0.000000 0.430748
O O14 0.500000 0.388955 0.500000
O O15 0.580684 0.386865 0.644492
O O16 0.374422 0.346829 0.752169
O O17 0.081487 0.000000 0.763435
#
# Coordination Sequence:
#
# PCOD9188144 Si02
#       7
#     8   8   8   8   8   8   8
#     4   9  18  31  51  80 118 152 188 245 311 364
#     4  11  19  35  61  88 121 156 204 263 314 380
#     4  11  23  42  61  86 124 166 214 265 323 384
#     4  11  22  40  67  97 131 168 215 273 330 389
#     4  10  19  36  57  77 115 158 201 256 308 375
#     4   9  18  32  49  80 118 154 196 246 304 367
#     4  10  21  36  58  88 119 155 206 252 311 379
#
# _framework density 20.777667999999998
#
# number of rings (size 3 to 8) (size 9 to 14) (size 15 to 20)
#    0.000    1.857    4.286    1.714    2.000    0.286 
#    0.000    1.429    0.000    3.429    0.000    0.000 
#    0.000    0.000    0.000    0.000    0.000    0.000 
#
# Total GULP energy -155902.406328 kJ/mol
# GULP energy per Si atom -5567.943083 kJ/mol
# Density = 2.073038 g / cm^3
# Si number density = 20.777668 Si / 1000 Ang^3
#
#
#
# Elastic Constant Matrix: (Units=GPa)
#
#
# Indices 1 2 3 4 5 6 
#
# 1 68.0161 28.3390 38.4392 0.0000 25.3587 0.0000
# 2 28.3390 76.3518 42.5321 0.0000 14.2139 0.0000
# 3 38.4392 42.5321 132.2337 0.0000 16.3910 0.0000
# 4 0.0000 0.0000 0.0000 20.5367 0.0000 8.1673
# 5 25.3587 14.2139 16.3910 0.0000 39.4838 0.0000
# 6 0.0000 0.0000 0.0000 8.1673 0.0000 15.2600
#
#
#
# Elastic Compliance Matrix: (Units=1/GPa)
#
#
# Indices 1 2 3 4 5 6 
#
# 1 0.022990 -0.004200 -0.003889 0.000000 -0.011639 0.000000
# 2 -0.004200 0.017286 -0.004114 0.000000 -0.001818 0.000000
# 3 -0.003889 -0.004114 0.010040 0.000000 -0.000189 0.000000
# 4 0.000000 0.000000 0.000000 0.061860 0.000000 -0.033108
# 5 -0.011639 -0.001818 -0.000189 0.000000 0.033535 0.000000
# 6 0.000000 0.000000 0.000000 -0.033108 0.000000 0.083250
#
#
# Mechanical properties :
#
#
# Convention : Reuss Voigt Hill
#
# Bulk Modulus (GPa) = 38.59575 55.02467 46.81021
# Shear Modulus (GPa) = 19.08376 26.20885 22.64631
#
# Velocity S-wave (km/s) = 3.03392 3.55547 3.30500
# Velocity P-wave (km/s) = 5.55777 6.58750 6.09443
#
# Compressibility (1/GPa) = 0.02590959
#
# Stress axis : x y z
#
# Youngs Moduli (GPa) = 43.49789 57.85018 99.60579
#
# Poissons Ratio (x) = 0.24294 0.38741
# Poissons Ratio (y) = 0.18267 0.40976
# Poissons Ratio (z) = 0.16918 0.23799
#
# Static dielectric constant tensor:
#      x y z
#    x 1.700030 0.000000 0.017960 
#    y 0.000000 1.858490 0.000000 
#    z 0.017960 0.000000 1.833790 
# 
# From -- ./inp_files/158234.got.cif
#   From: 2010.05.17/outbox.cif.g08.bks.cpg/sg12_80_cif.got.tgz:158234.got - 2010.06.03 13:09:07.
