data_PCOD9188333
_publ_section_title
;
Structure prediction by ZEFSAII (Michael W. Deem and Ramdas Pophale) SiO2 
 PCOD9188333
Probable space group: C 2/M
;
_chemical_formula_sum "Si O2"
_cell_formula_units_Z 40
_cell_length_a 7.988251
_cell_length_b 17.434428
_cell_length_c 12.557737
_cell_angle_alpha 90.000000
_cell_angle_beta 108.389653
_cell_angle_gamma 90.000000
_cell_volume 1659.611129
_symmetry_space_group_name_H-M "C 2/M"
_symmetry_group_IT_number 12
_symmetry_cell_setting 'monoclinic'
loop_
_space_group_symop_operation_xyz
x,y,z
-x,y,-z
-x,-y,-z
x,-y,z
1/2+x,1/2+y,z
1/2-x,1/2+y,-z
1/2-x,1/2-y,-z
1/2+x,1/2-y,z
loop_
_atom_site_type_symbol
_atom_site_label
_atom_site_fract_x
_atom_site_fract_y
_atom_site_fract_z
Si Si1 0.827526 0.415921 0.038121
Si Si2 0.886902 0.175806 0.156287
Si Si3 0.694524 0.159463 0.759752
Si Si4 0.649770 0.410056 0.651552
Si Si5 0.238028 0.838597 0.464934
O O1 0.741725 0.500000 0.007084
O O2 0.871679 0.403835 0.171036
O O3 0.707023 0.345561 0.972814
O O4 0.000000 0.413854 0.000000
O O5 0.868983 0.259478 0.204840
O O6 0.793696 0.118776 0.222045
O O7 0.092942 0.158406 0.188087
O O8 0.660378 0.151475 0.626353
O O9 0.616947 0.500000 0.642626
O O10 0.775717 0.386066 0.579911
O O11 0.463330 0.365319 0.599265
O O12 0.250000 0.750000 0.500000
#
# Coordination Sequence:
#
# PCOD9188333 Si02
#       5
#     8   8   8   8   8
#     4  11  25  44  64  90 130 170 212 271 335 388
#     4  11  22  40  65  95 128 168 218 267 321 396
#     4  11  23  38  65  94 126 169 216 267 320 389
#     4  10  21  37  62  94 129 168 216 273 327 382
#     4  10  19  36  58  91 127 165 211 265 320 384
#
# _framework density 24.102032000000001
#
# number of rings (size 3 to 8) (size 9 to 14) (size 15 to 20)
#    0.000    1.400    2.000    4.200    0.000    5.600 
#    0.000    0.000    0.000    0.000    0.000   16.800 
#    0.000    0.000    0.000    0.000    0.000    0.000 
#
# Total GULP energy -111813.602348 kJ/mol
# GULP energy per Si atom -5590.680117 kJ/mol
# Density = 2.404718 g / cm^3
# Si number density = 24.102032 Si / 1000 Ang^3
#
#
#
# Elastic Constant Matrix: (Units=GPa)
#
#
# Indices 1 2 3 4 5 6 
#
# 1 80.7459 6.7770 18.1554 0.0000 -20.0553 0.0000
# 2 6.7770 119.9066 25.7683 0.0000 -12.6690 0.0000
# 3 18.1554 25.7683 167.8878 0.0000 -47.8276 0.0000
# 4 0.0000 0.0000 0.0000 35.4353 0.0000 -6.1408
# 5 -20.0553 -12.6690 -47.8276 0.0000 33.1475 0.0000
# 6 0.0000 0.0000 0.0000 -6.1408 0.0000 19.8402
#
#
#
# Elastic Compliance Matrix: (Units=1/GPa)
#
#
# Indices 1 2 3 4 5 6 
#
# 1 0.014829 0.000009 0.001616 0.000000 0.011308 0.000000
# 2 0.000009 0.008734 -0.000660 0.000000 0.002391 0.000000
# 3 0.001616 -0.000660 0.010340 0.000000 0.015644 0.000000
# 4 0.000000 0.000000 0.000000 0.029820 0.000000 0.009230
# 5 0.011308 0.002391 0.015644 0.000000 0.060496 0.000000
# 6 0.000000 0.000000 0.000000 0.009230 0.000000 0.053259
#
#
# Mechanical properties :
#
#
# Convention : Reuss Voigt Hill
#
# Bulk Modulus (GPa) = 27.90755 52.21573 40.06164
# Shear Modulus (GPa) = 26.66784 38.87391 32.77088
#
# Velocity S-wave (km/s) = 3.32995 4.02044 3.69137
# Velocity P-wave (km/s) = 5.13701 6.57749 5.90136
#
# Compressibility (1/GPa) = 0.03583260
#
# Stress axis : x y z
#
# Youngs Moduli (GPa) = 67.43600 114.49721 96.71489
#
# Poissons Ratio (x) = -0.00106 -0.15632
# Poissons Ratio (y) = -0.00063 0.06387
# Poissons Ratio (z) = -0.10899 0.07562
#
# Static dielectric constant tensor:
#      x y z
#    x 1.915670 0.000000 0.004950 
#    y 0.000000 1.868960 0.000000 
#    z 0.004950 0.000000 2.036750 
# 
# From -- ./inp_files/119046.got.cif
#   From: 2010.05.17/outbox.cif.g08.bks.cpg/sg12_60_cif.got.tgz:119046.got - 2010.06.03 13:09:07.
