data_PCOD9188289
_publ_section_title
;
Structure prediction by ZEFSAII (Michael W. Deem and Ramdas Pophale) SiO2 
 PCOD9188289
Probable space group: C 2/M
;
_chemical_formula_sum "Si O2"
_cell_formula_units_Z 48
_cell_length_a 9.525623
_cell_length_b 16.339532
_cell_length_c 16.563968
_cell_angle_alpha 90.000000
_cell_angle_beta 78.632334
_cell_angle_gamma 90.000000
_cell_volume 2527.510473
_symmetry_space_group_name_H-M "C 2/M"
_symmetry_group_IT_number 12
_symmetry_cell_setting 'monoclinic'
loop_
_space_group_symop_operation_xyz
x,y,z
-x,y,-z
-x,-y,-z
x,-y,z
1/2+x,1/2+y,z
1/2-x,1/2+y,-z
1/2-x,1/2-y,-z
1/2+x,1/2-y,z
loop_
_atom_site_type_symbol
_atom_site_label
_atom_site_fract_x
_atom_site_fract_y
_atom_site_fract_z
Si Si1 0.169660 0.169230 0.977588
Si Si2 0.364456 0.906736 0.075670
Si Si3 0.838434 0.760831 0.183775
Si Si4 0.054185 0.222500 0.294426
Si Si5 0.872306 0.311663 0.450757
Si Si6 0.386196 0.594980 0.579716
O O1 0.201251 0.171969 0.879119
O O2 0.250000 0.250000 0.000000
O O3 0.229357 0.100559 0.030115
O O4 0.000000 0.177961 0.000000
O O5 0.356517 0.829853 0.139437
O O6 0.372068 0.000000 0.108539
O O7 0.500000 0.894796 0.000000
O O8 0.709815 0.759546 0.261714
O O9 0.981228 0.784298 0.215408
O O10 0.081334 0.140000 0.340571
O O11 0.952101 0.275353 0.363636
O O12 0.750000 0.250000 0.500000
O O13 0.773259 0.386603 0.433703
O O14 0.000000 0.327926 0.500000
O O15 0.500000 0.626467 0.500000
O O16 0.409707 0.500000 0.586700
#
# Coordination Sequence:
#
# PCOD9188289 Si02
#       6
#     8   8   8   8   8   8
#     4  10  19  36  58  83 112 152 205 247 285 359
#     4  10  21  39  60  83 119 164 204 249 303 357
#     4  11  21  34  59  89 118 153 201 252 299 360
#     4  12  21  36  60  90 120 158 195 251 304 359
#     4  12  20  39  66  90 116 160 214 246 283 368
#     4  11  24  42  63  89 123 160 202 254 305 356
#
# _framework density 18.991019000000001
#
# number of rings (size 3 to 8) (size 9 to 14) (size 15 to 20)
#    0.000    1.000    5.000    5.000    0.000    1.333 
#    0.000    0.833    0.000    1.000    0.000    0.000 
#    0.000    0.000    0.000    0.000    0.000    0.000 
#
# Total GULP energy -133801.058463 kJ/mol
# GULP energy per Si atom -5575.044103 kJ/mol
# Density = 1.894779 g / cm^3
# Si number density = 18.991019 Si / 1000 Ang^3
#
#
#
# Elastic Constant Matrix: (Units=GPa)
#
#
# Indices 1 2 3 4 5 6 
#
# 1 130.1166 19.9236 23.6435 0.0000 11.8844 0.0000
# 2 19.9236 42.0730 22.5341 0.0000 3.9279 0.0000
# 3 23.6435 22.5341 74.2127 0.0000 8.1610 0.0000
# 4 0.0000 0.0000 0.0000 19.8460 0.0000 7.3505
# 5 11.8844 3.9279 8.1610 0.0000 53.9577 0.0000
# 6 0.0000 0.0000 0.0000 7.3505 0.0000 22.6049
#
#
#
# Elastic Compliance Matrix: (Units=1/GPa)
#
#
# Indices 1 2 3 4 5 6 
#
# 1 0.008582 -0.003046 -0.001653 0.000000 -0.001418 0.000000
# 2 -0.003046 0.029497 -0.007956 0.000000 -0.000273 0.000000
# 3 -0.001653 -0.007956 0.016590 0.000000 -0.001566 0.000000
# 4 0.000000 0.000000 0.000000 0.057287 0.000000 -0.018628
# 5 -0.001418 -0.000273 -0.001566 0.000000 0.019102 0.000000
# 6 0.000000 0.000000 0.000000 -0.018628 0.000000 0.050295
#
#
# Mechanical properties :
#
#
# Convention : Reuss Voigt Hill
#
# Bulk Modulus (GPa) = 34.06237 42.06717 38.06477
# Shear Modulus (GPa) = 23.09998 31.30180 27.20089
#
# Velocity S-wave (km/s) = 3.49142 4.06426 3.78868
# Velocity P-wave (km/s) = 5.85050 6.65007 6.26306
#
# Compressibility (1/GPa) = 0.02935791
#
# Stress axis : x y z
#
# Youngs Moduli (GPa) = 116.52603 33.90121 60.27905
#
# Poissons Ratio (x) = 0.10326 0.09965
# Poissons Ratio (y) = 0.35494 0.47959
# Poissons Ratio (z) = 0.19264 0.26973
#
# Static dielectric constant tensor:
#      x y z
#    x 1.803900 0.000000 -0.028380 
#    y 0.000000 1.658560 0.000000 
#    z -0.028380 0.000000 1.735880 
# 
# From -- ./inp_files/256149.got.cif
#   From: 2010.05.17/outbox.cif.g08.bks.cpg/sg12_129_cif.got.tgz:256149.got - 2010.06.03 13:09:07.
