data_PCOD9188995
_publ_section_title
;
Structure prediction by ZEFSAII (Michael W. Deem and Ramdas Pophale) SiO2 
 PCOD9188995
Probable space group: C 2/M
;
_chemical_formula_sum "Si O2"
_cell_formula_units_Z 64
_cell_length_a 18.768705
_cell_length_b 14.134518
_cell_length_c 15.945381
_cell_angle_alpha 90.000000
_cell_angle_beta 45.148216
_cell_angle_gamma 90.000000
_cell_volume 2998.857097
_symmetry_space_group_name_H-M "C 2/M"
_symmetry_group_IT_number 12
_symmetry_cell_setting 'monoclinic'
loop_
_space_group_symop_operation_xyz
x,y,z
-x,y,-z
-x,-y,-z
x,-y,z
1/2+x,1/2+y,z
1/2-x,1/2+y,-z
1/2-x,1/2-y,-z
1/2+x,1/2-y,z
loop_
_atom_site_type_symbol
_atom_site_label
_atom_site_fract_x
_atom_site_fract_y
_atom_site_fract_z
Si Si1 0.453643 0.107179 0.276575
Si Si2 0.047808 0.608806 0.368689
Si Si3 0.169913 0.193303 0.973848
Si Si4 0.683806 0.102955 0.028801
Si Si5 0.594093 0.387311 0.360903
Si Si6 0.260809 0.223641 0.739342
Si Si7 0.519247 0.388210 0.232908
Si Si8 0.822679 0.779159 0.365267
O O1 0.472657 0.139340 0.357141
O O2 0.565386 0.104561 0.145272
O O3 0.384427 0.183964 0.290356
O O4 0.413171 0.000000 0.308810
O O5 0.072966 0.500000 0.326968
O O6 0.145886 0.671153 0.294842
O O7 0.000000 0.611283 0.500000
O O8 0.252002 0.119194 0.940541
O O9 0.166033 0.196457 0.876840
O O10 0.206461 0.301157 0.960465
O O11 0.076265 0.168952 0.111502
O O12 0.710368 0.000000 0.969912
O O13 0.500000 0.358867 0.500000
O O14 0.607282 0.500000 0.359855
O O15 0.695093 0.330249 0.300189
O O16 0.564594 0.368850 0.287856
O O17 0.238676 0.189015 0.664746
O O18 0.529486 0.500000 0.208726
O O19 0.404156 0.355633 0.326469
O O20 0.750000 0.750000 0.500000
#
# Coordination Sequence:
#
# PCOD9188995 Si02
#       8
#     8   8   8   8   8   8   8   8
#     4  10  20  39  64  88 119 158 205 251 307 367
#     4  10  20  36  60  89 118 152 206 264 307 354
#     4  11  22  38  62  93 130 160 209 260 309 380
#     4  10  19  36  64  93 121 156 199 255 311 363
#     4  10  21  40  67  96 124 160 213 270 317 366
#     4  12  24  37  61  92 127 164 204 260 309 374
#     4  11  24  44  67  93 128 170 213 256 315 381
#     4  12  26  43  62  89 128 169 211 254 314 380
#
# _framework density 21.341464999999999
#
# number of rings (size 3 to 8) (size 9 to 14) (size 15 to 20)
#    0.000    1.250    2.500    4.500    0.000    4.000 
#    0.000    0.625    0.000    1.500    0.000    0.000 
#    0.000    0.000    0.000    0.000    0.000    0.000 
#
# Total GULP energy -178661.074480 kJ/mol
# GULP energy per Si atom -5583.158578 kJ/mol
# Density = 2.129289 g / cm^3
# Si number density = 21.341465 Si / 1000 Ang^3
#
#
#
# Elastic Constant Matrix: (Units=GPa)
#
#
# Indices 1 2 3 4 5 6 
#
# 1 35.4255 2.4690 11.5404 0.0000 -0.8599 0.0000
# 2 2.4690 89.9209 4.8589 0.0000 -8.9823 0.0000
# 3 11.5404 4.8589 108.3241 0.0000 3.1719 0.0000
# 4 0.0000 0.0000 0.0000 -1.3687 0.0000 3.5897
# 5 -0.8599 -8.9823 3.1719 0.0000 30.2445 0.0000
# 6 0.0000 0.0000 0.0000 3.5897 0.0000 15.8196
#
#
#
# Elastic Compliance Matrix: (Units=1/GPa)
#
#
# Indices 1 2 3 4 5 6 
#
# 1 0.029309 -0.000536 -0.003128 0.000000 0.001002 0.000000
# 2 -0.000536 0.011512 -0.000561 0.000000 0.003462 0.000000
# 3 -0.003128 -0.000561 0.009627 0.000000 -0.001265 0.000000
# 4 0.000000 0.000000 0.000000 -0.458028 0.000000 0.103933
# 5 0.001002 0.003462 -0.001265 0.000000 0.034253 0.000000
# 6 0.000000 0.000000 0.000000 0.103933 0.000000 0.039629
#
#
# Mechanical properties :
#
#
# Convention : Reuss Voigt Hill
#
# Bulk Modulus (GPa) = 23.80987 30.15635 26.98311
# Shear Modulus (GPa) = -16.06425 23.25922 3.59749
#
# Velocity S-wave (km/s) = -2.74656 3.30489 1.29975
# Velocity P-wave (km/s) = 1.05959 5.35949 3.86308
#
# Compressibility (1/GPa) = 0.04199939
#
# Stress axis : x y z
#
# Youngs Moduli (GPa) = 34.11944 86.86775 103.87490
#
# Poissons Ratio (x) = 0.04653 0.32490
# Poissons Ratio (y) = 0.01828 0.05824
# Poissons Ratio (z) = 0.10672 0.04871
#
# Static dielectric constant tensor:
#      x y z
#    x 1.734880 0.000000 -0.010440 
#    y 0.000000 1.791470 0.000000 
#    z -0.010440 0.000000 1.857290 
# 
# From -- ./inp_files/225686.got.cif
#   From: 2010.05.17/outbox.cif.g08.bks.cpg/sg12_113_cif.got.tgz:225686.got - 2010.06.03 13:09:07.
