data_PCOD9188874
_publ_section_title
;
Structure prediction by ZEFSAII (Michael W. Deem and Ramdas Pophale) SiO2 
 PCOD9188874
Probable space group: C 2/M
;
_chemical_formula_sum "Si O2"
_cell_formula_units_Z 40
_cell_length_a 15.057946
_cell_length_b 16.246986
_cell_length_c 14.870484
_cell_angle_alpha 90.000000
_cell_angle_beta 31.357678
_cell_angle_gamma 90.000000
_cell_volume 1893.142974
_symmetry_space_group_name_H-M "C 2/M"
_symmetry_group_IT_number 12
_symmetry_cell_setting 'monoclinic'
loop_
_space_group_symop_operation_xyz
x,y,z
-x,y,-z
-x,-y,-z
x,-y,z
1/2+x,1/2+y,z
1/2-x,1/2+y,-z
1/2-x,1/2-y,-z
1/2+x,1/2-y,z
loop_
_atom_site_type_symbol
_atom_site_label
_atom_site_fract_x
_atom_site_fract_y
_atom_site_fract_z
Si Si1 0.520625 0.097923 0.381361
Si Si2 0.393184 0.399377 0.005884
Si Si3 0.045726 0.401914 0.064828
Si Si4 0.280090 0.159281 0.437763
Si Si5 0.930689 0.098801 0.773405
O O1 0.500000 0.131907 0.500000
O O2 0.697442 0.128151 0.185380
O O3 0.364653 0.112738 0.449682
O O4 0.540777 0.000000 0.372761
O O5 0.397436 0.500000 0.002471
O O6 0.500000 0.371748 0.000000
O O7 0.461410 0.373255 0.849959
O O8 0.034985 0.500000 0.099146
O O9 0.913220 0.353493 0.242003
O O10 0.241179 0.374073 0.909980
O O11 0.000000 0.394574 0.000000
O O12 0.250000 0.250000 0.500000
O O13 0.092445 0.126138 0.576046
O O14 0.927183 0.000000 0.775157
#
# Coordination Sequence:
#
# PCOD9188874 Si02
#       5
#     8   8   8   8   8
#     4  10  19  36  62  90 123 163 214 268 314 380
#     4   9  16  29  55  90 119 148 197 259 317 369
#     4  10  22  44  71  95 121 166 229 280 312 362
#     4  12  25  41  60  94 137 172 204 261 338 407
#     4  10  20  38  66  91 119 163 217 274 316 371
#
# _framework density 21.128886000000001
#
# number of rings (size 3 to 8) (size 9 to 14) (size 15 to 20)
#    0.000    1.800    2.000    3.000    0.000    4.800 
#    3.600    4.000    0.000    0.000    0.000    0.000 
#    0.000    0.000    0.000    0.000    0.000    0.000 
#
# Total GULP energy -111697.147857 kJ/mol
# GULP energy per Si atom -5584.857393 kJ/mol
# Density = 2.108080 g / cm^3
# Si number density = 21.128886 Si / 1000 Ang^3
#
#
#
# Elastic Constant Matrix: (Units=GPa)
#
#
# Indices 1 2 3 4 5 6 
#
# 1 83.1881 10.2264 49.1215 -0.0002 -15.2589 -0.0006
# 2 10.2264 22.1378 30.5632 -0.0013 -1.4651 0.0002
# 3 49.1215 30.5632 164.6424 -0.0009 -30.5237 -0.0004
# 4 -0.0002 -0.0013 -0.0009 12.1108 -0.0001 11.5200
# 5 -15.2589 -1.4651 -30.5237 -0.0001 29.8673 0.0005
# 6 -0.0006 0.0002 -0.0004 11.5200 0.0005 -15.2583
#
#
#
# Elastic Compliance Matrix: (Units=1/GPa)
#
#
# Indices 1 2 3 4 5 6 
#
# 1 0.015000 -0.002074 -0.003317 0.000000 0.004172 0.000000
# 2 -0.002074 0.063839 -0.013383 0.000003 -0.011606 0.000003
# 3 -0.003317 -0.013383 0.011242 0.000000 0.009138 0.000000
# 4 0.000000 0.000003 0.000000 0.048057 -0.000001 0.036283
# 5 0.004172 -0.011606 0.009138 -0.000001 0.044382 0.000001
# 6 0.000000 0.000003 0.000000 0.036283 0.000001 -0.038144
#
#
# Mechanical properties :
#
#
# Convention : Reuss Voigt Hill
#
# Bulk Modulus (GPa) = 19.03601 49.97669 34.50635
# Shear Modulus (GPa) = 25.07091 17.34778 21.20934
#
# Velocity S-wave (km/s) = 3.44840 2.86850 3.17173
# Velocity P-wave (km/s) = 4.98842 5.88860 5.45710
#
# Compressibility (1/GPa) = 0.05253202
#
# Stress axis : x y z
#
# Youngs Moduli (GPa) = 66.66840 15.66452 88.95303
#
# Poissons Ratio (x) = 0.03248 0.29504
# Poissons Ratio (y) = 0.13825 1.19050
# Poissons Ratio (z) = 0.22113 0.20965
#
# Static dielectric constant tensor:
#      x y z
#    x 1.771520 0.000000 -0.019500 
#    y 0.000000 1.774910 0.000000 
#    z -0.019500 0.000000 1.792660 
# 
# From -- ./inp_files/216629.got.cif
#   From: 2010.05.17/outbox.cif.g08.bks.cpg/sg12_109_cif.got.tgz:216629.got - 2010.06.03 13:09:07.
