data_PCOD9188940
_publ_section_title
;
Structure prediction by ZEFSAII (Michael W. Deem and Ramdas Pophale) SiO2 
 PCOD9188940
Probable space group: C 2/M
;
_chemical_formula_sum "Si O2"
_cell_formula_units_Z 48
_cell_length_a 13.911446
_cell_length_b 16.039780
_cell_length_c 10.008047
_cell_angle_alpha 90.000000
_cell_angle_beta 85.608374
_cell_angle_gamma 90.000000
_cell_volume 2226.604251
_symmetry_space_group_name_H-M "C 2/M"
_symmetry_group_IT_number 12
_symmetry_cell_setting 'monoclinic'
loop_
_space_group_symop_operation_xyz
x,y,z
-x,y,-z
-x,-y,-z
x,-y,z
1/2+x,1/2+y,z
1/2-x,1/2+y,-z
1/2-x,1/2-y,-z
1/2+x,1/2-y,z
loop_
_atom_site_type_symbol
_atom_site_label
_atom_site_fract_x
_atom_site_fract_y
_atom_site_fract_z
Si Si1 0.122636 0.283217 0.889146
Si Si2 0.673294 0.644136 0.212673
Si Si3 0.928818 0.691090 0.801135
Si Si4 0.633835 0.410594 0.926847
Si Si5 0.390173 0.404486 0.499924
Si Si6 0.225149 0.593506 0.327051
O O1 0.227525 0.304423 0.820845
O O2 0.041235 0.325666 0.807632
O O3 0.114186 0.316631 0.042551
O O4 0.097724 0.183922 0.901205
O O5 0.590049 0.712981 0.229576
O O6 0.657204 0.591882 0.080720
O O7 0.661890 0.596020 0.351331
O O8 0.872977 0.641253 0.692859
O O9 0.582624 0.500000 0.900474
O O10 0.727300 0.413087 0.824127
O O11 0.500000 0.370524 0.500000
O O12 0.403538 0.500000 0.449266
O O13 0.310478 0.366036 0.407732
O O14 0.206387 0.500000 0.380701
#
# Coordination Sequence:
#
# PCOD9188940 Si02
#       6
#     8   8   8   8   8   8
#     4  10  20  37  59  94 127 159 200 259 308 355
#     4  11  20  38  61  88 124 161 210 251 305 362
#     4  10  20  37  61  89 127 161 198 257 311 360
#     4  10  19  36  63  91 120 158 204 250 307 363
#     4  10  24  42  60  88 128 165 200 254 317 366
#     4  10  20  39  61  85 121 164 202 247 305 363
#
# _framework density 21.557489
#
# number of rings (size 3 to 8) (size 9 to 14) (size 15 to 20)
#    0.000    1.833    3.333    1.500    2.333    0.667 
#    0.000   10.833    0.000    2.000    0.000    0.000 
#    0.000    0.667    0.000    0.000    0.000    0.000 
#
# Total GULP energy -133640.015873 kJ/mol
# GULP energy per Si atom -5568.333995 kJ/mol
# Density = 2.150842 g / cm^3
# Si number density = 21.557489 Si / 1000 Ang^3
#
#
#
# Elastic Constant Matrix: (Units=GPa)
#
#
# Indices 1 2 3 4 5 6 
#
# 1 116.6241 36.0042 35.1945 0.0000 31.8830 0.0000
# 2 36.0042 53.3076 16.8732 0.0000 15.9659 0.0000
# 3 35.1945 16.8732 88.7840 0.0000 17.0946 0.0000
# 4 0.0000 0.0000 0.0000 22.6542 0.0000 11.6956
# 5 31.8830 15.9659 17.0946 0.0000 41.7296 0.0000
# 6 0.0000 0.0000 0.0000 11.6956 0.0000 33.6026
#
#
#
# Elastic Compliance Matrix: (Units=1/GPa)
#
#
# Indices 1 2 3 4 5 6 
#
# 1 0.013045 -0.005972 -0.002776 0.000000 -0.006545 0.000000
# 2 -0.005972 0.024523 -0.001482 0.000000 -0.004213 0.000000
# 3 -0.002776 -0.001482 0.013166 0.000000 -0.002705 0.000000
# 4 0.000000 0.000000 0.000000 0.053811 0.000000 -0.018729
# 5 -0.006545 -0.004213 -0.002705 0.000000 0.031685 0.000000
# 6 0.000000 0.000000 0.000000 -0.018729 0.000000 0.036278
#
#
# Mechanical properties :
#
#
# Convention : Reuss Voigt Hill
#
# Bulk Modulus (GPa) = 33.03086 48.31774 40.67430
# Shear Modulus (GPa) = 24.62312 30.97352 27.79832
#
# Velocity S-wave (km/s) = 3.38332 3.79461 3.59485
# Velocity P-wave (km/s) = 5.53335 6.45452 6.01161
#
# Compressibility (1/GPa) = 0.03027472
#
# Stress axis : x y z
#
# Youngs Moduli (GPa) = 76.65626 40.77735 75.95115
#
# Poissons Ratio (x) = 0.24352 0.21085
# Poissons Ratio (y) = 0.45778 0.11257
# Poissons Ratio (z) = 0.21280 0.06044
#
# Static dielectric constant tensor:
#      x y z
#    x 1.785890 0.000000 0.023780 
#    y 0.000000 1.847710 0.000000 
#    z 0.023780 0.000000 1.790600 
# 
# From -- ./inp_files/61744.got.cif
#   From: 2010.05.17/outbox.cif.g08.bks.cpg/sg12_31_cif.got.tgz:61744.got - 2010.06.03 13:09:07.
