data_PCOD9188879
_publ_section_title
;
Structure prediction by ZEFSAII (Michael W. Deem and Ramdas Pophale) SiO2 
 PCOD9188879
Probable space group: C 2/M
;
_chemical_formula_sum "Si O2"
_cell_formula_units_Z 48
_cell_length_a 15.757126
_cell_length_b 30.174021
_cell_length_c 8.951774
_cell_angle_alpha 90.000000
_cell_angle_beta 144.222592
_cell_angle_gamma 90.000000
_cell_volume 2488.319907
_symmetry_space_group_name_H-M "C 2/M"
_symmetry_group_IT_number 12
_symmetry_cell_setting 'monoclinic'
loop_
_space_group_symop_operation_xyz
x,y,z
-x,y,-z
-x,-y,-z
x,-y,z
1/2+x,1/2+y,z
1/2-x,1/2+y,-z
1/2-x,1/2-y,-z
1/2+x,1/2-y,z
loop_
_atom_site_type_symbol
_atom_site_label
_atom_site_fract_x
_atom_site_fract_y
_atom_site_fract_z
Si Si1 0.106900 0.865891 0.425865
Si Si2 0.719283 0.632292 0.916293
Si Si3 0.162454 0.715215 0.772424
Si Si4 0.160983 0.214474 0.278032
Si Si5 0.672903 0.050880 0.753322
Si Si6 0.657824 0.449726 0.301440
O O1 0.192360 0.860729 0.702845
O O2 0.142873 0.829233 0.353210
O O3 0.145927 0.913732 0.413783
O O4 0.936753 0.861398 0.225008
O O5 0.833820 0.668513 0.136614
O O6 0.770527 0.583830 0.039419
O O7 0.249031 0.707229 0.743672
O O8 0.000000 0.730479 0.500000
O O9 0.250000 0.750000 0.000000
O O10 0.250000 0.250000 0.500000
O O11 0.000000 0.229828 0.000000
O O12 0.500000 0.052009 0.500000
O O13 0.734753 0.064132 0.679024
O O14 0.721149 0.000000 0.847765
O O15 0.694640 0.500000 0.402845
O O16 0.500000 0.450948 0.000000
#
# Coordination Sequence:
#
# PCOD9188879 Si02
#       6
#     8   8   8   8   8   8
#     4  11  23  39  63  93 127 164 208 263 311 369
#     4  11  23  40  62  92 128 164 208 259 316 368
#     4  12  26  43  66  93 125 162 208 260 316 379
#     4  12  24  43  66  91 123 164 210 258 315 374
#     4  10  21  39  63  91 126 166 207 255 314 375
#     4  10  19  36  62  91 122 161 211 257 306 369
#
# _framework density 19.290125
#
# number of rings (size 3 to 8) (size 9 to 14) (size 15 to 20)
#    0.000    1.000    3.333    4.000    2.333    0.667 
#    0.000    4.167    0.000    3.000    0.000    0.000 
#    0.000    0.000    0.000    0.000    0.000    0.000 
#
# Total GULP energy -134146.527984 kJ/mol
# GULP energy per Si atom -5589.438666 kJ/mol
# Density = 1.924622 g / cm^3
# Si number density = 19.290125 Si / 1000 Ang^3
#
#
#
# Elastic Constant Matrix: (Units=GPa)
#
#
# Indices 1 2 3 4 5 6 
#
# 1 109.3533 21.4692 44.7219 0.0000 -5.3159 0.0000
# 2 21.4692 81.1072 45.8178 0.0000 -19.4587 0.0000
# 3 44.7219 45.8178 116.2553 0.0000 -7.2774 0.0000
# 4 0.0000 0.0000 0.0000 51.2390 0.0000 11.0373
# 5 -5.3159 -19.4587 -7.2774 0.0000 31.0139 0.0000
# 6 0.0000 0.0000 0.0000 11.0373 0.0000 15.4804
#
#
#
# Elastic Compliance Matrix: (Units=1/GPa)
#
#
# Indices 1 2 3 4 5 6 
#
# 1 0.010890 -0.000499 -0.003953 0.000000 0.000626 0.000000
# 2 -0.000499 0.018527 -0.006483 0.000000 0.010017 0.000000
# 3 -0.003953 -0.006483 0.012565 0.000000 -0.001797 0.000000
# 4 0.000000 0.000000 0.000000 0.023058 0.000000 -0.016440
# 5 0.000626 0.010017 -0.001797 0.000000 0.038214 0.000000
# 6 0.000000 0.000000 0.000000 -0.016440 0.000000 0.076319
#
#
# Mechanical properties :
#
#
# Convention : Reuss Voigt Hill
#
# Bulk Modulus (GPa) = 49.72273 58.97040 54.34657
# Shear Modulus (GPa) = 24.02152 32.52712 28.27432
#
# Velocity S-wave (km/s) = 3.53267 4.11080 3.83265
# Velocity P-wave (km/s) = 6.51705 7.29165 6.91520
#
# Compressibility (1/GPa) = 0.02011152
#
# Stress axis : x y z
#
# Youngs Moduli (GPa) = 91.82857 53.97565 79.58648
#
# Poissons Ratio (x) = 0.02695 0.31463
# Poissons Ratio (y) = 0.04584 0.51593
# Poissons Ratio (z) = 0.36302 0.34990
#
# Static dielectric constant tensor:
#      x y z
#    x 1.608120 0.000000 0.022610 
#    y 0.000000 1.689110 0.000000 
#    z 0.022610 0.000000 1.650850 
# 
# From -- ./inp_files/67412.got.cif
#   From: 2010.05.17/outbox.cif.g08.bks.cpg/sg12_34_cif.got.tgz:67412.got - 2010.06.03 13:09:07.
