data_PCOD9188546
_publ_section_title
;
Structure prediction by ZEFSAII (Michael W. Deem and Ramdas Pophale) SiO2 
 PCOD9188546
Probable space group: C 2/M
;
_chemical_formula_sum "Si O2"
_cell_formula_units_Z 56
_cell_length_a 30.187661
_cell_length_b 12.057162
_cell_length_c 8.596550
_cell_angle_alpha 90.000000
_cell_angle_beta 112.366137
_cell_angle_gamma 90.000000
_cell_volume 2893.563381
_symmetry_space_group_name_H-M "C 2/M"
_symmetry_group_IT_number 12
_symmetry_cell_setting 'monoclinic'
loop_
_space_group_symop_operation_xyz
x,y,z
-x,y,-z
-x,-y,-z
x,-y,z
1/2+x,1/2+y,z
1/2-x,1/2+y,-z
1/2-x,1/2-y,-z
1/2+x,1/2-y,z
loop_
_atom_site_type_symbol
_atom_site_label
_atom_site_fract_x
_atom_site_fract_y
_atom_site_fract_z
Si Si1 0.873742 0.212595 0.483773
Si Si2 0.972219 0.278315 0.109146
Si Si3 0.390669 0.369399 0.843920
Si Si4 0.890973 0.369381 0.228022
Si Si5 0.226265 0.870482 0.780733
Si Si6 0.030873 0.117335 0.387922
Si Si7 0.311133 0.279709 0.952074
O O1 0.880174 0.205890 0.677753
O O2 0.888861 0.318949 0.400451
O O3 0.820833 0.172983 0.370327
O O4 0.914367 0.125357 0.487045
O O5 0.938750 0.343574 0.188561
O O6 0.013982 0.217555 0.259981
O O7 0.936423 0.184227 0.991386
O O8 0.000000 0.334865 0.000000
O O9 0.396964 0.500000 0.815841
O O10 0.344512 0.355492 0.891220
O O11 0.883725 0.500000 0.222637
O O12 0.847353 0.306746 0.083521
O O13 0.271650 0.792187 0.808391
O O14 0.234699 0.000000 0.760702
O O15 0.214692 0.850613 0.948127
O O16 0.000000 0.122127 0.500000
O O17 0.021304 0.000000 0.295102
#
# Coordination Sequence:
#
# PCOD9188546 Si02
#       7
#     8   8   8   8   8   8   8
#     4  11  22  37  57  86 115 148 195 235 282 347
#     4  11  22  37  59  86 119 148 195 234 285 347
#     4  11  22  37  59  89 124 151 182 235 290 343
#     4  10  22  42  60  79 112 155 198 243 284 331
#     4  10  19  36  60  84 114 151 190 237 288 338
#     4  11  21  35  57  85 120 154 185 233 288 339
#     4   9  21  37  59  87 113 148 195 237 284 348
#
# _framework density 19.353300000000001
#
# number of rings (size 3 to 8) (size 9 to 14) (size 15 to 20)
#    0.000    1.571    2.857    2.571    0.000    1.429 
#    0.000    5.714    0.000    0.000    0.000    0.000 
#    0.000    0.000    0.000    0.000    0.000    0.000 
#
# Total GULP energy -156048.696206 kJ/mol
# GULP energy per Si atom -5573.167722 kJ/mol
# Density = 1.930925 g / cm^3
# Si number density = 19.353300 Si / 1000 Ang^3
#
#
#
# Elastic Constant Matrix: (Units=GPa)
#
#
# Indices 1 2 3 4 5 6 
#
# 1 72.4758 -0.7978 11.3470 0.0000 2.8256 0.0000
# 2 -0.7978 73.1235 24.2400 0.0000 -8.1342 0.0000
# 3 11.3470 24.2400 62.5818 0.0000 4.6512 0.0000
# 4 0.0000 0.0000 0.0000 18.1216 0.0000 -15.4248
# 5 2.8256 -8.1342 4.6512 0.0000 36.3531 0.0000
# 6 0.0000 0.0000 0.0000 -15.4248 0.0000 68.5948
#
#
#
# Elastic Compliance Matrix: (Units=1/GPa)
#
#
# Indices 1 2 3 4 5 6 
#
# 1 0.014295 0.001089 -0.002977 0.000000 -0.000486 0.000000
# 2 0.001089 0.016478 -0.006913 0.000000 0.004487 0.000000
# 3 -0.002977 -0.006913 0.019480 0.000000 -0.003808 0.000000
# 4 0.000000 0.000000 0.000000 0.068245 0.000000 0.015346
# 5 -0.000486 0.004487 -0.003808 0.000000 0.029037 0.000000
# 6 0.000000 0.000000 0.000000 0.015346 0.000000 0.018029
#
#
# Mechanical properties :
#
#
# Convention : Reuss Voigt Hill
#
# Bulk Modulus (GPa) = 30.62907 30.86214 30.74561
# Shear Modulus (GPa) = 25.76641 36.17338 30.96990
#
# Velocity S-wave (km/s) = 3.65275 4.32801 4.00464
# Velocity P-wave (km/s) = 5.80093 6.39975 6.10768
#
# Compressibility (1/GPa) = 0.03264872
#
# Stress axis : x y z
#
# Youngs Moduli (GPa) = 69.95539 60.68589 51.33534
#
# Poissons Ratio (x) = -0.06608 0.15285
# Poissons Ratio (y) = -0.07617 0.35491
# Poissons Ratio (z) = 0.20829 0.41955
#
# Static dielectric constant tensor:
#      x y z
#    x 1.715630 0.000000 -0.028950 
#    y 0.000000 1.640610 0.000000 
#    z -0.028950 0.000000 1.688930 
# 
# From -- ./inp_files/109881.got.cif
#   From: 2010.05.17/outbox.cif.g08.bks.cpg/sg12_55_cif.got.tgz:109881.got - 2010.06.03 13:09:07.
