data_PCOD9188844
_publ_section_title
;
Structure prediction by ZEFSAII (Michael W. Deem and Ramdas Pophale) SiO2 
 PCOD9188844
Probable space group: C 2/M
;
_chemical_formula_sum "Si O2"
_cell_formula_units_Z 64
_cell_length_a 22.492141
_cell_length_b 18.136402
_cell_length_c 25.877380
_cell_angle_alpha 90.000000
_cell_angle_beta 160.616685
_cell_angle_gamma 90.000000
_cell_volume 3503.416311
_symmetry_space_group_name_H-M "C 2/M"
_symmetry_group_IT_number 12
_symmetry_cell_setting 'monoclinic'
loop_
_space_group_symop_operation_xyz
x,y,z
-x,y,-z
-x,-y,-z
x,-y,z
1/2+x,1/2+y,z
1/2-x,1/2+y,-z
1/2-x,1/2-y,-z
1/2+x,1/2-y,z
loop_
_atom_site_type_symbol
_atom_site_label
_atom_site_fract_x
_atom_site_fract_y
_atom_site_fract_z
Si Si1 0.304881 0.694562 0.716048
Si Si2 0.010702 0.791572 0.672777
Si Si3 0.919205 0.580200 0.533607
Si Si4 0.942658 0.413023 0.764847
Si Si5 0.328227 0.859442 0.560266
Si Si6 0.687902 0.415119 0.183405
Si Si7 0.335870 0.778382 0.016791
Si Si8 0.593896 0.657117 0.525397
O O1 0.205205 0.640908 0.594516
O O2 0.309231 0.647248 0.771234
O O3 0.500877 0.722543 0.860837
O O4 0.188372 0.768370 0.623228
O O5 0.879077 0.847879 0.595098
O O6 0.906165 0.714353 0.596825
O O7 0.014284 0.817040 0.615474
O O8 0.196327 0.782195 0.855114
O O9 0.888230 0.500000 0.483888
O O10 0.865134 0.579247 0.548644
O O11 0.130930 0.595999 0.701229
O O12 0.982146 0.500000 0.796759
O O13 0.926907 0.379136 0.694291
O O14 0.749621 0.396897 0.632655
O O15 0.084217 0.360292 0.909382
O O16 0.304118 0.500000 0.790385
O O17 0.500000 0.408738 0.000000
O O18 0.250000 0.750000 0.000000
O O19 0.500000 0.626232 0.500000
#
# Coordination Sequence:
#
# PCOD9188844 Si02
#       8
#     8   8   8   8   8   8   8   8
#     4  11  22  34  56  81 113 156 199 244 290 351
#     4  10  20  37  62  88 119 147 196 257 295 350
#     4  11  21  35  56  81 115 156 197 241 291 354
#     4  10  22  40  60  87 123 156 192 246 306 363
#     4  10  19  36  62  87 113 152 194 240 299 355
#     4  10  23  38  52  79 119 159 198 246 301 354
#     4  11  22  38  60  89 120 156 198 249 305 354
#     4  10  21  38  62  88 112 153 206 249 298 352
#
# _framework density 18.267883999999999
#
# number of rings (size 3 to 8) (size 9 to 14) (size 15 to 20)
#    0.000    1.625    2.500    2.625    1.750    1.250 
#    0.000    7.500    0.000    0.750    0.000    0.000 
#    0.000    0.000    0.000    0.000    0.000    0.000 
#
# Total GULP energy -178402.604424 kJ/mol
# GULP energy per Si atom -5575.081388 kJ/mol
# Density = 1.822631 g / cm^3
# Si number density = 18.267884 Si / 1000 Ang^3
#
#
#
# Elastic Constant Matrix: (Units=GPa)
#
#
# Indices 1 2 3 4 5 6 
#
# 1 99.8993 25.5431 33.4890 0.0047 2.0202 -0.0111
# 2 25.5431 70.1188 24.9396 -0.0040 7.7128 0.0127
# 3 33.4890 24.9396 110.6637 0.0609 -0.0743 -0.0543
# 4 0.0047 -0.0040 0.0609 -6.5869 0.0155 18.4022
# 5 2.0202 7.7128 -0.0743 0.0155 18.8573 -0.0192
# 6 -0.0111 0.0127 -0.0543 18.4022 -0.0192 -0.8915
#
#
#
# Elastic Compliance Matrix: (Units=1/GPa)
#
#
# Indices 1 2 3 4 5 6 
#
# 1 0.011800 -0.003301 -0.002827 0.000001 0.000075 0.000006
# 2 -0.003301 0.017229 -0.002888 -0.000029 -0.006704 0.000009
# 3 -0.002827 -0.002888 0.010544 0.000032 0.001526 -0.000025
# 4 0.000001 -0.000029 0.000032 0.002679 0.000066 0.055300
# 5 0.000075 -0.006704 0.001526 0.000066 0.055770 -0.000030
# 6 0.000006 0.000009 -0.000025 0.055300 -0.000030 0.019794
#
#
# Mechanical properties :
#
#
# Convention : Reuss Voigt Hill
#
# Bulk Modulus (GPa) = 46.42550 49.84726 48.13638
# Shear Modulus (GPa) = 34.95781 15.38978 25.17380
#
# Velocity S-wave (km/s) = 4.37924 2.90565 3.71622
# Velocity P-wave (km/s) = 7.14418 6.21314 6.69486
#
# Compressibility (1/GPa) = 0.02153988
#
# Stress axis : x y z
#
# Youngs Moduli (GPa) = 84.74305 58.04209 94.84284
#
# Poissons Ratio (x) = 0.19162 0.26812
# Poissons Ratio (y) = 0.27978 0.27392
# Poissons Ratio (z) = 0.23956 0.16764
#
# Static dielectric constant tensor:
#      x y z
#    x 1.662320 -0.000010 -0.007060 
#    y -0.000010 1.628210 -0.000010 
#    z -0.007060 -0.000010 1.646010 
# 
# From -- ./inp_files/347907.got.cif
#   From: 2010.05.17/outbox.cif.g08.bks.cpg/sg12_174_cif.got.tgz:347907.got - 2010.06.03 13:09:07.
