data_PCOD9188855
_publ_section_title
;
Structure prediction by ZEFSAII (Michael W. Deem and Ramdas Pophale) SiO2 
 PCOD9188855
Probable space group: C 2/M
;
_chemical_formula_sum "Si O2"
_cell_formula_units_Z 42
_cell_length_a 18.136012
_cell_length_b 12.552963
_cell_length_c 25.032405
_cell_angle_alpha 90.000000
_cell_angle_beta 19.786899
_cell_angle_gamma 90.000000
_cell_volume 1929.205585
_symmetry_space_group_name_H-M "C 2/M"
_symmetry_group_IT_number 12
_symmetry_cell_setting 'monoclinic'
loop_
_space_group_symop_operation_xyz
x,y,z
-x,y,-z
-x,-y,-z
x,-y,z
1/2+x,1/2+y,z
1/2-x,1/2+y,-z
1/2-x,1/2-y,-z
1/2+x,1/2-y,z
loop_
_atom_site_type_symbol
_atom_site_label
_atom_site_fract_x
_atom_site_fract_y
_atom_site_fract_z
Si Si1 0.101471 0.617926 0.552433
Si Si2 0.000000 0.000000 0.500000
Si Si3 0.963864 0.710878 0.292685
Si Si4 0.223865 0.617860 0.313010
Si Si5 0.676047 0.881612 0.926651
Si Si6 0.084523 0.340580 0.789573
O O1 0.182765 0.500000 0.481764
O O2 0.091735 0.628966 0.622643
O O3 0.253568 0.712921 0.428144
O O4 0.865225 0.629208 0.686609
O O5 0.808165 0.092923 0.635082
O O6 0.019478 0.657528 0.198551
O O7 0.145440 0.790058 0.192018
O O8 0.321129 0.500000 0.253941
O O9 0.370135 0.716527 0.228646
O O10 0.000000 0.621333 0.500000
O O11 0.770828 0.000000 0.851701
O O12 0.500000 0.862351 0.000000
O O13 0.559793 0.881813 0.063372
#
# Coordination Sequence:
#
# PCOD9188855 Si02
#       6
#     8   2   8   8   8   8
#     4  10  21  38  61  93 125 164 214 271 323 379
#     4  12  24  40  68 100 138 160 222 266 340 390
#     4  11  23  40  62  93 130 170 216 272 324 391
#     4  10  19  36  62  88 122 158 212 264 324 390
#     4  11  25  44  64  92 132 180 225 267 331 399
#     4  12  23  42  65  99 128 174 216 276 329 393
#
# _framework density 21.770620000000001
#
# number of rings (size 3 to 8) (size 9 to 14) (size 15 to 20)
#    0.000    1.143    3.810    2.286    1.333    2.286 
#    0.000    0.952    0.000    3.429    0.000    0.000 
#    0.000    0.000    0.000    0.000    0.000    0.000 
#
# Total GULP energy -117105.720220 kJ/mol
# GULP energy per Si atom -5576.462868 kJ/mol
# Density = 2.172107 g / cm^3
# Si number density = 21.770620 Si / 1000 Ang^3
#
#
#
# Elastic Constant Matrix: (Units=GPa)
#
#
# Indices 1 2 3 4 5 6 
#
# 1 89.8711 11.5767 1.6726 0.0621 25.1428 0.0011
# 2 11.5767 102.1251 7.4034 -0.0415 -1.7493 0.0149
# 3 1.6726 7.4034 21.0003 0.0037 0.4302 0.0490
# 4 0.0621 -0.0415 0.0037 56.5878 -0.0422 -13.9731
# 5 25.1428 -1.7493 0.4302 -0.0422 26.7623 -0.0145
# 6 0.0011 0.0149 0.0490 -13.9731 -0.0145 -9.3999
#
#
#
# Elastic Compliance Matrix: (Units=1/GPa)
#
#
# Indices 1 2 3 4 5 6 
#
# 1 0.015496 -0.001991 -0.000231 -0.000018 -0.014685 0.000047
# 2 -0.001991 0.010318 -0.003532 0.000008 0.002602 -0.000018
# 3 -0.000231 -0.003532 0.048898 0.000041 -0.000799 0.000190
# 4 -0.000018 0.000008 0.000041 0.012927 0.000027 -0.019216
# 5 -0.014685 0.002602 -0.000799 0.000027 0.051345 -0.000121
# 6 0.000047 -0.000018 0.000190 -0.019216 -0.000121 -0.077819
#
#
# Mechanical properties :
#
#
# Convention : Reuss Voigt Hill
#
# Bulk Modulus (GPa) = 15.82224 28.25578 22.03901
# Shear Modulus (GPa) = 53.33714 27.61296 40.47505
#
# Velocity S-wave (km/s) = 4.95508 3.56527 4.31647
# Velocity P-wave (km/s) = 6.32618 5.47313 5.91505
#
# Compressibility (1/GPa) = 0.06320219
#
# Stress axis : x y z
#
# Youngs Moduli (GPa) = 64.53189 96.91523 20.45074
#
# Poissons Ratio (x) = 0.19300 0.00473
# Poissons Ratio (y) = 0.12851 0.07224
# Poissons Ratio (z) = 0.01494 0.34233
#
# Static dielectric constant tensor:
#      x y z
#    x 1.832160 -0.000010 0.024040 
#    y -0.000010 1.766080 0.000020 
#    z 0.024040 0.000020 1.773330 
# 
# From -- ./inp_files/365951.got.cif
#   From: 2010.05.17/outbox.cif.g08.bks.cpg/sg12_183_cif.got.tgz:365951.got - 2010.06.03 13:09:07.
