data_PCOD9188978
_publ_section_title
;
Structure prediction by ZEFSAII (Michael W. Deem and Ramdas Pophale) SiO2 
 PCOD9188978
Probable space group: C 2/M
;
_chemical_formula_sum "Si O2"
_cell_formula_units_Z 56
_cell_length_a 12.057877
_cell_length_b 29.133536
_cell_length_c 7.894343
_cell_angle_alpha 90.000000
_cell_angle_beta 63.468882
_cell_angle_gamma 90.000000
_cell_volume 2481.152986
_symmetry_space_group_name_H-M "C 2/M"
_symmetry_group_IT_number 12
_symmetry_cell_setting 'monoclinic'
loop_
_space_group_symop_operation_xyz
x,y,z
-x,y,-z
-x,-y,-z
x,-y,z
1/2+x,1/2+y,z
1/2-x,1/2+y,-z
1/2-x,1/2-y,-z
1/2+x,1/2-y,z
loop_
_atom_site_type_symbol
_atom_site_label
_atom_site_fract_x
_atom_site_fract_y
_atom_site_fract_z
Si Si1 0.967773 0.449628 0.819074
Si Si2 0.600701 0.148980 0.083588
Si Si3 0.754690 0.551366 0.419853
Si Si4 0.065224 0.901289 0.788705
Si Si5 0.822960 0.814246 0.380873
Si Si6 0.334656 0.635547 0.728935
Si Si7 0.444415 0.225615 0.369151
O O1 0.911639 0.500000 0.816987
O O2 0.100331 0.446077 0.633462
O O3 0.896926 0.402002 0.835627
O O4 0.000000 0.451293 0.000000
O O5 0.543490 0.189918 0.231127
O O6 0.500000 0.145423 0.000000
O O7 0.735526 0.159852 0.917646
O O8 0.731331 0.500000 0.372735
O O9 0.657163 0.563994 0.632279
O O10 0.732834 0.589618 0.293050
O O11 0.146037 0.855386 0.766967
O O12 0.955891 0.882576 0.740855
O O13 0.000000 0.919651 0.000000
O O14 0.853049 0.833883 0.548944
O O15 0.679458 0.801630 0.494526
O O16 0.899783 0.768402 0.287131
O O17 0.500000 0.246785 0.500000
#
# Coordination Sequence:
#
# PCOD9188978 Si02
#       7
#     8   8   8   8   8   8   8
#     4   9  16  31  59  90 117 146 191 247 295 343
#     4  11  19  36  60  92 118 149 197 252 297 353
#     4  10  19  36  64  89 116 160 204 244 296 361
#     4  11  25  40  58  85 123 161 199 250 307 355
#     4  10  22  44  60  83 120 159 203 243 297 359
#     4  11  21  39  63  85 118 160 203 251 292 362
#     4  11  23  38  63  90 119 156 197 251 303 357
#
# _framework density 22.570150999999999
#
# number of rings (size 3 to 8) (size 9 to 14) (size 15 to 20)
#    0.000    1.571    4.286    3.429    2.000    2.000 
#    0.000    1.429    0.000    0.429    0.000    0.000 
#    0.000    0.000    0.000    0.000    0.000    0.000 
#
# Total GULP energy -156358.619926 kJ/mol
# GULP energy per Si atom -5584.236426 kJ/mol
# Density = 2.251878 g / cm^3
# Si number density = 22.570151 Si / 1000 Ang^3
#
#
#
# Elastic Constant Matrix: (Units=GPa)
#
#
# Indices 1 2 3 4 5 6 
#
# 1 31.4668 -8.9759 18.7813 0.0000 0.0069 0.0000
# 2 -8.9759 105.5748 19.3326 0.0000 -10.3207 0.0000
# 3 18.7813 19.3326 94.7818 0.0000 -28.4391 0.0000
# 4 0.0000 0.0000 0.0000 -32.0921 0.0000 1.6831
# 5 0.0069 -10.3207 -28.4391 0.0000 22.2629 0.0000
# 6 0.0000 0.0000 0.0000 1.6831 0.0000 7.9774
#
#
#
# Elastic Compliance Matrix: (Units=1/GPa)
#
#
# Indices 1 2 3 4 5 6 
#
# 1 0.041272 0.004513 -0.013742 0.000000 -0.015475 0.000000
# 2 0.004513 0.010479 -0.002553 0.000000 0.001595 0.000000
# 3 -0.013742 -0.002553 0.021794 0.000000 0.026660 0.000000
# 4 0.000000 0.000000 0.000000 -0.030819 0.000000 0.006502
# 5 -0.015475 0.001595 0.026660 0.000000 0.079718 0.000000
# 6 0.000000 0.000000 0.000000 0.006502 0.000000 0.123982
#
#
# Mechanical properties :
#
#
# Convention : Reuss Voigt Hill
#
# Bulk Modulus (GPa) = 20.00788 32.23327 26.12058
# Shear Modulus (GPa) = 17.44286 13.14202 15.29244
#
# Velocity S-wave (km/s) = 2.78300 2.41565 2.60581
# Velocity P-wave (km/s) = 4.38301 4.70031 4.54443
#
# Compressibility (1/GPa) = 0.04998031
#
# Stress axis : x y z
#
# Youngs Moduli (GPa) = 24.22947 95.42854 45.88499
#
# Poissons Ratio (x) = -0.43062 0.63054
# Poissons Ratio (y) = -0.10934 0.11714
# Poissons Ratio (z) = 0.33296 0.24362
#
# Static dielectric constant tensor:
#      x y z
#    x 1.874560 0.000000 0.002840 
#    y 0.000000 1.832880 0.000000 
#    z 0.002840 0.000000 1.862750 
# 
# From -- ./inp_files/68130.got.cif
#   From: 2010.05.17/outbox.cif.g08.bks.cpg/sg12_35_cif.got.tgz:68130.got - 2010.06.03 13:09:07.
