data_PCOD9188556
_publ_section_title
;
Structure prediction by ZEFSAII (Michael W. Deem and Ramdas Pophale) SiO2 
 PCOD9188556
Probable space group: C 2/M
;
_chemical_formula_sum "Si O2"
_cell_formula_units_Z 56
_cell_length_a 14.762745
_cell_length_b 8.473461
_cell_length_c 26.641587
_cell_angle_alpha 90.000000
_cell_angle_beta 65.156698
_cell_angle_gamma 90.000000
_cell_volume 3024.235712
_symmetry_space_group_name_H-M "C 2/M"
_symmetry_group_IT_number 12
_symmetry_cell_setting 'monoclinic'
loop_
_space_group_symop_operation_xyz
x,y,z
-x,y,-z
-x,-y,-z
x,-y,z
1/2+x,1/2+y,z
1/2-x,1/2+y,-z
1/2-x,1/2-y,-z
1/2+x,1/2-y,z
loop_
_atom_site_type_symbol
_atom_site_label
_atom_site_fract_x
_atom_site_fract_y
_atom_site_fract_z
Si Si1 0.222069 0.684189 0.061317
Si Si2 0.781713 0.690035 0.649857
Si Si3 0.011474 0.815113 0.138106
Si Si4 0.793278 0.310190 0.437708
Si Si5 0.990153 0.308375 0.650022
Si Si6 0.072059 0.689544 0.738173
Si Si7 0.584284 0.814946 0.938854
O O1 0.196982 0.500000 0.063047
O O2 0.128119 0.775798 0.105482
O O3 0.318664 0.712441 0.072741
O O4 0.250000 0.750000 0.000000
O O5 0.778096 0.500000 0.652827
O O6 0.767974 0.744176 0.595545
O O7 0.886512 0.744715 0.649575
O O8 0.685829 0.758427 0.701295
O O9 0.970561 0.764069 0.201523
O O10 0.958048 0.719569 0.106072
O O11 0.994658 0.000000 0.133913
O O12 0.790043 0.500000 0.436708
O O13 0.750000 0.250000 0.500000
O O14 0.909151 0.260491 0.402831
O O15 0.988246 0.500000 0.649826
O O16 0.008553 0.261253 0.703607
O O17 0.068173 0.500000 0.742591
O O18 0.608761 0.000000 0.939020
O O19 0.500000 0.776469 0.000000
#
# Coordination Sequence:
#
# PCOD9188556 Si02
#       7
#     8   8   8   8   8   8   8
#     4  12  24  40  62  88 118 153 191 236 291 354
#     4  10  19  36  60  85 112 150 197 243 291 347
#     4  12  25  41  62  89 120 156 198 244 297 357
#     4  10  20  36  55  83 119 157 196 239 290 344
#     4   8  18  36  59  81 111 154 194 233 288 348
#     4  10  21  40  60  83 116 152 192 242 295 349
#     4  11  23  40  63  88 116 151 193 239 292 353
#
# _framework density 18.517074000000001
#
# number of rings (size 3 to 8) (size 9 to 14) (size 15 to 20)
#    0.000    1.571    1.429    5.143    0.000    2.286 
#    0.000   15.714    0.000    0.000    0.000    0.000 
#    0.000    0.000    0.000    0.000    0.000    0.000 
#
# Total GULP energy -156447.796581 kJ/mol
# GULP energy per Si atom -5587.421306 kJ/mol
# Density = 1.847493 g / cm^3
# Si number density = 18.517074 Si / 1000 Ang^3
#
#
#
# Elastic Constant Matrix: (Units=GPa)
#
#
# Indices 1 2 3 4 5 6 
#
# 1 132.8592 -0.5898 52.3545 0.0000 2.2925 0.0000
# 2 -0.5898 42.2355 3.4364 0.0000 0.4844 0.0000
# 3 52.3545 3.4364 141.1802 0.0000 7.8260 0.0000
# 4 0.0000 0.0000 0.0000 32.1478 0.0000 1.4231
# 5 2.2925 0.4844 7.8260 0.0000 11.6180 0.0000
# 6 0.0000 0.0000 0.0000 1.4231 0.0000 30.2551
#
#
#
# Elastic Compliance Matrix: (Units=1/GPa)
#
#
# Indices 1 2 3 4 5 6 
#
# 1 0.008824 0.000387 -0.003308 0.000000 0.000471 0.000000
# 2 0.000387 0.023745 -0.000688 0.000000 -0.000603 0.000000
# 3 -0.003308 -0.000688 0.008610 0.000000 -0.005119 0.000000
# 4 0.000000 0.000000 0.000000 0.031171 0.000000 -0.001466
# 5 0.000471 -0.000603 -0.005119 0.000000 0.089454 0.000000
# 6 0.000000 0.000000 0.000000 -0.001466 0.000000 0.033121
#
#
# Mechanical properties :
#
#
# Convention : Reuss Voigt Hill
#
# Bulk Modulus (GPa) = 29.44509 47.40856 38.42682
# Shear Modulus (GPa) = 23.42324 32.20909 27.81617
#
# Velocity S-wave (km/s) = 3.56048 4.17517 3.88001
# Velocity P-wave (km/s) = 5.73051 6.99292 6.39295
#
# Compressibility (1/GPa) = 0.03396152
#
# Stress axis : x y z
#
# Youngs Moduli (GPa) = 113.33008 42.11406 116.14081
#
# Poissons Ratio (x) = -0.01630 0.38416
# Poissons Ratio (y) = -0.04385 0.07991
# Poissons Ratio (z) = 0.37486 0.02898
#
# Static dielectric constant tensor:
#      x y z
#    x 1.633600 0.000000 0.003110 
#    y 0.000000 1.632240 0.000000 
#    z 0.003110 0.000000 1.600240 
# 
# From -- ./inp_files/359641.got.cif
#   From: 2010.05.17/outbox.cif.g08.bks.cpg/sg12_180_cif.got.tgz:359641.got - 2010.06.03 13:09:07.
