data_PCOD9188896
_publ_section_title
;
Structure prediction by ZEFSAII (Michael W. Deem and Ramdas Pophale) SiO2 
 PCOD9188896
Probable space group: C 2/M
;
_chemical_formula_sum "Si O2"
_cell_formula_units_Z 52
_cell_length_a 24.208236
_cell_length_b 21.439079
_cell_length_c 5.339842
_cell_angle_alpha 90.000000
_cell_angle_beta 114.701467
_cell_angle_gamma 90.000000
_cell_volume 2517.801003
_symmetry_space_group_name_H-M "C 2/M"
_symmetry_group_IT_number 12
_symmetry_cell_setting 'monoclinic'
loop_
_space_group_symop_operation_xyz
x,y,z
-x,y,-z
-x,-y,-z
x,-y,z
1/2+x,1/2+y,z
1/2-x,1/2+y,-z
1/2-x,1/2-y,-z
1/2+x,1/2-y,z
loop_
_atom_site_type_symbol
_atom_site_label
_atom_site_fract_x
_atom_site_fract_y
_atom_site_fract_z
Si Si1 0.442088 0.200654 0.141467
Si Si2 0.204747 0.076371 0.179196
Si Si3 0.658949 0.073999 0.657186
Si Si4 0.633499 0.612224 0.540039
Si Si5 0.915001 0.572671 0.980453
Si Si6 0.460325 0.500000 0.675038
Si Si7 0.923112 0.248629 0.603562
O O1 0.460272 0.128298 0.143942
O O2 0.503248 0.242398 0.257699
O O3 0.405765 0.211908 0.326789
O O4 0.403874 0.222834 0.831284
O O5 0.273928 0.099130 0.268557
O O6 0.178715 0.102310 0.391086
O O7 0.201575 0.000000 0.180984
O O8 0.165966 0.099202 0.866787
O O9 0.635712 0.081010 0.897591
O O10 0.666465 0.000000 0.641450
O O11 0.611332 0.087906 0.344055
O O12 0.581849 0.560457 0.407721
O O13 0.601640 0.679498 0.472228
O O14 0.935545 0.500000 0.028681
O O15 0.500000 0.500000 0.500000
O O16 0.500000 0.500000 0.000000
#
# Coordination Sequence:
#
# PCOD9188896 Si02
#       7
#     8   8   8   8   8   4   8
#     4  10  21  40  59  82 116 153 203 233 289 351
#     4  11  20  38  59  90 121 152 192 249 301 345
#     4   9  19  33  60  92 122 147 184 236 307 359
#     4  12  23  39  58  83 121 159 203 238 297 342
#     4  10  19  36  62  94 117 148 185 244 298 350
#     4  12  26  36  56  86 120 152 196 266 292 330
#     4  10  23  38  58  80 111 165 200 234 275 356
#
# _framework density 20.652941999999999
#
# number of rings (size 3 to 8) (size 9 to 14) (size 15 to 20)
#    0.000    1.538    1.538    3.692    4.308    2.462 
#    0.000    3.077    0.000   18.462    0.000    0.000 
#    0.000    0.000    0.000    0.000    0.000    0.000 
#
# Total GULP energy -145029.847404 kJ/mol
# GULP energy per Si atom -5578.071054 kJ/mol
# Density = 2.060593 g / cm^3
# Si number density = 20.652942 Si / 1000 Ang^3
#
#
#
# Elastic Constant Matrix: (Units=GPa)
#
#
# Indices 1 2 3 4 5 6 
#
# 1 78.5587 -0.2925 15.9035 0.0000 -13.8999 0.0000
# 2 -0.2925 117.8692 16.0995 0.0000 4.6788 0.0000
# 3 15.9035 16.0995 95.7060 0.0000 -33.9305 0.0000
# 4 0.0000 0.0000 0.0000 33.3064 0.0000 2.4265
# 5 -13.8999 4.6788 -33.9305 0.0000 36.9913 0.0000
# 6 0.0000 0.0000 0.0000 2.4265 0.0000 25.4578
#
#
#
# Elastic Compliance Matrix: (Units=1/GPa)
#
#
# Indices 1 2 3 4 5 6 
#
# 1 0.013665 -0.000058 -0.000649 0.000000 0.004547 0.000000
# 2 -0.000058 0.009022 -0.002846 0.000000 -0.003773 0.000000
# 3 -0.000649 -0.002846 0.016414 0.000000 0.015172 0.000000
# 4 0.000000 0.000000 0.000000 0.030234 0.000000 -0.002882
# 5 0.004547 -0.003773 0.015172 0.000000 0.043136 0.000000
# 6 0.000000 0.000000 0.000000 -0.002882 0.000000 0.039555
#
#
# Mechanical properties :
#
#
# Convention : Reuss Voigt Hill
#
# Bulk Modulus (GPa) = 31.25391 39.50611 35.38001
# Shear Modulus (GPa) = 29.44676 36.51265 32.97971
#
# Velocity S-wave (km/s) = 3.78006 4.20922 4.00040
# Velocity P-wave (km/s) = 5.84958 6.54167 6.20528
#
# Compressibility (1/GPa) = 0.03199600
#
# Stress axis : x y z
#
# Youngs Moduli (GPa) = 73.17964 110.83617 60.92285
#
# Poissons Ratio (x) = 0.00642 0.03954
# Poissons Ratio (y) = 0.00424 0.17338
# Poissons Ratio (z) = 0.04749 0.31542
#
# Static dielectric constant tensor:
#      x y z
#    x 0.943370 0.000000 -0.192260 
#    y 0.000000 1.738640 0.000000 
#    z -0.192260 0.000000 1.764490 
# 
# From -- ./inp_files/25715.got.cif
#   From: 2010.05.17/outbox.cif.g08.bks.cpg/sg12_13_cif.got.tgz:25715.got - 2010.06.03 13:09:07.
