data_PCOD9188607
_publ_section_title
;
Structure prediction by ZEFSAII (Michael W. Deem and Ramdas Pophale) SiO2 
 PCOD9188607
Probable space group: C 2/M
;
_chemical_formula_sum "Si O2"
_cell_formula_units_Z 56
_cell_length_a 20.619294
_cell_length_b 8.541086
_cell_length_c 19.325223
_cell_angle_alpha 90.000000
_cell_angle_beta 120.046241
_cell_angle_gamma 90.000000
_cell_volume 2946.045712
_symmetry_space_group_name_H-M "C 2/M"
_symmetry_group_IT_number 12
_symmetry_cell_setting 'monoclinic'
loop_
_space_group_symop_operation_xyz
x,y,z
-x,y,-z
-x,-y,-z
x,-y,z
1/2+x,1/2+y,z
1/2-x,1/2+y,-z
1/2-x,1/2-y,-z
1/2+x,1/2-y,z
loop_
_atom_site_type_symbol
_atom_site_label
_atom_site_fract_x
_atom_site_fract_y
_atom_site_fract_z
Si Si1 0.771935 0.187171 0.436849
Si Si2 0.856346 0.812472 0.731841
Si Si3 0.303333 0.309681 0.855077
Si Si4 0.582606 0.310530 0.567396
Si Si5 0.519731 0.812682 0.804951
Si Si6 0.935371 0.810626 0.021103
Si Si7 0.367418 0.189680 0.255911
O O1 0.750000 0.250000 0.500000
O O2 0.710046 0.243974 0.349436
O O3 0.853331 0.239858 0.452733
O O4 0.772305 0.000000 0.439315
O O5 0.843003 0.764147 0.804355
O O6 0.937023 0.755554 0.750199
O O7 0.853357 0.000000 0.727248
O O8 0.302560 0.500000 0.856327
O O9 0.217323 0.257138 0.806607
O O10 0.355768 0.259438 0.946429
O O11 0.500000 0.257882 0.500000
O O12 0.582285 0.500000 0.569201
O O13 0.605854 0.250562 0.655458
O O14 0.548133 0.758819 0.895272
O O15 0.576015 0.760978 0.774438
O O16 0.515743 0.000000 0.801391
O O17 0.936489 0.000000 0.027455
O O18 0.000000 0.768882 0.000000
O O19 0.366503 0.000000 0.258100
#
# Coordination Sequence:
#
# PCOD9188607 Si02
#       7
#     8   8   8   8   8   8   8
#     4  11  24  41  62  93 126 157 197 247 296 352
#     4  11  21  39  65  87 115 160 204 248 296 351
#     4   9  18  36  62  85 112 153 202 244 287 353
#     4  10  23  42  62  88 121 156 196 244 292 346
#     4  11  24  38  56  90 127 156 195 251 303 353
#     4  10  19  36  60  87 115 155 205 247 293 355
#     4  10  22  41  61  85 119 160 199 240 296 360
#
# _framework density 19.008531999999999
#
# number of rings (size 3 to 8) (size 9 to 14) (size 15 to 20)
#    0.000    1.714    2.857    1.286    2.000    2.857 
#    0.000    0.714    0.000    0.000    0.000    0.000 
#    0.000    0.000    0.000    0.000    0.000    0.000 
#
# Total GULP energy -156422.746633 kJ/mol
# GULP energy per Si atom -5586.526665 kJ/mol
# Density = 1.896527 g / cm^3
# Si number density = 19.008532 Si / 1000 Ang^3
#
#
#
# Elastic Constant Matrix: (Units=GPa)
#
#
# Indices 1 2 3 4 5 6 
#
# 1 184.2100 32.3830 75.6421 0.0000 8.5854 0.0000
# 2 32.3830 23.3629 21.3072 0.0000 -1.5119 0.0000
# 3 75.6421 21.3072 110.5759 0.0000 12.6992 0.0000
# 4 0.0000 0.0000 0.0000 35.0903 0.0000 1.4091
# 5 8.5854 -1.5119 12.6992 0.0000 42.0016 0.0000
# 6 0.0000 0.0000 0.0000 1.4091 0.0000 20.0493
#
#
#
# Elastic Compliance Matrix: (Units=1/GPa)
#
#
# Indices 1 2 3 4 5 6 
#
# 1 0.008645 -0.008153 -0.004254 0.000000 -0.000774 0.000000
# 2 -0.008153 0.060682 -0.006794 0.000000 0.005905 0.000000
# 3 -0.004254 -0.006794 0.013665 0.000000 -0.003507 0.000000
# 4 0.000000 0.000000 0.000000 0.028579 0.000000 -0.002009
# 5 -0.000774 0.005905 -0.003507 0.000000 0.025240 0.000000
# 6 0.000000 0.000000 0.000000 -0.002009 0.000000 0.050018
#
#
# Mechanical properties :
#
#
# Convention : Reuss Voigt Hill
#
# Bulk Modulus (GPa) = 22.42617 64.09039 43.25828
# Shear Modulus (GPa) = 20.82529 32.01599 26.42064
#
# Velocity S-wave (km/s) = 3.31354 4.10847 3.73223
# Velocity P-wave (km/s) = 5.14422 7.50306 6.43268
#
# Compressibility (1/GPa) = 0.04459077
#
# Stress axis : x y z
#
# Youngs Moduli (GPa) = 115.67970 16.47938 73.17856
#
# Poissons Ratio (x) = 0.13436 0.31127
# Poissons Ratio (y) = 0.94313 0.49717
# Poissons Ratio (z) = 0.49205 0.11196
#
# Static dielectric constant tensor:
#      x y z
#    x 1.658080 0.000000 0.008170 
#    y 0.000000 1.656140 0.000000 
#    z 0.008170 0.000000 1.626510 
# 
# From -- ./inp_files/275631.got.cif
#   From: 2010.05.17/outbox.cif.g08.bks.cpg/sg12_138_cif.got.tgz:275631.got - 2010.06.03 13:09:07.
