data_PCOD9188567
_publ_section_title
;
Structure prediction by ZEFSAII (Michael W. Deem and Ramdas Pophale) SiO2 
 PCOD9188567
Probable space group: C 2/M
;
_chemical_formula_sum "Si O2"
_cell_formula_units_Z 64
_cell_length_a 13.435152
_cell_length_b 13.139138
_cell_length_c 30.084333
_cell_angle_alpha 90.000000
_cell_angle_beta 33.016854
_cell_angle_gamma 90.000000
_cell_volume 2893.711740
_symmetry_space_group_name_H-M "C 2/M"
_symmetry_group_IT_number 12
_symmetry_cell_setting 'monoclinic'
loop_
_space_group_symop_operation_xyz
x,y,z
-x,y,-z
-x,-y,-z
x,-y,z
1/2+x,1/2+y,z
1/2-x,1/2+y,-z
1/2-x,1/2-y,-z
1/2+x,1/2-y,z
loop_
_atom_site_type_symbol
_atom_site_label
_atom_site_fract_x
_atom_site_fract_y
_atom_site_fract_z
Si Si1 0.822192 0.393589 0.818646
Si Si2 0.217416 0.765891 0.315253
Si Si3 0.811251 0.656120 0.046695
Si Si4 0.847155 0.381441 0.185936
Si Si5 0.426807 0.324442 0.787505
Si Si6 0.492691 0.884827 0.342868
Si Si7 0.553608 0.315948 0.067440
Si Si8 0.417916 0.384464 0.481589
O O1 0.843238 0.500000 0.835419
O O2 0.620949 0.387033 0.873127
O O3 0.841148 0.285199 0.833366
O O4 0.973881 0.388549 0.722492
O O5 0.308238 0.856114 0.252176
O O6 0.359870 0.700656 0.291294
O O7 0.140997 0.688877 0.307371
O O8 0.048373 0.811379 0.405278
O O9 0.656141 0.618837 0.139443
O O10 0.708846 0.630020 0.038470
O O11 0.128265 0.770678 0.993078
O O12 0.000000 0.620042 0.000000
O O13 0.903146 0.500000 0.158912
O O14 0.664402 0.364290 0.223526
O O15 0.975190 0.287780 0.121256
O O16 0.291528 0.851647 0.433248
O O17 0.518900 0.000000 0.349194
O O18 0.500000 0.389942 0.500000
O O19 0.419677 0.500000 0.462287
#
# Coordination Sequence:
#
# PCOD9188567 Si02
#       8
#     8   8   8   8   8   8   8   8
#     4  10  19  36  60  85 116 151 197 248 296 356
#     4  12  22  40  65  89 124 168 203 245 314 366
#     4  11  19  37  64  79 118 164 197 251 307 360
#     4  11  23  40  62  92 124 158 205 257 306 368
#     4  11  22  39  60  90 120 160 205 250 310 364
#     4  10  20  37  60  88 120 156 198 244 296 358
#     4  10  21  39  59  83 119 160 201 249 308 359
#     4  10  22  38  61  94 123 154 202 252 297 359
#
# _framework density 22.116921999999999
#
# number of rings (size 3 to 8) (size 9 to 14) (size 15 to 20)
#    0.000    1.375    6.250    1.500    0.000    2.500 
#    0.000    5.625    0.000    0.375    0.000    0.000 
#    0.000    0.000    0.000    0.000    0.000    0.000 
#
# Total GULP energy -178136.136431 kJ/mol
# GULP energy per Si atom -5566.754263 kJ/mol
# Density = 2.206658 g / cm^3
# Si number density = 22.116922 Si / 1000 Ang^3
#
#
#
# Elastic Constant Matrix: (Units=GPa)
#
#
# Indices 1 2 3 4 5 6 
#
# 1 68.3299 5.5330 2.7642 -0.0002 -12.5377 0.0001
# 2 5.5330 92.3116 7.5330 -0.0002 -1.8406 0.0001
# 3 2.7642 7.5330 86.8771 0.0015 -4.4749 -0.0007
# 4 -0.0002 -0.0002 0.0015 6.2448 0.0001 -1.7663
# 5 -12.5377 -1.8406 -4.4749 0.0001 36.3281 -0.0001
# 6 0.0001 0.0001 -0.0007 -1.7663 -0.0001 1.9626
#
#
#
# Elastic Compliance Matrix: (Units=1/GPa)
#
#
# Indices 1 2 3 4 5 6 
#
# 1 0.015690 -0.000821 -0.000152 0.000000 0.005355 0.000000
# 2 -0.000821 0.010960 -0.000916 0.000000 0.000159 -0.000001
# 3 -0.000152 -0.000916 0.011664 -0.000002 0.001338 0.000003
# 4 0.000000 0.000000 -0.000002 0.214812 -0.000001 0.193325
# 5 0.005355 0.000159 0.001338 -0.000001 0.029548 0.000001
# 6 0.000000 -0.000001 0.000003 0.193325 0.000001 0.683524
#
#
# Mechanical properties :
#
#
# Convention : Reuss Voigt Hill
#
# Bulk Modulus (GPa) = 28.95624 31.01988 29.98806
# Shear Modulus (GPa) = 5.09430 24.35300 14.72365
#
# Velocity S-wave (km/s) = 1.51933 3.32189 2.58295
# Velocity P-wave (km/s) = 4.02475 5.36368 4.74171
#
# Compressibility (1/GPa) = 0.03453487
#
# Stress axis : x y z
#
# Youngs Moduli (GPa) = 63.73466 91.24066 85.73621
#
# Poissons Ratio (x) = 0.07493 0.01305
# Poissons Ratio (y) = 0.05234 0.07854
# Poissons Ratio (z) = 0.00970 0.08358
#
# Static dielectric constant tensor:
#      x y z
#    x 1.847390 0.000000 -0.012400 
#    y 0.000000 1.910810 0.000000 
#    z -0.012400 0.000000 1.880680 
# 
# From -- ./inp_files/374085.got.cif
#   From: 2010.05.17/outbox.cif.g08.bks.cpg/sg12_188_cif.got.tgz:374085.got - 2010.06.03 13:09:07.
