data_PCOD9188179
_publ_section_title
;
Structure prediction by ZEFSAII (Michael W. Deem and Ramdas Pophale) SiO2 
 PCOD9188179
Probable space group: C 2/M
;
_chemical_formula_sum "Si O2"
_cell_formula_units_Z 24
_cell_length_a 9.524956
_cell_length_b 12.940928
_cell_length_c 7.155897
_cell_angle_alpha 90.000000
_cell_angle_beta 68.617513
_cell_angle_gamma 90.000000
_cell_volume 821.334747
_symmetry_space_group_name_H-M "C 2/M"
_symmetry_group_IT_number 12
_symmetry_cell_setting 'monoclinic'
loop_
_space_group_symop_operation_xyz
x,y,z
-x,y,-z
-x,-y,-z
x,-y,z
1/2+x,1/2+y,z
1/2-x,1/2+y,-z
1/2-x,1/2-y,-z
1/2+x,1/2-y,z
loop_
_atom_site_type_symbol
_atom_site_label
_atom_site_fract_x
_atom_site_fract_y
_atom_site_fract_z
Si Si1 0.049651 0.314543 0.770633
Si Si2 0.224595 0.123208 0.846292
Si Si3 0.859963 0.881497 0.682140
O O1 0.115536 0.199154 0.783796
O O2 0.204487 0.371344 0.642183
O O3 0.898505 0.342955 0.731254
O O4 0.000000 0.356193 0.000000
O O5 0.204189 0.000000 0.826039
O O6 0.183314 0.148562 0.084031
O O7 0.000000 0.834237 0.500000
O O8 0.899002 0.000000 0.687404
#
# Coordination Sequence:
#
# PCOD9188179 Si02
#       3
#     8   8   8
#     4  10  19  36  57  81 111 147 188 227 274 330
#     4  10  21  38  59  83 112 147 188 230 274 330
#     4   9  17  31  54  83 112 144 183 228 278 328
#
# _framework density 29.220727
#
# number of rings (size 3 to 8) (size 9 to 14) (size 15 to 20)
#    0.000    2.333    0.000    5.000    0.000    4.667 
#    0.000   18.333    0.000    1.000    0.000    0.000 
#    0.000   34.667    0.000    0.000    0.000    0.000 
#
# Total GULP energy -67150.611624 kJ/mol
# GULP energy per Si atom -5595.884302 kJ/mol
# Density = 2.915422 g / cm^3
# Si number density = 29.220727 Si / 1000 Ang^3
#
#
#
# Elastic Constant Matrix: (Units=GPa)
#
#
# Indices 1 2 3 4 5 6 
#
# 1 178.8736 -8.0825 77.1990 0.0000 -19.7361 0.0000
# 2 -8.0825 146.8819 42.6161 0.0000 8.1230 0.0000
# 3 77.1990 42.6161 207.2374 0.0000 -43.5420 0.0000
# 4 0.0000 0.0000 0.0000 49.8796 0.0000 -8.3095
# 5 -19.7361 8.1230 -43.5420 0.0000 64.9283 0.0000
# 6 0.0000 0.0000 0.0000 -8.3095 0.0000 15.6771
#
#
#
# Elastic Compliance Matrix: (Units=1/GPa)
#
#
# Indices 1 2 3 4 5 6 
#
# 1 0.006851 0.001180 -0.002780 0.000000 0.000071 0.000000
# 2 0.001180 0.007728 -0.002510 0.000000 -0.002292 0.000000
# 3 -0.002780 -0.002510 0.007293 0.000000 0.004360 0.000000
# 4 0.000000 0.000000 0.000000 0.021990 0.000000 0.011656
# 5 0.000071 -0.002292 0.004360 0.000000 0.018634 0.000000
# 6 0.000000 0.000000 0.000000 0.011656 0.000000 0.069965
#
#
# Mechanical properties :
#
#
# Convention : Reuss Voigt Hill
#
# Bulk Modulus (GPa) = 73.24986 84.05089 78.65038
# Shear Modulus (GPa) = 34.42732 54.18101 44.30417
#
# Velocity S-wave (km/s) = 3.43619 4.31071 3.89805
# Velocity P-wave (km/s) = 6.39260 7.32140 6.87271
#
# Compressibility (1/GPa) = 0.01365190
#
# Stress axis : x y z
#
# Youngs Moduli (GPa) = 145.95443 129.39745 137.11377
#
# Poissons Ratio (x) = -0.15265 0.38118
# Poissons Ratio (y) = -0.17218 0.34417
# Poissons Ratio (z) = 0.40575 0.32481
#
# Static dielectric constant tensor:
#      x y z
#    x 2.426310 0.000000 0.012330 
#    y 0.000000 2.294780 0.000000 
#    z 0.012330 0.000000 2.297480 
# 
# From -- ./inp_files/44114.got.cif
#   From: 2010.05.17/outbox.cif.g08.bks.cpg/sg12_23_cif.got.tgz:44114.got - 2010.06.03 13:09:07.
