data_PCOD9188738
_publ_section_title
;
Structure prediction by ZEFSAII (Michael W. Deem and Ramdas Pophale) SiO2 
 PCOD9188738
Probable space group: C 2/M
;
_chemical_formula_sum "Si O2"
_cell_formula_units_Z 56
_cell_length_a 14.812055
_cell_length_b 14.186602
_cell_length_c 27.702005
_cell_angle_alpha 90.000000
_cell_angle_beta 151.811357
_cell_angle_gamma 90.000000
_cell_volume 2749.747333
_symmetry_space_group_name_H-M "C 2/M"
_symmetry_group_IT_number 12
_symmetry_cell_setting 'monoclinic'
loop_
_space_group_symop_operation_xyz
x,y,z
-x,y,-z
-x,-y,-z
x,-y,z
1/2+x,1/2+y,z
1/2-x,1/2+y,-z
1/2-x,1/2-y,-z
1/2+x,1/2-y,z
loop_
_atom_site_type_symbol
_atom_site_label
_atom_site_fract_x
_atom_site_fract_y
_atom_site_fract_z
Si Si1 0.215120 0.610836 0.227274
Si Si2 0.189201 0.246548 0.055876
Si Si3 0.451507 0.605557 0.426960
Si Si4 0.809140 0.394792 0.438401
Si Si5 0.739856 0.890579 0.996074
Si Si6 0.550921 0.742458 0.733281
Si Si7 0.333009 0.850499 0.556057
O O1 0.273571 0.500000 0.249478
O O2 0.305598 0.648106 0.319954
O O3 0.302265 0.673529 0.225755
O O4 0.987934 0.613881 0.121557
O O5 0.162155 0.166066 0.001975
O O6 0.356059 0.225247 0.172979
O O7 0.254390 0.336304 0.054133
O O8 0.000000 0.260942 0.000000
O O9 0.500000 0.654806 0.500000
O O10 0.376887 0.500000 0.403024
O O11 0.653739 0.599827 0.495919
O O12 0.739942 0.500000 0.392734
O O13 0.641203 0.319559 0.350997
O O14 0.875637 0.396997 0.525511
O O15 0.000000 0.372452 0.500000
O O16 0.797602 0.000000 0.025756
O O17 0.495552 0.828311 0.671522
O O18 0.250000 0.750000 0.500000
#
# Coordination Sequence:
#
# PCOD9188738 Si02
#       7
#     8   8   8   8   8   8   8
#     4  10  19  36  61  87 117 156 208 265 314 369
#     4  11  24  45  68  97 130 166 217 271 327 392
#     4  10  20  33  53  81 115 153 196 245 297 358
#     4  10  21  38  57  83 123 168 209 250 302 369
#     4  10  24  44  68  97 128 165 213 271 330 390
#     4  11  22  37  60  89 119 163 205 261 315 372
#     4  10  20  33  50  79 113 151 193 237 295 354
#
# _framework density 20.365507999999998
#
# number of rings (size 3 to 8) (size 9 to 14) (size 15 to 20)
#    0.000    1.714    4.286    0.857    2.000    5.143 
#    0.000    0.714    0.000    0.000    0.000    0.000 
#    0.000    0.000    0.000    0.000    0.000    0.000 
#
# Total GULP energy -156177.064544 kJ/mol
# GULP energy per Si atom -5577.752305 kJ/mol
# Density = 2.031915 g / cm^3
# Si number density = 20.365508 Si / 1000 Ang^3
#
#
#
# Elastic Constant Matrix: (Units=GPa)
#
#
# Indices 1 2 3 4 5 6 
#
# 1 105.2049 -0.1024 21.8279 -0.0004 -14.2976 0.0001
# 2 -0.1024 61.4075 -5.0876 -0.0005 -5.1354 0.0001
# 3 21.8279 -5.0876 75.5641 -0.0019 -26.1119 0.0003
# 4 -0.0004 -0.0005 -0.0019 23.3194 -0.0002 2.7018
# 5 -14.2976 -5.1354 -26.1119 -0.0002 29.7462 0.0002
# 6 0.0001 0.0001 0.0003 2.7018 0.0002 12.9902
#
#
#
# Elastic Compliance Matrix: (Units=1/GPa)
#
#
# Indices 1 2 3 4 5 6 
#
# 1 0.010343 0.000155 -0.001794 0.000000 0.003423 0.000000
# 2 0.000155 0.017017 0.003075 0.000001 0.005711 0.000000
# 3 -0.001794 0.003075 0.019873 0.000002 0.017113 -0.000001
# 4 0.000000 0.000001 0.000002 0.043942 0.000002 -0.009139
# 5 0.003423 0.005711 0.017113 0.000002 0.051271 -0.000002
# 6 0.000000 0.000000 -0.000001 -0.009139 -0.000002 0.078882
#
#
# Mechanical properties :
#
#
# Convention : Reuss Voigt Hill
#
# Bulk Modulus (GPa) = 19.95897 30.60582 25.28239
# Shear Modulus (GPa) = 21.26227 28.24708 24.75467
#
# Velocity S-wave (km/s) = 3.23466 3.72829 3.49021
# Velocity P-wave (km/s) = 4.87569 5.79607 5.35569
#
# Compressibility (1/GPa) = 0.05010278
#
# Stress axis : x y z
#
# Youngs Moduli (GPa) = 96.68467 58.76382 50.32015
#
# Poissons Ratio (x) = -0.00910 0.09030
# Poissons Ratio (y) = -0.01497 -0.15471
# Poissons Ratio (z) = 0.17350 -0.18068
#
# Static dielectric constant tensor:
#      x y z
#    x 1.613430 0.000000 -0.003390 
#    y 0.000000 1.762160 0.000000 
#    z -0.003390 0.000000 1.725150 
# 
# From -- ./inp_files/361459.got.cif
#   From: 2010.05.17/outbox.cif.g08.bks.cpg/sg12_181_cif.got.tgz:361459.got - 2010.06.03 13:09:07.
