data_PCOD9188963
_publ_section_title
;
Structure prediction by ZEFSAII (Michael W. Deem and Ramdas Pophale) SiO2 
 PCOD9188963
Probable space group: C 2/M
;
_chemical_formula_sum "Si O2"
_cell_formula_units_Z 58
_cell_length_a 21.311177
_cell_length_b 7.905474
_cell_length_c 21.108557
_cell_angle_alpha 90.000000
_cell_angle_beta 54.615532
_cell_angle_gamma 90.000000
_cell_volume 2899.367336
_symmetry_space_group_name_H-M "C 2/M"
_symmetry_group_IT_number 12
_symmetry_cell_setting 'monoclinic'
loop_
_space_group_symop_operation_xyz
x,y,z
-x,y,-z
-x,-y,-z
x,-y,z
1/2+x,1/2+y,z
1/2-x,1/2+y,-z
1/2-x,1/2-y,-z
1/2+x,1/2-y,z
loop_
_atom_site_type_symbol
_atom_site_label
_atom_site_fract_x
_atom_site_fract_y
_atom_site_fract_z
Si Si1 0.414870 0.699296 0.538397
Si Si2 0.482352 0.200390 0.295302
Si Si3 0.580704 0.301157 0.121835
Si Si4 0.884052 0.697768 0.690592
Si Si5 0.715106 0.701950 0.135560
Si Si6 0.838535 0.202201 0.454811
Si Si7 0.500000 0.500000 0.000000
Si Si8 0.604353 0.806033 0.971684
O O1 0.500000 0.773625 0.500000
O O2 0.424518 0.500000 0.520399
O O3 0.371391 0.719019 0.630239
O O4 0.372155 0.770022 0.502008
O O5 0.512645 0.280083 0.212533
O O6 0.539115 0.265038 0.318435
O O7 0.395409 0.233860 0.366600
O O8 0.495422 0.000000 0.282218
O O9 0.587899 0.500000 0.101091
O O10 0.658128 0.239839 0.112669
O O11 0.569568 0.205064 0.062954
O O12 0.895237 0.500000 0.672356
O O13 0.816409 0.723374 0.780574
O O14 0.703428 0.500000 0.145856
O O15 0.804744 0.732318 0.073518
O O16 0.750000 0.250000 0.500000
O O17 0.843126 0.000000 0.451636
O O18 0.565503 0.653018 0.956601
O O19 0.595964 0.000000 0.952392
#
# Coordination Sequence:
#
# PCOD9188963 Si02
#       8
#     8   8   8   8   8   8   2   8
#     4  10  20  36  59  83 113 154 202 249 303 369
#     4  10  20  35  56  88 123 157 196 248 307 371
#     4  10  19  36  63  96 127 158 199 256 318 375
#     4  10  20  32  56  91 123 154 193 249 309 367
#     4   9  20  36  61  93 129 159 195 256 320 369
#     4  11  23  39  59  83 115 158 201 253 311 371
#     4  12  26  44  64  86 124 176 220 252 296 378
#     4  11  23  42  65  93 124 168 217 258 307 367
#
# _framework density 20.004363999999999
#
# number of rings (size 3 to 8) (size 9 to 14) (size 15 to 20)
#    0.000    1.793    2.069    2.276    0.966    3.034 
#    0.000    1.379    0.000    3.310    0.000    0.000 
#    0.000    0.000    0.000    0.000    0.000    0.000 
#
# Total GULP energy -161630.117270 kJ/mol
# GULP energy per Si atom -5573.452320 kJ/mol
# Density = 1.995883 g / cm^3
# Si number density = 20.004364 Si / 1000 Ang^3
#
#
#
# Elastic Constant Matrix: (Units=GPa)
#
#
# Indices 1 2 3 4 5 6 
#
# 1 63.5794 16.5947 28.3725 0.0001 -16.9987 0.0002
# 2 16.5947 73.6420 1.7608 0.0007 -4.8231 0.0003
# 3 28.3725 1.7608 72.1651 -0.0001 -13.2964 -0.0002
# 4 0.0001 0.0007 -0.0001 18.4148 0.0000 -7.2432
# 5 -16.9987 -4.8231 -13.2964 0.0000 22.8077 0.0003
# 6 0.0002 0.0003 -0.0002 -7.2432 0.0003 23.9089
#
#
#
# Elastic Compliance Matrix: (Units=1/GPa)
#
#
# Indices 1 2 3 4 5 6 
#
# 1 0.023158 -0.004243 -0.006707 0.000000 0.012453 0.000000
# 2 -0.004243 0.014550 0.001453 -0.000001 0.000762 0.000000
# 3 -0.006707 0.001453 0.017471 0.000000 0.005494 0.000000
# 4 0.000000 -0.000001 0.000000 0.061650 0.000000 0.018677
# 5 0.012453 0.000762 0.005494 0.000000 0.056490 -0.000001
# 6 0.000000 0.000000 0.000000 0.018677 -0.000001 0.047484
#
#
# Mechanical properties :
#
#
# Convention : Reuss Voigt Hill
#
# Bulk Modulus (GPa) = 27.63415 33.64918 30.64166
# Shear Modulus (GPa) = 19.85249 23.87017 21.86133
#
# Velocity S-wave (km/s) = 3.15367 3.45809 3.30938
# Velocity P-wave (km/s) = 5.20623 5.72730 5.47297
#
# Compressibility (1/GPa) = 0.03618711
#
# Stress axis : x y z
#
# Youngs Moduli (GPa) = 43.18148 68.72655 57.23843
#
# Poissons Ratio (x) = 0.29158 0.38390
# Poissons Ratio (y) = 0.18320 -0.08319
# Poissons Ratio (z) = 0.28962 -0.09989
#
# Static dielectric constant tensor:
#      x y z
#    x 1.739650 0.000000 0.007410 
#    y 0.000000 1.713460 0.000000 
#    z 0.007410 0.000000 1.704960 
# 
# From -- ./inp_files/314758.got.cif
#   From: 2010.05.17/outbox.cif.g08.bks.cpg/sg12_158_cif.got.tgz:314758.got - 2010.06.03 13:09:07.
