data_PCOD9188848
_publ_section_title
;
Structure prediction by ZEFSAII (Michael W. Deem and Ramdas Pophale) SiO2 
 PCOD9188848
Probable space group: C 2/M
;
_chemical_formula_sum "Si O2"
_cell_formula_units_Z 48
_cell_length_a 27.784182
_cell_length_b 8.660310
_cell_length_c 17.290889
_cell_angle_alpha 90.000000
_cell_angle_beta 143.367608
_cell_angle_gamma 90.000000
_cell_volume 2482.497813
_symmetry_space_group_name_H-M "C 2/M"
_symmetry_group_IT_number 12
_symmetry_cell_setting 'monoclinic'
loop_
_space_group_symop_operation_xyz
x,y,z
-x,y,-z
-x,-y,-z
x,-y,z
1/2+x,1/2+y,z
1/2-x,1/2+y,-z
1/2-x,1/2-y,-z
1/2+x,1/2-y,z
loop_
_atom_site_type_symbol
_atom_site_label
_atom_site_fract_x
_atom_site_fract_y
_atom_site_fract_z
Si Si1 0.647606 0.685094 0.017902
Si Si2 0.267701 0.316517 0.607191
Si Si3 0.176260 0.186220 0.773687
Si Si4 0.949601 0.812102 0.256591
Si Si5 0.906577 0.315221 0.887356
Si Si6 0.872151 0.186353 0.464078
O O1 0.645319 0.500000 0.021947
O O2 0.583527 0.734681 0.869862
O O3 0.736567 0.736722 0.106513
O O4 0.627566 0.758829 0.074530
O O5 0.268792 0.500000 0.605514
O O6 0.250000 0.250000 0.500000
O O7 0.352078 0.256112 0.749842
O O8 0.198376 0.260088 0.576402
O O9 0.114015 0.236098 0.759681
O O10 0.141063 0.221934 0.643317
O O11 0.185680 0.000000 0.790636
O O12 0.039956 0.761815 0.393351
O O13 0.950557 0.000000 0.259180
O O14 0.900507 0.500000 0.875801
O O15 0.000000 0.270097 0.000000
O O16 0.867196 0.000000 0.465700
#
# Coordination Sequence:
#
# PCOD9188848 Si02
#       6
#     8   8   8   8   8   8
#     4  11  22  37  59  89 127 163 204 253 307 367
#     4  12  26  44  67  94 126 161 203 252 310 370
#     4  10  19  36  62  87 121 165 210 254 302 361
#     4   9  20  36  58  91 123 164 211 250 299 363
#     4  11  25  45  67  92 122 159 207 257 312 371
#     4  10  20  38  63  90 123 163 208 255 305 360
#
# _framework density 19.335364999999999
#
# number of rings (size 3 to 8) (size 9 to 14) (size 15 to 20)
#    0.000    1.500    1.667    3.500    2.333    3.333 
#    0.000    2.500    0.000    2.000    0.000    0.000 
#    0.000    0.000    0.000    0.000    0.000    0.000 
#
# Total GULP energy -134196.540921 kJ/mol
# GULP energy per Si atom -5591.522538 kJ/mol
# Density = 1.929136 g / cm^3
# Si number density = 19.335365 Si / 1000 Ang^3
#
#
#
# Elastic Constant Matrix: (Units=GPa)
#
#
# Indices 1 2 3 4 5 6 
#
# 1 73.8138 26.5131 39.4930 0.0000 -3.8632 0.0000
# 2 26.5131 39.8017 38.5241 0.0000 -2.4312 0.0000
# 3 39.4930 38.5241 145.3994 0.0000 -0.8931 0.0000
# 4 0.0000 0.0000 0.0000 22.1729 0.0000 -9.2141
# 5 -3.8632 -2.4312 -0.8931 0.0000 39.9991 0.0000
# 6 0.0000 0.0000 0.0000 -9.2141 0.0000 -7.3660
#
#
#
# Elastic Compliance Matrix: (Units=1/GPa)
#
#
# Indices 1 2 3 4 5 6 
#
# 1 0.018438 -0.009916 -0.002374 0.000000 0.001125 0.000000
# 2 -0.009916 0.039261 -0.007701 0.000000 0.001257 0.000000
# 3 -0.002374 -0.007701 0.009560 0.000000 -0.000484 0.000000
# 4 0.000000 0.000000 0.000000 0.029675 0.000000 -0.037120
# 5 0.001125 0.001257 -0.000484 0.000000 0.025175 0.000000
# 6 0.000000 0.000000 0.000000 -0.037120 0.000000 -0.089326
#
#
# Mechanical properties :
#
#
# Convention : Reuss Voigt Hill
#
# Bulk Modulus (GPa) = 36.66127 52.00838 44.33482
# Shear Modulus (GPa) = 61.08216 21.26017 41.17117
#
# Velocity S-wave (km/s) = 5.62668 3.31954 4.61946
# Velocity P-wave (km/s) = 7.82397 6.45360 7.17159
#
# Compressibility (1/GPa) = 0.02727674
#
# Stress axis : x y z
#
# Youngs Moduli (GPa) = 54.23484 25.47087 104.60331
#
# Poissons Ratio (x) = 0.25256 0.24833
# Poissons Ratio (y) = 0.53778 0.80557
# Poissons Ratio (z) = 0.12876 0.19616
#
# Static dielectric constant tensor:
#      x y z
#    x 1.639150 0.000000 -0.000820 
#    y 0.000000 1.652920 0.000000 
#    z -0.000820 0.000000 1.664750 
# 
# From -- ./inp_files/280798.got.cif
#   From: 2010.05.17/outbox.cif.g08.bks.cpg/sg12_141_cif.got.tgz:280798.got - 2010.06.03 13:09:07.
