data_PCOD9188846
_publ_section_title
;
Structure prediction by ZEFSAII (Michael W. Deem and Ramdas Pophale) SiO2 
 PCOD9188846
Probable space group: C 2/M
;
_chemical_formula_sum "Si O2"
_cell_formula_units_Z 58
_cell_length_a 24.996111
_cell_length_b 9.455562
_cell_length_c 12.853230
_cell_angle_alpha 90.000000
_cell_angle_beta 95.701168
_cell_angle_gamma 90.000000
_cell_volume 3022.863395
_symmetry_space_group_name_H-M "C 2/M"
_symmetry_group_IT_number 12
_symmetry_cell_setting 'monoclinic'
loop_
_space_group_symop_operation_xyz
x,y,z
-x,y,-z
-x,-y,-z
x,-y,z
1/2+x,1/2+y,z
1/2-x,1/2+y,-z
1/2-x,1/2-y,-z
1/2+x,1/2-y,z
loop_
_atom_site_type_symbol
_atom_site_label
_atom_site_fract_x
_atom_site_fract_y
_atom_site_fract_z
Si Si1 0.505203 0.256503 0.667130
Si Si2 0.823310 0.170779 0.787544
Si Si3 0.885364 0.836433 0.600806
Si Si4 0.000000 0.500000 0.500000
Si Si5 0.651719 0.666698 0.975960
Si Si6 0.376794 0.336874 0.367939
Si Si7 0.199675 0.331092 0.801028
Si Si8 0.026970 0.166766 0.895034
O O1 0.448942 0.331584 0.631894
O O2 0.504729 0.121597 0.592578
O O3 0.560304 0.336192 0.649246
O O4 0.508095 0.242093 0.792953
O O5 0.854607 0.228719 0.693340
O O6 0.759940 0.199996 0.773763
O O7 0.830145 0.000000 0.787366
O O8 0.846096 0.215033 0.903926
O O9 0.872413 0.776946 0.484447
O O10 0.868937 0.000000 0.590572
O O11 0.667250 0.500000 0.974442
O O12 0.689696 0.759876 0.910768
O O13 0.591021 0.677150 0.921836
O O14 0.357993 0.500000 0.357536
O O15 0.343274 0.239579 0.284166
O O16 0.192924 0.500000 0.805229
O O17 0.013681 0.000000 0.871372
O O18 0.000000 0.203635 0.000000
#
# Coordination Sequence:
#
# PCOD9188846 Si02
#       8
#     8   8   8   2   8   8   8   8
#     4  12  22  39  61  87 127 160 204 245 311 368
#     4   9  20  38  60  89 118 155 199 251 310 360
#     4  10  20  37  63  88 115 149 197 257 306 354
#     4  12  28  40  60  88 128 180 206 242 300 394
#     4  10  19  36  62  87 118 153 201 255 297 359
#     4  11  22  37  62  92 118 152 208 255 298 359
#     4  11  23  37  59  85 122 164 202 246 306 367
#     4  10  20  35  62  97 121 150 198 259 318 363
#
# _framework density 19.187106
#
# number of rings (size 3 to 8) (size 9 to 14) (size 15 to 20)
#    0.000    1.517    2.759    2.897    0.966    3.862 
#    0.000    1.034    7.586    0.000    0.000    0.000 
#    0.000    0.000    0.000    0.000    0.000    0.000 
#
# Total GULP energy -161556.303043 kJ/mol
# GULP energy per Si atom -5570.907001 kJ/mol
# Density = 1.914343 g / cm^3
# Si number density = 19.187106 Si / 1000 Ang^3
#
#
#
# Elastic Constant Matrix: (Units=GPa)
#
#
# Indices 1 2 3 4 5 6 
#
# 1 33.7181 19.9321 41.4317 0.0000 -2.1545 0.0000
# 2 19.9321 57.5740 40.9775 0.0000 -2.5416 0.0000
# 3 41.4317 40.9775 175.2870 0.0000 -14.9954 0.0000
# 4 0.0000 0.0000 0.0000 26.2708 0.0000 -1.0200
# 5 -2.1545 -2.5416 -14.9954 0.0000 18.2040 0.0000
# 6 0.0000 0.0000 0.0000 -1.0200 0.0000 161.8539
#
#
#
# Elastic Compliance Matrix: (Units=1/GPa)
#
#
# Indices 1 2 3 4 5 6 
#
# 1 0.046180 -0.009794 -0.008902 0.000000 -0.003235 0.000000
# 2 -0.009794 0.022937 -0.003090 0.000000 -0.000502 0.000000
# 3 -0.008902 -0.003090 0.009042 0.000000 0.005963 0.000000
# 4 0.000000 0.000000 0.000000 0.038074 0.000000 0.000240
# 5 -0.003235 -0.000502 0.005963 0.000000 0.059392 0.000000
# 6 0.000000 0.000000 0.000000 0.000240 0.000000 0.006180
#
#
# Mechanical properties :
#
#
# Convention : Reuss Voigt Hill
#
# Bulk Modulus (GPa) = 28.91421 52.36242 40.63832
# Shear Modulus (GPa) = 21.10543 52.21490 36.66016
#
# Velocity S-wave (km/s) = 3.32019 5.22232 4.37586
# Velocity P-wave (km/s) = 5.45899 7.98205 6.83790
#
# Compressibility (1/GPa) = 0.03458507
#
# Stress axis : x y z
#
# Youngs Moduli (GPa) = 21.65455 43.59815 110.59947
#
# Poissons Ratio (x) = 0.42700 0.98461
# Poissons Ratio (y) = 0.21209 0.34175
# Poissons Ratio (z) = 0.19278 0.13472
#
# Static dielectric constant tensor:
#      x y z
#    x 1.662580 0.000000 -0.018490 
#    y 0.000000 1.646750 0.000000 
#    z -0.018490 0.000000 1.707230 
# 
# From -- ./inp_files/180924.got.cif
#   From: 2010.05.17/outbox.cif.g08.bks.cpg/sg12_91_cif.got.tgz:180924.got - 2010.06.03 13:09:07.
