data_PCOD9188950
_publ_section_title
;
Structure prediction by ZEFSAII (Michael W. Deem and Ramdas Pophale) SiO2 
 PCOD9188950
Probable space group: C 2/M
;
_chemical_formula_sum "Si O2"
_cell_formula_units_Z 56
_cell_length_a 14.187030
_cell_length_b 18.144850
_cell_length_c 12.033681
_cell_angle_alpha 90.000000
_cell_angle_beta 110.687727
_cell_angle_gamma 90.000000
_cell_volume 2897.986199
_symmetry_space_group_name_H-M "C 2/M"
_symmetry_group_IT_number 12
_symmetry_cell_setting 'monoclinic'
loop_
_space_group_symop_operation_xyz
x,y,z
-x,y,-z
-x,-y,-z
x,-y,z
1/2+x,1/2+y,z
1/2-x,1/2+y,-z
1/2-x,1/2-y,-z
1/2+x,1/2-y,z
loop_
_atom_site_type_symbol
_atom_site_label
_atom_site_fract_x
_atom_site_fract_y
_atom_site_fract_z
Si Si1 0.875673 0.650155 0.200115
Si Si2 0.251178 0.627977 0.432411
Si Si3 0.879857 0.586087 0.439308
Si Si4 0.214160 0.412564 0.057452
Si Si5 0.424326 0.918005 0.799180
Si Si6 0.364735 0.682138 0.267846
Si Si7 0.541048 0.579554 0.391963
O O1 0.853359 0.603826 0.301723
O O2 0.862403 0.735417 0.223112
O O3 0.991396 0.635872 0.211898
O O4 0.807347 0.622576 0.070428
O O5 0.173021 0.644292 0.499436
O O6 0.176260 0.583771 0.318745
O O7 0.311520 0.678328 0.368287
O O8 0.340772 0.590655 0.539996
O O9 0.855638 0.500000 0.456948
O O10 0.000000 0.593473 0.500000
O O11 0.233306 0.500000 0.058564
O O12 0.115039 0.402871 0.093722
O O13 0.301400 0.370576 0.159957
O O14 0.469067 0.000000 0.812721
O O15 0.476892 0.647177 0.317466
O O16 0.500000 0.574233 0.500000
O O17 0.520887 0.500000 0.328147
#
# Coordination Sequence:
#
# PCOD9188950 Si02
#       7
#     8   8   8   8   8   8   8
#     4  12  23  37  56  89 129 161 191 244 315 376
#     4  10  20  38  61  86 120 158 204 247 292 351
#     4  11  22  36  58  89 126 164 198 245 302 364
#     4  10  21  40  67  90 113 156 211 258 297 352
#     4  10  19  36  63  93 119 152 204 258 301 353
#     4  10  23  39  58  89 125 160 202 250 302 353
#     4   9  17  34  60  85 112 154 207 251 283 335
#
# _framework density 19.323764000000001
#
# number of rings (size 3 to 8) (size 9 to 14) (size 15 to 20)
#    0.000    1.714    1.429    3.857    0.000    8.000 
#    5.143    0.000    0.000    0.000    0.000    3.000 
#    0.000    0.000    0.000    0.000    0.000    0.000 
#
# Total GULP energy -156036.156643 kJ/mol
# GULP energy per Si atom -5572.719880 kJ/mol
# Density = 1.927978 g / cm^3
# Si number density = 19.323764 Si / 1000 Ang^3
#
#
#
# Elastic Constant Matrix: (Units=GPa)
#
#
# Indices 1 2 3 4 5 6 
#
# 1 82.0054 36.4147 29.5805 0.0000 3.2672 0.0000
# 2 36.4147 100.1188 35.7312 0.0000 -7.4169 0.0000
# 3 29.5805 35.7312 115.9826 0.0000 -11.0914 0.0000
# 4 0.0000 0.0000 0.0000 60.0634 0.0000 9.3122
# 5 3.2672 -7.4169 -11.0914 0.0000 30.3870 0.0000
# 6 0.0000 0.0000 0.0000 9.3122 0.0000 467.8015
#
#
#
# Elastic Compliance Matrix: (Units=1/GPa)
#
#
# Indices 1 2 3 4 5 6 
#
# 1 0.015562 -0.004943 -0.002820 0.000000 -0.003909 0.000000
# 2 -0.004943 0.012861 -0.002435 0.000000 0.002782 0.000000
# 3 -0.002820 -0.002435 0.010428 0.000000 0.003515 0.000000
# 4 0.000000 0.000000 0.000000 0.016701 0.000000 -0.000332
# 5 -0.003909 0.002782 0.003515 0.000000 0.035291 0.000000
# 6 0.000000 0.000000 0.000000 -0.000332 0.000000 0.002144
#
#
# Mechanical properties :
#
#
# Convention : Reuss Voigt Hill
#
# Bulk Modulus (GPa) = 54.18968 55.72884 54.95926
# Shear Modulus (GPa) = 41.82826 124.74239 83.28532
#
# Velocity S-wave (km/s) = 4.65758 8.04326 6.57218
# Velocity P-wave (km/s) = 7.55168 10.73130 9.27871
#
# Compressibility (1/GPa) = 0.01845370
#
# Stress axis : x y z
#
# Youngs Moduli (GPa) = 64.25737 77.75202 95.89917
#
# Poissons Ratio (x) = 0.38436 0.27043
# Poissons Ratio (y) = 0.31765 0.23356
# Poissons Ratio (z) = 0.18120 0.18936
#
# Static dielectric constant tensor:
#      x y z
#    x 1.730870 0.000000 0.012350 
#    y 0.000000 1.673690 0.000000 
#    z 0.012350 0.000000 1.699230 
# 
# From -- ./inp_files/145644.got.cif
#   From: 2010.05.17/outbox.cif.g08.bks.cpg/sg12_73_cif.got.tgz:145644.got - 2010.06.03 13:09:07.
