data_PCOD9188107
_publ_section_title
;
Structure prediction by ZEFSAII (Michael W. Deem and Ramdas Pophale) SiO2 
 PCOD9188107
Probable space group: C 2/M
;
_chemical_formula_sum "Si O2"
_cell_formula_units_Z 56
_cell_length_a 27.241397
_cell_length_b 12.814812
_cell_length_c 22.069218
_cell_angle_alpha 90.000000
_cell_angle_beta 21.052303
_cell_angle_gamma 90.000000
_cell_volume 2767.509380
_symmetry_space_group_name_H-M "C 2/M"
_symmetry_group_IT_number 12
_symmetry_cell_setting 'monoclinic'
loop_
_space_group_symop_operation_xyz
x,y,z
-x,y,-z
-x,-y,-z
x,-y,z
1/2+x,1/2+y,z
1/2-x,1/2+y,-z
1/2-x,1/2-y,-z
1/2+x,1/2-y,z
loop_
_atom_site_type_symbol
_atom_site_label
_atom_site_fract_x
_atom_site_fract_y
_atom_site_fract_z
Si Si1 0.010428 0.378581 0.135009
Si Si2 0.902270 0.613026 0.670075
Si Si3 0.644733 0.706556 0.760866
Si Si4 0.367028 0.784001 0.411818
Si Si5 0.899679 0.879661 0.842828
Si Si6 0.636935 0.384308 0.896453
Si Si7 0.227449 0.218472 0.121664
O O1 0.008926 0.500000 0.123065
O O2 0.911318 0.314538 0.203653
O O3 0.960189 0.359121 0.262724
O O4 0.163969 0.331378 0.957127
O O5 0.920836 0.500000 0.680183
O O6 0.750984 0.618059 0.815887
O O7 0.907161 0.720121 0.700679
O O8 0.000000 0.614312 0.500000
O O9 0.782555 0.675063 0.566969
O O10 0.662289 0.698056 0.813164
O O11 0.512416 0.632784 0.903355
O O12 0.250000 0.750000 0.500000
O O13 0.458258 0.683624 0.323428
O O14 0.821935 0.868203 0.868598
O O15 0.914932 0.000000 0.842969
O O16 0.807880 0.810916 0.993930
O O17 0.645930 0.500000 0.858079
#
# Coordination Sequence:
#
# PCOD9188107 Si02
#       7
#     8   8   8   8   8   8   8
#     4  10  20  36  56  81 114 151 187 226 278 331
#     4  10  21  37  61  86 110 144 183 232 287 335
#     4  10  19  36  56  82 115 147 186 232 277 329
#     4   9  21  36  55  85 114 146 185 232 277 327
#     4  10  21  37  61  87 114 149 186 228 284 340
#     4  10  21  37  59  84 110 145 187 234 287 335
#     4  10  20  38  60  85 116 145 183 234 280 337
#
# _framework density 20.234798999999999
#
# number of rings (size 3 to 8) (size 9 to 14) (size 15 to 20)
#    0.000    2.143    1.429    1.714    2.000    3.429 
#    0.000    4.286    0.000    1.714    0.000    0.000 
#    0.000    0.000    0.000    0.000    0.000    0.000 
#
# Total GULP energy -155998.235984 kJ/mol
# GULP energy per Si atom -5571.365571 kJ/mol
# Density = 2.018874 g / cm^3
# Si number density = 20.234799 Si / 1000 Ang^3
#
#
#
# Elastic Constant Matrix: (Units=GPa)
#
#
# Indices 1 2 3 4 5 6 
#
# 1 37.7651 24.4791 -1.5982 0.0000 -2.3571 0.0000
# 2 24.4791 117.2245 15.6439 0.0001 13.6433 -0.0001
# 3 -1.5982 15.6439 72.7937 0.0004 11.0849 -0.0004
# 4 0.0000 0.0001 0.0004 -6.3521 -0.0001 -5.0007
# 5 -2.3571 13.6433 11.0849 -0.0001 25.8342 0.0000
# 6 0.0000 -0.0001 -0.0004 -5.0007 0.0000 26.0178
#
#
#
# Elastic Compliance Matrix: (Units=1/GPa)
#
#
# Indices 1 2 3 4 5 6 
#
# 1 0.031835 -0.007565 0.001363 0.000000 0.006315 0.000000
# 2 -0.007565 0.011005 -0.001649 0.000000 -0.005795 0.000000
# 3 0.001363 -0.001649 0.014947 0.000001 -0.005418 0.000000
# 4 0.000000 0.000000 0.000001 -0.136738 -0.000001 -0.026282
# 5 0.006315 -0.005795 -0.005418 -0.000001 0.044670 0.000000
# 6 0.000000 0.000000 0.000000 -0.026282 0.000000 0.033384
#
#
# Mechanical properties :
#
#
# Convention : Reuss Voigt Hill
#
# Bulk Modulus (GPa) = 23.76116 33.87034 28.81575
# Shear Modulus (GPa) = 173.42687 21.71721 97.57204
#
# Velocity S-wave (km/s) = 9.26786 3.27962 6.95159
# Velocity P-wave (km/s) = 11.23800 5.57819 8.87155
#
# Compressibility (1/GPa) = 0.04208550
#
# Stress axis : x y z
#
# Youngs Moduli (GPa) = 31.41234 90.87001 66.90405
#
# Poissons Ratio (x) = 0.68740 -0.09119
# Poissons Ratio (y) = 0.23762 0.11030
# Poissons Ratio (z) = -0.04282 0.14982
#
# Static dielectric constant tensor:
#      x y z
#    x 1.769450 0.000000 0.036540 
#    y 0.000000 1.729440 0.000000 
#    z 0.036540 0.000000 1.794010 
# 
# From -- ./inp_files/353940.got.cif
#   From: 2010.05.17/outbox.cif.g08.bks.cpg/sg12_177_cif.got.tgz:353940.got - 2010.06.03 13:09:07.
