data_PCOD9188775
_publ_section_title
;
Structure prediction by ZEFSAII (Michael W. Deem and Ramdas Pophale) SiO2 
 PCOD9188775
Probable space group: C 2/M
;
_chemical_formula_sum "Si O2"
_cell_formula_units_Z 60
_cell_length_a 27.984614
_cell_length_b 17.251010
_cell_length_c 6.423685
_cell_angle_alpha 90.000000
_cell_angle_beta 110.202114
_cell_angle_gamma 90.000000
_cell_volume 2910.336703
_symmetry_space_group_name_H-M "C 2/M"
_symmetry_group_IT_number 12
_symmetry_cell_setting 'monoclinic'
loop_
_space_group_symop_operation_xyz
x,y,z
-x,y,-z
-x,-y,-z
x,-y,z
1/2+x,1/2+y,z
1/2-x,1/2+y,-z
1/2-x,1/2-y,-z
1/2+x,1/2-y,z
loop_
_atom_site_type_symbol
_atom_site_label
_atom_site_fract_x
_atom_site_fract_y
_atom_site_fract_z
Si Si1 0.058227 0.733151 0.034631
Si Si2 0.297035 0.915655 0.925405
Si Si3 0.812406 0.677774 0.335992
Si Si4 0.111576 0.412426 0.269540
Si Si5 0.225850 0.912422 0.444272
Si Si6 0.976274 0.000000 0.206402
Si Si7 0.366245 0.328519 0.559012
Si Si8 0.943718 0.156017 0.320125
O O1 0.069732 0.644262 0.108414
O O2 0.095893 0.781647 0.236360
O O3 0.069086 0.764540 0.819960
O O4 0.000000 0.751744 0.000000
O O5 0.303428 0.843771 0.085093
O O6 0.298346 0.000000 0.037520
O O7 0.343114 0.915243 0.831366
O O8 0.246399 0.911799 0.712047
O O9 0.860515 0.626940 0.491382
O O10 0.761887 0.647333 0.376927
O O11 0.826655 0.765477 0.406996
O O12 0.094580 0.500000 0.287280
O O13 0.167296 0.888917 0.363354
O O14 0.233621 0.000000 0.376817
O O15 0.947809 0.918000 0.174927
O O16 0.000000 0.000000 0.500000
O O17 0.000000 0.000000 0.000000
O O18 0.401719 0.361516 0.430817
O O19 0.000000 0.167526 0.500000
#
# Coordination Sequence:
#
# PCOD9188775 Si02
#       8
#     8   8   8   8   8   4   8   8
#     4  11  22  40  61  84 122 164 217 266 335 394
#     4   9  17  33  58  81 116 155 197 244 317 391
#     4  10  19  36  61  89 122 164 208 256 330 401
#     4   9  19  34  57  91 122 161 209 264 318 397
#     4  10  22  38  57  86 126 156 204 265 333 396
#     4  10  24  42  72 100 128 176 240 296 350 410
#     4  11  24  38  60  92 122 166 213 274 325 409
#     4  11  23  42  65  87 124 168 224 279 344 398
#
# _framework density 20.616171000000001
#
# number of rings (size 3 to 8) (size 9 to 14) (size 15 to 20)
#    0.000    1.867    1.333    3.600    2.800    1.867 
#    1.200    0.000    0.000    0.400    0.000    0.000 
#    0.000    0.000    0.000    0.000    0.000    0.000 
#
# Total GULP energy -167266.971514 kJ/mol
# GULP energy per Si atom -5575.565717 kJ/mol
# Density = 2.056925 g / cm^3
# Si number density = 20.616171 Si / 1000 Ang^3
#
#
#
# Elastic Constant Matrix: (Units=GPa)
#
#
# Indices 1 2 3 4 5 6 
#
# 1 80.9873 16.9234 8.8557 0.0000 9.6379 0.0000
# 2 16.9234 62.2604 9.5580 0.0000 2.1464 0.0000
# 3 8.8557 9.5580 28.2283 0.0000 -3.9040 0.0000
# 4 0.0000 0.0000 0.0000 38.8293 0.0000 -17.7251
# 5 9.6379 2.1464 -3.9040 0.0000 17.6057 0.0000
# 6 0.0000 0.0000 0.0000 -17.7251 0.0000 35.6743
#
#
#
# Elastic Compliance Matrix: (Units=1/GPa)
#
#
# Indices 1 2 3 4 5 6 
#
# 1 0.014505 -0.002914 -0.004759 0.000000 -0.008641 0.000000
# 2 -0.002914 0.017733 -0.005332 0.000000 -0.001749 0.000000
# 3 -0.004759 -0.005332 0.040413 0.000000 0.012216 0.000000
# 4 0.000000 0.000000 0.000000 0.033308 0.000000 0.016550
# 5 -0.008641 -0.001749 0.012216 0.000000 0.064452 0.000000
# 6 0.000000 0.000000 0.000000 0.016550 0.000000 0.036254
#
#
# Mechanical properties :
#
#
# Convention : Reuss Voigt Hill
#
# Bulk Modulus (GPa) = 21.44021 26.90557 24.17289
# Shear Modulus (GPa) = 20.14327 27.49781 23.82054
#
# Velocity S-wave (km/s) = 3.12919 3.65608 3.40285
# Velocity P-wave (km/s) = 4.84542 5.55892 5.21439
#
# Compressibility (1/GPa) = 0.04664134
#
# Stress axis : x y z
#
# Youngs Moduli (GPa) = 68.94069 56.39353 24.74444
#
# Poissons Ratio (x) = 0.16435 0.11775
# Poissons Ratio (y) = 0.20092 0.13193
# Poissons Ratio (z) = 0.32807 0.30067
#
# Static dielectric constant tensor:
#      x y z
#    x 1.709660 0.000000 0.010180 
#    y 0.000000 1.797110 0.000000 
#    z 0.010180 0.000000 1.771880 
# 
# From -- ./inp_files/32070.got.cif
#   From: 2010.05.17/outbox.cif.g08.bks.cpg/sg12_17_cif.got.tgz:32070.got - 2010.06.03 13:09:07.
