data_PCOD9188589
_publ_section_title
;
Structure prediction by ZEFSAII (Michael W. Deem and Ramdas Pophale) SiO2 
 PCOD9188589
Probable space group: C 2/M
;
_chemical_formula_sum "Si O2"
_cell_formula_units_Z 64
_cell_length_a 16.076864
_cell_length_b 7.732047
_cell_length_c 24.521312
_cell_angle_alpha 90.000000
_cell_angle_beta 90.215786
_cell_angle_gamma 90.000000
_cell_volume 3048.150782
_symmetry_space_group_name_H-M "C 2/M"
_symmetry_group_IT_number 12
_symmetry_cell_setting 'monoclinic'
loop_
_space_group_symop_operation_xyz
x,y,z
-x,y,-z
-x,-y,-z
x,-y,z
1/2+x,1/2+y,z
1/2-x,1/2+y,-z
1/2-x,1/2-y,-z
1/2+x,1/2-y,z
loop_
_atom_site_type_symbol
_atom_site_label
_atom_site_fract_x
_atom_site_fract_y
_atom_site_fract_z
Si Si1 0.973305 0.707081 0.559750
Si Si2 0.373646 0.787757 0.365516
Si Si3 0.970156 0.790397 0.059656
Si Si4 0.369615 0.791190 0.240438
Si Si5 0.718951 0.292413 0.939766
Si Si6 0.207121 0.292154 0.171451
Si Si7 0.529295 0.203770 0.176401
Si Si8 0.219806 0.205389 0.438932
O O1 0.982398 0.500000 0.558073
O O2 0.875834 0.739726 0.570469
O O3 0.000000 0.774439 0.500000
O O4 0.041834 0.768853 0.603555
O O5 0.372154 0.731566 0.302832
O O6 0.290920 0.728607 0.397630
O O7 0.373236 0.000000 0.366027
O O8 0.875455 0.731249 0.067344
O O9 0.021257 0.724613 0.111283
O O10 0.973069 0.000000 0.060664
O O11 0.000000 0.734218 0.000000
O O12 0.284782 0.744206 0.209977
O O13 0.448406 0.722597 0.206158
O O14 0.373285 0.000000 0.241074
O O15 0.717287 0.500000 0.935786
O O16 0.773171 0.225380 0.889509
O O17 0.750000 0.250000 0.000000
O O18 0.199159 0.500000 0.167382
O O19 0.119115 0.223507 0.192654
O O20 0.528929 0.000000 0.189124
O O21 0.250000 0.250000 0.500000
O O22 0.220233 0.000000 0.434067
#
# Coordination Sequence:
#
# PCOD9188589 Si02
#       8
#     8   8   8   8   8   8   8   8
#     4  10  19  36  60  86 117 157 192 230 291 345
#     4   9  20  38  58  81 117 154 188 232 284 339
#     4  10  20  34  53  79 110 143 181 225 278 337
#     4  10  21  39  60  82 109 151 196 230 273 339
#     4  10  20  33  51  77 110 143 177 224 281 335
#     4  10  21  38  57  81 113 146 181 236 291 328
#     4  10  21  36  57  82 108 142 186 230 278 333
#     4  11  21  36  58  86 118 154 194 239 287 339
#
# _framework density 20.996337
#
# number of rings (size 3 to 8) (size 9 to 14) (size 15 to 20)
#    0.000    2.000    2.500    1.125    0.000    3.000 
#    0.000    3.125    0.000    0.000    0.000    0.000 
#    0.000    0.000    0.000    0.000    0.000    0.000 
#
# Total GULP energy -178695.709750 kJ/mol
# GULP energy per Si atom -5584.240930 kJ/mol
# Density = 2.094855 g / cm^3
# Si number density = 20.996337 Si / 1000 Ang^3
#
#
#
# Elastic Constant Matrix: (Units=GPa)
#
#
# Indices 1 2 3 4 5 6 
#
# 1 216.2860 1.0005 91.9236 0.0000 4.0911 0.0000
# 2 1.0005 25.7187 -8.7179 0.0000 -2.8309 0.0000
# 3 91.9236 -8.7179 138.7305 0.0000 4.6428 0.0000
# 4 0.0000 0.0000 0.0000 10.4920 0.0000 7.2529
# 5 4.0911 -2.8309 4.6428 0.0000 29.7861 0.0000
# 6 0.0000 0.0000 0.0000 7.2529 0.0000 21.9311
#
#
#
# Elastic Compliance Matrix: (Units=1/GPa)
#
#
# Indices 1 2 3 4 5 6 
#
# 1 0.006517 -0.001793 -0.004418 0.000000 -0.000377 0.000000
# 2 -0.001793 0.040568 0.003619 0.000000 0.003538 0.000000
# 3 -0.004418 0.003619 0.010385 0.000000 -0.000668 0.000000
# 4 0.000000 0.000000 0.000000 0.123558 0.000000 -0.040863
# 5 -0.000377 0.003538 -0.000668 0.000000 0.034065 0.000000
# 6 0.000000 0.000000 0.000000 -0.040863 0.000000 0.059111
#
#
# Mechanical properties :
#
#
# Convention : Reuss Voigt Hill
#
# Bulk Modulus (GPa) = 19.12548 61.01639 40.07093
# Shear Modulus (GPa) = 16.84539 32.21042 24.52791
#
# Velocity S-wave (km/s) = 2.83557 3.92100 3.42160
# Velocity P-wave (km/s) = 4.45526 7.04433 5.89372
#
# Compressibility (1/GPa) = 0.05228628
#
# Stress axis : x y z
#
# Youngs Moduli (GPa) = 153.45411 24.64995 96.28952
#
# Poissons Ratio (x) = 0.04419 0.42540
# Poissons Ratio (y) = 0.27507 -0.34844
# Poissons Ratio (z) = 0.67796 -0.08920
#
# Static dielectric constant tensor:
#      x y z
#    x 1.761180 0.000000 -0.025780 
#    y 0.000000 1.771460 0.000000 
#    z -0.025780 0.000000 1.728970 
# 
# From -- ./inp_files/338902.got.cif
#   From: 2010.05.17/outbox.cif.g08.bks.cpg/sg12_170_cif.got.tgz:338902.got - 2010.06.03 13:09:07.
