data_PCOD9188673
_publ_section_title
;
Structure prediction by ZEFSAII (Michael W. Deem and Ramdas Pophale) SiO2 
 PCOD9188673
Probable space group: C 2/M
;
_chemical_formula_sum "Si O2"
_cell_formula_units_Z 56
_cell_length_a 10.338847
_cell_length_b 14.617448
_cell_length_c 34.733523
_cell_angle_alpha 90.000000
_cell_angle_beta 151.399456
_cell_angle_gamma 90.000000
_cell_volume 2512.789480
_symmetry_space_group_name_H-M "C 2/M"
_symmetry_group_IT_number 12
_symmetry_cell_setting 'monoclinic'
loop_
_space_group_symop_operation_xyz
x,y,z
-x,y,-z
-x,-y,-z
x,-y,z
1/2+x,1/2+y,z
1/2-x,1/2+y,-z
1/2-x,1/2-y,-z
1/2+x,1/2-y,z
loop_
_atom_site_type_symbol
_atom_site_label
_atom_site_fract_x
_atom_site_fract_y
_atom_site_fract_z
Si Si1 0.694609 0.111799 0.929854
Si Si2 0.822046 0.609833 0.690540
Si Si3 0.819002 0.604132 0.346155
Si Si4 0.799509 0.112242 0.255534
Si Si5 0.886595 0.833688 0.513460
Si Si6 0.305884 0.388246 0.769803
Si Si7 0.921875 0.611698 0.936902
O O1 0.458193 0.138795 0.837993
O O2 0.606283 0.141665 0.949540
O O3 0.694980 0.000000 0.929539
O O4 0.000000 0.140634 0.000000
O O5 0.833889 0.500000 0.696525
O O6 0.730634 0.643591 0.708348
O O7 0.618219 0.630889 0.602424
O O8 0.118475 0.643592 0.755662
O O9 0.727859 0.500000 0.317219
O O10 0.585479 0.644795 0.312238
O O11 0.819447 0.642909 0.303357
O O12 0.122905 0.602940 0.440511
O O13 0.800839 0.000000 0.256720
O O14 0.750000 0.750000 0.500000
O O15 0.000000 0.816026 0.500000
O O16 0.303553 0.500000 0.771267
O O17 0.614213 0.359589 0.850230
O O18 0.929555 0.500000 0.938454
O O19 0.000000 0.640929 0.000000
#
# Coordination Sequence:
#
# PCOD9188673 Si02
#       7
#     8   8   8   8   8   8   8
#     4   9  16  25  38  63 105 147 175 208 262 319
#     4  10  21  36  58  82 105 140 187 229 265 314
#     4  10  19  36  61  79 103 144 186 225 265 314
#     4   9  18  31  49  77 108 141 180 222 267 315
#     4  12  27  42  57  80 111 140 174 223 279 331
#     4   9  16  29  49  74 102 137 183 226 261 305
#     4   9  16  24  38  65 103 144 179 213 259 312
#
# _framework density 22.285990000000002
#
# number of rings (size 3 to 8) (size 9 to 14) (size 15 to 20)
#    0.000    2.286    2.857    0.429    4.000    0.571 
#    0.000    2.143    0.000    0.000    0.000    0.000 
#    0.000    6.857    0.000    0.000    0.000    0.000 
#
# Total GULP energy -156306.600303 kJ/mol
# GULP energy per Si atom -5582.378582 kJ/mol
# Density = 2.223527 g / cm^3
# Si number density = 22.285990 Si / 1000 Ang^3
#
#
#
# Elastic Constant Matrix: (Units=GPa)
#
#
# Indices 1 2 3 4 5 6 
#
# 1 230.9409 10.8559 83.7260 0.0001 10.6357 0.0000
# 2 10.8559 54.4543 -10.6832 0.0000 2.1763 0.0000
# 3 83.7260 -10.6832 122.4243 -0.0006 7.6579 0.0002
# 4 0.0001 0.0000 -0.0006 -17.4930 0.0002 2.5483
# 5 10.6357 2.1763 7.6579 0.0002 45.1163 0.0000
# 6 0.0000 0.0000 0.0002 2.5483 0.0000 0.1015
#
#
#
# Elastic Compliance Matrix: (Units=1/GPa)
#
#
# Indices 1 2 3 4 5 6 
#
# 1 0.005985 -0.001999 -0.004231 0.000000 -0.000596 0.000001
# 2 -0.001999 0.019415 0.003124 -0.000001 -0.000995 -0.000003
# 3 -0.004231 0.003124 0.011402 -0.000001 -0.001089 -0.000003
# 4 0.000000 -0.000001 -0.000001 -0.012275 0.000000 0.308155
# 5 -0.000596 -0.000995 -0.001089 0.000000 0.022538 -0.000003
# 6 0.000001 -0.000003 -0.000003 0.308155 -0.000003 2.115325
#
#
# Mechanical properties :
#
#
# Convention : Reuss Voigt Hill
#
# Bulk Modulus (GPa) = 32.68954 63.95744 48.32349
# Shear Modulus (GPa) = 2.29484 27.13967 14.71726
#
# Velocity S-wave (km/s) = 1.01585 3.49347 2.57258
# Velocity P-wave (km/s) = 4.00949 6.71068 5.52762
#
# Compressibility (1/GPa) = 0.03059082
#
# Stress axis : x y z
#
# Youngs Moduli (GPa) = 167.07574 51.50593 87.70183
#
# Poissons Ratio (x) = 0.10298 0.37102
# Poissons Ratio (y) = 0.33404 -0.27397
# Poissons Ratio (z) = 0.70682 -0.16090
#
# Static dielectric constant tensor:
#      x y z
#    x 1.800700 0.000000 -0.060380 
#    y 0.000000 1.539720 0.000000 
#    z -0.060380 0.000000 1.739450 
# 
# From -- ./inp_files/373170.got.cif
#   From: 2010.05.17/outbox.cif.g08.bks.cpg/sg12_187_cif.got.tgz:373170.got - 2010.06.03 13:09:07.
