data_PCOD9188564
_publ_section_title
;
Structure prediction by ZEFSAII (Michael W. Deem and Ramdas Pophale) SiO2 
 PCOD9188564
Probable space group: C 2/M
;
_chemical_formula_sum "Si O2"
_cell_formula_units_Z 56
_cell_length_a 9.118997
_cell_length_b 19.835900
_cell_length_c 19.590040
_cell_angle_alpha 90.000000
_cell_angle_beta 55.546731
_cell_angle_gamma 90.000000
_cell_volume 2921.939729
_symmetry_space_group_name_H-M "C 2/M"
_symmetry_group_IT_number 12
_symmetry_cell_setting 'monoclinic'
loop_
_space_group_symop_operation_xyz
x,y,z
-x,y,-z
-x,-y,-z
x,-y,z
1/2+x,1/2+y,z
1/2-x,1/2+y,-z
1/2-x,1/2-y,-z
1/2+x,1/2-y,z
loop_
_atom_site_type_symbol
_atom_site_label
_atom_site_fract_x
_atom_site_fract_y
_atom_site_fract_z
Si Si1 0.108550 0.822538 0.903259
Si Si2 0.882962 0.204048 0.827777
Si Si3 0.709116 0.573624 0.237027
Si Si4 0.439786 0.571767 0.436007
Si Si5 0.428597 0.921711 0.781639
Si Si6 0.385181 0.802867 0.327842
Si Si7 0.477808 0.283933 0.427547
O O1 0.211138 0.751057 0.884761
O O2 0.254131 0.880868 0.850118
O O3 0.979342 0.814879 0.872555
O O4 0.000000 0.837672 0.000000
O O5 0.845534 0.136572 0.794595
O O6 0.010501 0.252498 0.749757
O O7 0.680517 0.500000 0.211086
O O8 0.595171 0.570020 0.337635
O O9 0.916964 0.579815 0.201520
O O10 0.500000 0.572381 0.500000
O O11 0.340826 0.500000 0.453134
O O12 0.365565 0.647038 0.447450
O O13 0.522398 0.875785 0.699016
O O14 0.396505 0.000000 0.772454
O O15 0.404398 0.772032 0.397430
O O16 0.182950 0.801721 0.355833
O O17 0.500000 0.263889 0.500000
#
# Coordination Sequence:
#
# PCOD9188564 Si02
#       7
#     8   8   8   8   8   8   8
#     4  11  24  40  63  87 114 145 178 229 284 343
#     4  11  21  38  60  86 114 146 191 226 279 338
#     4  10  19  36  60  85 115 151 194 237 275 327
#     4   9  17  31  53  81 112 149 192 237 278 316
#     4  10  21  38  60  83 110 146 188 232 283 340
#     4  11  19  35  54  78 109 147 189 232 278 329
#     4  11  21  32  51  80 114 149 190 237 281 322
#
# _framework density 19.16535
#
# number of rings (size 3 to 8) (size 9 to 14) (size 15 to 20)
#    0.000    1.571    2.857    4.286    0.000    0.857 
#    0.000    0.000    0.000    2.571    0.000    0.000 
#    0.000    0.000    0.000    0.000    0.000    0.000 
#
# Total GULP energy -156059.828259 kJ/mol
# GULP energy per Si atom -5573.565295 kJ/mol
# Density = 1.912173 g / cm^3
# Si number density = 19.165350 Si / 1000 Ang^3
#
#
#
# Elastic Constant Matrix: (Units=GPa)
#
#
# Indices 1 2 3 4 5 6 
#
# 1 76.2092 60.9256 36.2966 0.0000 12.0237 0.0000
# 2 60.9256 184.6213 54.2265 0.0000 7.1002 0.0000
# 3 36.2966 54.2265 48.3219 0.0000 4.6904 0.0000
# 4 0.0000 0.0000 0.0000 19.8890 0.0000 3.6887
# 5 12.0237 7.1002 4.6904 0.0000 21.6414 0.0000
# 6 0.0000 0.0000 0.0000 3.6887 0.0000 -15.0681
#
#
#
# Elastic Compliance Matrix: (Units=1/GPa)
#
#
# Indices 1 2 3 4 5 6 
#
# 1 0.023545 -0.003706 -0.012641 0.000000 -0.009126 0.000000
# 2 -0.003706 0.008673 -0.007021 0.000000 0.000735 0.000000
# 3 -0.012641 -0.007021 0.037962 0.000000 0.001099 0.000000
# 4 0.000000 0.000000 0.000000 0.048095 0.000000 0.011774
# 5 -0.009126 0.000735 0.001099 0.000000 0.050798 0.000000
# 6 0.000000 0.000000 0.000000 0.011774 0.000000 -0.063483
#
#
# Mechanical properties :
#
#
# Convention : Reuss Voigt Hill
#
# Bulk Modulus (GPa) = 42.65392 68.00555 55.32974
# Shear Modulus (GPa) = 31.22253 15.80604 23.51429
#
# Velocity S-wave (km/s) = 4.04061 2.87491 3.50654
# Velocity P-wave (km/s) = 6.63873 6.82501 6.73251
#
# Compressibility (1/GPa) = 0.02344450
#
# Stress axis : x y z
#
# Youngs Moduli (GPa) = 42.47195 115.29556 26.34248
#
# Poissons Ratio (x) = 0.42730 0.33299
# Poissons Ratio (y) = 0.15741 0.18494
# Poissons Ratio (z) = 0.53688 0.80946
#
# Static dielectric constant tensor:
#      x y z
#    x 1.666190 0.000000 -0.032910 
#    y 0.000000 1.707540 0.000000 
#    z -0.032910 0.000000 1.693550 
# 
# From -- ./inp_files/258250.got.cif
#   From: 2010.05.17/outbox.cif.g08.bks.cpg/sg12_130_cif.got.tgz:258250.got - 2010.06.03 13:09:07.
