data_PCOD9188735
_publ_section_title
;
Structure prediction by ZEFSAII (Michael W. Deem and Ramdas Pophale) SiO2 
 PCOD9188735
Probable space group: C 2/M
;
_chemical_formula_sum "Si O2"
_cell_formula_units_Z 64
_cell_length_a 33.146042
_cell_length_b 8.938288
_cell_length_c 16.976972
_cell_angle_alpha 90.000000
_cell_angle_beta 137.757110
_cell_angle_gamma 90.000000
_cell_volume 3381.373770
_symmetry_space_group_name_H-M "C 2/M"
_symmetry_group_IT_number 12
_symmetry_cell_setting 'monoclinic'
loop_
_space_group_symop_operation_xyz
x,y,z
-x,y,-z
-x,-y,-z
x,-y,z
1/2+x,1/2+y,z
1/2-x,1/2+y,-z
1/2-x,1/2-y,-z
1/2+x,1/2-y,z
loop_
_atom_site_type_symbol
_atom_site_label
_atom_site_fract_x
_atom_site_fract_y
_atom_site_fract_z
Si Si1 0.597438 0.321485 0.773283
Si Si2 0.113324 0.819812 0.977412
Si Si3 0.354049 0.819993 0.306210
Si Si4 0.903613 0.675922 0.646363
Si Si5 0.275335 0.322488 0.457180
Si Si6 0.261816 0.680368 0.758054
Si Si7 0.003343 0.680205 0.914053
Si Si8 0.969863 0.675948 0.576613
O O1 0.601058 0.500000 0.775189
O O2 0.609950 0.272295 0.881177
O O3 0.642154 0.251168 0.774228
O O4 0.530450 0.267651 0.654601
O O5 0.059263 0.750182 0.949041
O O6 0.107436 0.000000 0.970427
O O7 0.176991 0.781178 0.108470
O O8 0.296046 0.776084 0.273285
O O9 0.414789 0.778565 0.441082
O O10 0.353413 0.000000 0.298854
O O11 0.886061 0.500000 0.625709
O O12 0.844769 0.774055 0.551448
O O13 0.945888 0.691056 0.631130
O O14 0.942584 0.716999 0.778904
O O15 0.268965 0.500000 0.450786
O O16 0.250000 0.250000 0.500000
O O17 0.242533 0.257026 0.332957
O O18 0.259423 0.500000 0.744245
O O19 0.009387 0.500000 0.920564
O O20 0.000000 0.728128 0.000000
O O21 0.982779 0.500000 0.580791
#
# Coordination Sequence:
#
# PCOD9188735 Si02
#       8
#     8   8   8   8   8   8   8   8
#     4  11  23  37  56  88 124 155 195 249 304 356
#     4  10  23  41  61  86 121 160 199 248 303 358
#     4  10  21  38  61  85 114 156 204 248 298 361
#     4  10  20  39  64  90 124 161 198 247 299 354
#     4  12  26  42  64  93 125 160 200 248 300 356
#     4  10  22  44  65  86 119 160 204 250 300 358
#     4  10  22  39  62  92 123 155 198 249 296 352
#     4  10  19  36  61  87 116 157 201 241 295 361
#
# _framework density 18.927218
#
# number of rings (size 3 to 8) (size 9 to 14) (size 15 to 20)
#    0.000    1.625    2.500    1.875    1.750    5.250 
#    0.000    0.000    0.000    0.000    0.000    0.000 
#    0.000    0.000    0.000    0.000    0.000    0.000 
#
# Total GULP energy -178851.787187 kJ/mol
# GULP energy per Si atom -5589.118350 kJ/mol
# Density = 1.888414 g / cm^3
# Si number density = 18.927218 Si / 1000 Ang^3
#
#
#
# Elastic Constant Matrix: (Units=GPa)
#
#
# Indices 1 2 3 4 5 6 
#
# 1 58.3896 17.5180 22.0551 0.0000 -17.0748 0.0000
# 2 17.5180 25.1677 21.0392 0.0000 -0.3246 0.0000
# 3 22.0551 21.0392 97.4964 0.0000 -11.1921 0.0000
# 4 0.0000 0.0000 0.0000 22.4628 0.0000 -4.9521
# 5 -17.0748 -0.3246 -11.1921 0.0000 33.7949 0.0000
# 6 0.0000 0.0000 0.0000 -4.9521 0.0000 29.4429
#
#
#
# Elastic Compliance Matrix: (Units=1/GPa)
#
#
# Indices 1 2 3 4 5 6 
#
# 1 0.026494 -0.017704 -0.000682 0.000000 0.012990 0.000000
# 2 -0.017704 0.060627 -0.010435 0.000000 -0.011818 0.000000
# 3 -0.000682 -0.010435 0.013110 0.000000 0.003897 0.000000
# 4 0.000000 0.000000 0.000000 0.046232 0.000000 0.007776
# 5 0.012990 -0.011818 0.003897 0.000000 0.037331 0.000000
# 6 0.000000 0.000000 0.000000 0.007776 0.000000 0.035272
#
#
# Mechanical properties :
#
#
# Convention : Reuss Voigt Hill
#
# Bulk Modulus (GPa) = 23.47943 33.58648 28.53296
# Shear Modulus (GPa) = 17.18787 25.16955 21.17871
#
# Velocity S-wave (km/s) = 3.01674 3.65061 3.34871
# Velocity P-wave (km/s) = 4.95645 5.96262 5.48266
#
# Compressibility (1/GPa) = 0.04259047
#
# Stress axis : x y z
#
# Youngs Moduli (GPa) = 37.74442 16.49439 76.27685
#
# Poissons Ratio (x) = 0.29201 0.05200
# Poissons Ratio (y) = 0.66821 0.79593
# Poissons Ratio (z) = 0.02573 0.17211
#
# Static dielectric constant tensor:
#      x y z
#    x 1.636990 0.000000 -0.010790 
#    y 0.000000 1.636960 0.000000 
#    z -0.010790 0.000000 1.648990 
# 
# From -- ./inp_files/250018.got.cif
#   From: 2010.05.17/outbox.cif.g08.bks.cpg/sg12_126_cif.got.tgz:250018.got - 2010.06.03 13:09:07.
