data_PCOD9188205
_publ_section_title
;
Structure prediction by ZEFSAII (Michael W. Deem and Ramdas Pophale) SiO2 
 PCOD9188205
Probable space group: C 2/M
;
_chemical_formula_sum "Si O2"
_cell_formula_units_Z 64
_cell_length_a 23.664807
_cell_length_b 22.505803
_cell_length_c 16.952326
_cell_angle_alpha 90.000000
_cell_angle_beta 160.350862
_cell_angle_gamma 90.000000
_cell_volume 3035.995859
_symmetry_space_group_name_H-M "C 2/M"
_symmetry_group_IT_number 12
_symmetry_cell_setting 'monoclinic'
loop_
_space_group_symop_operation_xyz
x,y,z
-x,y,-z
-x,-y,-z
x,-y,z
1/2+x,1/2+y,z
1/2-x,1/2+y,-z
1/2-x,1/2-y,-z
1/2+x,1/2-y,z
loop_
_atom_site_type_symbol
_atom_site_label
_atom_site_fract_x
_atom_site_fract_y
_atom_site_fract_z
Si Si1 0.645837 0.431904 0.903130
Si Si2 0.896456 0.932978 0.704951
Si Si3 0.272828 0.841003 0.404572
Si Si4 0.917928 0.677989 0.077253
Si Si5 0.444866 0.662393 0.340624
Si Si6 0.970297 0.430659 0.553853
Si Si7 0.900152 0.601457 0.797734
Si Si8 0.781506 0.280425 0.738619
O O1 0.605781 0.500000 0.831753
O O2 0.573486 0.421131 0.895453
O O3 0.555434 0.388976 0.723793
O O4 0.845792 0.424872 0.164645
O O5 0.846969 0.883135 0.701881
O O6 0.755286 0.928925 0.449973
O O7 0.894806 0.000000 0.735273
O O8 0.420819 0.815292 0.656077
O O9 0.352263 0.883214 0.441605
O O10 0.189702 0.782299 0.262416
O O11 0.963449 0.616422 0.091325
O O12 0.748322 0.681456 0.904500
O O13 0.879537 0.718204 0.950695
O O14 0.500000 0.641053 0.500000
O O15 0.583675 0.710626 0.498607
O O16 0.914925 0.500000 0.490118
O O17 0.000000 0.419977 0.500000
O O18 0.832053 0.663264 0.749391
O O19 0.000000 0.570621 0.000000
#
# Coordination Sequence:
#
# PCOD9188205 Si02
#       8
#     8   8   8   8   8   8   8   8
#     4  10  20  39  62  88 122 158 199 251 303 351
#     4  10  21  37  61  91 119 155 205 252 297 357
#     4  11  22  40  63  88 119 162 203 247 301 358
#     4   9  20  36  57  85 117 155 197 243 293 354
#     4  10  19  36  57  85 123 156 196 247 297 356
#     4  10  22  42  65  89 121 158 202 253 302 356
#     4   9  18  36  56  81 126 161 194 241 299 357
#     4  10  21  37  56  84 122 161 197 245 298 359
#
# _framework density 21.080397999999999
#
# number of rings (size 3 to 8) (size 9 to 14) (size 15 to 20)
#    0.000    2.125    2.500    0.375    0.000    4.500 
#    2.250    3.125    0.000    3.000    0.000    0.000 
#    0.000    0.000    0.000    0.000    0.000    0.000 
#
# Total GULP energy -178545.108488 kJ/mol
# GULP energy per Si atom -5579.534640 kJ/mol
# Density = 2.103242 g / cm^3
# Si number density = 21.080398 Si / 1000 Ang^3
#
#
#
# Elastic Constant Matrix: (Units=GPa)
#
#
# Indices 1 2 3 4 5 6 
#
# 1 68.4530 55.6515 11.2725 0.0000 7.1365 0.0000
# 2 55.6515 111.8536 22.0967 0.0000 -1.4350 0.0000
# 3 11.2725 22.0967 31.7174 0.0000 15.9997 -0.0002
# 4 0.0000 0.0000 0.0000 12.7067 0.0000 -0.3399
# 5 7.1365 -1.4350 15.9997 0.0000 39.5486 0.0000
# 6 0.0000 0.0000 -0.0002 -0.3399 0.0000 11.1341
#
#
#
# Elastic Compliance Matrix: (Units=1/GPa)
#
#
# Indices 1 2 3 4 5 6 
#
# 1 0.025785 -0.013643 0.003691 0.000000 -0.006641 0.000000
# 2 -0.013643 0.018156 -0.011778 0.000000 0.007886 0.000000
# 3 0.003691 -0.011778 0.048967 0.000000 -0.020903 0.000001
# 4 0.000000 0.000000 0.000000 0.078763 0.000000 0.002404
# 5 -0.006641 0.007886 -0.020903 0.000000 0.035226 0.000000
# 6 0.000000 0.000000 0.000001 0.002404 0.000000 0.089887
#
#
# Mechanical properties :
#
#
# Convention : Reuss Voigt Hill
#
# Bulk Modulus (GPa) = 20.22358 43.34059 31.78208
# Shear Modulus (GPa) = 14.01629 20.87810 17.44720
#
# Velocity S-wave (km/s) = 2.58136 3.15048 2.88001
# Velocity P-wave (km/s) = 4.30104 5.81707 5.11553
#
# Compressibility (1/GPa) = 0.04944724
#
# Stress axis : x y z
#
# Youngs Moduli (GPa) = 38.78207 55.07728 20.42210
#
# Poissons Ratio (x) = 0.75144 -0.07538
# Poissons Ratio (y) = 0.52912 0.24053
# Poissons Ratio (z) = -0.14315 0.64870
#
# Static dielectric constant tensor:
#      x y z
#    x 1.777160 0.000000 0.007380 
#    y 0.000000 1.717610 0.000000 
#    z 0.007380 0.000000 1.798970 
# 
# From -- ./inp_files/290934.got.cif
#   From: 2010.05.17/outbox.cif.g08.bks.cpg/sg12_146_cif.got.tgz:290934.got - 2010.06.03 13:09:07.
