data_PCOD9188840
_publ_section_title
;
Structure prediction by ZEFSAII (Michael W. Deem and Ramdas Pophale) SiO2 
 PCOD9188840
Probable space group: C 2/M
;
_chemical_formula_sum "Si O2"
_cell_formula_units_Z 40
_cell_length_a 17.027528
_cell_length_b 15.091588
_cell_length_c 14.971741
_cell_angle_alpha 90.000000
_cell_angle_beta 34.296612
_cell_angle_gamma 90.000000
_cell_volume 2167.879789
_symmetry_space_group_name_H-M "C 2/M"
_symmetry_group_IT_number 12
_symmetry_cell_setting 'monoclinic'
loop_
_space_group_symop_operation_xyz
x,y,z
-x,y,-z
-x,-y,-z
x,-y,z
1/2+x,1/2+y,z
1/2-x,1/2+y,-z
1/2-x,1/2-y,-z
1/2+x,1/2-y,z
loop_
_atom_site_type_symbol
_atom_site_label
_atom_site_fract_x
_atom_site_fract_y
_atom_site_fract_z
Si Si1 0.862964 0.859527 0.694471
Si Si2 0.115100 0.600091 0.494676
Si Si3 0.102090 0.000000 0.991041
Si Si4 0.207951 0.500000 0.567341
Si Si5 0.849563 0.500000 0.184994
Si Si6 0.801365 0.337489 0.760468
Si Si7 0.029716 0.000000 0.267529
O O1 0.798781 0.765798 0.784613
O O2 0.000000 0.848860 0.500000
O O3 0.746179 0.916373 0.752603
O O4 0.905412 0.915591 0.742275
O O5 0.123559 0.500000 0.447855
O O6 0.173820 0.584904 0.537718
O O7 0.201505 0.658682 0.345280
O O8 0.956005 0.630153 0.643303
O O9 0.040254 0.000000 0.149859
O O10 0.193362 0.090187 0.897599
O O11 0.000000 0.000000 0.000000
O O12 0.121476 0.500000 0.737379
O O13 0.367530 0.500000 0.442863
O O14 0.000000 0.500000 0.000000
#
# Coordination Sequence:
#
# PCOD9188840 Si02
#       7
#     8   8   4   4   4   8   4
#     4  11  22  42  70  88 123 170 214 261 304 375
#     4   9  17  31  61  89 115 162 202 245 315 357
#     4  12  24  39  62  91 138 162 199 266 315 372
#     4  10  19  36  62  86 122 158 216 245 314 382
#     4  11  24  43  63  87 124 167 212 267 315 361
#     4  11  19  38  62  92 120 164 208 253 311 373
#     4  11  23  41  62  90 121 177 211 249 313 373
#
# _framework density 18.451207
#
# number of rings (size 3 to 8) (size 9 to 14) (size 15 to 20)
#    0.600    0.800    6.000    2.400    0.000    4.800 
#    0.000    6.000    0.000    0.000    0.000    0.000 
#    0.000    0.000    0.000    0.000    0.000    0.000 
#
# Total GULP energy -111386.443626 kJ/mol
# GULP energy per Si atom -5569.322181 kJ/mol
# Density = 1.840921 g / cm^3
# Si number density = 18.451207 Si / 1000 Ang^3
#
#
#
# Elastic Constant Matrix: (Units=GPa)
#
#
# Indices 1 2 3 4 5 6 
#
# 1 78.5986 25.0387 9.2745 0.0000 19.2216 0.0000
# 2 25.0387 127.5020 21.8381 0.0000 -1.6002 0.0000
# 3 9.2745 21.8381 72.1904 0.0000 10.5272 0.0000
# 4 0.0000 0.0000 0.0000 18.5943 0.0000 1.4166
# 5 19.2216 -1.6002 10.5272 0.0000 27.4417 0.0000
# 6 0.0000 0.0000 0.0000 1.4166 0.0000 3.0439
#
#
#
# Elastic Compliance Matrix: (Units=1/GPa)
#
#
# Indices 1 2 3 4 5 6 
#
# 1 0.016765 -0.003567 0.000707 0.000000 -0.012222 0.000000
# 2 -0.003567 0.009091 -0.002896 0.000000 0.004139 0.000000
# 3 0.000707 -0.002896 0.015607 0.000000 -0.006652 0.000000
# 4 0.000000 0.000000 0.000000 0.055757 0.000000 -0.025950
# 5 -0.012222 0.004139 -0.006652 0.000000 0.047795 0.000000
# 6 0.000000 0.000000 0.000000 -0.025950 0.000000 0.340606
#
#
# Mechanical properties :
#
#
# Convention : Reuss Voigt Hill
#
# Bulk Modulus (GPa) = 33.38506 43.39929 38.39217
# Shear Modulus (GPa) = 9.85969 24.62530 17.24250
#
# Velocity S-wave (km/s) = 2.31414 3.65720 3.06026
# Velocity P-wave (km/s) = 5.02726 6.43473 5.77404
#
# Compressibility (1/GPa) = 0.02995352
#
# Stress axis : x y z
#
# Youngs Moduli (GPa) = 59.64939 109.99468 64.07267
#
# Poissons Ratio (x) = 0.39233 -0.04533
# Poissons Ratio (y) = 0.21276 0.18553
# Poissons Ratio (z) = -0.04220 0.31850
#
# Static dielectric constant tensor:
#      x y z
#    x 1.651060 0.000000 0.020820 
#    y 0.000000 1.652990 0.000000 
#    z 0.020820 0.000000 1.633350 
# 
# From -- ./inp_files/225591.got.cif
#   From: 2010.05.17/outbox.cif.g08.bks.cpg/sg12_113_cif.got.tgz:225591.got - 2010.06.03 13:09:07.
