data_PCOD9188089
_publ_section_title
;
Structure prediction by ZEFSAII (Michael W. Deem and Ramdas Pophale) SiO2 
 PCOD9188089
Probable space group: C 2/M
;
_chemical_formula_sum "Si O2"
_cell_formula_units_Z 56
_cell_length_a 31.276532
_cell_length_b 24.990638
_cell_length_c 12.634658
_cell_angle_alpha 90.000000
_cell_angle_beta 163.732540
_cell_angle_gamma 90.000000
_cell_volume 2766.342598
_symmetry_space_group_name_H-M "C 2/M"
_symmetry_group_IT_number 12
_symmetry_cell_setting 'monoclinic'
loop_
_space_group_symop_operation_xyz
x,y,z
-x,y,-z
-x,-y,-z
x,-y,z
1/2+x,1/2+y,z
1/2-x,1/2+y,-z
1/2-x,1/2-y,-z
1/2+x,1/2-y,z
loop_
_atom_site_type_symbol
_atom_site_label
_atom_site_fract_x
_atom_site_fract_y
_atom_site_fract_z
Si Si1 0.137106 0.152809 0.742730
Si Si2 0.579125 0.284832 0.929338
Si Si3 0.591847 0.095638 0.319569
Si Si4 0.159447 0.701517 0.602521
Si Si5 0.369737 0.602325 0.848409
Si Si6 0.694135 0.939360 0.237863
Si Si7 0.309740 0.563322 0.296622
O O1 0.198281 0.100688 0.826093
O O2 0.000000 0.138625 0.500000
O O3 0.053641 0.188852 0.457338
O O4 0.264073 0.188753 0.102749
O O5 0.499120 0.232407 0.783560
O O6 0.717354 0.270058 0.180312
O O7 0.627679 0.333843 0.120742
O O8 0.641660 0.142751 0.513213
O O9 0.745015 0.073843 0.629558
O O10 0.500000 0.117762 0.000000
O O11 0.470498 0.061583 0.096662
O O12 0.309493 0.593291 0.586869
O O13 0.530404 0.577375 0.264268
O O14 0.689219 0.922338 0.103498
O O15 0.752360 0.000000 0.375557
O O16 0.300515 0.500000 0.249915
#
# Coordination Sequence:
#
# PCOD9188089 Si02
#       7
#     8   8   8   8   8   8   8
#     4   9  19  36  55  77 106 141 183 224 264 321
#     4   9  19  34  55  81 106 136 179 223 264 318
#     4   9  20  37  54  77 109 142 180 217 256 319
#     4  10  19  36  56  77 106 139 176 223 272 314
#     4   9  18  34  55  81 109 141 178 217 261 318
#     4  10  20  35  55  80 111 144 178 218 265 316
#     4  10  20  34  54  83 112 138 177 226 270 312
#
# _framework density 20.243334000000001
#
# number of rings (size 3 to 8) (size 9 to 14) (size 15 to 20)
#    0.000    2.571    0.000    2.143    0.000    6.857 
#    0.000   12.143    0.000    1.714    0.000    0.000 
#    0.000    0.000    0.000    0.000    0.000    0.000 
#
# Total GULP energy -155992.531079 kJ/mol
# GULP energy per Si atom -5571.161824 kJ/mol
# Density = 2.019726 g / cm^3
# Si number density = 20.243334 Si / 1000 Ang^3
#
#
#
# Elastic Constant Matrix: (Units=GPa)
#
#
# Indices 1 2 3 4 5 6 
#
# 1 57.3090 17.6755 0.0229 0.0000 6.0224 0.0000
# 2 17.6755 19.9460 -2.7245 0.0000 0.8157 0.0000
# 3 0.0229 -2.7245 33.5340 0.0000 13.9616 0.0000
# 4 0.0000 0.0000 0.0000 21.4556 0.0000 6.6962
# 5 6.0224 0.8157 13.9616 0.0000 17.9633 0.0000
# 6 0.0000 0.0000 0.0000 6.6962 0.0000 1.5143
#
#
#
# Elastic Compliance Matrix: (Units=1/GPa)
#
#
# Indices 1 2 3 4 5 6 
#
# 1 0.025034 -0.021553 0.001950 0.000000 -0.008930 0.000000
# 2 -0.021553 0.070071 0.005949 0.000000 -0.000580 0.000000
# 3 0.001950 0.005949 0.045368 0.000000 -0.036185 0.000000
# 4 0.000000 0.000000 0.000000 -0.122624 0.000000 0.542248
# 5 -0.008930 -0.000580 -0.036185 0.000000 0.086814 0.000000
# 6 0.000000 0.000000 0.000000 0.542248 0.000000 -1.737449
#
#
# Mechanical properties :
#
#
# Convention : Reuss Voigt Hill
#
# Bulk Modulus (GPa) = 8.83668 15.63742 12.23705
# Shear Modulus (GPa) = -3.18927 14.57431 5.69252
#
# Velocity S-wave (km/s) = -1.25654 2.68611 1.67873
# Velocity P-wave (km/s) = 1.50649 4.16674 3.13299
#
# Compressibility (1/GPa) = 0.11316473
#
# Stress axis : x y z
#
# Youngs Moduli (GPa) = 39.94498 14.27117 22.04201
#
# Poissons Ratio (x) = 0.30759 -0.04297
# Poissons Ratio (y) = 0.86094 -0.13113
# Poissons Ratio (z) = -0.07788 -0.08490
#
# Static dielectric constant tensor:
#      x y z
#    x 1.773990 0.000000 0.040650 
#    y 0.000000 1.712070 0.000000 
#    z 0.040650 0.000000 1.741650 
# 
# From -- ./inp_files/190405.got.cif
#   From: 2010.05.17/outbox.cif.g08.bks.cpg/sg12_96_cif.got.tgz:190405.got - 2010.06.03 13:09:07.
