data_PCOD9188791
_publ_section_title
;
Structure prediction by ZEFSAII (Michael W. Deem and Ramdas Pophale) SiO2 
 PCOD9188791
Probable space group: C 2/M
;
_chemical_formula_sum "Si O2"
_cell_formula_units_Z 56
_cell_length_a 10.966853
_cell_length_b 28.281083
_cell_length_c 8.563900
_cell_angle_alpha 90.000000
_cell_angle_beta 110.396559
_cell_angle_gamma 90.000000
_cell_volume 2489.600238
_symmetry_space_group_name_H-M "C 2/M"
_symmetry_group_IT_number 12
_symmetry_cell_setting 'monoclinic'
loop_
_space_group_symop_operation_xyz
x,y,z
-x,y,-z
-x,-y,-z
x,-y,z
1/2+x,1/2+y,z
1/2-x,1/2+y,-z
1/2-x,1/2-y,-z
1/2+x,1/2-y,z
loop_
_atom_site_type_symbol
_atom_site_label
_atom_site_fract_x
_atom_site_fract_y
_atom_site_fract_z
Si Si1 0.352902 0.228094 0.924738
Si Si2 0.011903 0.552977 0.317344
Si Si3 0.187332 0.946853 0.555999
Si Si4 0.821556 0.860004 0.682840
Si Si5 0.145226 0.792626 0.587251
Si Si6 0.901849 0.884279 0.214873
Si Si7 0.663391 0.869316 0.909423
O O1 0.370866 0.174440 0.995296
O O2 0.500000 0.249314 0.000000
O O3 0.250000 0.250000 0.000000
O O4 0.273394 0.230145 0.725398
O O5 0.955333 0.500000 0.271945
O O6 0.944054 0.592980 0.184965
O O7 0.000000 0.563025 0.500000
O O8 0.160908 0.551408 0.329231
O O9 0.196278 0.908458 0.422176
O O10 0.101255 0.926293 0.659451
O O11 0.150144 0.000000 0.492826
O O12 0.819833 0.817484 0.559356
O O13 0.718306 0.850567 0.769601
O O14 0.965449 0.870466 0.810288
O O15 0.121275 0.837176 0.692117
O O16 0.000000 0.769157 0.500000
O O17 0.785145 0.893825 0.046846
#
# Coordination Sequence:
#
# PCOD9188791 Si02
#       7
#     8   8   8   8   8   8   8
#     4  11  27  47  70 101 139 174 218 282 349 413
#     4  10  21  37  58  88 128 170 220 278 325 379
#     4  10  20  35  55  82 124 170 217 270 319 378
#     4  10  19  36  61  91 120 165 220 263 325 393
#     4   8  18  40  66  90 126 169 214 265 322 406
#     4   9  20  34  55  88 120 160 213 261 321 380
#     4  11  23  38  66  91 127 168 216 270 334 396
#
# _framework density 22.493572
#
# number of rings (size 3 to 8) (size 9 to 14) (size 15 to 20)
#    0.000    2.143    1.429    1.714    6.000    5.143 
#    0.000    5.000    0.000    2.571    0.000    0.000 
#    0.000    0.000    0.000    0.000    0.000    0.000 
#
# Total GULP energy -156190.104590 kJ/mol
# GULP energy per Si atom -5578.218021 kJ/mol
# Density = 2.244238 g / cm^3
# Si number density = 22.493572 Si / 1000 Ang^3
#
#
#
# Elastic Constant Matrix: (Units=GPa)
#
#
# Indices 1 2 3 4 5 6 
#
# 1 101.4832 17.5387 40.4278 0.0000 22.4679 0.0000
# 2 17.5387 83.6497 39.0259 0.0000 18.2530 0.0000
# 3 40.4278 39.0259 113.7142 0.0000 24.4925 0.0000
# 4 0.0000 0.0000 0.0000 12.2656 0.0000 -8.3654
# 5 22.4679 18.2530 24.4925 0.0000 24.8504 0.0000
# 6 0.0000 0.0000 0.0000 -8.3654 0.0000 16.2455
#
#
#
# Elastic Compliance Matrix: (Units=1/GPa)
#
#
# Indices 1 2 3 4 5 6 
#
# 1 0.012941 0.000646 -0.002793 0.000000 -0.009422 0.000000
# 2 0.000646 0.015346 -0.003736 0.000000 -0.008174 0.000000
# 3 -0.002793 -0.003736 0.012611 0.000000 -0.007161 0.000000
# 4 0.000000 0.000000 0.000000 0.125661 0.000000 0.064707
# 5 -0.009422 -0.008174 -0.007161 0.000000 0.061820 0.000000
# 6 0.000000 0.000000 0.000000 0.064707 0.000000 0.094875
#
#
# Mechanical properties :
#
#
# Convention : Reuss Voigt Hill
#
# Bulk Modulus (GPa) = 34.32684 54.75909 44.54296
# Shear Modulus (GPa) = 14.50409 24.12928 19.31668
#
# Velocity S-wave (km/s) = 2.54207 3.27879 2.93365
# Velocity P-wave (km/s) = 4.88979 6.22344 5.59648
#
# Compressibility (1/GPa) = 0.02913172
#
# Stress axis : x y z
#
# Youngs Moduli (GPa) = 77.27495 65.16538 79.29422
#
# Poissons Ratio (x) = -0.04207 0.22147
# Poissons Ratio (y) = -0.04989 0.29621
# Poissons Ratio (z) = 0.21583 0.24343
#
# Static dielectric constant tensor:
#      x y z
#    x 1.904050 0.000000 0.035720 
#    y 0.000000 1.837340 0.000000 
#    z 0.035720 0.000000 1.868730 
# 
# From -- ./inp_files/54833.got.cif
#   From: 2010.05.17/outbox.cif.g08.bks.cpg/sg12_28_cif.got.tgz:54833.got - 2010.06.03 13:09:07.
