data_PCOD9188024
_publ_section_title
;
Structure prediction by ZEFSAII (Michael W. Deem and Ramdas Pophale) SiO2 
 PCOD9188024
Probable space group: C 2/M
;
_chemical_formula_sum "Si O2"
_cell_formula_units_Z 48
_cell_length_a 21.030075
_cell_length_b 21.283860
_cell_length_c 17.870030
_cell_angle_alpha 90.000000
_cell_angle_beta 21.380967
_cell_angle_gamma 90.000000
_cell_volume 2916.046337
_symmetry_space_group_name_H-M "C 2/M"
_symmetry_group_IT_number 12
_symmetry_cell_setting 'monoclinic'
loop_
_space_group_symop_operation_xyz
x,y,z
-x,y,-z
-x,-y,-z
x,-y,z
1/2+x,1/2+y,z
1/2-x,1/2+y,-z
1/2-x,1/2-y,-z
1/2+x,1/2-y,z
loop_
_atom_site_type_symbol
_atom_site_label
_atom_site_fract_x
_atom_site_fract_y
_atom_site_fract_z
Si Si1 0.398822 0.711954 0.688181
Si Si2 0.950803 0.637594 0.969680
Si Si3 0.045711 0.000000 0.571014
Si Si4 0.318344 0.821251 0.420404
Si Si5 0.505111 0.374389 0.281194
Si Si6 0.202831 0.500000 0.842617
Si Si7 0.164064 0.311495 0.134955
O O1 0.500000 0.708149 0.500000
O O2 0.500076 0.677262 0.645336
O O3 0.361833 0.783312 0.754212
O O4 0.220597 0.673663 0.871404
O O5 0.100482 0.657409 0.748028
O O6 0.904578 0.563401 0.023369
O O7 0.000000 0.656464 0.000000
O O8 0.032768 0.060803 0.636680
O O9 0.214986 0.000000 0.331330
O O10 0.874105 0.000000 0.706929
O O11 0.250000 0.750000 0.500000
O O12 0.477930 0.827859 0.303115
O O13 0.142185 0.861209 0.618982
O O14 0.694884 0.365345 0.035778
O O15 0.250000 0.250000 0.000000
#
# Coordination Sequence:
#
# PCOD9188024 Si02
#       7
#     8   8   4   8   8   4   8
#     4  11  19  33  51  75 105 136 171 219 266 312
#     4  12  23  32  48  77 108 145 185 217 252 308
#     4  11  20  34  54  74 104 155 181 213 255 310
#     4  12  20  34  55  72  97 141 177 221 267 306
#     4  11  21  36  53  75 107 140 181 213 259 309
#     4  11  21  34  48  70 115 149 184 214 250 295
#     4  10  19  36  53  74 101 133 177 223 266 314
#
# _framework density 16.460643999999998
#
# number of rings (size 3 to 8) (size 9 to 14) (size 15 to 20)
#    0.000    0.833    8.333    3.250    0.000    0.667 
#    0.000    0.833    0.000    0.000    0.000    0.583 
#    0.000    1.333    0.000    0.000    0.000    0.000 
#
# Total GULP energy -133839.282318 kJ/mol
# GULP energy per Si atom -5576.636763 kJ/mol
# Density = 1.642318 g / cm^3
# Si number density = 16.460644 Si / 1000 Ang^3
#
#
#
# Elastic Constant Matrix: (Units=GPa)
#
#
# Indices 1 2 3 4 5 6 
#
# 1 59.3905 32.7375 30.5346 -0.0011 -22.2828 -0.0007
# 2 32.7375 91.8455 43.9297 -0.0054 4.9153 0.0048
# 3 30.5346 43.9297 100.0647 0.0058 -15.8159 0.0008
# 4 -0.0011 -0.0054 0.0058 24.8308 0.0031 3.9126
# 5 -22.2828 4.9153 -15.8159 0.0031 33.2756 -0.0003
# 6 -0.0007 0.0048 0.0008 3.9126 -0.0003 30.3392
#
#
#
# Elastic Compliance Matrix: (Units=1/GPa)
#
#
# Indices 1 2 3 4 5 6 
#
# 1 0.033131 -0.012698 -0.000792 -0.000005 0.023685 0.000004
# 2 -0.012698 0.019575 -0.007049 0.000008 -0.014745 -0.000004
# 3 -0.000792 -0.007049 0.014500 -0.000006 0.007403 0.000002
# 4 -0.000005 0.000008 -0.000006 0.041108 -0.000011 -0.005301
# 5 0.023685 -0.014745 0.007403 -0.000011 0.051609 0.000005
# 6 0.000004 -0.000004 0.000002 -0.005301 0.000005 0.033644
#
#
# Mechanical properties :
#
#
# Convention : Reuss Voigt Hill
#
# Bulk Modulus (GPa) = 38.27401 51.74493 45.00947
# Shear Modulus (GPa) = 20.54618 27.29572 23.92095
#
# Velocity S-wave (km/s) = 3.53682 4.07657 3.81625
# Velocity P-wave (km/s) = 6.32306 7.32541 6.84262
#
# Compressibility (1/GPa) = 0.02612739
#
# Stress axis : x y z
#
# Youngs Moduli (GPa) = 30.18351 51.08613 68.96590
#
# Poissons Ratio (x) = 0.64870 0.05459
# Poissons Ratio (y) = 0.38327 0.48616
# Poissons Ratio (z) = 0.02389 0.36012
#
# Static dielectric constant tensor:
#      x y z
#    x 1.570050 0.000000 -0.025490 
#    y 0.000000 1.564020 0.000000 
#    z -0.025490 0.000000 1.611000 
# 
# From -- ./inp_files/285880.got.cif
#   From: 2010.05.17/outbox.cif.g08.bks.cpg/sg12_143_cif.got.tgz:285880.got - 2010.06.03 13:09:07.
