data_PCOD9188899
_publ_section_title
;
Structure prediction by ZEFSAII (Michael W. Deem and Ramdas Pophale) SiO2 
 PCOD9188899
Probable space group: C 2/M
;
_chemical_formula_sum "Si O2"
_cell_formula_units_Z 48
_cell_length_a 15.661412
_cell_length_b 13.883350
_cell_length_c 11.138277
_cell_angle_alpha 90.000000
_cell_angle_beta 129.580232
_cell_angle_gamma 90.000000
_cell_volume 1866.582640
_symmetry_space_group_name_H-M "C 2/M"
_symmetry_group_IT_number 12
_symmetry_cell_setting 'monoclinic'
loop_
_space_group_symop_operation_xyz
x,y,z
-x,y,-z
-x,-y,-z
x,-y,z
1/2+x,1/2+y,z
1/2-x,1/2+y,-z
1/2-x,1/2-y,-z
1/2+x,1/2-y,z
loop_
_atom_site_type_symbol
_atom_site_label
_atom_site_fract_x
_atom_site_fract_y
_atom_site_fract_z
Si Si1 0.073576 0.384590 0.184520
Si Si2 0.046089 0.885454 0.227532
Si Si3 0.656468 0.383460 0.806343
Si Si4 0.821828 0.806155 0.427374
Si Si5 0.256602 0.114169 0.289269
Si Si6 0.633426 0.884021 0.868856
O O1 0.090180 0.500000 0.200890
O O2 0.194043 0.339496 0.301930
O O3 0.991133 0.352546 0.217395
O O4 0.000000 0.363268 0.000000
O O5 0.120015 0.856215 0.408867
O O6 0.124912 0.862562 0.184637
O O7 0.924065 0.852718 0.157143
O O8 0.034649 0.000000 0.210131
O O9 0.654198 0.500000 0.793907
O O10 0.624671 0.339880 0.650320
O O11 0.779735 0.352236 0.952434
O O12 0.818144 0.690473 0.429119
O O13 0.310206 0.133562 0.208180
O O14 0.271106 0.000000 0.330161
O O15 0.628932 0.000000 0.875923
#
# Coordination Sequence:
#
# PCOD9188899 Si02
#       6
#     8   8   8   8   8   8
#     4  10  19  36  62  94 127 156 198 256 310 360
#     4  10  22  41  64  92 125 161 203 253 313 372
#     4  10  20  37  64  96 125 154 198 258 313 364
#     4  12  22  37  65  93 124 159 206 258 310 367
#     4  10  24  44  61  85 126 171 211 252 302 368
#     4   9  19  39  63  90 126 164 202 248 307 366
#
# _framework density 25.715441999999999
#
# number of rings (size 3 to 8) (size 9 to 14) (size 15 to 20)
#    0.000    1.833    1.667    2.500    0.000    4.000 
#    3.000    5.833    0.000    8.000    0.000    0.000 
#    0.000    0.000    0.000    0.000    0.000    0.000 
#
# Total GULP energy -134303.243052 kJ/mol
# GULP energy per Si atom -5595.968460 kJ/mol
# Density = 2.565691 g / cm^3
# Si number density = 25.715442 Si / 1000 Ang^3
#
#
#
# Elastic Constant Matrix: (Units=GPa)
#
#
# Indices 1 2 3 4 5 6 
#
# 1 195.2754 2.3885 48.5124 0.0000 0.2479 0.0000
# 2 2.3885 84.2859 -8.9803 0.0000 5.1969 0.0000
# 3 48.5124 -8.9803 61.3188 0.0000 18.1403 0.0000
# 4 0.0000 0.0000 0.0000 14.7091 0.0000 -6.6056
# 5 0.2479 5.1969 18.1403 0.0000 39.9077 0.0000
# 6 0.0000 0.0000 0.0000 -6.6056 0.0000 2.9540
#
#
#
# Elastic Compliance Matrix: (Units=1/GPa)
#
#
# Indices 1 2 3 4 5 6 
#
# 1 0.006705 -0.001049 -0.006338 0.000000 0.002976 0.000000
# 2 -0.001049 0.012482 0.003624 0.000000 -0.003266 0.000000
# 3 -0.006338 0.003624 0.025397 0.000000 -0.011977 0.000000
# 4 0.000000 0.000000 0.000000-16.110601 0.000000-36.026066
# 5 0.002976 -0.003266 -0.011977 0.000000 0.030909 0.000000
# 6 0.000000 0.000000 0.000000-36.026066 0.000000-80.221933
#
#
# Mechanical properties :
#
#
# Convention : Reuss Voigt Hill
#
# Bulk Modulus (GPa) = 26.98582 47.19125 37.08853
# Shear Modulus (GPa) = -0.05195 31.44479 15.69642
#
# Velocity S-wave (km/s) = -0.14229 3.50065 2.47328
# Velocity P-wave (km/s) = 3.23880 5.89326 4.75501
#
# Compressibility (1/GPa) = 0.03705650
#
# Stress axis : x y z
#
# Youngs Moduli (GPa) = 149.14938 80.11783 39.37508
#
# Poissons Ratio (x) = 0.08403 0.24958
# Poissons Ratio (y) = 0.15643 -0.14270
# Poissons Ratio (z) = 0.94538 -0.29035
#
# Static dielectric constant tensor:
#      x y z
#    x 2.067640 0.000000 -0.045040 
#    y 0.000000 2.040450 0.000000 
#    z -0.045040 0.000000 1.964890 
# 
# From -- ./inp_files/143876.got.cif
#   From: 2010.05.17/outbox.cif.g08.bks.cpg/sg12_72_cif.got.tgz:143876.got - 2010.06.03 13:09:07.
