data_PCOD9188628
_publ_section_title
;
Structure prediction by ZEFSAII (Michael W. Deem and Ramdas Pophale) SiO2 
 PCOD9188628
Probable space group: C 2/M
;
_chemical_formula_sum "Si O2"
_cell_formula_units_Z 50
_cell_length_a 21.640272
_cell_length_b 7.967420
_cell_length_c 19.512247
_cell_angle_alpha 90.000000
_cell_angle_beta 127.174002
_cell_angle_gamma 90.000000
_cell_volume 2680.645048
_symmetry_space_group_name_H-M "C 2/M"
_symmetry_group_IT_number 12
_symmetry_cell_setting 'monoclinic'
loop_
_space_group_symop_operation_xyz
x,y,z
-x,y,-z
-x,-y,-z
x,-y,z
1/2+x,1/2+y,z
1/2-x,1/2+y,-z
1/2-x,1/2-y,-z
1/2+x,1/2-y,z
loop_
_atom_site_type_symbol
_atom_site_label
_atom_site_fract_x
_atom_site_fract_y
_atom_site_fract_z
Si Si1 0.124601 0.306324 0.094216
Si Si2 0.205351 0.798724 0.538751
Si Si3 0.730355 0.695977 0.910130
Si Si4 0.618175 0.804211 0.722113
Si Si5 0.000000 0.000000 0.000000
Si Si6 0.258847 0.301059 0.721338
Si Si7 0.531661 0.698605 0.448442
O O1 0.096102 0.500000 0.066727
O O2 0.193236 0.278630 0.084809
O O3 0.167806 0.289633 0.196248
O O4 0.066226 0.151744 0.047927
O O5 0.250000 0.750000 0.500000
O O6 0.248296 0.729190 0.634447
O O7 0.116012 0.735509 0.483077
O O8 0.204748 0.000000 0.542603
O O9 0.711954 0.500000 0.897856
O O10 0.658569 0.782214 0.822959
O O11 0.750000 0.750000 0.000000
O O12 0.681470 0.738224 0.709344
O O13 0.535330 0.722813 0.652679
O O14 0.607623 0.000000 0.701579
O O15 0.265797 0.500000 0.740176
O O16 0.500000 0.769180 0.500000
O O17 0.541969 0.500000 0.465666
#
# Coordination Sequence:
#
# PCOD9188628 Si02
#       7
#     8   8   8   8   2   8   8
#     4  10  22  39  63  94 122 162 208 253 310 370
#     4  11  23  38  58  84 120 162 202 250 307 371
#     4  10  21  37  62  90 124 159 201 251 311 370
#     4  10  20  33  58  90 120 151 198 253 302 358
#     4  12  22  40  64  90 128 158 210 260 304 366
#     4  10  19  36  60  88 118 155 203 254 304 363
#     4  10  20  36  58  86 118 153 197 249 302 353
#
# _framework density 18.652228000000001
#
# number of rings (size 3 to 8) (size 9 to 14) (size 15 to 20)
#    0.000    1.760    2.400    2.160    2.240    2.880 
#    0.000    1.600    3.520    3.840    0.000    0.000 
#    0.000    0.000    0.000    0.000    0.000    0.000 
#
# Total GULP energy -139207.779613 kJ/mol
# GULP energy per Si atom -5568.311185 kJ/mol
# Density = 1.860977 g / cm^3
# Si number density = 18.652228 Si / 1000 Ang^3
#
#
#
# Elastic Constant Matrix: (Units=GPa)
#
#
# Indices 1 2 3 4 5 6 
#
# 1 86.5122 28.9981 54.9325 0.0000 4.3085 0.0000
# 2 28.9981 81.2283 15.3351 0.0000 16.7510 0.0000
# 3 54.9325 15.3351 97.0529 0.0000 -11.8979 0.0000
# 4 0.0000 0.0000 0.0000 33.9107 0.0000 2.9562
# 5 4.3085 16.7510 -11.8979 0.0000 26.9396 0.0000
# 6 0.0000 0.0000 0.0000 2.9562 0.0000 23.1201
#
#
#
# Elastic Compliance Matrix: (Units=1/GPa)
#
#
# Indices 1 2 3 4 5 6 
#
# 1 0.020689 -0.003886 -0.011847 0.000000 -0.006125 0.000000
# 2 -0.003886 0.016071 -0.001574 0.000000 -0.010067 0.000000
# 3 -0.011847 -0.001574 0.018618 0.000000 0.011096 0.000000
# 4 0.000000 0.000000 0.000000 0.029822 0.000000 -0.003813
# 5 -0.006125 -0.010067 0.011096 0.000000 0.049260 0.000000
# 6 0.000000 0.000000 0.000000 -0.003813 0.000000 0.043740
#
#
# Mechanical properties :
#
#
# Convention : Reuss Voigt Hill
#
# Bulk Modulus (GPa) = 48.15913 51.48054 49.81983
# Shear Modulus (GPa) = 22.75459 27.82925 25.29192
#
# Velocity S-wave (km/s) = 3.49655 3.86684 3.68635
# Velocity P-wave (km/s) = 6.49436 6.89904 6.69976
#
# Compressibility (1/GPa) = 0.02076450
#
# Stress axis : x y z
#
# Youngs Moduli (GPa) = 48.33439 62.22196 53.71124
#
# Poissons Ratio (x) = 0.24182 0.63632
# Poissons Ratio (y) = 0.18784 0.08453
# Poissons Ratio (z) = 0.57262 0.09793
#
# Static dielectric constant tensor:
#      x y z
#    x 1.641530 0.000000 0.001050 
#    y 0.000000 1.667010 0.000000 
#    z 0.001050 0.000000 1.468620 
# 
# From -- ./inp_files/274935.got.cif
#   From: 2010.05.17/outbox.cif.g08.bks.cpg/sg12_138_cif.got.tgz:274935.got - 2010.06.03 13:09:07.
