data_PCOD9188036
_publ_section_title
;
Structure prediction by ZEFSAII (Michael W. Deem and Ramdas Pophale) SiO2 
 PCOD9188036
Probable space group: C 2/M
;
_chemical_formula_sum "Si O2"
_cell_formula_units_Z 48
_cell_length_a 11.963776
_cell_length_b 13.915178
_cell_length_c 23.324746
_cell_angle_alpha 90.000000
_cell_angle_beta 138.331315
_cell_angle_gamma 90.000000
_cell_volume 2581.543590
_symmetry_space_group_name_H-M "C 2/M"
_symmetry_group_IT_number 12
_symmetry_cell_setting 'monoclinic'
loop_
_space_group_symop_operation_xyz
x,y,z
-x,y,-z
-x,-y,-z
x,-y,z
1/2+x,1/2+y,z
1/2-x,1/2+y,-z
1/2-x,1/2-y,-z
1/2+x,1/2-y,z
loop_
_atom_site_type_symbol
_atom_site_label
_atom_site_fract_x
_atom_site_fract_y
_atom_site_fract_z
Si Si1 0.397439 0.237364 0.772325
Si Si2 0.706610 0.111503 0.499884
Si Si3 0.224027 0.720464 0.395730
Si Si4 0.271693 0.885087 0.086900
Si Si5 0.108071 0.890527 0.636462
Si Si6 0.542245 0.614182 0.109060
O O1 0.393136 0.254005 0.701838
O O2 0.553722 0.169756 0.847429
O O3 0.222694 0.181094 0.717602
O O4 0.412707 0.331285 0.816080
O O5 0.680721 0.187688 0.541020
O O6 0.640544 0.161969 0.416318
O O7 0.910235 0.113505 0.571327
O O8 0.654626 0.000000 0.487196
O O9 0.343217 0.644989 0.408460
O O10 0.174112 0.863310 0.108855
O O11 0.297607 0.000000 0.094938
O O12 0.141717 0.859462 0.986352
O O13 0.163810 0.000000 0.665588
O O14 0.544455 0.500000 0.117970
#
# Coordination Sequence:
#
# PCOD9188036 Si02
#       6
#     8   8   8   8   8   8
#     4  10  20  29  54  78 103 122 172 215 247 282
#     4  10  19  36  54  71 103 138 168 204 250 302
#     4   9  21  31  52  78 100 129 173 204 248 293
#     4   9  18  34  54  75 100 133 169 203 247 304
#     4   9  19  33  52  74  97 131 168 206 248 295
#     4   9  19  35  53  72 101 138 166 198 254 307
#
# _framework density 18.593526000000001
#
# number of rings (size 3 to 8) (size 9 to 14) (size 15 to 20)
#    1.000    1.667    0.000    3.000    2.333    2.000 
#    0.000    0.000    0.000    9.000    0.000    5.833 
#    0.000    0.000    0.000    0.000    0.000    0.000 
#
# Total GULP energy -133653.093919 kJ/mol
# GULP energy per Si atom -5568.878913 kJ/mol
# Density = 1.855121 g / cm^3
# Si number density = 18.593526 Si / 1000 Ang^3
#
#
#
# Elastic Constant Matrix: (Units=GPa)
#
#
# Indices 1 2 3 4 5 6 
#
# 1 20.9148 10.3227 16.0467 0.0000 1.2439 0.0000
# 2 10.3227 72.6777 38.8932 0.0000 -13.6818 0.0000
# 3 16.0467 38.8932 102.3576 0.0000 -15.1660 0.0000
# 4 0.0000 0.0000 0.0000 26.2614 0.0000 -4.0144
# 5 1.2439 -13.6818 -15.1660 0.0000 13.9917 0.0000
# 6 0.0000 0.0000 0.0000 -4.0144 0.0000 17.7066
#
#
#
# Elastic Compliance Matrix: (Units=1/GPa)
#
#
# Indices 1 2 3 4 5 6 
#
# 1 0.060839 -0.007718 -0.010156 0.000000 -0.023964 0.000000
# 2 -0.007718 0.020005 -0.004040 0.000000 0.015869 0.000000
# 3 -0.010156 -0.004040 0.014827 0.000000 0.013023 0.000000
# 4 0.000000 0.000000 0.000000 0.039446 0.000000 0.008943
# 5 -0.023964 0.015869 0.013023 0.000000 0.103235 0.000000
# 6 0.000000 0.000000 0.000000 0.008943 0.000000 0.058504
#
#
# Mechanical properties :
#
#
# Convention : Reuss Voigt Hill
#
# Bulk Modulus (GPa) = 19.28890 36.27503 27.78197
# Shear Modulus (GPa) = 13.96790 20.30445 17.13618
#
# Velocity S-wave (km/s) = 2.74382 3.30815 3.03911
# Velocity P-wave (km/s) = 4.52046 5.84326 5.22390
#
# Compressibility (1/GPa) = 0.05184329
#
# Stress axis : x y z
#
# Youngs Moduli (GPa) = 16.43675 49.98744 67.44630
#
# Poissons Ratio (x) = 0.38578 0.68498
# Poissons Ratio (y) = 0.12685 0.27250
# Poissons Ratio (z) = 0.16693 0.20196
#
# Static dielectric constant tensor:
#      x y z
#    x 1.665890 0.000000 0.009140 
#    y 0.000000 1.634750 0.000000 
#    z 0.009140 0.000000 1.657290 
# 
# From -- ./inp_files/305187.got.cif
#   From: 2010.05.17/outbox.cif.g08.bks.cpg/sg12_153_cif.got.tgz:305187.got - 2010.06.03 13:09:07.
