data_PCOD9188375
_publ_section_title
;
Structure prediction by ZEFSAII (Michael W. Deem and Ramdas Pophale) SiO2 
 PCOD9188375
Probable space group: C 2/M
;
_chemical_formula_sum "Si O2"
_cell_formula_units_Z 48
_cell_length_a 24.076330
_cell_length_b 8.600070
_cell_length_c 12.990517
_cell_angle_alpha 90.000000
_cell_angle_beta 90.770929
_cell_angle_gamma 90.000000
_cell_volume 2689.548590
_symmetry_space_group_name_H-M "C 2/M"
_symmetry_group_IT_number 12
_symmetry_cell_setting 'monoclinic'
loop_
_space_group_symop_operation_xyz
x,y,z
-x,y,-z
-x,-y,-z
x,-y,z
1/2+x,1/2+y,z
1/2-x,1/2+y,-z
1/2-x,1/2-y,-z
1/2+x,1/2-y,z
loop_
_atom_site_type_symbol
_atom_site_label
_atom_site_fract_x
_atom_site_fract_y
_atom_site_fract_z
Si Si1 0.618375 0.186497 0.793029
Si Si2 0.878461 0.311551 0.822864
Si Si3 0.688278 0.314710 0.983384
Si Si4 0.999216 0.310824 0.119426
Si Si5 0.808077 0.312323 0.622176
Si Si6 0.679817 0.314154 0.602075
O O1 0.661337 0.252796 0.877627
O O2 0.556722 0.240181 0.824875
O O3 0.637255 0.241243 0.681416
O O4 0.619663 0.000000 0.798045
O O5 0.875931 0.500000 0.829448
O O6 0.845106 0.263733 0.720069
O O7 0.943082 0.264801 0.825913
O O8 0.849155 0.243997 0.922953
O O9 0.689850 0.500000 0.981101
O O10 0.750000 0.250000 0.000000
O O11 0.998098 0.500000 0.117954
O O12 0.000000 0.259897 0.000000
O O13 0.810101 0.500000 0.614892
O O14 0.743247 0.267930 0.633779
O O15 0.828214 0.242144 0.514881
O O16 0.676404 0.500000 0.606894
#
# Coordination Sequence:
#
# PCOD9188375 Si02
#       6
#     8   8   8   8   8   8
#     4  11  21  36  58  82 111 147 188 230 275 331
#     4  10  19  36  59  82 110 144 187 234 276 327
#     4  12  24  36  53  81 114 146 182 226 281 336
#     4   9  17  33  57  82 109 146 188 227 275 328
#     4   9  19  35  57  81 106 142 185 228 279 335
#     4  10  20  35  55  81 113 145 182 231 283 336
#
# _framework density 17.846862000000002
#
# number of rings (size 3 to 8) (size 9 to 14) (size 15 to 20)
#    0.000    1.833    1.667    3.500    0.000    2.667 
#    0.000    3.333    0.000    5.000    0.000    0.000 
#    0.000    0.000    0.000    0.000    0.000    0.000 
#
# Total GULP energy -134041.954571 kJ/mol
# GULP energy per Si atom -5585.081440 kJ/mol
# Density = 1.780624 g / cm^3
# Si number density = 17.846862 Si / 1000 Ang^3
#
#
#
# Elastic Constant Matrix: (Units=GPa)
#
#
# Indices 1 2 3 4 5 6 
#
# 1 65.1526 11.1925 17.5536 0.0000 -28.1235 0.0000
# 2 11.1925 32.8975 16.4831 0.0000 -7.7143 0.0000
# 3 17.5536 16.4831 74.8664 0.0000 -20.9458 0.0000
# 4 0.0000 0.0000 0.0000 27.1920 0.0000 4.8074
# 5 -28.1235 -7.7143 -20.9458 0.0000 32.2322 0.0000
# 6 0.0000 0.0000 0.0000 4.8074 0.0000 5.2141
#
#
#
# Elastic Compliance Matrix: (Units=1/GPa)
#
#
# Indices 1 2 3 4 5 6 
#
# 1 0.025079 -0.003988 0.001043 0.000000 0.021605 0.000000
# 2 -0.003988 0.035232 -0.006644 0.000000 0.000635 0.000000
# 3 0.001043 -0.006644 0.017582 0.000000 0.010745 0.000000
# 4 0.000000 0.000000 0.000000 0.043937 0.000000 -0.040509
# 5 0.021605 0.000635 0.010745 0.000000 0.057010 0.000000
# 6 0.000000 0.000000 0.000000 -0.040509 0.000000 0.229135
#
#
# Mechanical properties :
#
#
# Convention : Reuss Voigt Hill
#
# Bulk Modulus (GPa) = 17.03226 29.26387 23.14807
# Shear Modulus (GPa) = 11.19255 21.44015 16.31635
#
# Velocity S-wave (km/s) = 2.50700 3.46980 3.02692
# Velocity P-wave (km/s) = 4.23608 5.69960 5.02144
#
# Compressibility (1/GPa) = 0.05871211
#
# Stress axis : x y z
#
# Youngs Moduli (GPa) = 39.87452 28.38305 56.87749
#
# Poissons Ratio (x) = 0.11321 -0.05930
# Poissons Ratio (y) = 0.15904 0.37791
# Poissons Ratio (z) = -0.04157 0.18859
#
# Static dielectric constant tensor:
#      x y z
#    x 1.606120 0.000000 0.003040 
#    y 0.000000 1.603450 0.000000 
#    z 0.003040 0.000000 1.575800 
# 
# From -- ./inp_files/172302.got.cif
#   From: 2010.05.17/outbox.cif.g08.bks.cpg/sg12_87_cif.got.tgz:172302.got - 2010.06.03 13:09:07.
