data_PCOD9188802
_publ_section_title
;
Structure prediction by ZEFSAII (Michael W. Deem and Ramdas Pophale) SiO2 
 PCOD9188802
Probable space group: C 2/M
;
_chemical_formula_sum "Si O2"
_cell_formula_units_Z 50
_cell_length_a 18.547482
_cell_length_b 7.800714
_cell_length_c 15.655214
_cell_angle_alpha 90.000000
_cell_angle_beta 111.296047
_cell_angle_gamma 90.000000
_cell_volume 2110.386547
_symmetry_space_group_name_H-M "C 2/M"
_symmetry_group_IT_number 12
_symmetry_cell_setting 'monoclinic'
loop_
_space_group_symop_operation_xyz
x,y,z
-x,y,-z
-x,-y,-z
x,-y,z
1/2+x,1/2+y,z
1/2-x,1/2+y,-z
1/2-x,1/2-y,-z
1/2+x,1/2-y,z
loop_
_atom_site_type_symbol
_atom_site_label
_atom_site_fract_x
_atom_site_fract_y
_atom_site_fract_z
Si Si1 0.339941 0.706690 0.542280
Si Si2 0.599978 0.303002 0.609933
Si Si3 0.500000 0.000000 0.000000
Si Si4 0.778377 0.298801 0.205667
Si Si5 0.517898 0.292091 0.299048
Si Si6 0.396792 0.199257 0.104846
Si Si7 0.604218 0.307984 0.083524
O O1 0.343775 0.500000 0.542434
O O2 0.250000 0.750000 0.500000
O O3 0.379888 0.774395 0.472642
O O4 0.393642 0.760871 0.645304
O O5 0.577714 0.500000 0.584893
O O6 0.676781 0.299179 0.701187
O O7 0.532881 0.229931 0.641264
O O8 0.546171 0.846468 0.072586
O O9 0.787692 0.500000 0.229696
O O10 0.823585 0.272381 0.135707
O O11 0.688177 0.265053 0.157120
O O12 0.514769 0.500000 0.295396
O O13 0.470078 0.231712 0.196898
O O14 0.388083 0.309606 0.016497
O O15 0.400397 0.000000 0.074211
O O16 0.580706 0.500000 0.102174
#
# Coordination Sequence:
#
# PCOD9188802 Si02
#       7
#     8   8   2   8   8   8   8
#     4  10  21  37  54  80 113 150 193 241 296 362
#     4   9  18  34  59  84 110 148 196 245 296 353
#     4  12  26  44  60  86 124 168 210 250 288 374
#     4   9  20  36  60  91 120 149 191 250 306 356
#     4   9  18  35  58  83 112 149 195 246 298 353
#     4  10  19  36  61  92 121 149 195 252 303 356
#     4  11  23  42  62  87 123 165 206 247 300 356
#
# _framework density 23.692340999999999
#
# number of rings (size 3 to 8) (size 9 to 14) (size 15 to 20)
#    0.000    2.240    0.800    1.680    1.120    3.840 
#    2.880    0.000    0.000    4.800    0.000    0.000 
#    0.000    0.000    0.000    0.000    0.000    0.000 
#
# Total GULP energy -139512.897447 kJ/mol
# GULP energy per Si atom -5580.515898 kJ/mol
# Density = 2.363842 g / cm^3
# Si number density = 23.692341 Si / 1000 Ang^3
#
#
#
# Elastic Constant Matrix: (Units=GPa)
#
#
# Indices 1 2 3 4 5 6 
#
# 1 71.1557 26.9593 42.8066 0.0000 24.9551 0.0000
# 2 26.9593 70.6165 2.4193 0.0000 4.9493 0.0000
# 3 42.8066 2.4193 72.1754 0.0000 21.0299 0.0000
# 4 0.0000 0.0000 0.0000 16.5282 0.0000 6.3815
# 5 24.9551 4.9493 21.0299 0.0000 40.6479 0.0000
# 6 0.0000 0.0000 0.0000 6.3815 0.0000 25.2144
#
#
#
# Elastic Compliance Matrix: (Units=1/GPa)
#
#
# Indices 1 2 3 4 5 6 
#
# 1 0.030272 -0.010372 -0.014788 0.000000 -0.009671 0.000000
# 2 -0.010372 0.017837 0.005100 0.000000 0.001558 0.000000
# 3 -0.014788 0.005100 0.023539 0.000000 -0.003720 0.000000
# 4 0.000000 0.000000 0.000000 0.067055 0.000000 -0.016971
# 5 -0.009671 0.001558 -0.003720 0.000000 0.032274 0.000000
# 6 0.000000 0.000000 0.000000 -0.016971 0.000000 0.043955
#
#
# Mechanical properties :
#
#
# Convention : Reuss Voigt Hill
#
# Bulk Modulus (GPa) = 31.71957 39.81312 35.76634
# Shear Modulus (GPa) = 18.82796 25.92892 22.37844
#
# Velocity S-wave (km/s) = 2.82207 3.31176 3.07668
# Velocity P-wave (km/s) = 4.90265 5.60931 5.26784
#
# Compressibility (1/GPa) = 0.03152628
#
# Stress axis : x y z
#
# Youngs Moduli (GPa) = 33.03395 56.06321 42.48254
#
# Poissons Ratio (x) = 0.58151 0.62825
# Poissons Ratio (y) = 0.34264 -0.21667
# Poissons Ratio (z) = 0.48852 -0.28593
#
# Static dielectric constant tensor:
#      x y z
#    x 1.826350 0.000000 0.002250 
#    y 0.000000 1.876520 0.000000 
#    z 0.002250 0.000000 1.866080 
# 
# From -- ./inp_files/275772.got.cif
#   From: 2010.05.17/outbox.cif.g08.bks.cpg/sg12_138_cif.got.tgz:275772.got - 2010.06.03 13:09:07.
