data_PCOD9188170
_publ_section_title
;
Structure prediction by ZEFSAII (Michael W. Deem and Ramdas Pophale) SiO2 
 PCOD9188170
Probable space group: C 2/M
;
_chemical_formula_sum "Si O2"
_cell_formula_units_Z 56
_cell_length_a 24.613575
_cell_length_b 7.572542
_cell_length_c 14.584197
_cell_angle_alpha 90.000000
_cell_angle_beta 111.417273
_cell_angle_gamma 90.000000
_cell_volume 2530.598784
_symmetry_space_group_name_H-M "C 2/M"
_symmetry_group_IT_number 12
_symmetry_cell_setting 'monoclinic'
loop_
_space_group_symop_operation_xyz
x,y,z
-x,y,-z
-x,-y,-z
x,-y,z
1/2+x,1/2+y,z
1/2-x,1/2+y,-z
1/2-x,1/2-y,-z
1/2+x,1/2-y,z
loop_
_atom_site_type_symbol
_atom_site_label
_atom_site_fract_x
_atom_site_fract_y
_atom_site_fract_z
Si Si1 0.283955 0.285342 0.310704
Si Si2 0.578693 0.801215 0.289462
Si Si3 0.505600 0.793901 0.607532
Si Si4 0.875003 0.213901 0.220325
Si Si5 0.158042 0.709842 0.188881
Si Si6 0.684019 0.289940 0.994527
Si Si7 0.182596 0.209650 0.477277
O O1 0.280496 0.500000 0.312089
O O2 0.316370 0.236128 0.238421
O O3 0.217975 0.217231 0.270241
O O4 0.323465 0.232946 0.420901
O O5 0.534736 0.714802 0.335799
O O6 0.600650 0.719822 0.206356
O O7 0.638850 0.806215 0.383741
O O8 0.556011 0.000000 0.257147
O O9 0.500000 0.720279 0.500000
O O10 0.570319 0.782271 0.688734
O O11 0.487725 0.000000 0.588688
O O12 0.863202 0.274945 0.109596
O O13 0.879527 0.000000 0.223796
O O14 0.156258 0.500000 0.205334
O O15 0.167439 0.729594 0.086222
O O16 0.680336 0.500000 0.993461
O O17 0.750000 0.250000 0.000000
O O18 0.250000 0.250000 0.500000
O O19 0.172395 0.000000 0.462844
#
# Coordination Sequence:
#
# PCOD9188170 Si02
#       7
#     8   8   8   8   8   8   8
#     4   9  17  32  52  77 111 148 183 226 284 343
#     4  10  21  38  57  79 115 156 191 239 297 347
#     4  10  22  40  61  87 117 150 195 245 287 339
#     4  10  21  38  59  82 112 150 192 234 285 347
#     4  10  19  36  57  79 113 153 188 233 290 346
#     4  11  22  37  59  89 120 153 193 241 293 346
#     4  11  20  31  51  80 113 148 187 232 285 349
#
# _framework density 22.129149000000002
#
# number of rings (size 3 to 8) (size 9 to 14) (size 15 to 20)
#    0.000    1.857    2.857    1.714    0.000    2.571 
#    0.000    1.429    0.000    4.286    0.000    0.000 
#    0.000    0.000    0.000    0.000    0.000    0.000 
#
# Total GULP energy -156184.224366 kJ/mol
# GULP energy per Si atom -5578.008013 kJ/mol
# Density = 2.207878 g / cm^3
# Si number density = 22.129149 Si / 1000 Ang^3
#
#
#
# Elastic Constant Matrix: (Units=GPa)
#
#
# Indices 1 2 3 4 5 6 
#
# 1 122.5370 -1.7970 43.5489 0.0000 -30.5150 0.0000
# 2 -1.7970 64.2426 1.1652 0.0000 -5.7045 0.0000
# 3 43.5489 1.1652 134.1654 0.0000 -28.3511 0.0000
# 4 0.0000 0.0000 0.0000 23.3023 0.0000 1.3635
# 5 -30.5150 -5.7045 -28.3511 0.0000 43.3533 0.0000
# 6 0.0000 0.0000 0.0000 1.3635 0.0000 9.5437
#
#
#
# Elastic Compliance Matrix: (Units=1/GPa)
#
#
# Indices 1 2 3 4 5 6 
#
# 1 0.010438 0.000870 -0.002111 0.000000 0.006081 0.000000
# 2 0.000870 0.015837 0.000174 0.000000 0.002810 0.000000
# 3 -0.002111 0.000174 0.009083 0.000000 0.004477 0.000000
# 4 0.000000 0.000000 0.000000 0.043276 0.000000 -0.006183
# 5 0.006081 0.002810 0.004477 0.000000 0.030644 0.000000
# 6 0.000000 0.000000 0.000000 -0.006183 0.000000 0.105665
#
#
# Mechanical properties :
#
#
# Convention : Reuss Voigt Hill
#
# Bulk Modulus (GPa) = 30.09798 45.19770 37.64784
# Shear Modulus (GPa) = 21.91530 33.77505 27.84517
#
# Velocity S-wave (km/s) = 3.15037 3.91099 3.55110
# Velocity P-wave (km/s) = 5.18302 6.39244 5.81924
#
# Compressibility (1/GPa) = 0.03322482
#
# Stress axis : x y z
#
# Youngs Moduli (GPa) = 95.80323 63.14443 110.09372
#
# Poissons Ratio (x) = -0.05495 0.23236
# Poissons Ratio (y) = -0.08337 -0.01913
# Poissons Ratio (z) = 0.20220 -0.01097
#
# Static dielectric constant tensor:
#      x y z
#    x 1.878740 0.000000 -0.095030 
#    y 0.000000 2.120960 0.000000 
#    z -0.095030 0.000000 1.856010 
# 
# From -- ./inp_files/237911.got.cif
#   From: 2010.05.17/outbox.cif.g08.bks.cpg/sg12_119_cif.got.tgz:237911.got - 2010.06.03 13:09:07.
