data_PCOD9188688
_publ_section_title
;
Structure prediction by ZEFSAII (Michael W. Deem and Ramdas Pophale) SiO2 
 PCOD9188688
Probable space group: C 2/M
;
_chemical_formula_sum "Si O2"
_cell_formula_units_Z 52
_cell_length_a 5.288583
_cell_length_b 27.473509
_cell_length_c 18.242482
_cell_angle_alpha 90.000000
_cell_angle_beta 56.666224
_cell_angle_gamma 90.000000
_cell_volume 2214.498014
_symmetry_space_group_name_H-M "C 2/M"
_symmetry_group_IT_number 12
_symmetry_cell_setting 'monoclinic'
loop_
_space_group_symop_operation_xyz
x,y,z
-x,y,-z
-x,-y,-z
x,-y,z
1/2+x,1/2+y,z
1/2-x,1/2+y,-z
1/2-x,1/2-y,-z
1/2+x,1/2-y,z
loop_
_atom_site_type_symbol
_atom_site_label
_atom_site_fract_x
_atom_site_fract_y
_atom_site_fract_z
Si Si1 0.127311 0.618864 0.121007
Si Si2 0.259070 0.269436 0.097549
Si Si3 0.854091 0.500000 0.444237
Si Si4 0.771100 0.082085 0.325844
Si Si5 0.864716 0.057466 0.878308
Si Si6 0.032850 0.768917 0.600710
Si Si7 0.236315 0.370173 0.669452
O O1 0.211813 0.673921 0.086957
O O2 0.415567 0.587198 0.101807
O O3 0.941912 0.587216 0.091175
O O4 0.906694 0.628907 0.225945
O O5 0.446414 0.259703 0.141621
O O6 0.500000 0.248289 0.000000
O O7 0.500000 0.500000 0.500000
O O8 0.000000 0.500000 0.500000
O O9 0.996000 0.546138 0.383223
O O10 0.567262 0.127330 0.331593
O O11 0.958333 0.060754 0.227845
O O12 0.993653 0.090159 0.359061
O O13 0.824648 0.000000 0.903214
O O14 0.250000 0.750000 0.500000
O O15 0.226742 0.761464 0.642264
O O16 0.923778 0.823908 0.613088
#
# Coordination Sequence:
#
# PCOD9188688 Si02
#       7
#     8   8   4   8   8   8   8
#     4  10  21  34  59  92 112 150 201 238 284 344
#     4  10  21  38  60  88 125 163 195 237 293 345
#     4  12  24  40  52  82 108 140 183 224 293 344
#     4  10  21  39  56  79 109 140 179 236 283 337
#     4  10  19  36  61  83 118 152 190 244 292 343
#     4  10  21  38  52  71  99 134 176 216 270 331
#     4  10  21  37  58  81 106 140 185 233 283 332
#
# _framework density 23.481619999999999
#
# number of rings (size 3 to 8) (size 9 to 14) (size 15 to 20)
#    0.000    1.846    0.769    3.231    0.000    1.231 
#   16.615    0.000    0.000    2.769    0.000    0.000 
#    0.000    0.000    0.000    0.000    0.000    0.000 
#
# Total GULP energy -144994.959861 kJ/mol
# GULP energy per Si atom -5576.729225 kJ/mol
# Density = 2.342818 g / cm^3
# Si number density = 23.481620 Si / 1000 Ang^3
#
#
#
# Elastic Constant Matrix: (Units=GPa)
#
#
# Indices 1 2 3 4 5 6 
#
# 1 182.3813 48.9307 32.3734 0.0000 -25.6595 0.0000
# 2 48.9307 125.6958 19.6857 0.0000 -8.7334 0.0000
# 3 32.3734 19.6857 54.7202 0.0000 -19.4451 0.0000
# 4 0.0000 0.0000 0.0000 -10.4700 0.0000 -57.0643
# 5 -25.6595 -8.7334 -19.4451 0.0000 27.3377 0.0000
# 6 0.0000 0.0000 0.0000 -57.0643 0.0000 -17.4432
#
#
#
# Elastic Compliance Matrix: (Units=1/GPa)
#
#
# Indices 1 2 3 4 5 6 
#
# 1 0.007021 -0.002138 -0.001720 0.000000 0.004683 0.000000
# 2 -0.002138 0.009092 -0.002258 0.000000 -0.000708 0.000000
# 3 -0.001720 -0.002258 0.025794 0.000000 0.016012 0.000000
# 4 0.000000 0.000000 0.000000 0.005675 0.000000 -0.018565
# 5 0.004683 -0.000708 0.016012 0.000000 0.052138 0.000000
# 6 0.000000 0.000000 0.000000 -0.018565 0.000000 0.003406
#
#
# Mechanical properties :
#
#
# Convention : Reuss Voigt Hill
#
# Bulk Modulus (GPa) = 33.69775 62.75301 48.22538
# Shear Modulus (GPa) = 39.91975 17.33874 28.62925
#
# Velocity S-wave (km/s) = 4.12763 2.72029 3.49552
# Velocity P-wave (km/s) = 6.09084 6.05384 6.07237
#
# Compressibility (1/GPa) = 0.02967557
#
# Stress axis : x y z
#
# Youngs Moduli (GPa) = 142.43110 109.98094 38.76797
#
# Poissons Ratio (x) = 0.23517 0.06669
# Poissons Ratio (y) = 0.30456 0.08752
# Poissons Ratio (z) = 0.24501 0.24830
#
# Static dielectric constant tensor:
#      x y z
#    x 2.035480 0.000000 0.045400 
#    y 0.000000 1.669500 0.000000 
#    z 0.045400 0.000000 1.891020 
# 
# From -- ./inp_files/331436.got.cif
#   From: 2010.05.17/outbox.cif.g08.bks.cpg/sg12_166_cif.got.tgz:331436.got - 2010.06.03 13:09:07.
