data_PCOD9188938
_publ_section_title
;
Structure prediction by ZEFSAII (Michael W. Deem and Ramdas Pophale) SiO2 
 PCOD9188938
Probable space group: C 2/M
;
_chemical_formula_sum "Si O2"
_cell_formula_units_Z 32
_cell_length_a 9.124220
_cell_length_b 19.069710
_cell_length_c 9.722210
_cell_angle_alpha 90.000000
_cell_angle_beta 62.709630
_cell_angle_gamma 90.000000
_cell_volume 1503.340069
_symmetry_space_group_name_H-M "C 2/M"
_symmetry_group_IT_number 12
_symmetry_cell_setting 'monoclinic'
loop_
_space_group_symop_operation_xyz
x,y,z
-x,y,-z
-x,-y,-z
x,-y,z
1/2+x,1/2+y,z
1/2-x,1/2+y,-z
1/2-x,1/2-y,-z
1/2+x,1/2-y,z
loop_
_atom_site_type_symbol
_atom_site_label
_atom_site_fract_x
_atom_site_fract_y
_atom_site_fract_z
Si Si1 0.238418 0.208061 0.147481
Si Si2 0.874946 0.217190 0.339555
Si Si3 0.678755 0.918628 0.357283
Si Si4 0.677990 0.418508 0.992233
O O1 0.366372 0.239081 0.200355
O O2 0.232304 0.128357 0.097092
O O3 0.250000 0.250000 0.000000
O O4 0.187952 0.411820 0.187768
O O5 0.750000 0.250000 0.500000
O O6 0.812371 0.137540 0.349177
O O7 0.064432 0.220546 0.297917
O O8 0.500000 0.903701 0.500000
O O9 0.720325 0.000000 0.370922
O O10 0.660560 0.500000 0.036688
O O11 0.500000 0.397145 0.000000
#
# Coordination Sequence:
#
# PCOD9188938 Si02
#       4
#     8   8   8   8
#     4  12  22  40  62  91 122 158 204 254 306 358
#     4  12  25  40  61  91 126 163 202 254 309 368
#     4  10  20  37  60  88 121 162 207 245 300 371
#     4  10  19  36  63  91 119 159 208 253 306 369
#
# _framework density 21.285933
#
# number of rings (size 3 to 8) (size 9 to 14) (size 15 to 20)
#    0.000    1.000    5.000    3.000    0.000    0.000 
#    0.000    1.250    0.000    7.500    0.000    0.000 
#    0.000    0.000    0.000    0.000    0.000    0.000 
#
# Total GULP energy -89382.922646 kJ/mol
# GULP energy per Si atom -5586.432665 kJ/mol
# Density = 2.123749 g / cm^3
# Si number density = 21.285933 Si / 1000 Ang^3
#
#
#
# Elastic Constant Matrix: (Units=GPa)
#
#
# Indices 1 2 3 4 5 6 
#
# 1 64.5645 19.4659 12.7785 0.0000 -15.2955 0.0000
# 2 19.4659 91.6510 14.7833 0.0000 2.5506 0.0000
# 3 12.7785 14.7833 93.5212 0.0000 -22.9379 0.0000
# 4 0.0000 0.0000 0.0000 38.9203 0.0000 -5.6947
# 5 -15.2955 2.5506 -22.9379 0.0000 38.5547 0.0000
# 6 0.0000 0.0000 0.0000 -5.6947 0.0000 19.5662
#
#
#
# Elastic Compliance Matrix: (Units=1/GPa)
#
#
# Indices 1 2 3 4 5 6 
#
# 1 0.018549 -0.004151 -0.000007 0.000000 0.007629 0.000000
# 2 -0.004151 0.012272 -0.002313 0.000000 -0.003835 0.000000
# 3 -0.000007 -0.002313 0.012992 0.000000 0.007880 0.000000
# 4 0.000000 0.000000 0.000000 0.026836 0.000000 0.007811
# 5 0.007629 -0.003835 0.007880 0.000000 0.033905 0.000000
# 6 0.000000 0.000000 0.000000 0.007811 0.000000 0.053382
#
#
# Mechanical properties :
#
#
# Convention : Reuss Voigt Hill
#
# Bulk Modulus (GPa) = 32.39334 38.19912 35.29623
# Shear Modulus (GPa) = 27.59846 32.92216 30.26031
#
# Velocity S-wave (km/s) = 3.60468 3.93703 3.77452
# Velocity P-wave (km/s) = 5.70756 6.21704 5.96774
#
# Compressibility (1/GPa) = 0.03087054
#
# Stress axis : x y z
#
# Youngs Moduli (GPa) = 53.91259 81.48363 76.96987
#
# Poissons Ratio (x) = 0.33821 0.00055
# Poissons Ratio (y) = 0.22378 0.17806
# Poissons Ratio (z) = 0.00039 0.18850
#
# Static dielectric constant tensor:
#      x y z
#    x 1.783580 0.000000 -0.024250 
#    y 0.000000 1.836050 0.000000 
#    z -0.024250 0.000000 1.778540 
# 
# From -- ./inp_files/117746.got.cif
#   From: 2010.05.17/outbox.cif.g08.bks.cpg/sg12_59_cif.got.tgz:117746.got - 2010.06.03 13:09:07.
