data_PCOD9188489
_publ_section_title
;
Structure prediction by ZEFSAII (Michael W. Deem and Ramdas Pophale) SiO2 
 PCOD9188489
Probable space group: C 2/M
;
_chemical_formula_sum "Si O2"
_cell_formula_units_Z 48
_cell_length_a 8.642109
_cell_length_b 17.219402
_cell_length_c 25.755611
_cell_angle_alpha 90.000000
_cell_angle_beta 139.016861
_cell_angle_gamma 90.000000
_cell_volume 2513.654089
_symmetry_space_group_name_H-M "C 2/M"
_symmetry_group_IT_number 12
_symmetry_cell_setting 'monoclinic'
loop_
_space_group_symop_operation_xyz
x,y,z
-x,y,-z
-x,-y,-z
x,-y,z
1/2+x,1/2+y,z
1/2-x,1/2+y,-z
1/2-x,1/2-y,-z
1/2+x,1/2-y,z
loop_
_atom_site_type_symbol
_atom_site_label
_atom_site_fract_x
_atom_site_fract_y
_atom_site_fract_z
Si Si1 0.042542 0.592230 0.200875
Si Si2 0.216769 0.089229 0.926487
Si Si3 0.366525 0.324523 0.200023
Si Si4 0.773132 0.302120 0.671177
Si Si5 0.914355 0.189655 0.923860
Si Si6 0.753853 0.779374 0.559559
O O1 0.039235 0.500000 0.198937
O O2 0.249096 0.626291 0.216380
O O3 0.076458 0.627398 0.267434
O O4 0.799341 0.629988 0.119717
O O5 0.117122 0.122532 0.846944
O O6 0.116834 0.142607 0.946503
O O7 0.140589 0.000000 0.913902
O O8 0.500000 0.090509 0.000000
O O9 0.604887 0.277240 0.275448
O O10 0.183088 0.256741 0.137885
O O11 0.759009 0.286413 0.605997
O O12 0.510950 0.317115 0.626891
O O13 0.000000 0.222972 0.000000
O O14 0.500000 0.822060 0.500000
O O15 0.750000 0.750000 0.500000
#
# Coordination Sequence:
#
# PCOD9188489 Si02
#       6
#     8   8   8   8   8   8
#     4  11  23  37  57  85 120 156 189 236 291 338
#     4  11  24  39  55  79 114 154 196 240 290 342
#     4  11  22  37  59  83 116 150 198 238 286 334
#     4  10  19  36  59  92 116 149 191 235 272 342
#     4  11  23  39  58  81 111 152 203 250 286 330
#     4   9  18  34  62  94 116 143 186 234 277 331
#
# _framework density 19.095707000000001
#
# number of rings (size 3 to 8) (size 9 to 14) (size 15 to 20)
#    0.000    1.500    1.667    4.500    2.333    4.667 
#    0.000    0.000    0.000    5.000    0.000    0.000 
#    0.000    0.000    0.000    0.000    0.000    0.000 
#
# Total GULP energy -133858.814312 kJ/mol
# GULP energy per Si atom -5577.450596 kJ/mol
# Density = 1.905224 g / cm^3
# Si number density = 19.095707 Si / 1000 Ang^3
#
#
#
# Elastic Constant Matrix: (Units=GPa)
#
#
# Indices 1 2 3 4 5 6 
#
# 1 64.3152 7.0751 21.2329 0.0014 -7.7804 0.0043
# 2 7.0751 93.8181 15.6508 0.0011 -8.5263 0.0035
# 3 21.2329 15.6508 91.7846 0.0065 -8.0804 0.0222
# 4 0.0014 0.0011 0.0065 -124.3866 0.0036 -440.0689
# 5 -7.7804 -8.5263 -8.0804 0.0036 41.8389 0.0122
# 6 0.0043 0.0035 0.0222 -440.0689 0.0122-1444.4154
#
#
#
# Elastic Compliance Matrix: (Units=1/GPa)
#
#
# Indices 1 2 3 4 5 6 
#
# 1 0.017097 -0.000462 -0.003667 0.000000 0.002377 0.000000
# 2 -0.000462 0.011135 -0.001627 0.000000 0.001869 0.000000
# 3 -0.003667 -0.001627 0.012138 0.000000 0.001331 0.000000
# 4 0.000000 0.000000 0.000000 0.103212 0.000000 -0.031445
# 5 0.002377 0.001869 0.001331 0.000000 0.024981 0.000000
# 6 0.000000 0.000000 0.000000 -0.031445 0.000000 0.008888
#
#
# Mechanical properties :
#
#
# Convention : Reuss Voigt Hill
#
# Bulk Modulus (GPa) = 34.65218 37.53727 36.09473
# Shear Modulus (GPa) = 25.17833 -291.66200 -133.24183
#
# Velocity S-wave (km/s) = 3.63510 -12.37209 -8.36225
# Velocity P-wave (km/s) = 5.98369 13.57907 8.61936
#
# Compressibility (1/GPa) = 0.02885821
#
# Stress axis : x y z
#
# Youngs Moduli (GPa) = 58.48819 89.80634 82.38538
#
# Poissons Ratio (x) = 0.04145 0.30213
# Poissons Ratio (y) = 0.02700 0.13407
# Poissons Ratio (z) = 0.21449 0.14615
#
# Static dielectric constant tensor:
#      x y z
#    x 1.711820 0.000000 0.027960 
#    y 0.000000 1.624110 0.000000 
#    z 0.027960 0.000000 1.721340 
# 
# From -- ./inp_files/256142.got.cif
#   From: 2010.05.17/outbox.cif.g08.bks.cpg/sg12_129_cif.got.tgz:256142.got - 2010.06.03 13:09:07.
