data_PCOD9188795
_publ_section_title
;
Structure prediction by ZEFSAII (Michael W. Deem and Ramdas Pophale) SiO2 
 PCOD9188795
Probable space group: C 2/M
;
_chemical_formula_sum "Si O2"
_cell_formula_units_Z 28
_cell_length_a 9.136271
_cell_length_b 17.126354
_cell_length_c 10.413809
_cell_angle_alpha 90.000000
_cell_angle_beta 139.240314
_cell_angle_gamma 90.000000
_cell_volume 1063.854068
_symmetry_space_group_name_H-M "C 2/M"
_symmetry_group_IT_number 12
_symmetry_cell_setting 'monoclinic'
loop_
_space_group_symop_operation_xyz
x,y,z
-x,y,-z
-x,-y,-z
x,-y,z
1/2+x,1/2+y,z
1/2-x,1/2+y,-z
1/2-x,1/2-y,-z
1/2+x,1/2-y,z
loop_
_atom_site_type_symbol
_atom_site_label
_atom_site_fract_x
_atom_site_fract_y
_atom_site_fract_z
Si Si1 0.500000 0.620066 0.500000
Si Si2 0.336246 0.382950 0.646900
Si Si3 0.339437 0.912733 0.202382
Si Si4 0.540822 0.784158 0.176444
O O1 0.520730 0.581161 0.373884
O O2 0.724950 0.670104 0.660578
O O3 0.332355 0.410198 0.791943
O O4 0.412207 0.292993 0.709558
O O5 0.082348 0.398353 0.430858
O O6 0.348333 0.841453 0.106732
O O7 0.663349 0.000000 0.856551
O O8 0.500000 0.767213 0.000000
#
# Coordination Sequence:
#
# PCOD9188795 Si02
#       4
#     4   8   8   8
#     4  10  20  36  59  90 123 158 206 260 306 362
#     4  10  19  36  61  91 123 161 210 257 306 370
#     4  10  21  40  65  92 130 172 205 256 328 381
#     4  11  23  39  64  95 128 166 212 262 313 374
#
# _framework density 26.319400999999999
#
# number of rings (size 3 to 8) (size 9 to 14) (size 15 to 20)
#    0.000    1.714    0.000    8.571    0.000    5.143 
#    0.000   17.857    0.000   15.429    0.000    0.000 
#    0.000    0.000    0.000    0.000    0.000    0.000 
#
# Total GULP energy -78231.286338 kJ/mol
# GULP energy per Si atom -5587.949024 kJ/mol
# Density = 2.625950 g / cm^3
# Si number density = 26.319401 Si / 1000 Ang^3
#
#
#
# Elastic Constant Matrix: (Units=GPa)
#
#
# Indices 1 2 3 4 5 6 
#
# 1 205.2716 72.7159 32.6976 0.0002 -41.6514 0.0001
# 2 72.7159 204.8701 19.4091 0.0000 -25.7372 0.0000
# 3 32.6976 19.4091 117.8722 0.0001 -21.7379 0.0000
# 4 0.0002 0.0000 0.0001 109.1789 0.0002 63.0066
# 5 -41.6514 -25.7372 -21.7379 0.0002 52.7149 0.0001
# 6 0.0001 0.0000 0.0000 63.0066 0.0001 38.7270
#
#
#
# Elastic Compliance Matrix: (Units=1/GPa)
#
#
# Indices 1 2 3 4 5 6 
#
# 1 0.006390 -0.001705 -0.000773 0.000000 0.003897 0.000000
# 2 -0.001705 0.005674 -0.000215 0.000000 0.001334 0.000000
# 3 -0.000773 -0.000215 0.009310 0.000000 0.003123 0.000000
# 4 0.000000 0.000000 0.000000 0.149909 0.000000 -0.243894
# 5 0.003897 0.001334 0.003123 0.000000 0.023989 0.000000
# 6 0.000000 0.000000 0.000000 -0.243894 0.000000 0.422623
#
#
# Mechanical properties :
#
#
# Convention : Reuss Voigt Hill
#
# Bulk Modulus (GPa) = 62.55104 86.40655 74.47879
# Shear Modulus (GPa) = 7.95406 67.00357 37.47881
#
# Velocity S-wave (km/s) = 1.74031 5.05105 3.77769
# Velocity P-wave (km/s) = 5.27788 8.18039 6.88385
#
# Compressibility (1/GPa) = 0.01598695
#
# Stress axis : x y z
#
# Youngs Moduli (GPa) = 156.50639 176.23132 107.41606
#
# Poissons Ratio (x) = 0.30048 0.08303
# Poissons Ratio (y) = 0.26685 0.02312
# Poissons Ratio (z) = 0.12097 0.03794
#
# Static dielectric constant tensor:
#      x y z
#    x 2.085380 0.000000 -0.017860 
#    y 0.000000 2.017580 0.000000 
#    z -0.017860 0.000000 2.130250 
# 
# From -- ./inp_files/38093.got.cif
#   From: 2010.05.17/outbox.cif.g08.bks.cpg/sg12_20_cif.got.tgz:38093.got - 2010.06.03 13:09:07.
