data_PCOD9188097
_publ_section_title
;
Structure prediction by ZEFSAII (Michael W. Deem and Ramdas Pophale) SiO2 
 PCOD9188097
Probable space group: C 2/M
;
_chemical_formula_sum "Si O2"
_cell_formula_units_Z 64
_cell_length_a 15.668606
_cell_length_b 25.716404
_cell_length_c 17.574331
_cell_angle_alpha 90.000000
_cell_angle_beta 152.274712
_cell_angle_gamma 90.000000
_cell_volume 3294.501471
_symmetry_space_group_name_H-M "C 2/M"
_symmetry_group_IT_number 12
_symmetry_cell_setting 'monoclinic'
loop_
_space_group_symop_operation_xyz
x,y,z
-x,y,-z
-x,-y,-z
x,-y,z
1/2+x,1/2+y,z
1/2-x,1/2+y,-z
1/2-x,1/2-y,-z
1/2+x,1/2-y,z
loop_
_atom_site_type_symbol
_atom_site_label
_atom_site_fract_x
_atom_site_fract_y
_atom_site_fract_z
Si Si1 0.785779 0.275518 0.309714
Si Si2 0.807005 0.609631 0.303941
Si Si3 0.023925 0.059573 0.198991
Si Si4 0.587513 0.741846 0.312110
Si Si5 0.306482 0.161845 0.806074
Si Si6 0.999080 0.645441 0.808544
Si Si7 0.882732 0.139567 0.200852
Si Si8 0.374796 0.058656 0.196272
O O1 0.756205 0.330498 0.245230
O O2 0.670879 0.276141 0.297214
O O3 0.728759 0.223800 0.220440
O O4 0.000000 0.270302 0.500000
O O5 0.659691 0.584588 0.244395
O O6 0.833436 0.576763 0.248946
O O7 0.000000 0.611593 0.500000
O O8 0.008748 0.096009 0.261209
O O9 0.076745 0.000000 0.257221
O O10 0.821219 0.058821 0.001560
O O11 0.750000 0.750000 0.500000
O O12 0.494953 0.797764 0.225176
O O13 0.461175 0.696396 0.244264
O O14 0.334110 0.145954 0.739995
O O15 0.153514 0.135041 0.737686
O O16 0.500000 0.151940 0.000000
O O17 0.995667 0.600280 0.743418
O O18 0.185754 0.637462 0.003450
O O19 0.447858 0.000000 0.252163
#
# Coordination Sequence:
#
# PCOD9188097 Si02
#       8
#     8   8   8   8   8   8   8   8
#     4  10  21  35  48  79 113 142 176 216 266 324
#     4  11  23  36  54  80 113 145 183 226 274 322
#     4  10  21  39  57  79 110 145 187 227 268 325
#     4  11  21  33  55  80 108 143 179 220 271 323
#     4   9  19  35  55  79 109 141 176 218 268 322
#     4   9  21  36  55  80 108 141 181 223 270 321
#     4  10  19  36  56  80 109 141 179 223 269 323
#     4  10  22  38  58  79 107 148 187 226 273 321
#
# _framework density 19.426307999999999
#
# number of rings (size 3 to 8) (size 9 to 14) (size 15 to 20)
#    0.000    2.000    1.250    1.875    5.250    3.000 
#    0.000    0.625    0.000    3.750    0.000    0.000 
#    0.000    7.500    0.000    0.000    0.000    0.000 
#
# Total GULP energy -178659.663842 kJ/mol
# GULP energy per Si atom -5583.114495 kJ/mol
# Density = 1.938209 g / cm^3
# Si number density = 19.426308 Si / 1000 Ang^3
#
#
#
# Elastic Constant Matrix: (Units=GPa)
#
#
# Indices 1 2 3 4 5 6 
#
# 1 137.3662 81.0327 6.2825 0.0001 15.1169 0.0000
# 2 81.0327 132.2427 5.3974 0.0000 11.3474 0.0000
# 3 6.2825 5.3974 9.1705 0.0003 2.1343 0.0001
# 4 0.0001 0.0000 0.0003 -16.0652 0.0002 -1.9827
# 5 15.1169 11.3474 2.1343 0.0002 13.9824 0.0001
# 6 0.0000 0.0000 0.0001 -1.9827 0.0001 31.0228
#
#
#
# Elastic Compliance Matrix: (Units=1/GPa)
#
#
# Indices 1 2 3 4 5 6 
#
# 1 0.012171 -0.006722 -0.002684 0.000000 -0.007293 0.000000
# 2 -0.006722 0.011942 -0.001928 0.000000 -0.002130 0.000000
# 3 -0.002684 -0.001928 0.115067 0.000002 -0.013098 0.000000
# 4 0.000000 0.000000 0.000002 -0.061759 0.000001 -0.003947
# 5 -0.007293 -0.002130 -0.013098 0.000001 0.083131 0.000000
# 6 0.000000 0.000000 0.000000 -0.003947 0.000000 0.031982
#
#
# Mechanical properties :
#
#
# Convention : Reuss Voigt Hill
#
# Bulk Modulus (GPa) = 8.58284 51.57828 30.08056
# Shear Modulus (GPa) = 19.68199 18.19245 18.93722
#
# Velocity S-wave (km/s) = 3.18647 3.06352 3.12560
# Velocity P-wave (km/s) = 4.23862 6.25475 5.34265
#
# Compressibility (1/GPa) = 0.11651150
#
# Stress axis : x y z
#
# Youngs Moduli (GPa) = 82.16482 83.73490 8.69061
#
# Poissons Ratio (x) = 0.56289 0.02333
# Poissons Ratio (y) = 0.55234 0.01675
# Poissons Ratio (z) = 0.22053 0.16142
#
# Static dielectric constant tensor:
#      x y z
#    x 1.691830 0.000000 0.005170 
#    y 0.000000 1.670080 0.000000 
#    z 0.005170 0.000000 1.671860 
# 
# From -- ./inp_files/272841.got.cif
#   From: 2010.05.17/outbox.cif.g08.bks.cpg/sg12_137_cif.got.tgz:272841.got - 2010.06.03 13:09:07.
