data_PCOD9188852
_publ_section_title
;
Structure prediction by ZEFSAII (Michael W. Deem and Ramdas Pophale) SiO2 
 PCOD9188852
Probable space group: C 2/M
;
_chemical_formula_sum "Si O2"
_cell_formula_units_Z 48
_cell_length_a 19.933858
_cell_length_b 8.727619
_cell_length_c 16.421537
_cell_angle_alpha 90.000000
_cell_angle_beta 44.742987
_cell_angle_gamma 90.000000
_cell_volume 2011.078647
_symmetry_space_group_name_H-M "C 2/M"
_symmetry_group_IT_number 12
_symmetry_cell_setting 'monoclinic'
loop_
_space_group_symop_operation_xyz
x,y,z
-x,y,-z
-x,-y,-z
x,-y,z
1/2+x,1/2+y,z
1/2-x,1/2+y,-z
1/2-x,1/2-y,-z
1/2+x,1/2-y,z
loop_
_atom_site_type_symbol
_atom_site_label
_atom_site_fract_x
_atom_site_fract_y
_atom_site_fract_z
Si Si1 0.196838 0.677238 0.812706
Si Si2 0.144759 0.818849 0.083684
Si Si3 0.855750 0.682638 0.410387
Si Si4 0.627728 0.179805 0.266668
Si Si5 0.616932 0.675580 0.444571
Si Si6 0.527464 0.184643 0.849812
O O1 0.194649 0.500000 0.845503
O O2 0.258575 0.787736 0.816787
O O3 0.267676 0.672005 0.672462
O O4 0.094077 0.725952 0.868914
O O5 0.100255 0.767641 0.208955
O O6 0.077932 0.749822 0.070959
O O7 0.149205 0.000000 0.073465
O O8 0.250000 0.750000 0.000000
O O9 0.851416 0.500000 0.410794
O O10 0.750000 0.750000 0.500000
O O11 0.899518 0.731338 0.459432
O O12 0.915164 0.735236 0.280638
O O13 0.584901 0.252065 0.385918
O O14 0.609344 0.000000 0.275401
O O15 0.586972 0.500000 0.479869
O O16 0.521506 0.000000 0.855849
#
# Coordination Sequence:
#
# PCOD9188852 Si02
#       6
#     8   8   8   8   8   8
#     4   8  16  33  57  85 120 158 192 236 290 342
#     4  12  26  45  66  87 114 152 197 249 305 359
#     4  11  19  30  53  86 125 164 199 240 291 347
#     4  10  19  36  62  88 117 156 197 241 295 356
#     4   9  17  31  52  82 119 158 194 231 283 341
#     4  10  21  38  59  89 125 159 199 247 295 348
#
# _framework density 23.867788999999998
#
# number of rings (size 3 to 8) (size 9 to 14) (size 15 to 20)
#    1.000    1.000    1.667    3.500    0.000    2.000 
#    0.000    1.667    0.000   10.000    0.000    0.000 
#    0.000    0.000    0.000    0.000    0.000    0.000 
#
# Total GULP energy -134210.395863 kJ/mol
# GULP energy per Si atom -5592.099828 kJ/mol
# Density = 2.381346 g / cm^3
# Si number density = 23.867789 Si / 1000 Ang^3
#
#
#
# Elastic Constant Matrix: (Units=GPa)
#
#
# Indices 1 2 3 4 5 6 
#
# 1 152.0028 35.3486 21.5938 -0.0001 -10.4008 0.0000
# 2 35.3486 86.9318 1.1886 0.0003 -2.3179 0.0000
# 3 21.5938 1.1886 89.3710 0.0000 -9.1883 0.0000
# 4 -0.0001 0.0003 0.0000 22.6481 0.0000 0.7433
# 5 -10.4008 -2.3179 -9.1883 0.0000 44.6093 0.0000
# 6 0.0000 0.0000 0.0000 0.7433 0.0000 35.5652
#
#
#
# Elastic Compliance Matrix: (Units=1/GPa)
#
#
# Indices 1 2 3 4 5 6 
#
# 1 0.007609 -0.003037 -0.001667 0.000000 0.001273 0.000000
# 2 -0.003037 0.012732 0.000572 0.000000 0.000071 0.000000
# 3 -0.001667 0.000572 0.011797 0.000000 0.002071 0.000000
# 4 0.000000 0.000000 0.000000 0.044184 0.000000 -0.000923
# 5 0.001273 0.000071 0.002071 0.000000 0.023144 0.000000
# 6 0.000000 0.000000 0.000000 -0.000923 0.000000 0.028137
#
#
# Mechanical properties :
#
#
# Convention : Reuss Voigt Hill
#
# Bulk Modulus (GPa) = 41.88736 49.39641 45.64189
# Shear Modulus (GPa) = 34.76399 38.57614 36.67006
#
# Velocity S-wave (km/s) = 3.82058 4.02461 3.92392
# Velocity P-wave (km/s) = 6.08690 6.50672 6.30031
#
# Compressibility (1/GPa) = 0.02387355
#
# Stress axis : x y z
#
# Youngs Moduli (GPa) = 131.42138 78.53974 84.76397
#
# Poissons Ratio (x) = 0.23855 0.14132
# Poissons Ratio (y) = 0.39917 -0.04847
# Poissons Ratio (z) = 0.21911 -0.04491
#
# Static dielectric constant tensor:
#      x y z
#    x 1.859570 0.000000 -0.099150 
#    y 0.000000 1.780050 0.000000 
#    z -0.099150 0.000000 2.000740 
# 
# From -- ./inp_files/319570.got.cif
#   From: 2010.05.17/outbox.cif.g08.bks.cpg/sg12_160_cif.got.tgz:319570.got - 2010.06.03 13:09:07.
