data_PCOD9188459
_publ_section_title
;
Structure prediction by ZEFSAII (Michael W. Deem and Ramdas Pophale) SiO2 
 PCOD9188459
Probable space group: C 2/M
;
_chemical_formula_sum "Si O2"
_cell_formula_units_Z 58
_cell_length_a 21.611028
_cell_length_b 16.508895
_cell_length_c 19.979165
_cell_angle_alpha 90.000000
_cell_angle_beta 159.542176
_cell_angle_gamma 90.000000
_cell_volume 2491.380459
_symmetry_space_group_name_H-M "C 2/M"
_symmetry_group_IT_number 12
_symmetry_cell_setting 'monoclinic'
loop_
_space_group_symop_operation_xyz
x,y,z
-x,y,-z
-x,-y,-z
x,-y,z
1/2+x,1/2+y,z
1/2-x,1/2+y,-z
1/2-x,1/2-y,-z
1/2+x,1/2-y,z
loop_
_atom_site_type_symbol
_atom_site_label
_atom_site_fract_x
_atom_site_fract_y
_atom_site_fract_z
Si Si1 0.062010 0.802628 0.487236
Si Si2 0.901420 0.181705 0.986412
Si Si3 0.000000 0.500000 0.500000
Si Si4 0.949789 0.364034 0.875122
Si Si5 0.267810 0.139842 0.328762
Si Si6 0.128571 0.407143 0.348868
Si Si7 0.517860 0.405419 0.706987
Si Si8 0.684595 0.095465 0.877919
O O1 0.239088 0.855550 0.667145
O O2 0.126156 0.713784 0.531897
O O3 0.933963 0.848247 0.306634
O O4 0.000000 0.797111 0.500000
O O5 0.760650 0.152635 0.897659
O O6 0.964127 0.274802 0.047983
O O7 0.081200 0.127765 0.178012
O O8 0.810279 0.166699 0.822685
O O9 0.099880 0.569163 0.555134
O O10 0.969817 0.406053 0.823247
O O11 0.000000 0.396021 0.000000
O O12 0.155530 0.500000 0.395960
O O13 0.327337 0.373580 0.541970
O O14 0.996178 0.374368 0.270715
O O15 0.494894 0.500000 0.662867
O O16 0.666780 0.403386 0.913754
O O17 0.668546 0.000000 0.839372
#
# Coordination Sequence:
#
# PCOD9188459 Si02
#       8
#     8   8   2   8   8   8   8   8
#     4  10  19  36  59  87 121 159 191 253 314 350
#     4  10  21  41  62  84 122 162 198 254 308 358
#     4  12  24  38  60  92 118 150 208 252 320 358
#     4  10  19  36  60  85 117 158 201 247 305 367
#     4  10  22  40  59  89 121 155 205 258 302 369
#     4   9  20  39  58  87 124 159 201 254 300 361
#     4   9  20  39  60  88 127 158 202 253 298 368
#     4  10  22  39  60  89 119 166 208 248 310 363
#
# _framework density 23.280266000000001
#
# number of rings (size 3 to 8) (size 9 to 14) (size 15 to 20)
#    0.000    2.207    3.448    0.000    3.862    1.655 
#    2.483    6.207    0.000    0.000    0.000    0.000 
#    0.000    0.000    0.000    0.000    0.000    0.000 
#
# Total GULP energy -161688.041022 kJ/mol
# GULP energy per Si atom -5575.449690 kJ/mol
# Density = 2.322728 g / cm^3
# Si number density = 23.280266 Si / 1000 Ang^3
#
#
#
# Elastic Constant Matrix: (Units=GPa)
#
#
# Indices 1 2 3 4 5 6 
#
# 1 95.7391 0.8158 25.0371 0.0072 23.7389 0.0055
# 2 0.8158 39.0534 20.5000 0.0090 -4.0191 0.0029
# 3 25.0371 20.5000 68.2336 -0.0017 4.5062 0.0017
# 4 0.0072 0.0090 -0.0017 19.7513 0.0025 8.3446
# 5 23.7389 -4.0191 4.5062 0.0025 33.9596 0.0017
# 6 0.0055 0.0029 0.0017 8.3446 0.0017 23.5558
#
#
#
# Elastic Compliance Matrix: (Units=1/GPa)
#
#
# Indices 1 2 3 4 5 6 
#
# 1 0.013938 0.001384 -0.004941 -0.000005 -0.008924 -0.000001
# 2 0.001384 0.031351 -0.010198 -0.000017 0.004096 0.000002
# 3 -0.004941 -0.010198 0.019555 0.000009 -0.000348 -0.000002
# 4 -0.000005 -0.000017 0.000009 0.059541 -0.000003 -0.021092
# 5 -0.008924 0.004096 -0.000348 -0.000003 0.036216 0.000000
# 6 -0.000001 0.000002 -0.000002 -0.021092 0.000000 0.049924
#
#
# Mechanical properties :
#
#
# Convention : Reuss Voigt Hill
#
# Bulk Modulus (GPa) = 26.78377 32.85909 29.82143
# Shear Modulus (GPa) = 19.96171 25.89822 22.92997
#
# Velocity S-wave (km/s) = 2.93140 3.33897 3.14180
# Velocity P-wave (km/s) = 4.79452 5.38611 5.09890
#
# Compressibility (1/GPa) = 0.03733605
#
# Stress axis : x y z
#
# Youngs Moduli (GPa) = 71.74625 31.89642 51.13735
#
# Poissons Ratio (x) = -0.04414 0.25266
# Poissons Ratio (y) = -0.09930 0.52147
# Poissons Ratio (z) = 0.35448 0.32526
#
# Static dielectric constant tensor:
#      x y z
#    x 1.965170 -0.000010 0.018650 
#    y -0.000010 1.855270 0.000000 
#    z 0.018650 0.000000 1.936280 
# 
# From -- ./inp_files/278819.got.cif
#   From: 2010.05.17/outbox.cif.g08.bks.cpg/sg12_140_cif.got.tgz:278819.got - 2010.06.03 13:09:07.
