data_PCOD9188453
_publ_section_title
;
Structure prediction by ZEFSAII (Michael W. Deem and Ramdas Pophale) SiO2 
 PCOD9188453
Probable space group: C 2/M
;
_chemical_formula_sum "Si O2"
_cell_formula_units_Z 64
_cell_length_a 10.170252
_cell_length_b 18.148660
_cell_length_c 31.313970
_cell_angle_alpha 90.000000
_cell_angle_beta 142.263026
_cell_angle_gamma 90.000000
_cell_volume 3537.467389
_symmetry_space_group_name_H-M "C 2/M"
_symmetry_group_IT_number 12
_symmetry_cell_setting 'monoclinic'
loop_
_space_group_symop_operation_xyz
x,y,z
-x,y,-z
-x,-y,-z
x,-y,z
1/2+x,1/2+y,z
1/2-x,1/2+y,-z
1/2-x,1/2-y,-z
1/2+x,1/2-y,z
loop_
_atom_site_type_symbol
_atom_site_label
_atom_site_fract_x
_atom_site_fract_y
_atom_site_fract_z
Si Si1 0.927208 0.588317 0.029679
Si Si2 0.921749 0.915279 0.683959
Si Si3 0.727482 0.172668 0.174252
Si Si4 0.495834 0.827463 0.447735
Si Si5 0.968250 0.846264 0.541802
Si Si6 0.955381 0.084868 0.938009
Si Si7 0.231491 0.916205 0.682514
Si Si8 0.445735 0.187835 0.186036
O O1 0.947350 0.500000 0.042590
O O2 0.070985 0.631817 0.100697
O O3 0.000000 0.603645 0.000000
O O4 0.676575 0.607243 0.971758
O O5 0.708204 0.867065 0.625100
O O6 0.093304 0.882938 0.761300
O O7 0.042264 0.912562 0.669208
O O8 0.870825 0.000000 0.680651
O O9 0.586518 0.198923 0.179041
O O10 0.852615 0.238463 0.183014
O O11 0.500000 0.835594 0.500000
O O12 0.719759 0.859794 0.488752
O O13 0.489540 0.740050 0.436570
O O14 0.000000 0.856821 0.500000
O O15 0.126694 0.894729 0.610805
O O16 0.757160 0.136775 0.877167
O O17 0.905891 0.000000 0.913707
O O18 0.000000 0.086941 0.000000
O O19 0.407177 0.857508 0.742959
O O20 0.315577 0.000000 0.704262
#
# Coordination Sequence:
#
# PCOD9188453 Si02
#       8
#     8   8   8   8   8   8   8   8
#     4  10  22  40  63  90 122 157 193 241 296 347
#     4  10  21  38  63  87 111 150 201 247 285 341
#     4  11  24  41  61  87 120 156 197 243 295 349
#     4  10  19  36  59  87 116 151 194 234 285 346
#     4  10  21  36  58  87 122 154 185 233 292 349
#     4  10  20  38  63  90 118 153 198 240 287 350
#     4  10  21  39  61  85 115 153 197 241 289 346
#     4  11  24  40  62  88 117 156 198 245 293 347
#
# _framework density 18.092040000000001
#
# number of rings (size 3 to 8) (size 9 to 14) (size 15 to 20)
#    0.000    1.750    2.500    1.500    1.750    3.000 
#    2.250    0.000    0.000    0.000    0.000    0.000 
#    0.000    0.000    0.000    0.000    0.000    0.000 
#
# Total GULP energy -178712.384384 kJ/mol
# GULP energy per Si atom -5584.762012 kJ/mol
# Density = 1.805086 g / cm^3
# Si number density = 18.092040 Si / 1000 Ang^3
#
#
#
# Elastic Constant Matrix: (Units=GPa)
#
#
# Indices 1 2 3 4 5 6 
#
# 1 82.6790 27.2035 28.3356 0.0001 13.8507 -0.0001
# 2 27.2035 61.9488 39.1348 0.0001 4.4302 0.0000
# 3 28.3356 39.1348 87.1092 -0.0001 6.9641 -0.0002
# 4 0.0001 0.0001 -0.0001 49.8988 0.0000 9.2255
# 5 13.8507 4.4302 6.9641 0.0000 26.1789 0.0000
# 6 -0.0001 0.0000 -0.0002 9.2255 0.0000 9.5642
#
#
#
# Elastic Compliance Matrix: (Units=1/GPa)
#
#
# Indices 1 2 3 4 5 6 
#
# 1 0.015656 -0.004907 -0.002342 0.000000 -0.006830 0.000000
# 2 -0.004907 0.024111 -0.009315 0.000000 0.000994 0.000000
# 3 -0.002342 -0.009315 0.016554 0.000000 -0.001588 0.000000
# 4 0.000000 0.000000 0.000000 0.024390 0.000000 -0.023527
# 5 -0.006830 0.000994 -0.001588 0.000000 0.042066 0.000000
# 6 0.000000 0.000000 0.000000 -0.023527 0.000000 0.127251
#
#
# Mechanical properties :
#
#
# Convention : Reuss Voigt Hill
#
# Bulk Modulus (GPa) = 43.11890 46.78719 44.95304
# Shear Modulus (GPa) = 17.18872 26.26592 21.72732
#
# Velocity S-wave (km/s) = 3.08567 3.81438 3.46921
# Velocity P-wave (km/s) = 6.04813 6.73172 6.39906
#
# Compressibility (1/GPa) = 0.02319169
#
# Stress axis : x y z
#
# Youngs Moduli (GPa) = 63.87141 41.47502 60.40936
#
# Poissons Ratio (x) = 0.20352 0.14149
# Poissons Ratio (y) = 0.31342 0.56273
# Poissons Ratio (z) = 0.14960 0.38635
#
# Static dielectric constant tensor:
#      x y z
#    x 1.608520 0.000000 0.000690 
#    y 0.000000 1.616610 0.000000 
#    z 0.000690 0.000000 1.584230 
# 
# From -- ./inp_files/373021.got.cif
#   From: 2010.05.17/outbox.cif.g08.bks.cpg/sg12_187_cif.got.tgz:373021.got - 2010.06.03 13:09:07.
