data_PCOD9188268
_publ_section_title
;
Structure prediction by ZEFSAII (Michael W. Deem and Ramdas Pophale) SiO2 
 PCOD9188268
Probable space group: C 2/M
;
_chemical_formula_sum "Si O2"
_cell_formula_units_Z 38
_cell_length_a 12.345417
_cell_length_b 14.024468
_cell_length_c 16.572572
_cell_angle_alpha 90.000000
_cell_angle_beta 141.682597
_cell_angle_gamma 90.000000
_cell_volume 1779.040896
_symmetry_space_group_name_H-M "C 2/M"
_symmetry_group_IT_number 12
_symmetry_cell_setting 'monoclinic'
loop_
_space_group_symop_operation_xyz
x,y,z
-x,y,-z
-x,-y,-z
x,-y,z
1/2+x,1/2+y,z
1/2-x,1/2+y,-z
1/2-x,1/2-y,-z
1/2+x,1/2-y,z
loop_
_atom_site_type_symbol
_atom_site_label
_atom_site_fract_x
_atom_site_fract_y
_atom_site_fract_z
Si Si1 0.922784 0.606384 0.281265
Si Si2 0.506617 0.811638 0.908413
Si Si3 0.500000 0.500000 0.500000
Si Si4 0.500000 0.836432 0.500000
Si Si5 0.162819 0.889657 0.993883
Si Si6 0.743193 0.170129 0.374988
O O1 0.969757 0.500000 0.281102
O O2 0.926322 0.610004 0.379162
O O3 0.740347 0.625708 0.129807
O O4 0.073140 0.671683 0.331884
O O5 0.670217 0.869803 0.966526
O O6 0.332855 0.843532 0.760248
O O7 0.500000 0.825068 0.000000
O O8 0.536324 0.699459 0.904956
O O9 0.375056 0.584009 0.467198
O O10 0.346450 0.767854 0.440606
O O11 0.102984 0.000000 0.951265
#
# Coordination Sequence:
#
# PCOD9188268 Si02
#       6
#     8   8   2   4   8   8
#     4  10  19  36  58  81 114 153 188 232 287 337
#     4  10  20  36  60  86 116 150 194 239 287 340
#     4  10  20  40  60  82 106 160 194 222 288 364
#     4  11  21  33  57  84 112 146 197 239 273 333
#     4   9  20  37  57  83 118 154 188 234 293 349
#     4  10  21  37  59  81 115 153 190 234 292 340
#
# _framework density 21.359822999999999
#
# number of rings (size 3 to 8) (size 9 to 14) (size 15 to 20)
#    0.000    2.105    1.053    2.211    1.474    0.842 
#    0.000    2.105    0.000    0.000    0.000    0.000 
#    0.000    0.000    0.000    0.000    0.000    0.000 
#
# Total GULP energy -105806.758269 kJ/mol
# GULP energy per Si atom -5568.776751 kJ/mol
# Density = 2.131121 g / cm^3
# Si number density = 21.359823 Si / 1000 Ang^3
#
#
#
# Elastic Constant Matrix: (Units=GPa)
#
#
# Indices 1 2 3 4 5 6 
#
# 1 37.0283 18.3621 10.6075 0.0000 -20.7232 0.0000
# 2 18.3621 69.3852 -2.7128 0.0001 -0.9890 0.0000
# 3 10.6075 -2.7128 25.3139 0.0002 -18.6613 0.0001
# 4 0.0000 0.0001 0.0002 11.0552 0.0001 0.7239
# 5 -20.7232 -0.9890 -18.6613 0.0001 37.4679 0.0000
# 6 0.0000 0.0000 0.0001 0.7239 0.0000 4.8203
#
#
#
# Elastic Compliance Matrix: (Units=1/GPa)
#
#
# Indices 1 2 3 4 5 6 
#
# 1 0.047817 -0.012436 -0.003342 0.000000 0.024454 0.000000
# 2 -0.012436 0.017787 0.003781 0.000000 -0.004526 0.000000
# 3 -0.003342 0.003781 0.063241 -0.000001 0.029749 -0.000001
# 4 0.000000 0.000000 -0.000001 0.091354 -0.000001 -0.013719
# 5 0.024454 -0.004526 0.029749 -0.000001 0.054912 -0.000001
# 6 0.000000 0.000000 -0.000001 -0.013719 -0.000001 0.209517
#
#
# Mechanical properties :
#
#
# Convention : Reuss Voigt Hill
#
# Bulk Modulus (GPa) = 9.53753 20.47123 15.00438
# Shear Modulus (GPa) = 9.19842 17.70004 13.44923
#
# Velocity S-wave (km/s) = 2.07744 2.88177 2.51201
# Velocity P-wave (km/s) = 3.19831 4.54726 3.93108
#
# Compressibility (1/GPa) = 0.10484897
#
# Stress axis : x y z
#
# Youngs Moduli (GPa) = 20.91314 56.22160 15.81263
#
# Poissons Ratio (x) = 0.69919 0.05285
# Poissons Ratio (y) = 0.26008 -0.05979
# Poissons Ratio (z) = 0.06990 -0.21258
#
# Static dielectric constant tensor:
#      x y z
#    x 1.796260 0.000000 0.009770 
#    y 0.000000 1.706770 0.000000 
#    z 0.009770 0.000000 1.822130 
# 
# From -- ./inp_files/96085.got.cif
#   From: 2010.05.17/outbox.cif.g08.bks.cpg/sg12_49_cif.got.tgz:96085.got - 2010.06.03 13:09:07.
