data_PCOD9188557
_publ_section_title
;
Structure prediction by ZEFSAII (Michael W. Deem and Ramdas Pophale) SiO2 
 PCOD9188557
Probable space group: C 2/M
;
_chemical_formula_sum "Si O2"
_cell_formula_units_Z 56
_cell_length_a 14.766172
_cell_length_b 8.483888
_cell_length_c 26.567155
_cell_angle_alpha 90.000000
_cell_angle_beta 114.479613
_cell_angle_gamma 90.000000
_cell_volume 3029.013424
_symmetry_space_group_name_H-M "C 2/M"
_symmetry_group_IT_number 12
_symmetry_cell_setting 'monoclinic'
loop_
_space_group_symop_operation_xyz
x,y,z
-x,y,-z
-x,-y,-z
x,-y,z
1/2+x,1/2+y,z
1/2-x,1/2+y,-z
1/2-x,1/2-y,-z
1/2+x,1/2-y,z
loop_
_atom_site_type_symbol
_atom_site_label
_atom_site_fract_x
_atom_site_fract_y
_atom_site_fract_z
Si Si1 0.571511 0.310573 0.761927
Si Si2 0.494306 0.189823 0.849812
Si Si3 0.916557 0.815107 0.438750
Si Si4 0.298863 0.310426 0.062274
Si Si5 0.713620 0.191330 0.149495
Si Si6 0.723068 0.315995 0.438737
Si Si7 0.486463 0.815072 0.638154
O O1 0.567920 0.500000 0.757895
O O2 0.512047 0.256609 0.797936
O O3 0.686996 0.262334 0.797095
O O4 0.526759 0.236768 0.701497
O O5 0.589954 0.245122 0.903769
O O6 0.390226 0.244677 0.850417
O O7 0.493736 0.000000 0.847407
O O8 0.819832 0.712590 0.427393
O O9 0.959537 0.779706 0.393927
O O10 0.000000 0.777829 0.500000
O O11 0.198199 0.000000 0.437131
O O12 0.303270 0.500000 0.063173
O O13 0.234389 0.260593 0.096528
O O14 0.250000 0.250000 0.000000
O O15 0.711119 0.000000 0.149163
O O16 0.750000 0.250000 0.500000
O O17 0.629699 0.224674 0.394486
O O18 0.891813 0.000000 0.438417
O O19 0.502642 0.000000 0.634096
#
# Coordination Sequence:
#
# PCOD9188557 Si02
#       7
#     8   8   8   8   8   8   8
#     4  10  21  40  60  83 116 152 192 242 295 350
#     4  10  19  36  60  85 112 151 197 242 291 348
#     4  11  23  40  63  88 117 153 191 235 293 354
#     4  10  20  36  55  83 119 157 196 239 290 344
#     4   8  18  36  59  81 111 154 193 233 289 348
#     4  12  24  40  62  88 117 152 192 238 292 354
#     4  12  25  41  62  89 120 156 198 245 296 356
#
# _framework density 18.487867999999999
#
# number of rings (size 3 to 8) (size 9 to 14) (size 15 to 20)
#    0.000    1.571    1.429    5.143    0.000    2.286 
#    0.000   15.714    0.000    0.000    0.000    0.000 
#    0.000    0.000    0.000    0.000    0.000    0.000 
#
# Total GULP energy -156447.224750 kJ/mol
# GULP energy per Si atom -5587.400884 kJ/mol
# Density = 1.844579 g / cm^3
# Si number density = 18.487868 Si / 1000 Ang^3
#
#
#
# Elastic Constant Matrix: (Units=GPa)
#
#
# Indices 1 2 3 4 5 6 
#
# 1 134.4367 3.3855 56.2703 0.0000 3.8106 0.0000
# 2 3.3855 45.9021 9.0556 0.0000 2.4672 0.0000
# 3 56.2703 9.0556 149.1714 0.0000 3.0151 0.0000
# 4 0.0000 0.0000 0.0000 30.7613 0.0000 -0.9294
# 5 3.8106 2.4672 3.0151 0.0000 10.8615 0.0000
# 6 0.0000 0.0000 0.0000 -0.9294 0.0000 30.8473
#
#
#
# Elastic Compliance Matrix: (Units=1/GPa)
#
#
# Indices 1 2 3 4 5 6 
#
# 1 0.008886 0.000118 -0.003314 0.000000 -0.002224 0.000000
# 2 0.000118 0.022289 -0.001302 0.000000 -0.004743 0.000000
# 3 -0.003314 -0.001302 0.008049 0.000000 -0.000776 0.000000
# 4 0.000000 0.000000 0.000000 0.032538 0.000000 0.000980
# 5 -0.002224 -0.004743 -0.000776 0.000000 0.094142 0.000000
# 6 0.000000 0.000000 0.000000 0.000980 0.000000 0.032447
#
#
# Mechanical properties :
#
#
# Convention : Reuss Voigt Hill
#
# Bulk Modulus (GPa) = 33.08278 51.88143 42.48210
# Shear Modulus (GPa) = 22.99688 31.88060 27.43874
#
# Velocity S-wave (km/s) = 3.53071 4.15710 3.85664
# Velocity P-wave (km/s) = 5.87830 7.15300 6.54674
#
# Compressibility (1/GPa) = 0.03022721
#
# Stress axis : x y z
#
# Youngs Moduli (GPa) = 112.54085 44.86615 124.24643
#
# Poissons Ratio (x) = -0.00529 0.41176
# Poissons Ratio (y) = -0.01328 0.16173
# Poissons Ratio (z) = 0.37297 0.05840
#
# Static dielectric constant tensor:
#      x y z
#    x 1.632410 0.000000 -0.004270 
#    y 0.000000 1.627430 0.000000 
#    z -0.004270 0.000000 1.599400 
# 
# From -- ./inp_files/338185.got.cif
#   From: 2010.05.17/outbox.cif.g08.bks.cpg/sg12_170_cif.got.tgz:338185.got - 2010.06.03 13:09:07.
