data_PCOD9188729
_publ_section_title
;
Structure prediction by ZEFSAII (Michael W. Deem and Ramdas Pophale) SiO2 
 PCOD9188729
Probable space group: C 2/M
;
_chemical_formula_sum "Si O2"
_cell_formula_units_Z 64
_cell_length_a 29.547651
_cell_length_b 8.616939
_cell_length_c 12.830017
_cell_angle_alpha 90.000000
_cell_angle_beta 91.063447
_cell_angle_gamma 90.000000
_cell_volume 3266.091896
_symmetry_space_group_name_H-M "C 2/M"
_symmetry_group_IT_number 12
_symmetry_cell_setting 'monoclinic'
loop_
_space_group_symop_operation_xyz
x,y,z
-x,y,-z
-x,-y,-z
x,-y,z
1/2+x,1/2+y,z
1/2-x,1/2+y,-z
1/2-x,1/2-y,-z
1/2+x,1/2-y,z
loop_
_atom_site_type_symbol
_atom_site_label
_atom_site_fract_x
_atom_site_fract_y
_atom_site_fract_z
Si Si1 0.427282 0.816401 0.221625
Si Si2 0.763008 0.179267 0.111010
Si Si3 0.364595 0.320844 0.052685
Si Si4 0.483960 0.188392 0.881980
Si Si5 0.661518 0.815229 0.382975
Si Si6 0.384729 0.315110 0.825823
Si Si7 0.143217 0.310263 0.609605
Si Si8 0.754773 0.316459 0.329396
O O1 0.399568 0.786215 0.114400
O O2 0.477617 0.758277 0.198719
O O3 0.396008 0.752925 0.314015
O O4 0.431327 0.000000 0.239220
O O5 0.817485 0.184039 0.111080
O O6 0.746153 0.277633 0.207719
O O7 0.748403 0.000000 0.119722
O O8 0.750000 0.250000 0.000000
O O9 0.380971 0.500000 0.054390
O O10 0.358492 0.274480 0.932062
O O11 0.435555 0.256424 0.849363
O O12 0.481351 0.000000 0.880107
O O13 0.500000 0.232318 0.000000
O O14 0.637650 0.753676 0.278213
O O15 0.637212 0.764879 0.488984
O O16 0.713831 0.762354 0.388998
O O17 0.660834 0.000000 0.379740
O O18 0.384194 0.500000 0.815272
O O19 0.143196 0.500000 0.615877
O O20 0.194208 0.261419 0.643553
O O21 0.752903 0.500000 0.346977
#
# Coordination Sequence:
#
# PCOD9188729 Si02
#       8
#     8   8   8   8   8   8   8   8
#     4  10  19  36  61  87 115 146 187 235 289 344
#     4  11  22  35  52  80 117 157 197 240 292 350
#     4  10  21  35  53  80 114 148 186 233 286 344
#     4  10  20  35  60  92 119 149 192 238 288 355
#     4  11  23  40  60  84 116 154 202 246 293 349
#     4  11  23  39  59  85 120 157 194 239 297 350
#     4   9  20  38  61  87 115 154 198 246 292 345
#     4  11  21  37  60  86 117 152 197 245 296 352
#
# _framework density 19.595283999999999
#
# number of rings (size 3 to 8) (size 9 to 14) (size 15 to 20)
#    0.000    1.625    2.500    2.625    0.000    2.750 
#    0.000    3.750    0.000    3.750    0.000    0.000 
#    0.000    0.000    0.000    0.000    0.000    0.000 
#
# Total GULP energy -178668.613016 kJ/mol
# GULP energy per Si atom -5583.394157 kJ/mol
# Density = 1.955068 g / cm^3
# Si number density = 19.595284 Si / 1000 Ang^3
#
#
#
# Elastic Constant Matrix: (Units=GPa)
#
#
# Indices 1 2 3 4 5 6 
#
# 1 78.3425 18.0600 40.3917 0.0000 -17.4298 0.0000
# 2 18.0600 21.0516 14.2430 0.0000 -4.4485 0.0000
# 3 40.3917 14.2430 125.6321 0.0000 -20.9459 0.0000
# 4 0.0000 0.0000 0.0000 13.0837 0.0000 -3.1716
# 5 -17.4298 -4.4485 -20.9459 0.0000 28.8857 0.0000
# 6 0.0000 0.0000 0.0000 -3.1716 0.0000 24.7248
#
#
#
# Elastic Compliance Matrix: (Units=1/GPa)
#
#
# Indices 1 2 3 4 5 6 
#
# 1 0.019011 -0.012439 -0.003536 0.000000 0.006991 0.000000
# 2 -0.012439 0.060040 -0.002864 0.000000 -0.000336 0.000000
# 3 -0.003536 -0.002864 0.010229 0.000000 0.004842 0.000000
# 4 0.000000 0.000000 0.000000 0.078884 0.000000 0.010119
# 5 0.006991 -0.000336 0.004842 0.000000 0.042297 0.000000
# 6 0.000000 0.000000 0.000000 0.010119 0.000000 0.041743
#
#
# Mechanical properties :
#
#
# Convention : Reuss Voigt Hill
#
# Bulk Modulus (GPa) = 19.37927 41.15730 30.26828
# Shear Modulus (GPa) = 16.28227 23.49427 19.88827
#
# Velocity S-wave (km/s) = 2.88571 3.46638 3.18929
# Velocity P-wave (km/s) = 4.58414 6.08854 5.38909
#
# Compressibility (1/GPa) = 0.05160154
#
# Stress axis : x y z
#
# Youngs Moduli (GPa) = 52.60208 16.65553 97.76466
#
# Poissons Ratio (x) = 0.20718 0.34572
# Poissons Ratio (y) = 0.65433 0.27995
# Poissons Ratio (z) = 0.18601 0.04769
#
# Static dielectric constant tensor:
#      x y z
#    x 1.696070 0.000000 -0.025300 
#    y 0.000000 1.676070 0.000000 
#    z -0.025300 0.000000 1.708000 
# 
# From -- ./inp_files/187424.got.cif
#   From: 2010.05.17/outbox.cif.g08.bks.cpg/sg12_94_cif.got.tgz:187424.got - 2010.06.03 13:09:07.
