data_PCOD9188067
_publ_section_title
;
Structure prediction by ZEFSAII (Michael W. Deem and Ramdas Pophale) SiO2 
 PCOD9188067
Probable space group: C 2/M
;
_chemical_formula_sum "Si O2"
_cell_formula_units_Z 60
_cell_length_a 9.030707
_cell_length_b 18.329192
_cell_length_c 18.917360
_cell_angle_alpha 90.000000
_cell_angle_beta 76.000027
_cell_angle_gamma 90.000000
_cell_volume 3038.293822
_symmetry_space_group_name_H-M "C 2/M"
_symmetry_group_IT_number 12
_symmetry_cell_setting 'monoclinic'
loop_
_space_group_symop_operation_xyz
x,y,z
-x,y,-z
-x,-y,-z
x,-y,z
1/2+x,1/2+y,z
1/2-x,1/2+y,-z
1/2-x,1/2-y,-z
1/2+x,1/2-y,z
loop_
_atom_site_type_symbol
_atom_site_label
_atom_site_fract_x
_atom_site_fract_y
_atom_site_fract_z
Si Si1 0.567482 0.081896 0.832297
Si Si2 0.411652 0.080791 0.698618
Si Si3 0.433337 0.174495 0.437427
Si Si4 0.357490 0.670780 0.302007
Si Si5 0.700877 0.711078 0.226284
Si Si6 0.890346 0.836793 0.460251
Si Si7 0.000000 0.784713 0.000000
Si Si8 0.321257 0.184486 0.907280
O O1 0.504077 0.078362 0.760056
O O2 0.694845 0.145455 0.816012
O O3 0.421471 0.111591 0.891768
O O4 0.617076 0.000000 0.847365
O O5 0.500576 0.136020 0.637717
O O6 0.240435 0.110524 0.728478
O O7 0.408189 0.000000 0.667665
O O8 0.500000 0.138361 0.500000
O O9 0.254764 0.173706 0.472668
O O10 0.474951 0.259855 0.433328
O O11 0.535800 0.679288 0.265609
O O12 0.280626 0.747042 0.283619
O O13 0.339058 0.645817 0.386343
O O14 0.679159 0.771224 0.166913
O O15 0.000000 0.882153 0.500000
O O16 0.914928 0.735166 0.951343
O O17 0.144528 0.826390 0.949252
#
# Coordination Sequence:
#
# PCOD9188067 Si02
#       8
#     8   8   8   8   8   8   4   8
#     4  11  24  42  64  96 134 166 207 265 320 366
#     4  11  24  41  59  84 122 167 210 264 327 381
#     4  10  19  36  55  79 111 151 201 254 319 381
#     4  12  22  37  61  92 117 157 221 266 313 378
#     4  12  22  38  70  93 125 164 216 259 311 369
#     4  10  22  33  54  85 118 145 199 271 324 369
#     4  10  22  36  72  98 132 158 218 242 302 362
#     4  11  20  41  65 102 125 169 205 259 293 377
#
# _framework density 19.747924999999999
#
# number of rings (size 3 to 8) (size 9 to 14) (size 15 to 20)
#    0.000    1.067    5.333    1.600    5.600    0.800 
#    0.000    0.667    0.000    0.800    0.000    0.000 
#    0.000    0.000    0.000    0.000    0.000    0.000 
#
# Total GULP energy -167143.250765 kJ/mol
# GULP energy per Si atom -5571.441692 kJ/mol
# Density = 1.970298 g / cm^3
# Si number density = 19.747925 Si / 1000 Ang^3
#
#
#
# Elastic Constant Matrix: (Units=GPa)
#
#
# Indices 1 2 3 4 5 6 
#
# 1 112.8382 16.1928 19.2631 0.0000 -18.8374 0.0000
# 2 16.1928 67.4538 -4.9234 0.0000 -8.7306 0.0000
# 3 19.2631 -4.9234 49.5032 0.0000 -6.2244 0.0000
# 4 0.0000 0.0000 0.0000 2.8422 0.0000 2.8523
# 5 -18.8374 -8.7306 -6.2244 0.0000 43.4290 0.0000
# 6 0.0000 0.0000 0.0000 2.8523 0.0000 16.7180
#
#
#
# Elastic Compliance Matrix: (Units=1/GPa)
#
#
# Indices 1 2 3 4 5 6 
#
# 1 0.010441 -0.002334 -0.003854 0.000000 0.003507 0.000000
# 2 -0.002334 0.015927 0.002818 0.000000 0.002593 0.000000
# 3 -0.003854 0.002818 0.022243 0.000000 0.002083 0.000000
# 4 0.000000 0.000000 0.000000 0.424526 0.000000 -0.072431
# 5 0.003507 0.002593 0.002083 0.000000 0.025367 0.000000
# 6 0.000000 0.000000 0.000000 -0.072431 0.000000 0.072174
#
#
# Mechanical properties :
#
#
# Convention : Reuss Voigt Hill
#
# Bulk Modulus (GPa) = 23.88290 32.31778 28.10034
# Shear Modulus (GPa) = 8.45491 25.88202 17.16846
#
# Velocity S-wave (km/s) = 2.07140 3.62418 2.95172
# Velocity P-wave (km/s) = 4.22387 5.82353 5.08697
#
# Compressibility (1/GPa) = 0.04187096
#
# Stress axis : x y z
#
# Youngs Moduli (GPa) = 95.78055 62.78822 44.95894
#
# Poissons Ratio (x) = 0.14653 0.17326
# Poissons Ratio (y) = 0.22352 -0.12670
# Poissons Ratio (z) = 0.36912 -0.17695
#
# Static dielectric constant tensor:
#      x y z
#    x 1.749150 0.000000 0.039950 
#    y 0.000000 1.710970 0.000000 
#    z 0.039950 0.000000 1.765590 
# 
# From -- ./inp_files/300754.got.cif
#   From: 2010.05.17/outbox.cif.g08.bks.cpg/sg12_151_cif.got.tgz:300754.got - 2010.06.03 13:09:07.
