data_PCOD9188703
_publ_section_title
;
Structure prediction by ZEFSAII (Michael W. Deem and Ramdas Pophale) SiO2 
 PCOD9188703
Probable space group: C 2/M
;
_chemical_formula_sum "Si O2"
_cell_formula_units_Z 64
_cell_length_a 20.595693
_cell_length_b 8.805682
_cell_length_c 31.884725
_cell_angle_alpha 90.000000
_cell_angle_beta 36.237188
_cell_angle_gamma 90.000000
_cell_volume 3418.255895
_symmetry_space_group_name_H-M "C 2/M"
_symmetry_group_IT_number 12
_symmetry_cell_setting 'monoclinic'
loop_
_space_group_symop_operation_xyz
x,y,z
-x,y,-z
-x,-y,-z
x,-y,z
1/2+x,1/2+y,z
1/2-x,1/2+y,-z
1/2-x,1/2-y,-z
1/2+x,1/2-y,z
loop_
_atom_site_type_symbol
_atom_site_label
_atom_site_fract_x
_atom_site_fract_y
_atom_site_fract_z
Si Si1 0.211699 0.182527 0.941259
Si Si2 0.993565 0.184602 0.104320
Si Si3 0.086841 0.319611 0.684241
Si Si4 0.677973 0.818157 0.419875
Si Si5 0.715824 0.317413 0.840633
Si Si6 0.036784 0.681797 0.413212
Si Si7 0.448769 0.317766 0.832777
Si Si8 0.942024 0.180174 0.689194
O O1 0.193979 0.211910 0.901063
O O2 0.322784 0.263828 0.897664
O O3 0.224921 0.000000 0.939431
O O4 0.105535 0.232323 0.022866
O O5 0.886136 0.234013 0.134874
O O6 0.997409 0.228975 0.150951
O O7 0.993115 0.000000 0.103311
O O8 0.077984 0.500000 0.688097
O O9 0.211120 0.267401 0.627166
O O10 0.012192 0.254920 0.760796
O O11 0.039128 0.252678 0.666058
O O12 0.580127 0.786617 0.503748
O O13 0.629727 0.779124 0.399139
O O14 0.697599 0.000000 0.410124
O O15 0.728304 0.500000 0.829351
O O16 0.827872 0.239568 0.768050
O O17 0.043002 0.500000 0.402933
O O18 0.050501 0.766909 0.362642
O O19 0.453565 0.500000 0.826822
O O20 0.947405 0.000000 0.689602
#
# Coordination Sequence:
#
# PCOD9188703 Si02
#       8
#     8   8   8   8   8   8   8   8
#     4  10  19  36  61  85 114 153 199 247 295 356
#     4   9  20  36  58  87 114 153 201 242 296 360
#     4  12  25  41  61  86 119 162 206 249 298 353
#     4   9  20  41  68  96 124 157 195 240 289 349
#     4  10  20  37  60  85 116 156 200 246 295 354
#     4   9  20  41  68  95 125 159 195 234 291 355
#     4  11  22  37  57  84 120 157 196 246 300 357
#     4  12  25  40  60  88 123 160 202 250 298 350
#
# _framework density 18.722999000000002
#
# number of rings (size 3 to 8) (size 9 to 14) (size 15 to 20)
#    0.000    1.750    1.250    4.125    1.750    3.000 
#    0.000    3.125    0.000    1.500    0.000    0.000 
#    0.000    0.000    0.000    0.000    0.000    0.000 
#
# Total GULP energy -178842.756210 kJ/mol
# GULP energy per Si atom -5588.836132 kJ/mol
# Density = 1.868038 g / cm^3
# Si number density = 18.722999 Si / 1000 Ang^3
#
#
#
# Elastic Constant Matrix: (Units=GPa)
#
#
# Indices 1 2 3 4 5 6 
#
# 1 190.2598 85.9234 92.1536 -0.0006 -11.5047 -0.0003
# 2 85.9234 79.2995 64.5502 -0.0003 -0.7131 -0.0014
# 3 92.1536 64.5502 90.7461 -0.0011 -5.3028 -0.0003
# 4 -0.0006 -0.0003 -0.0011 31.7021 0.0000 -5.0556
# 5 -11.5047 -0.7131 -5.3028 0.0000 39.4187 -0.0002
# 6 -0.0003 -0.0014 -0.0003 -5.0556 -0.0002 28.8640
#
#
#
# Elastic Compliance Matrix: (Units=1/GPa)
#
#
# Indices 1 2 3 4 5 6 
#
# 1 0.012106 -0.007616 -0.006731 0.000000 0.002490 0.000000
# 2 -0.007616 0.034963 -0.017365 0.000000 -0.003926 0.000001
# 3 -0.006731 -0.017365 0.030313 0.000001 0.001799 0.000000
# 4 0.000000 0.000000 0.000001 0.032450 0.000000 0.005684
# 5 0.002490 -0.003926 0.001799 0.000000 0.026266 0.000000
# 6 0.000000 0.000001 0.000000 0.005684 0.000000 0.035641
#
#
# Mechanical properties :
#
#
# Convention : Reuss Voigt Hill
#
# Bulk Modulus (GPa) = 71.64824 93.95110 82.79967
# Shear Modulus (GPa) = 20.84938 27.84218 24.34578
#
# Velocity S-wave (km/s) = 3.34064 3.86042 3.60990
# Velocity P-wave (km/s) = 7.29592 8.37609 7.85460
#
# Compressibility (1/GPa) = 0.01395708
#
# Stress axis : x y z
#
# Youngs Moduli (GPa) = 82.60227 28.60201 32.98955
#
# Poissons Ratio (x) = 0.21783 0.22205
# Poissons Ratio (y) = 0.62910 0.57287
# Poissons Ratio (z) = 0.55600 0.49668
#
# Static dielectric constant tensor:
#      x y z
#    x 1.634480 0.000000 0.004070 
#    y 0.000000 1.628620 0.000000 
#    z 0.004070 0.000000 1.617560 
# 
# From -- ./inp_files/377968.got.cif
#   From: 2010.05.17/outbox.cif.g08.bks.cpg/sg12_189_cif.got.tgz:377968.got - 2010.06.03 13:09:07.
