data_PCOD9188860
_publ_section_title
;
Structure prediction by ZEFSAII (Michael W. Deem and Ramdas Pophale) SiO2 
 PCOD9188860
Probable space group: C 2/M
;
_chemical_formula_sum "Si O2"
_cell_formula_units_Z 40
_cell_length_a 12.847952
_cell_length_b 17.234682
_cell_length_c 9.627318
_cell_angle_alpha 90.000000
_cell_angle_beta 75.873607
_cell_angle_gamma 90.000000
_cell_volume 2067.314859
_symmetry_space_group_name_H-M "C 2/M"
_symmetry_group_IT_number 12
_symmetry_cell_setting 'monoclinic'
loop_
_space_group_symop_operation_xyz
x,y,z
-x,y,-z
-x,-y,-z
x,-y,z
1/2+x,1/2+y,z
1/2-x,1/2+y,-z
1/2-x,1/2-y,-z
1/2+x,1/2-y,z
loop_
_atom_site_type_symbol
_atom_site_label
_atom_site_fract_x
_atom_site_fract_y
_atom_site_fract_z
Si Si1 0.228882 0.091238 0.287874
Si Si2 0.693482 0.411171 0.631613
Si Si3 0.985530 0.813039 0.671320
Si Si4 0.416016 0.089493 0.640611
Si Si5 0.035819 0.659411 0.831373
O O1 0.219682 0.089572 0.458722
O O2 0.339823 0.134490 0.216233
O O3 0.126341 0.141099 0.270473
O O4 0.227714 0.000000 0.243318
O O5 0.677489 0.500000 0.681830
O O6 0.584127 0.366234 0.687481
O O7 0.798050 0.374142 0.670165
O O8 0.001764 0.734101 0.751030
O O9 0.000000 0.801477 0.500000
O O10 0.500000 0.121173 0.500000
O O11 0.468568 0.093407 0.773398
O O12 0.398419 0.000000 0.604442
O O13 0.000000 0.669790 0.000000
#
# Coordination Sequence:
#
# PCOD9188860 Si02
#       5
#     8   8   8   8   8
#     4  10  21  40  65  91 120 155 200 251 300 356
#     4   9  18  36  65  93 117 147 197 255 304 354
#     4  10  23  39  64  90 120 156 200 245 303 358
#     4  10  19  36  62  89 118 152 198 252 299 348
#     4  12  26  39  58  86 128 163 201 242 297 354
#
# _framework density 19.348769000000001
#
# number of rings (size 3 to 8) (size 9 to 14) (size 15 to 20)
#    0.000    1.800    2.000    1.800    2.800    6.400 
#    0.000    0.000    0.000    1.200    0.000    0.000 
#    0.000    0.000    0.000    0.000    0.000    0.000 
#
# Total GULP energy -111551.132623 kJ/mol
# GULP energy per Si atom -5577.556631 kJ/mol
# Density = 1.930473 g / cm^3
# Si number density = 19.348769 Si / 1000 Ang^3
#
#
#
# Elastic Constant Matrix: (Units=GPa)
#
#
# Indices 1 2 3 4 5 6 
#
# 1 201.2426 63.4390 37.9672 0.0000 -3.8969 0.0000
# 2 63.4390 95.7305 21.0768 0.0000 -6.0622 0.0000
# 3 37.9672 21.0768 52.3918 0.0000 8.8840 0.0000
# 4 0.0000 0.0000 0.0000 5.2341 0.0000 -10.7421
# 5 -3.8969 -6.0622 8.8840 0.0000 14.3343 0.0000
# 6 0.0000 0.0000 0.0000 -10.7421 0.0000 290.8408
#
#
#
# Elastic Compliance Matrix: (Units=1/GPa)
#
#
# Indices 1 2 3 4 5 6 
#
# 1 0.006896 -0.003482 -0.004095 0.000000 0.002940 0.000000
# 2 -0.003482 0.014256 -0.004552 0.000000 0.007904 0.000000
# 3 -0.004095 -0.004552 0.027267 0.000000 -0.019938 0.000000
# 4 0.000000 0.000000 0.000000 0.206724 0.000000 0.007635
# 5 0.002940 0.007904 -0.019938 0.000000 0.086262 0.000000
# 6 0.000000 0.000000 0.000000 0.007635 0.000000 0.003720
#
#
# Mechanical properties :
#
#
# Convention : Reuss Voigt Hill
#
# Bulk Modulus (GPa) = 41.38999 66.03676 53.71338
# Shear Modulus (GPa) = 13.24720 77.20731 45.22725
#
# Velocity S-wave (km/s) = 2.61943 6.32373 4.83999
# Velocity P-wave (km/s) = 5.53051 9.35538 7.68472
#
# Compressibility (1/GPa) = 0.02416043
#
# Stress axis : x y z
#
# Youngs Moduli (GPa) = 145.00189 70.14428 36.67458
#
# Poissons Ratio (x) = 0.24426 0.15020
# Poissons Ratio (y) = 0.50494 0.16694
# Poissons Ratio (z) = 0.59384 0.31929
#
# Static dielectric constant tensor:
#      x y z
#    x 1.705440 0.000000 0.004250 
#    y 0.000000 1.764090 0.000000 
#    z 0.004250 0.000000 1.641830 
# 
# From -- ./inp_files/46896.got.cif
#   From: 2010.05.17/outbox.cif.g08.bks.cpg/sg12_24_cif.got.tgz:46896.got - 2010.06.03 13:09:07.
