data_PCOD9188045
_publ_section_title
;
Structure prediction by ZEFSAII (Michael W. Deem and Ramdas Pophale) SiO2 
 PCOD9188045
Probable space group: C 2/M
;
_chemical_formula_sum "Si O2"
_cell_formula_units_Z 48
_cell_length_a 12.495853
_cell_length_b 16.311365
_cell_length_c 29.456419
_cell_angle_alpha 90.000000
_cell_angle_beta 157.962982
_cell_angle_gamma 90.000000
_cell_volume 2252.710705
_symmetry_space_group_name_H-M "C 2/M"
_symmetry_group_IT_number 12
_symmetry_cell_setting 'monoclinic'
loop_
_space_group_symop_operation_xyz
x,y,z
-x,y,-z
-x,-y,-z
x,-y,z
1/2+x,1/2+y,z
1/2-x,1/2+y,-z
1/2-x,1/2-y,-z
1/2+x,1/2-y,z
loop_
_atom_site_type_symbol
_atom_site_label
_atom_site_fract_x
_atom_site_fract_y
_atom_site_fract_z
Si Si1 0.415933 0.161531 0.247037
Si Si2 0.782640 0.500000 0.046807
Si Si3 0.974983 0.762861 0.627946
Si Si4 0.156426 0.095473 0.360266
Si Si5 0.096558 0.500000 0.803018
Si Si6 0.202728 0.158215 0.961748
Si Si7 0.047669 0.802440 0.805984
O O1 0.599623 0.205993 0.357707
O O2 0.326910 0.227373 0.173770
O O3 0.127724 0.137596 0.159330
O O4 0.535508 0.081487 0.270424
O O5 0.439740 0.500000 0.925380
O O6 0.855231 0.583033 0.047391
O O7 0.929182 0.500000 0.153242
O O8 0.750000 0.750000 0.500000
O O9 0.977610 0.852338 0.651367
O O10 0.275198 0.737231 0.724377
O O11 0.500000 0.105586 0.500000
O O12 0.052620 0.132575 0.271305
O O13 0.088677 0.000000 0.336355
O O14 0.235263 0.161937 0.920551
O O15 0.250000 0.250000 0.000000
#
# Coordination Sequence:
#
# PCOD9188045 Si02
#       7
#     8   4   8   8   4   8   8
#     4   9  20  34  55  80 105 143 178 219 274 322
#     4   9  18  30  54  77 104 135 179 218 269 309
#     4  10  19  36  54  80 109 142 181 224 271 325
#     4  10  20  35  56  83 108 146 187 225 275 328
#     4   9  16  34  50  77 103 134 175 226 260 318
#     4  10  20  34  55  83 107 140 183 223 266 328
#     4  10  20  35  58  77 111 146 178 223 275 325
#
# _framework density 21.307663999999999
#
# number of rings (size 3 to 8) (size 9 to 14) (size 15 to 20)
#    0.000    2.333    1.667    1.000    1.167    2.000 
#    4.500    0.000   14.667    2.000    0.000    0.000 
#    0.000    0.000    0.000    0.000    0.000    0.000 
#
# Total GULP energy -133954.846452 kJ/mol
# GULP energy per Si atom -5581.451936 kJ/mol
# Density = 2.125917 g / cm^3
# Si number density = 21.307664 Si / 1000 Ang^3
#
#
#
# Elastic Constant Matrix: (Units=GPa)
#
#
# Indices 1 2 3 4 5 6 
#
# 1 132.7748 64.4421 47.3144 -0.0005 -35.5809 0.0004
# 2 64.4421 171.7059 39.3281 0.0009 -37.7104 0.0013
# 3 47.3144 39.3281 47.0499 0.0085 -32.2515 0.0033
# 4 -0.0005 0.0009 0.0085 16.9903 0.0008 -1.9377
# 5 -35.5809 -37.7104 -32.2515 0.0008 47.3635 0.0000
# 6 0.0004 0.0013 0.0033 -1.9377 0.0000 27.9419
#
#
#
# Elastic Compliance Matrix: (Units=1/GPa)
#
#
# Indices 1 2 3 4 5 6 
#
# 1 0.012396 -0.002175 -0.010223 0.000006 0.000619 0.000002
# 2 -0.002175 0.007830 -0.002259 0.000001 0.003062 0.000000
# 3 -0.010223 -0.002259 0.050495 -0.000028 0.024905 -0.000008
# 4 0.000006 0.000001 -0.000028 0.059326 -0.000015 0.004114
# 5 0.000619 0.003062 0.024905 -0.000015 0.040975 -0.000004
# 6 0.000002 0.000000 -0.000008 0.004114 -0.000004 0.036074
#
#
# Mechanical properties :
#
#
# Convention : Reuss Voigt Hill
#
# Bulk Modulus (GPa) = 24.15058 72.63330 48.39194
# Shear Modulus (GPa) = 19.98298 31.82222 25.90260
#
# Velocity S-wave (km/s) = 3.06572 3.86873 3.49040
# Velocity P-wave (km/s) = 4.88778 7.35649 6.24533
#
# Compressibility (1/GPa) = 0.04140687
#
# Stress axis : x y z
#
# Youngs Moduli (GPa) = 80.67011 127.71356 19.80402
#
# Poissons Ratio (x) = 0.27774 0.20247
# Poissons Ratio (y) = 0.17543 0.04473
# Poissons Ratio (z) = 0.82473 0.28849
#
# Static dielectric constant tensor:
#      x y z
#    x 1.770300 0.000000 -0.001220 
#    y 0.000000 1.788640 0.000000 
#    z -0.001220 0.000000 1.739780 
# 
# From -- ./inp_files/204487.got.cif
#   From: 2010.05.17/outbox.cif.g08.bks.cpg/sg12_103_cif.got.tgz:204487.got - 2010.06.03 13:09:07.
