data_PCOD9188173
_publ_section_title
;
Structure prediction by ZEFSAII (Michael W. Deem and Ramdas Pophale) SiO2 
 PCOD9188173
Probable space group: C 2/M
;
_chemical_formula_sum "Si O2"
_cell_formula_units_Z 58
_cell_length_a 14.071168
_cell_length_b 20.802996
_cell_length_c 10.029477
_cell_angle_alpha 90.000000
_cell_angle_beta 97.760046
_cell_angle_gamma 90.000000
_cell_volume 2908.967252
_symmetry_space_group_name_H-M "C 2/M"
_symmetry_group_IT_number 12
_symmetry_cell_setting 'monoclinic'
loop_
_space_group_symop_operation_xyz
x,y,z
-x,y,-z
-x,-y,-z
x,-y,z
1/2+x,1/2+y,z
1/2-x,1/2+y,-z
1/2-x,1/2-y,-z
1/2+x,1/2-y,z
loop_
_atom_site_type_symbol
_atom_site_label
_atom_site_fract_x
_atom_site_fract_y
_atom_site_fract_z
Si Si1 0.140209 0.805794 0.583622
Si Si2 0.069769 0.074729 0.704309
Si Si3 0.772526 0.926380 0.032923
Si Si4 0.500000 0.000000 0.000000
Si Si5 0.076847 0.371708 0.919571
Si Si6 0.666437 0.247639 0.298375
Si Si7 0.580404 0.362468 0.127247
Si Si8 0.481683 0.814540 0.352319
O O1 0.101416 0.877277 0.593825
O O2 0.233176 0.788680 0.689808
O O3 0.166336 0.788600 0.436902
O O4 0.061667 0.755353 0.621756
O O5 0.977784 0.104294 0.763146
O O6 0.055656 0.000000 0.667357
O O7 0.158490 0.078711 0.826340
O O8 0.679805 0.880878 0.008651
O O9 0.842120 0.910339 0.922738
O O10 0.736213 0.000000 0.021698
O O11 0.470235 0.942374 0.098627
O O12 0.085346 0.345013 0.772374
O O13 0.000000 0.334926 0.000000
O O14 0.635184 0.298029 0.180984
O O15 0.583883 0.195277 0.303234
O O16 0.500000 0.348276 0.000000
O O17 0.500000 0.846696 0.500000
#
# Coordination Sequence:
#
# PCOD9188173 Si02
#       8
#     8   8   8   2   8   8   8   8
#     4  10  21  39  60  84 117 157 200 243 303 357
#     4  10  21  37  59  88 119 156 195 244 303 365
#     4  10  19  36  57  79 116 156 186 237 295 353
#     4   8  20  36  54  84 122 152 196 260 296 344
#     4  10  20  37  59  85 118 157 200 243 302 352
#     4  10  21  38  59  82 117 155 190 250 300 347
#     4  10  20  36  57  87 117 147 196 243 300 359
#     4  10  21  38  60  84 117 155 195 248 302 358
#
# _framework density 19.938345999999999
#
# number of rings (size 3 to 8) (size 9 to 14) (size 15 to 20)
#    0.414    1.655    2.069    1.241    1.931    2.207 
#    0.000    4.483    0.000    0.000    0.000    0.000 
#    0.000    0.000    0.000    0.000    0.000    0.000 
#
# Total GULP energy -161446.486005 kJ/mol
# GULP energy per Si atom -5567.120207 kJ/mol
# Density = 1.989297 g / cm^3
# Si number density = 19.938346 Si / 1000 Ang^3
#
#
#
# Elastic Constant Matrix: (Units=GPa)
#
#
# Indices 1 2 3 4 5 6 
#
# 1 90.1197 1.0617 2.0547 0.0000 13.0203 0.0000
# 2 1.0617 62.7990 13.9842 0.0000 -3.9011 0.0000
# 3 2.0547 13.9842 50.2708 0.0000 2.8394 0.0000
# 4 0.0000 0.0000 0.0000 14.4319 0.0000 -7.6536
# 5 13.0203 -3.9011 2.8394 0.0000 23.4650 0.0000
# 6 0.0000 0.0000 0.0000 -7.6536 0.0000 11.8783
#
#
#
# Elastic Compliance Matrix: (Units=1/GPa)
#
#
# Indices 1 2 3 4 5 6 
#
# 1 0.012088 -0.000644 0.000070 0.000000 -0.006823 0.000000
# 2 -0.000644 0.017286 -0.004999 0.000000 0.003836 0.000000
# 3 0.000070 -0.004999 0.021476 0.000000 -0.003469 0.000000
# 4 0.000000 0.000000 0.000000 0.105258 0.000000 0.067822
# 5 -0.006823 0.003836 -0.003469 0.000000 0.047460 0.000000
# 6 0.000000 0.000000 0.000000 0.067822 0.000000 0.127887
#
#
# Mechanical properties :
#
#
# Convention : Reuss Voigt Hill
#
# Bulk Modulus (GPa) = 25.18554 26.37674 25.78114
# Shear Modulus (GPa) = 14.05141 22.36096 18.20619
#
# Velocity S-wave (km/s) = 2.65758 3.35252 3.02507
# Velocity P-wave (km/s) = 4.69852 5.31448 5.01597
#
# Compressibility (1/GPa) = 0.03970532
#
# Stress axis : x y z
#
# Youngs Moduli (GPa) = 82.72594 57.84958 46.56376
#
# Poissons Ratio (x) = 0.03725 -0.00328
# Poissons Ratio (y) = 0.05327 0.23277
# Poissons Ratio (z) = -0.00583 0.28919
#
# Static dielectric constant tensor:
#      x y z
#    x 1.752340 0.000000 0.025220 
#    y 0.000000 1.673410 0.000000 
#    z 0.025220 0.000000 1.780630 
# 
# From -- ./inp_files/65393.got.cif
#   From: 2010.05.17/outbox.cif.g08.bks.cpg/sg12_33_cif.got.tgz:65393.got - 2010.06.03 13:09:07.
