data_PCOD9188145
_publ_section_title
;
Structure prediction by ZEFSAII (Michael W. Deem and Ramdas Pophale) SiO2 
 PCOD9188145
Probable space group: C 2/M
;
_chemical_formula_sum "Si O2"
_cell_formula_units_Z 56
_cell_length_a 9.450626
_cell_length_b 20.578920
_cell_length_c 21.178164
_cell_angle_alpha 90.000000
_cell_angle_beta 131.357224
_cell_angle_gamma 90.000000
_cell_volume 3091.595561
_symmetry_space_group_name_H-M "C 2/M"
_symmetry_group_IT_number 12
_symmetry_cell_setting 'monoclinic'
loop_
_space_group_symop_operation_xyz
x,y,z
-x,y,-z
-x,-y,-z
x,-y,z
1/2+x,1/2+y,z
1/2-x,1/2+y,-z
1/2-x,1/2-y,-z
1/2+x,1/2-y,z
loop_
_atom_site_type_symbol
_atom_site_label
_atom_site_fract_x
_atom_site_fract_y
_atom_site_fract_z
Si Si1 0.187671 0.808431 0.595741
Si Si2 0.266131 0.133672 0.172064
Si Si3 0.636296 0.422556 0.915432
Si Si4 0.586454 0.760145 0.693915
Si Si5 0.325061 0.074459 0.712802
Si Si6 0.839275 0.315138 0.056575
Si Si7 0.268318 0.647217 0.187334
O O1 0.376250 0.784120 0.617562
O O2 0.174675 0.767496 0.656505
O O3 0.224707 0.881229 0.630960
O O4 0.000000 0.802213 0.500000
O O5 0.296536 0.181946 0.239771
O O6 0.451467 0.088842 0.224445
O O7 0.273815 0.175666 0.109727
O O8 0.075212 0.093770 0.123822
O O9 0.671763 0.500000 0.927147
O O10 0.669484 0.391594 0.856049
O O11 0.769942 0.379830 0.000036
O O12 0.588514 0.702185 0.746086
O O13 0.260505 0.098358 0.762730
O O14 0.284120 0.000000 0.691348
O O15 0.066121 0.316691 0.119068
O O16 0.750000 0.250000 0.000000
#
# Coordination Sequence:
#
# PCOD9188145 Si02
#       7
#     8   8   8   8   8   8   8
#     4  10  20  33  55  84 109 131 160 210 266 318
#     4  10  21  36  55  75 103 142 183 222 263 316
#     4  12  24  35  52  80 111 143 182 230 278 315
#     4  10  19  36  57  78 104 136 174 212 259 316
#     4   9  19  36  55  74 102 142 179 211 254 314
#     4  11  23  38  55  76 105 141 186 235 278 316
#     4  10  21  36  55  75 103 142 183 222 263 316
#
# _framework density 18.113624000000002
#
# number of rings (size 3 to 8) (size 9 to 14) (size 15 to 20)
#    0.000    1.714    0.000    5.571    0.000    6.000 
#    0.000    0.000    0.000    0.000    0.000    0.000 
#    0.000   20.571    0.000    0.000    0.000    0.000 
#
# Total GULP energy -156411.197861 kJ/mol
# GULP energy per Si atom -5586.114209 kJ/mol
# Density = 1.807240 g / cm^3
# Si number density = 18.113624 Si / 1000 Ang^3
#
#
#
# Elastic Constant Matrix: (Units=GPa)
#
#
# Indices 1 2 3 4 5 6 
#
# 1 53.9936 19.9609 12.0971 0.0000 -0.9200 0.0000
# 2 19.9609 98.7311 24.0915 0.0000 6.9855 0.0000
# 3 12.0971 24.0915 63.6050 0.0000 10.4039 0.0000
# 4 0.0000 0.0000 0.0000 8.3989 0.0000 0.9709
# 5 -0.9200 6.9855 10.4039 0.0000 20.3236 0.0000
# 6 0.0000 0.0000 0.0000 0.9709 0.0000 9.4513
#
#
#
# Elastic Compliance Matrix: (Units=1/GPa)
#
#
# Indices 1 2 3 4 5 6 
#
# 1 0.020652 -0.003674 -0.003160 0.000000 0.003815 0.000000
# 2 -0.003674 0.011876 -0.003388 0.000000 -0.002514 0.000000
# 3 -0.003160 -0.003388 0.019033 0.000000 -0.008722 0.000000
# 4 0.000000 0.000000 0.000000 0.120495 0.000000 -0.012379
# 5 0.003815 -0.002514 -0.008722 0.000000 0.054706 0.000000
# 6 0.000000 0.000000 0.000000 -0.012379 0.000000 0.107077
#
#
# Mechanical properties :
#
#
# Convention : Reuss Voigt Hill
#
# Bulk Modulus (GPa) = 32.13809 36.51431 34.32620
# Shear Modulus (GPa) = 13.71157 18.31343 16.01250
#
# Velocity S-wave (km/s) = 2.75430 3.18312 2.97644
# Velocity P-wave (km/s) = 5.28166 5.80620 5.55013
#
# Compressibility (1/GPa) = 0.03111572
#
# Stress axis : x y z
#
# Youngs Moduli (GPa) = 48.42132 84.20368 52.54006
#
# Poissons Ratio (x) = 0.30937 0.16604
# Poissons Ratio (y) = 0.17791 0.17802
# Poissons Ratio (z) = 0.15303 0.28531
#
# Static dielectric constant tensor:
#      x y z
#    x 1.629680 0.000000 0.000720 
#    y 0.000000 1.607540 0.000000 
#    z 0.000720 0.000000 1.614250 
# 
# From -- ./inp_files/301626.got.cif
#   From: 2010.05.17/outbox.cif.g08.bks.cpg/sg12_151_cif.got.tgz:301626.got - 2010.06.03 13:09:07.
