data_PCOD9188779
_publ_section_title
;
Structure prediction by ZEFSAII (Michael W. Deem and Ramdas Pophale) SiO2 
 PCOD9188779
Probable space group: C 2/M
;
_chemical_formula_sum "Si O2"
_cell_formula_units_Z 64
_cell_length_a 14.931767
_cell_length_b 17.862756
_cell_length_c 14.399331
_cell_angle_alpha 90.000000
_cell_angle_beta 121.595629
_cell_angle_gamma 90.000000
_cell_volume 3271.317881
_symmetry_space_group_name_H-M "C 2/M"
_symmetry_group_IT_number 12
_symmetry_cell_setting 'monoclinic'
loop_
_space_group_symop_operation_xyz
x,y,z
-x,y,-z
-x,-y,-z
x,-y,z
1/2+x,1/2+y,z
1/2-x,1/2+y,-z
1/2-x,1/2-y,-z
1/2+x,1/2-y,z
loop_
_atom_site_type_symbol
_atom_site_label
_atom_site_fract_x
_atom_site_fract_y
_atom_site_fract_z
Si Si1 0.587023 0.585193 0.682052
Si Si2 0.729582 0.863802 0.349157
Si Si3 0.594834 0.880190 0.440596
Si Si4 0.403072 0.702648 0.575435
Si Si5 0.856596 0.417114 0.327804
Si Si6 0.645835 0.677947 0.884619
Si Si7 0.084567 0.767813 0.213381
Si Si8 0.222990 0.188527 0.125456
O O1 0.548065 0.500000 0.653475
O O2 0.692033 0.594365 0.677271
O O3 0.499616 0.646969 0.605970
O O4 0.615335 0.609092 0.802463
O O5 0.663830 0.907054 0.391509
O O6 0.807259 0.813483 0.455120
O O7 0.643768 0.811918 0.251221
O O8 0.572025 0.790737 0.419686
O O9 0.481466 0.917378 0.379322
O O10 0.652190 0.894429 0.569082
O O11 0.378262 0.691118 0.671265
O O12 0.812380 0.500000 0.289917
O O13 0.804984 0.359086 0.229608
O O14 0.541222 0.727921 0.847180
O O15 0.725835 0.731052 0.871608
O O16 0.693173 0.655552 0.009253
O O17 0.123722 0.803817 0.139570
#
# Coordination Sequence:
#
# PCOD9188779 Si02
#       8
#     8   8   8   8   8   8   8   8
#     4  11  24  39  55  83 128 168 200 243 301 365
#     4  11  20  34  58  87 116 156 200 241 297 352
#     4  10  21  36  60  88 121 155 197 250 295 357
#     4  10  21  35  58  87 117 159 199 242 289 356
#     4  11  23  37  58  88 120 157 193 247 314 363
#     4  10  23  39  61  91 112 156 204 256 304 349
#     4  10  19  36  61  90 115 142 201 253 297 348
#     4  11  20  39  65  85 115 151 202 257 301 356
#
# _framework density 19.563980000000001
#
# number of rings (size 3 to 8) (size 9 to 14) (size 15 to 20)
#    0.000    1.500    1.250    6.750    3.500    2.500 
#    0.000    5.000    0.000    3.750    0.000    3.500 
#    0.000    0.000    0.000    0.000    0.000    0.000 
#
# Total GULP energy -178596.594956 kJ/mol
# GULP energy per Si atom -5581.143592 kJ/mol
# Density = 1.951945 g / cm^3
# Si number density = 19.563980 Si / 1000 Ang^3
#
#
#
# Elastic Constant Matrix: (Units=GPa)
#
#
# Indices 1 2 3 4 5 6 
#
# 1 107.8075 16.9906 13.0829 0.0000 -16.6220 0.0000
# 2 16.9906 62.0215 5.9220 0.0000 -14.6746 0.0000
# 3 13.0829 5.9220 91.9582 0.0000 -18.6230 0.0000
# 4 0.0000 0.0000 0.0000 5.5868 0.0000 -7.1112
# 5 -16.6220 -14.6746 -18.6230 0.0000 32.3160 0.0000
# 6 0.0000 0.0000 0.0000 -7.1112 0.0000 2.6880
#
#
#
# Elastic Compliance Matrix: (Units=1/GPa)
#
#
# Indices 1 2 3 4 5 6 
#
# 1 0.010261 -0.001773 -0.000498 0.000000 0.004186 0.000000
# 2 -0.001773 0.018397 0.000651 0.000000 0.007817 0.000000
# 3 -0.000498 0.000651 0.012353 0.000000 0.007158 0.000000
# 4 0.000000 0.000000 0.000000 -0.075608 0.000000 -0.200023
# 5 0.004186 0.007817 0.007158 0.000000 0.040772 0.000000
# 6 0.000000 0.000000 0.000000 -0.200023 0.000000 -0.157144
#
#
# Mechanical properties :
#
#
# Convention : Reuss Voigt Hill
#
# Bulk Modulus (GPa) = 26.47626 37.08646 31.78136
# Shear Modulus (GPa) = -36.99894 23.17094 -6.91400
#
# Velocity S-wave (km/s) = -4.35348 3.44520 -1.88194
# Velocity P-wave (km/s) = 3.42168 5.90114 3.39968
#
# Compressibility (1/GPa) = 0.03776969
#
# Stress axis : x y z
#
# Youngs Moduli (GPa) = 97.45615 54.35804 80.95142
#
# Poissons Ratio (x) = 0.09638 0.04031
# Poissons Ratio (y) = 0.17280 -0.05266
# Poissons Ratio (z) = 0.04853 -0.03536
#
# Static dielectric constant tensor:
#      x y z
#    x 1.720440 0.000000 -0.005110 
#    y 0.000000 1.679530 0.000000 
#    z -0.005110 0.000000 1.684310 
# 
# From -- ./inp_files/216401.got.cif
#   From: 2010.05.17/outbox.cif.g08.bks.cpg/sg12_109_cif.got.tgz:216401.got - 2010.06.03 13:09:07.
