data_PCOD9188647
_publ_section_title
;
Structure prediction by ZEFSAII (Michael W. Deem and Ramdas Pophale) SiO2 
 PCOD9188647
Probable space group: C 2/M
;
_chemical_formula_sum "Si O2"
_cell_formula_units_Z 56
_cell_length_a 20.484248
_cell_length_b 20.802174
_cell_length_c 10.302217
_cell_angle_alpha 90.000000
_cell_angle_beta 139.660078
_cell_angle_gamma 90.000000
_cell_volume 2841.706089
_symmetry_space_group_name_H-M "C 2/M"
_symmetry_group_IT_number 12
_symmetry_cell_setting 'monoclinic'
loop_
_space_group_symop_operation_xyz
x,y,z
-x,y,-z
-x,-y,-z
x,-y,z
1/2+x,1/2+y,z
1/2-x,1/2+y,-z
1/2-x,1/2-y,-z
1/2+x,1/2-y,z
loop_
_atom_site_type_symbol
_atom_site_label
_atom_site_fract_x
_atom_site_fract_y
_atom_site_fract_z
Si Si1 0.578654 0.779696 0.230598
Si Si2 0.452243 0.213982 0.293012
Si Si3 0.082897 0.500000 0.238242
Si Si4 0.223258 0.614951 0.366432
Si Si5 0.794788 0.614225 0.973752
Si Si6 0.554677 0.374651 0.212479
Si Si7 0.444437 0.000000 0.277520
Si Si8 0.427938 0.632279 0.273428
O O1 0.532846 0.798128 0.300623
O O2 0.682050 0.815637 0.352361
O O3 0.576517 0.702214 0.227939
O O4 0.500000 0.801206 0.000000
O O5 0.500000 0.190114 0.500000
O O6 0.348951 0.180261 0.096009
O O7 0.431086 0.289770 0.276391
O O8 0.149381 0.562933 0.316529
O O9 0.028803 0.500000 0.293913
O O10 0.000000 0.500000 0.000000
O O11 0.335782 0.599628 0.583990
O O12 0.217084 0.611688 0.200446
O O13 0.871673 0.560593 0.141737
O O14 0.685002 0.609332 0.871489
O O15 0.478241 0.386660 0.214480
O O16 0.500000 0.397971 0.000000
O O17 0.500000 0.000000 0.500000
O O18 0.500000 0.610792 0.500000
#
# Coordination Sequence:
#
# PCOD9188647 Si02
#       8
#     8   8   4   8   8   8   4   8
#     4  10  19  36  60  89 125 161 201 253 311 368
#     4  10  21  35  57  91 125 157 201 255 312 364
#     4  12  24  44  68  94 121 156 205 255 304 365
#     4  12  22  39  66  91 120 169 212 247 305 373
#     4  12  22  40  65  89 122 170 208 248 308 371
#     4  10  23  39  59  91 126 159 205 260 304 357
#     4  12  28  46  66  97 127 152 202 265 309 359
#     4  10  21  39  60  87 125 165 204 253 305 367
#
# _framework density 19.706471000000001
#
# number of rings (size 3 to 8) (size 9 to 14) (size 15 to 20)
#    0.000    1.143    4.286    2.571    0.000    2.286 
#    0.000    1.429    0.000    0.000    0.000    0.000 
#    0.000    0.000    0.000    0.000    0.000    0.000 
#
# Total GULP energy -156464.357970 kJ/mol
# GULP energy per Si atom -5588.012785 kJ/mol
# Density = 1.966162 g / cm^3
# Si number density = 19.706471 Si / 1000 Ang^3
#
#
#
# Elastic Constant Matrix: (Units=GPa)
#
#
# Indices 1 2 3 4 5 6 
#
# 1 176.6889 36.4181 103.3562 0.0000 -2.6481 0.0000
# 2 36.4181 22.8579 21.2802 0.0000 -2.0324 0.0000
# 3 103.3562 21.2802 180.5199 0.0000 -11.0287 0.0000
# 4 0.0000 0.0000 0.0000 20.2783 0.0000 8.4279
# 5 -2.6481 -2.0324 -11.0287 0.0000 43.3104 0.0000
# 6 0.0000 0.0000 0.0000 8.4279 0.0000 17.1796
#
#
#
# Elastic Compliance Matrix: (Units=1/GPa)
#
#
# Indices 1 2 3 4 5 6 
#
# 1 0.011342 -0.013551 -0.004970 0.000000 -0.001208 0.000000
# 2 -0.013551 0.065362 0.000193 0.000000 0.002288 0.000000
# 3 -0.004970 0.000193 0.008476 0.000000 0.001864 0.000000
# 4 0.000000 0.000000 0.000000 0.061943 0.000000 -0.030388
# 5 -0.001208 0.002288 0.001864 0.000000 0.023597 0.000000
# 6 0.000000 0.000000 0.000000 -0.030388 0.000000 0.073116
#
#
# Mechanical properties :
#
#
# Convention : Reuss Voigt Hill
#
# Bulk Modulus (GPa) = 20.60813 78.01952 49.31382
# Shear Modulus (GPa) = 16.85393 30.75448 23.80421
#
# Velocity S-wave (km/s) = 2.92764 3.95477 3.47931
# Velocity P-wave (km/s) = 4.68063 7.78012 6.42023
#
# Compressibility (1/GPa) = 0.04852454
#
# Stress axis : x y z
#
# Youngs Moduli (GPa) = 88.16839 15.29947 117.97575
#
# Poissons Ratio (x) = 0.20732 0.58636
# Poissons Ratio (y) = 1.19474 -0.02279
# Poissons Ratio (z) = 0.43822 -0.00296
#
# Static dielectric constant tensor:
#      x y z
#    x 1.659980 0.000000 -0.004660 
#    y 0.000000 1.777730 0.000000 
#    z -0.004660 0.000000 1.670960 
# 
# From -- ./inp_files/80134.got.cif
#   From: 2010.05.17/outbox.cif.g08.bks.cpg/sg12_41_cif.got.tgz:80134.got - 2010.06.03 13:09:07.
