data_PCOD9188284
_publ_section_title
;
Structure prediction by ZEFSAII (Michael W. Deem and Ramdas Pophale) SiO2 
 PCOD9188284
Probable space group: C 2/M
;
_chemical_formula_sum "Si O2"
_cell_formula_units_Z 60
_cell_length_a 24.446278
_cell_length_b 7.733923
_cell_length_c 20.780081
_cell_angle_alpha 90.000000
_cell_angle_beta 141.832628
_cell_angle_gamma 90.000000
_cell_volume 2427.843767
_symmetry_space_group_name_H-M "C 2/M"
_symmetry_group_IT_number 12
_symmetry_cell_setting 'monoclinic'
loop_
_space_group_symop_operation_xyz
x,y,z
-x,y,-z
-x,-y,-z
x,-y,z
1/2+x,1/2+y,z
1/2-x,1/2+y,-z
1/2-x,1/2-y,-z
1/2+x,1/2-y,z
loop_
_atom_site_type_symbol
_atom_site_label
_atom_site_fract_x
_atom_site_fract_y
_atom_site_fract_z
Si Si1 0.135837 0.193424 0.820591
Si Si2 0.403892 0.699256 0.893234
Si Si3 0.375542 0.705163 0.630491
Si Si4 0.293549 0.308285 0.288663
Si Si5 0.824491 0.798065 0.992857
Si Si6 0.283677 0.201313 0.425030
Si Si7 0.383406 0.000000 0.289147
Si Si8 0.515978 0.203697 0.156117
O O1 0.153290 0.236659 0.911874
O O2 0.091589 0.346125 0.740416
O O3 0.098236 0.000000 0.781003
O O4 0.239067 0.194269 0.892332
O O5 0.400776 0.500000 0.911888
O O6 0.311330 0.786144 0.823710
O O7 0.414041 0.702950 0.825064
O O8 0.500000 0.778123 0.000000
O O9 0.365246 0.500000 0.614933
O O10 0.364779 0.783678 0.550222
O O11 0.297124 0.772296 0.605529
O O12 0.463395 0.744650 0.751627
O O13 0.324265 0.500000 0.298138
O O14 0.298751 0.291876 0.371233
O O15 0.347672 0.153204 0.306236
O O16 0.917259 0.760192 0.045339
O O17 0.799865 0.000000 0.962185
O O18 0.267056 0.000000 0.395753
O O19 0.524858 0.000000 0.157445
#
# Coordination Sequence:
#
# PCOD9188284 Si02
#       8
#     8   8   8   8   8   8   4   8
#     4  10  22  40  63  88 117 155 203 257 310 357
#     4  11  24  40  54  75 119 166 203 244 287 347
#     4  10  20  34  56  83 115 156 198 249 302 349
#     4  12  24  39  59  86 119 161 207 242 292 356
#     4  10  21  39  61  87 119 155 199 258 311 356
#     4  10  19  36  58  82 118 156 196 248 300 345
#     4  12  24  40  61  86 119 160 201 250 296 353
#     4  12  24  35  56  87 119 160 206 243 299 363
#
# _framework density 24.713286
#
# number of rings (size 3 to 8) (size 9 to 14) (size 15 to 20)
#    0.000    1.200    3.333    3.200    3.733    2.133 
#    0.000    0.000    0.000    0.000    0.000    1.867 
#    0.000    4.267    0.000    0.000    0.000    0.000 
#
# Total GULP energy -167400.833212 kJ/mol
# GULP energy per Si atom -5580.027774 kJ/mol
# Density = 2.465704 g / cm^3
# Si number density = 24.713286 Si / 1000 Ang^3
#
#
#
# Elastic Constant Matrix: (Units=GPa)
#
#
# Indices 1 2 3 4 5 6 
#
# 1 70.2364 8.5974 -0.7411 0.0000 -21.9538 0.0000
# 2 8.5974 152.1607 8.4964 0.0000 -20.3614 0.0000
# 3 -0.7411 8.4964 80.6351 0.0000 -19.5757 0.0000
# 4 0.0000 0.0000 0.0000 30.1753 0.0000 -13.6028
# 5 -21.9538 -20.3614 -19.5757 0.0000 36.3648 0.0000
# 6 0.0000 0.0000 0.0000 -13.6028 0.0000 27.2432
#
#
#
# Elastic Compliance Matrix: (Units=1/GPa)
#
#
# Indices 1 2 3 4 5 6 
#
# 1 0.018311 0.000538 0.003300 0.000000 0.013133 0.000000
# 2 0.000538 0.007125 0.000347 0.000000 0.004501 0.000000
# 3 0.003300 0.000347 0.014869 0.000000 0.010191 0.000000
# 4 0.000000 0.000000 0.000000 0.042766 0.000000 0.021353
# 5 0.013133 0.004501 0.010191 0.000000 0.043433 0.000000
# 6 0.000000 0.000000 0.000000 0.021353 0.000000 0.047368
#
#
# Mechanical properties :
#
#
# Convention : Reuss Voigt Hill
#
# Bulk Modulus (GPa) = 20.54419 37.30418 28.92419
# Shear Modulus (GPa) = 27.51373 37.86864 32.69118
#
# Velocity S-wave (km/s) = 3.34026 3.91873 3.64100
# Velocity P-wave (km/s) = 4.81742 5.96681 5.42265
#
# Compressibility (1/GPa) = 0.04867557
#
# Stress axis : x y z
#
# Youngs Moduli (GPa) = 54.61075 140.36064 67.25259
#
# Poissons Ratio (x) = -0.07558 -0.22192
# Poissons Ratio (y) = -0.02941 -0.02333
# Poissons Ratio (z) = -0.18020 -0.04870
#
# Static dielectric constant tensor:
#      x y z
#    x 2.022940 0.000000 -0.022290 
#    y 0.000000 1.896450 0.000000 
#    z -0.022290 0.000000 2.051210 
# 
# From -- ./inp_files/327283.got.cif
#   From: 2010.05.17/outbox.cif.g08.bks.cpg/sg12_164_cif.got.tgz:327283.got - 2010.06.03 13:09:07.
