data_PCOD9188044
_publ_section_title
;
Structure prediction by ZEFSAII (Michael W. Deem and Ramdas Pophale) SiO2 
 PCOD9188044
Probable space group: C 2/M
;
_chemical_formula_sum "Si O2"
_cell_formula_units_Z 42
_cell_length_a 15.028709
_cell_length_b 12.889684
_cell_length_c 13.940924
_cell_angle_alpha 90.000000
_cell_angle_beta 49.847515
_cell_angle_gamma 90.000000
_cell_volume 2064.129792
_symmetry_space_group_name_H-M "C 2/M"
_symmetry_group_IT_number 12
_symmetry_cell_setting 'monoclinic'
loop_
_space_group_symop_operation_xyz
x,y,z
-x,y,-z
-x,-y,-z
x,-y,z
1/2+x,1/2+y,z
1/2-x,1/2+y,-z
1/2-x,1/2-y,-z
1/2+x,1/2-y,z
loop_
_atom_site_type_symbol
_atom_site_label
_atom_site_fract_x
_atom_site_fract_y
_atom_site_fract_z
Si Si1 0.683466 0.379256 0.875377
Si Si2 0.510932 0.687541 0.843545
Si Si3 0.500000 0.000000 0.500000
Si Si4 0.872953 0.338423 0.492680
Si Si5 0.377563 0.382976 0.426395
Si Si6 0.925714 0.381041 0.800347
O O1 0.690805 0.500000 0.842978
O O2 0.629562 0.317193 0.823104
O O3 0.806045 0.344224 0.834254
O O4 0.586935 0.369259 0.026470
O O5 0.534763 0.637062 0.723306
O O6 0.466372 0.803480 0.854606
O O7 0.600574 0.091466 0.434960
O O8 0.749714 0.367052 0.532357
O O9 0.887481 0.214866 0.491065
O O10 0.970579 0.378919 0.349673
O O11 0.389079 0.500000 0.455646
O O12 0.908417 0.500000 0.843079
#
# Coordination Sequence:
#
# PCOD9188044 Si02
#       6
#     8   8   2   8   8   8
#     4  10  20  34  54  80 104 137 182 222 261 316
#     4  10  20  33  54  81 107 140 176 223 271 313
#     4  12  20  36  54  84 110 132 184 226 256 320
#     4  10  22  32  56  82 107 138 179 221 266 316
#     4  10  19  36  54  80 108 144 174 220 271 325
#     4  10  20  36  54  77 108 139 179 221 264 318
#
# _framework density 20.347557999999999
#
# number of rings (size 3 to 8) (size 9 to 14) (size 15 to 20)
#    0.000    1.905    1.905    2.857    2.667    0.000 
#    0.000    2.381    0.000    6.857    0.000    0.000 
#    0.000    0.000    0.000    0.000    0.000    0.000 
#
# Total GULP energy -116977.765361 kJ/mol
# GULP energy per Si atom -5570.369779 kJ/mol
# Density = 2.030125 g / cm^3
# Si number density = 20.347558 Si / 1000 Ang^3
#
#
#
# Elastic Constant Matrix: (Units=GPa)
#
#
# Indices 1 2 3 4 5 6 
#
# 1 97.8939 53.8344 9.0378 0.0000 -7.9251 0.0000
# 2 53.8344 181.4398 4.8833 0.0000 13.4861 0.0000
# 3 9.0378 4.8833 54.2010 0.0000 -9.5160 0.0000
# 4 0.0000 0.0000 0.0000 19.2229 0.0000 2.4422
# 5 -7.9251 13.4861 -9.5160 0.0000 26.2679 0.0000
# 6 0.0000 0.0000 0.0000 2.4422 0.0000 45.2206
#
#
#
# Elastic Compliance Matrix: (Units=1/GPa)
#
#
# Indices 1 2 3 4 5 6 
#
# 1 0.013137 -0.004316 -0.000765 0.000000 0.005902 0.000000
# 2 -0.004316 0.007210 -0.000863 0.000000 -0.005317 0.000000
# 3 -0.000765 -0.000863 0.019962 0.000000 0.007444 0.000000
# 4 0.000000 0.000000 0.000000 0.052381 0.000000 -0.002829
# 5 0.005902 -0.005317 0.007444 0.000000 0.045276 0.000000
# 6 0.000000 0.000000 0.000000 -0.002829 0.000000 0.022267
#
#
# Mechanical properties :
#
#
# Convention : Reuss Voigt Hill
#
# Bulk Modulus (GPa) = 35.18651 52.11620 43.65136
# Shear Modulus (GPa) = 27.53361 35.86091 31.69726
#
# Velocity S-wave (km/s) = 3.68253 4.20267 3.95117
# Velocity P-wave (km/s) = 5.95077 7.01559 6.50501
#
# Compressibility (1/GPa) = 0.02841998
#
# Stress axis : x y z
#
# Youngs Moduli (GPa) = 76.12055 138.68736 50.09470
#
# Poissons Ratio (x) = 0.59857 0.03835
# Poissons Ratio (y) = 0.32853 0.04325
# Poissons Ratio (z) = 0.05827 0.11975
#
# Static dielectric constant tensor:
#      x y z
#    x 1.781350 0.000000 0.040290 
#    y 0.000000 1.810330 0.000000 
#    z 0.040290 0.000000 1.812420 
# 
# From -- ./inp_files/212436.got.cif
#   From: 2010.05.17/outbox.cif.g08.bks.cpg/sg12_107_cif.got.tgz:212436.got - 2010.06.03 13:09:07.
