data_PCOD9188969
_publ_section_title
;
Structure prediction by ZEFSAII (Michael W. Deem and Ramdas Pophale) SiO2 
 PCOD9188969
Probable space group: C 2/M
;
_chemical_formula_sum "Si O2"
_cell_formula_units_Z 64
_cell_length_a 18.480006
_cell_length_b 14.223615
_cell_length_c 14.594871
_cell_angle_alpha 90.000000
_cell_angle_beta 52.580112
_cell_angle_gamma 90.000000
_cell_volume 3046.802394
_symmetry_space_group_name_H-M "C 2/M"
_symmetry_group_IT_number 12
_symmetry_cell_setting 'monoclinic'
loop_
_space_group_symop_operation_xyz
x,y,z
-x,y,-z
-x,-y,-z
x,-y,z
1/2+x,1/2+y,z
1/2-x,1/2+y,-z
1/2-x,1/2-y,-z
1/2+x,1/2-y,z
loop_
_atom_site_type_symbol
_atom_site_label
_atom_site_fract_x
_atom_site_fract_y
_atom_site_fract_z
Si Si1 0.435034 0.892209 0.258426
Si Si2 0.626028 0.113464 0.195107
Si Si3 0.750774 0.610745 0.736818
Si Si4 0.399695 0.765599 0.108576
Si Si5 0.608646 0.385286 0.308178
Si Si6 0.761948 0.641573 0.514346
Si Si7 0.218820 0.386146 0.938345
Si Si8 0.593890 0.607648 0.522473
O O1 0.525978 0.856280 0.239505
O O2 0.409439 0.825296 0.194248
O O3 0.350207 0.893659 0.392775
O O4 0.451146 0.000000 0.213588
O O5 0.665089 0.141718 0.263333
O O6 0.619701 0.000000 0.203259
O O7 0.698253 0.137258 0.059595
O O8 0.732153 0.500000 0.769147
O O9 0.665909 0.677078 0.826039
O O10 0.771244 0.622214 0.613967
O O11 0.355611 0.834604 0.066973
O O12 0.500000 0.736300 0.000000
O O13 0.612362 0.500000 0.299108
O O14 0.683153 0.355200 0.176736
O O15 0.504504 0.351657 0.374469
O O16 0.631817 0.355416 0.395534
O O17 0.750000 0.750000 0.500000
O O18 0.668103 0.604492 0.543975
O O19 0.210342 0.500000 0.935473
O O20 0.572511 0.500000 0.516880
#
# Coordination Sequence:
#
# PCOD9188969 Si02
#       8
#     8   8   8   8   8   8   8   8
#     4  11  22  42  72 104 134 169 217 279 347 400
#     4   9  21  42  67  95 132 177 224 269 326 399
#     4  11  26  49  67  89 133 184 231 274 318 392
#     4  12  24  41  67 103 137 174 222 277 336 395
#     4   8  16  31  57  90 124 164 208 252 320 393
#     4  12  24  42  65  96 131 169 220 278 333 394
#     4  10  19  36  64 101 138 173 216 274 338 395
#     4   9  17  34  57  86 124 164 207 263 322 386
#
# _framework density 21.005628999999999
#
# number of rings (size 3 to 8) (size 9 to 14) (size 15 to 20)
#    0.000    1.750    2.500    3.000    0.000    2.750 
#    4.500    1.875    0.000    0.000    0.000    0.000 
#    0.000    0.000    0.000    0.000    0.000    0.000 
#
# Total GULP energy -178718.929807 kJ/mol
# GULP energy per Si atom -5584.966556 kJ/mol
# Density = 2.095782 g / cm^3
# Si number density = 21.005629 Si / 1000 Ang^3
#
#
#
# Elastic Constant Matrix: (Units=GPa)
#
#
# Indices 1 2 3 4 5 6 
#
# 1 148.8851 11.4682 56.9042 0.0000 18.9642 0.0000
# 2 11.4682 84.2352 -9.3585 0.0000 8.7147 0.0000
# 3 56.9042 -9.3585 46.2771 0.0000 12.7338 0.0000
# 4 0.0000 0.0000 0.0000 47.4041 0.0000 -47.7585
# 5 18.9642 8.7147 12.7338 0.0000 32.6792 0.0000
# 6 0.0000 0.0000 0.0000 -47.7585 0.0000 103.8768
#
#
#
# Elastic Compliance Matrix: (Units=1/GPa)
#
#
# Indices 1 2 3 4 5 6 
#
# 1 0.013793 -0.003838 -0.017715 0.000000 -0.000078 0.000000
# 2 -0.003838 0.013893 0.008888 0.000000 -0.004941 0.000000
# 3 -0.017715 0.008888 0.048178 0.000000 -0.010863 0.000000
# 4 0.000000 0.000000 0.000000 0.039298 0.000000 0.018068
# 5 -0.000078 -0.004941 -0.010863 0.000000 0.036196 0.000000
# 6 0.000000 0.000000 0.000000 0.018068 0.000000 0.017934
#
#
# Mechanical properties :
#
#
# Convention : Reuss Voigt Hill
#
# Bulk Modulus (GPa) = 19.78825 44.15835 31.97330
# Shear Modulus (GPa) = 23.64452 51.48426 37.56439
#
# Velocity S-wave (km/s) = 3.35868 4.95610 4.23342
# Velocity P-wave (km/s) = 4.94791 7.33610 6.25701
#
# Compressibility (1/GPa) = 0.05053505
#
# Stress axis : x y z
#
# Youngs Moduli (GPa) = 72.50178 71.98030 20.75619
#
# Poissons Ratio (x) = 0.27625 0.36769
# Poissons Ratio (y) = 0.27825 -0.18449
# Poissons Ratio (z) = 1.28435 -0.63978
#
# Static dielectric constant tensor:
#      x y z
#    x 1.773720 0.000000 -0.007260 
#    y 0.000000 1.817020 0.000000 
#    z -0.007260 0.000000 1.756220 
# 
# From -- ./inp_files/225710.got.cif
#   From: 2010.05.17/outbox.cif.g08.bks.cpg/sg12_113_cif.got.tgz:225710.got - 2010.06.03 13:09:07.
