data_PCOD9188080
_publ_section_title
;
Structure prediction by ZEFSAII (Michael W. Deem and Ramdas Pophale) SiO2 
 PCOD9188080
Probable space group: C 2/M
;
_chemical_formula_sum "Si O2"
_cell_formula_units_Z 48
_cell_length_a 26.867225
_cell_length_b 11.659561
_cell_length_c 20.793157
_cell_angle_alpha 90.000000
_cell_angle_beta 157.590224
_cell_angle_gamma 90.000000
_cell_volume 2483.192406
_symmetry_space_group_name_H-M "C 2/M"
_symmetry_group_IT_number 12
_symmetry_cell_setting 'monoclinic'
loop_
_space_group_symop_operation_xyz
x,y,z
-x,y,-z
-x,-y,-z
x,-y,z
1/2+x,1/2+y,z
1/2-x,1/2+y,-z
1/2-x,1/2-y,-z
1/2+x,1/2-y,z
loop_
_atom_site_type_symbol
_atom_site_label
_atom_site_fract_x
_atom_site_fract_y
_atom_site_fract_z
Si Si1 0.695841 0.714595 0.750060
Si Si2 0.753537 0.874007 0.921257
Si Si3 0.022685 0.364347 0.955660
Si Si4 0.472400 0.367421 0.569150
Si Si5 0.830549 0.632343 0.609897
Si Si6 0.544374 0.790663 0.769711
O O1 0.695837 0.838796 0.783242
O O2 0.619981 0.695020 0.593008
O O3 0.616689 0.639767 0.708711
O O4 0.844795 0.682542 0.916398
O O5 0.638545 0.863807 0.836193
O O6 0.810532 0.000000 0.989441
O O7 0.861629 0.782326 0.071484
O O8 0.044318 0.500000 0.987850
O O9 0.900466 0.349907 0.762360
O O10 0.000000 0.316190 0.000000
O O11 0.434274 0.500000 0.530259
O O12 0.474957 0.300258 0.638995
O O13 0.774301 0.500000 0.541830
O O14 0.750000 0.750000 0.500000
O O15 0.943756 0.637501 0.691117
#
# Coordination Sequence:
#
# PCOD9188080 Si02
#       6
#     8   8   8   8   8   8
#     4  10  19  36  55  87 122 151 197 245 306 351
#     4  10  20  36  60  89 120 157 199 245 307 376
#     4  10  21  38  62  85 114 156 203 252 297 349
#     4  10  20  33  59  92 121 154 195 249 301 356
#     4  11  25  44  64  90 123 162 206 256 309 360
#     4  10  21  38  59  90 120 156 197 249 306 366
#
# _framework density 19.329955000000002
#
# number of rings (size 3 to 8) (size 9 to 14) (size 15 to 20)
#    0.000    1.833    1.667    3.000    2.333    1.333 
#    0.000    7.500    0.000    1.000    0.000    0.000 
#    0.000    0.000    0.000    0.000    0.000    0.000 
#
# Total GULP energy -133827.045307 kJ/mol
# GULP energy per Si atom -5576.126888 kJ/mol
# Density = 1.928596 g / cm^3
# Si number density = 19.329955 Si / 1000 Ang^3
#
#
#
# Elastic Constant Matrix: (Units=GPa)
#
#
# Indices 1 2 3 4 5 6 
#
# 1 82.7320 34.0967 24.9829 0.0000 -22.0631 0.0000
# 2 34.0967 93.9642 39.6255 0.0000 -4.5953 0.0000
# 3 24.9829 39.6255 45.5593 0.0000 -5.9802 0.0000
# 4 0.0000 0.0000 0.0000 15.8397 0.0000 -2.8221
# 5 -22.0631 -4.5953 -5.9802 0.0000 29.4813 0.0000
# 6 0.0000 0.0000 0.0000 -2.8221 0.0000 9.2756
#
#
#
# Elastic Compliance Matrix: (Units=1/GPa)
#
#
# Indices 1 2 3 4 5 6 
#
# 1 0.018519 -0.003974 -0.005097 0.000000 0.012206 0.000000
# 2 -0.003974 0.017663 -0.013574 0.000000 -0.002974 0.000000
# 3 -0.005097 -0.013574 0.036750 0.000000 0.001525 0.000000
# 4 0.000000 0.000000 0.000000 0.066751 0.000000 0.020309
# 5 0.012206 -0.002974 0.001525 0.000000 0.042900 0.000000
# 6 0.000000 0.000000 0.000000 0.020309 0.000000 0.113989
#
#
# Mechanical properties :
#
#
# Convention : Reuss Voigt Hill
#
# Bulk Modulus (GPa) = 36.17454 46.62951 41.40202
# Shear Modulus (GPa) = 14.24190 19.15600 16.69895
#
# Velocity S-wave (km/s) = 2.71731 3.15143 2.94239
# Velocity P-wave (km/s) = 5.34789 6.11697 5.74531
#
# Compressibility (1/GPa) = 0.02764375
#
# Stress axis : x y z
#
# Youngs Moduli (GPa) = 53.99806 56.61531 27.21059
#
# Poissons Ratio (x) = 0.22497 0.13869
# Poissons Ratio (y) = 0.21457 0.36935
# Poissons Ratio (z) = 0.27522 0.76849
#
# Static dielectric constant tensor:
#      x y z
#    x 1.688600 0.000000 -0.001240 
#    y 0.000000 1.666380 0.000000 
#    z -0.001240 0.000000 1.702110 
# 
# From -- ./inp_files/328024.got.cif
#   From: 2010.05.17/outbox.cif.g08.bks.cpg/sg12_165_cif.got.tgz:328024.got - 2010.06.03 13:09:07.
