data_PCOD9188758
_publ_section_title
;
Structure prediction by ZEFSAII (Michael W. Deem and Ramdas Pophale) SiO2 
 PCOD9188758
Probable space group: C 2/M
;
_chemical_formula_sum "Si O2"
_cell_formula_units_Z 64
_cell_length_a 17.183542
_cell_length_b 13.791249
_cell_length_c 15.696439
_cell_angle_alpha 90.000000
_cell_angle_beta 127.800582
_cell_angle_gamma 90.000000
_cell_volume 2939.180804
_symmetry_space_group_name_H-M "C 2/M"
_symmetry_group_IT_number 12
_symmetry_cell_setting 'monoclinic'
loop_
_space_group_symop_operation_xyz
x,y,z
-x,y,-z
-x,-y,-z
x,-y,z
1/2+x,1/2+y,z
1/2-x,1/2+y,-z
1/2-x,1/2-y,-z
1/2+x,1/2-y,z
loop_
_atom_site_type_symbol
_atom_site_label
_atom_site_fract_x
_atom_site_fract_y
_atom_site_fract_z
Si Si1 0.918423 0.110158 0.309637
Si Si2 0.895736 0.247167 0.566969
Si Si3 0.374897 0.237742 0.749259
Si Si4 0.739329 0.797267 0.086931
Si Si5 0.295128 0.110664 0.370096
Si Si6 0.942767 0.612274 0.109312
Si Si7 0.311441 0.108207 0.190250
Si Si8 0.787510 0.893743 0.383789
O O1 0.833226 0.144961 0.186896
O O2 0.877585 0.104746 0.378389
O O3 0.000628 0.192467 0.366679
O O4 0.951703 0.000000 0.309608
O O5 0.885148 0.281767 0.655403
O O6 0.865405 0.329787 0.480236
O O7 0.819013 0.163044 0.488779
O O8 0.313681 0.338655 0.711515
O O9 0.479022 0.199255 0.853396
O O10 0.294749 0.160586 0.725728
O O11 0.734067 0.696358 0.134494
O O12 0.750000 0.750000 0.000000
O O13 0.646421 0.867203 0.015869
O O14 0.345840 0.111910 0.310788
O O15 0.283030 0.000000 0.388852
O O16 0.978225 0.500000 0.125142
O O17 0.894638 0.620764 0.172909
O O18 0.269211 0.000000 0.147356
O O19 0.754385 0.000000 0.383614
#
# Coordination Sequence:
#
# PCOD9188758 Si02
#       8
#     8   8   8   8   8   8   8   8
#     4  11  23  39  61  88 117 152 196 245 295 347
#     4  11  22  36  58  88 117 150 194 241 287 341
#     4  11  23  37  57  85 120 156 193 240 290 344
#     4  10  19  36  61  88 119 151 191 245 297 346
#     4  10  22  41  62  86 120 160 197 234 285 349
#     4  10  21  38  61  89 117 150 196 247 299 348
#     4   9  19  38  62  85 115 154 196 243 289 340
#     4  10  21  38  59  83 117 156 190 235 292 349
#
# _framework density 21.774773
#
# number of rings (size 3 to 8) (size 9 to 14) (size 15 to 20)
#    0.000    1.750    0.000    6.000    0.000    5.500 
#    0.000    3.750    0.000   20.250    0.000    0.000 
#    0.000    0.000    0.000    0.000    0.000    0.000 
#
# Total GULP energy -178328.082807 kJ/mol
# GULP energy per Si atom -5572.752588 kJ/mol
# Density = 2.172521 g / cm^3
# Si number density = 21.774773 Si / 1000 Ang^3
#
#
#
# Elastic Constant Matrix: (Units=GPa)
#
#
# Indices 1 2 3 4 5 6 
#
# 1 44.9015 23.8670 17.6322 0.0000 18.8689 0.0000
# 2 23.8670 163.2635 46.8463 0.0000 20.8285 0.0000
# 3 17.6322 46.8463 78.7573 0.0000 17.9167 0.0000
# 4 0.0000 0.0000 0.0000 10.7394 0.0000 -4.6533
# 5 18.8689 20.8285 17.9167 0.0000 34.0695 0.0000
# 6 0.0000 0.0000 0.0000 -4.6533 0.0000 24.4528
#
#
#
# Elastic Compliance Matrix: (Units=1/GPa)
#
#
# Indices 1 2 3 4 5 6 
#
# 1 0.030242 -0.001912 -0.002373 0.000000 -0.014332 0.000000
# 2 -0.001912 0.007700 -0.003773 0.000000 -0.001664 0.000000
# 3 -0.002373 -0.003773 0.016640 0.000000 -0.005130 0.000000
# 4 0.000000 0.000000 0.000000 0.101483 0.000000 0.019312
# 5 -0.014332 -0.001664 -0.005130 0.000000 0.041005 0.000000
# 6 0.000000 0.000000 0.000000 0.019312 0.000000 0.044570
#
#
# Mechanical properties :
#
#
# Convention : Reuss Voigt Hill
#
# Bulk Modulus (GPa) = 25.99730 51.51259 38.75494
# Shear Modulus (GPa) = 18.47906 27.09080 22.78493
#
# Velocity S-wave (km/s) = 2.91631 3.53106 3.23831
# Velocity P-wave (km/s) = 4.82752 6.35082 5.64082
#
# Compressibility (1/GPa) = 0.03846554
#
# Stress axis : x y z
#
# Youngs Moduli (GPa) = 33.06678 129.87852 60.09669
#
# Poissons Ratio (x) = 0.24828 0.14261
# Poissons Ratio (y) = 0.06321 0.22676
# Poissons Ratio (z) = 0.07847 0.49007
#
# Static dielectric constant tensor:
#      x y z
#    x 1.802510 0.000000 0.028050 
#    y 0.000000 1.835810 0.000000 
#    z 0.028050 0.000000 1.809400 
# 
# From -- ./inp_files/225730.got.cif
#   From: 2010.05.17/outbox.cif.g08.bks.cpg/sg12_113_cif.got.tgz:225730.got - 2010.06.03 13:09:07.
