data_PCOD9188130
_publ_section_title
;
Structure prediction by ZEFSAII (Michael W. Deem and Ramdas Pophale) SiO2 
 PCOD9188130
Probable space group: C 2/M
;
_chemical_formula_sum "Si O2"
_cell_formula_units_Z 32
_cell_length_a 11.509770
_cell_length_b 31.533374
_cell_length_c 11.002354
_cell_angle_alpha 90.000000
_cell_angle_beta 154.829032
_cell_angle_gamma 90.000000
_cell_volume 1698.397257
_symmetry_space_group_name_H-M "C 2/M"
_symmetry_group_IT_number 12
_symmetry_cell_setting 'monoclinic'
loop_
_space_group_symop_operation_xyz
x,y,z
-x,y,-z
-x,-y,-z
x,-y,z
1/2+x,1/2+y,z
1/2-x,1/2+y,-z
1/2-x,1/2-y,-z
1/2+x,1/2-y,z
loop_
_atom_site_type_symbol
_atom_site_label
_atom_site_fract_x
_atom_site_fract_y
_atom_site_fract_z
Si Si1 0.724072 0.500000 0.316224
Si Si2 0.500000 0.768877 0.500000
Si Si3 0.139217 0.299610 0.014358
Si Si4 0.227152 0.092555 0.320231
Si Si5 0.686906 0.679834 0.400953
O O1 0.696402 0.545918 0.351902
O O2 0.000000 0.500000 0.500000
O O3 0.500000 0.500000 0.000000
O O4 0.696967 0.739997 0.771597
O O5 0.713474 0.797616 0.627706
O O6 0.375612 0.318253 0.151940
O O7 0.000000 0.322333 0.000000
O O8 0.876991 0.296252 0.679573
O O9 0.500000 0.092479 0.500000
O O10 0.241750 0.130251 0.430559
O O11 0.000000 0.099682 0.000000
#
# Coordination Sequence:
#
# PCOD9188130 Si02
#       5
#     4   4   8   8   8
#     4   8  16  30  56  82 121 147 168 220 290 357
#     4  12  26  40  62  81 118 147 204 242 300 326
#     4  12  26  42  56  81 113 159 199 242 282 332
#     4  10  19  36  56  90 119 147 181 227 291 351
#     4  12  25  38  62  84 115 152 195 240 287 340
#
# _framework density 18.841293
#
# number of rings (size 3 to 8) (size 9 to 14) (size 15 to 20)
#    0.000    1.000    3.750    3.000    3.500    0.000 
#    0.000    0.000    0.000    0.000    0.000    5.250 
#    0.000    0.000    0.000    0.000    0.000    0.000 
#
# Total GULP energy -89117.977077 kJ/mol
# GULP energy per Si atom -5569.873567 kJ/mol
# Density = 1.879841 g / cm^3
# Si number density = 18.841293 Si / 1000 Ang^3
#
#
#
# Elastic Constant Matrix: (Units=GPa)
#
#
# Indices 1 2 3 4 5 6 
#
# 1 97.5769 26.8590 11.3835 0.0000 23.5614 0.0000
# 2 26.8590 127.5390 4.9168 0.0000 -2.2501 0.0000
# 3 11.3835 4.9168 107.3691 0.0000 24.4032 0.0000
# 4 0.0000 0.0000 0.0000 12.8492 0.0000 3.0650
# 5 23.5614 -2.2501 24.4032 0.0000 36.5195 0.0000
# 6 0.0000 0.0000 0.0000 3.0650 0.0000 5.1231
#
#
#
# Elastic Compliance Matrix: (Units=1/GPa)
#
#
# Indices 1 2 3 4 5 6 
#
# 1 0.013207 -0.002977 0.000842 0.000000 -0.009267 0.000000
# 2 -0.002977 0.008548 -0.000745 0.000000 0.002946 0.000000
# 3 0.000842 -0.000745 0.011074 0.000000 -0.007990 0.000000
# 4 0.000000 0.000000 0.000000 0.090781 0.000000 -0.054310
# 5 -0.009267 0.002946 -0.007990 0.000000 0.038882 0.000000
# 6 0.000000 0.000000 0.000000 -0.054310 0.000000 0.227685
#
#
# Mechanical properties :
#
#
# Convention : Reuss Voigt Hill
#
# Bulk Modulus (GPa) = 36.94174 46.53374 41.73774
# Shear Modulus (GPa) = 12.34686 30.18674 21.26680
#
# Velocity S-wave (km/s) = 2.56268 4.00704 3.36331
# Velocity P-wave (km/s) = 5.32971 6.79410 6.10597
#
# Compressibility (1/GPa) = 0.02706965
#
# Stress axis : x y z
#
# Youngs Moduli (GPa) = 75.71541 116.98016 90.29850
#
# Poissons Ratio (x) = 0.34829 -0.07607
# Poissons Ratio (y) = 0.22543 0.06730
# Poissons Ratio (z) = -0.06378 0.08718
#
# Static dielectric constant tensor:
#      x y z
#    x 1.692840 0.000000 -0.008900 
#    y 0.000000 1.711800 0.000000 
#    z -0.008900 0.000000 1.641070 
# 
# From -- ./inp_files/136835.got.cif
#   From: 2010.05.17/outbox.cif.g08.bks.cpg/sg12_69_cif.got.tgz:136835.got - 2010.06.03 13:09:07.
