data_PCOD9188780
_publ_section_title
;
Structure prediction by ZEFSAII (Michael W. Deem and Ramdas Pophale) SiO2 
 PCOD9188780
Probable space group: C 2/M
;
_chemical_formula_sum "Si O2"
_cell_formula_units_Z 64
_cell_length_a 19.688569
_cell_length_b 14.770249
_cell_length_c 12.266691
_cell_angle_alpha 90.000000
_cell_angle_beta 111.086691
_cell_angle_gamma 90.000000
_cell_volume 3328.344885
_symmetry_space_group_name_H-M "C 2/M"
_symmetry_group_IT_number 12
_symmetry_cell_setting 'monoclinic'
loop_
_space_group_symop_operation_xyz
x,y,z
-x,y,-z
-x,-y,-z
x,-y,z
1/2+x,1/2+y,z
1/2-x,1/2+y,-z
1/2-x,1/2-y,-z
1/2+x,1/2-y,z
loop_
_atom_site_type_symbol
_atom_site_label
_atom_site_fract_x
_atom_site_fract_y
_atom_site_fract_z
Si Si1 0.400090 0.207194 0.116097
Si Si2 0.854270 0.103357 0.753340
Si Si3 0.696156 0.394735 0.709884
Si Si4 0.226934 0.396694 0.853862
Si Si5 0.174053 0.800744 0.474335
Si Si6 0.063174 0.724907 0.255113
Si Si7 0.857590 0.392326 0.872828
Si Si8 0.642091 0.401667 0.913844
O O1 0.336420 0.175496 0.162178
O O2 0.478509 0.205793 0.216722
O O3 0.392416 0.309356 0.067270
O O4 0.389247 0.144522 0.004343
O O5 0.785918 0.123614 0.793364
O O6 0.828197 0.116518 0.613517
O O7 0.916489 0.180390 0.796200
O O8 0.877138 0.000000 0.787389
O O9 0.704236 0.500000 0.679855
O O10 0.669386 0.335582 0.594019
O O11 0.774852 0.362263 0.798741
O O12 0.644238 0.395056 0.784690
O O13 0.199151 0.500000 0.820358
O O14 0.275966 0.399690 0.991634
O O15 0.250000 0.750000 0.500000
O O16 0.108110 0.737850 0.393003
O O17 0.096082 0.646306 0.199974
O O18 0.857931 0.500000 0.877328
O O19 0.611424 0.500000 0.928438
#
# Coordination Sequence:
#
# PCOD9188780 Si02
#       8
#     8   8   8   8   8   8   8   8
#     4  12  23  36  59  88 131 160 196 252 322 378
#     4   9  20  38  63  90 118 161 212 257 304 368
#     4  10  19  36  61  90 115 152 210 261 298 349
#     4  10  20  36  60  89 120 157 205 252 310 376
#     4  10  20  36  63  85 120 159 213 260 296 363
#     4  10  24  38  55  92 121 165 204 251 315 372
#     4  11  22  38  61  90 123 162 206 254 312 373
#     4  10  22  36  58  91 121 160 205 251 308 370
#
# _framework density 19.228777000000001
#
# number of rings (size 3 to 8) (size 9 to 14) (size 15 to 20)
#    0.750    1.000    2.500    2.250    3.500    2.000 
#    0.000    0.625    0.000    5.250    0.000    1.750 
#    0.000    0.000    0.000    0.000    0.000    0.000 
#
# Total GULP energy -178358.944357 kJ/mol
# GULP energy per Si atom -5573.717011 kJ/mol
# Density = 1.918501 g / cm^3
# Si number density = 19.228777 Si / 1000 Ang^3
#
#
#
# Elastic Constant Matrix: (Units=GPa)
#
#
# Indices 1 2 3 4 5 6 
#
# 1 23.6975 8.3502 26.3328 0.0000 9.1143 0.0000
# 2 8.3502 77.5215 25.6084 0.0000 1.9965 0.0000
# 3 26.3328 25.6084 100.8538 0.0000 5.3963 0.0000
# 4 0.0000 0.0000 0.0000 28.3716 0.0000 -6.4237
# 5 9.1143 1.9965 5.3963 0.0000 26.6874 0.0000
# 6 0.0000 0.0000 0.0000 -6.4237 0.0000 3.5298
#
#
#
# Elastic Compliance Matrix: (Units=1/GPa)
#
#
# Indices 1 2 3 4 5 6 
#
# 1 0.068766 -0.001434 -0.016518 0.000000 -0.020038 0.000000
# 2 -0.001434 0.014114 -0.003214 0.000000 0.000084 0.000000
# 3 -0.016518 -0.003214 0.014891 0.000000 0.002871 0.000000
# 4 0.000000 0.000000 0.000000 0.059948 0.000000 0.109097
# 5 -0.020038 0.000084 0.002871 0.000000 0.043727 0.000000
# 6 0.000000 0.000000 0.000000 0.109097 0.000000 0.481848
#
#
# Mechanical properties :
#
#
# Convention : Reuss Voigt Hill
#
# Bulk Modulus (GPa) = 18.03832 35.85062 26.94447
# Shear Modulus (GPa) = 6.71948 21.16985 13.94467
#
# Velocity S-wave (km/s) = 1.87138 3.32165 2.69587
# Velocity P-wave (km/s) = 3.75109 5.77892 4.87168
#
# Compressibility (1/GPa) = 0.05543753
#
# Stress axis : x y z
#
# Youngs Moduli (GPa) = 14.54205 70.85373 67.15625
#
# Poissons Ratio (x) = 0.10163 1.10931
# Poissons Ratio (y) = 0.02086 0.21582
# Poissons Ratio (z) = 0.24021 0.22770
#
# Static dielectric constant tensor:
#      x y z
#    x 1.677010 0.000000 -0.007730 
#    y 0.000000 1.721380 0.000000 
#    z -0.007730 0.000000 1.673430 
# 
# From -- ./inp_files/167321.got.cif
#   From: 2010.05.17/outbox.cif.g08.bks.cpg/sg12_84_cif.got.tgz:167321.got - 2010.06.03 13:09:07.
