data_PCOD9188839
_publ_section_title
;
Structure prediction by ZEFSAII (Michael W. Deem and Ramdas Pophale) SiO2 
 PCOD9188839
Probable space group: C 2/M
;
_chemical_formula_sum "Si O2"
_cell_formula_units_Z 36
_cell_length_a 14.429248
_cell_length_b 17.380164
_cell_length_c 13.302014
_cell_angle_alpha 90.000000
_cell_angle_beta 149.657182
_cell_angle_gamma 90.000000
_cell_volume 1685.213196
_symmetry_space_group_name_H-M "C 2/M"
_symmetry_group_IT_number 12
_symmetry_cell_setting 'monoclinic'
loop_
_space_group_symop_operation_xyz
x,y,z
-x,y,-z
-x,-y,-z
x,-y,z
1/2+x,1/2+y,z
1/2-x,1/2+y,-z
1/2-x,1/2-y,-z
1/2+x,1/2-y,z
loop_
_atom_site_type_symbol
_atom_site_label
_atom_site_fract_x
_atom_site_fract_y
_atom_site_fract_z
Si Si1 0.500000 0.664017 0.500000
Si Si2 0.843234 0.382942 0.928048
Si Si3 0.223251 0.708638 0.579811
Si Si4 0.643388 0.714169 0.999674
Si Si5 0.578684 0.088743 0.761324
O O1 0.364166 0.609037 0.307553
O O2 0.383220 0.724859 0.457704
O O3 0.853814 0.290524 0.933225
O O4 0.887391 0.406512 0.084691
O O5 0.000000 0.413456 0.000000
O O6 0.250000 0.750000 0.500000
O O7 0.432283 0.689648 0.802267
O O8 0.102024 0.633439 0.444831
O O9 0.750000 0.750000 0.000000
O O10 0.762231 0.640675 0.138885
O O11 0.579485 0.000000 0.733806
#
# Coordination Sequence:
#
# PCOD9188839 Si02
#       5
#     4   8   8   8   8
#     4  12  22  34  68 100 116 158 230 272 298 360
#     4  11  20  37  62  95 122 160 212 267 312 370
#     4  12  20  39  66  93 121 167 219 263 305 375
#     4  10  19  36  62  86 118 165 213 252 298 367
#     4  11  24  40  60  93 135 167 199 260 331 380
#
# _framework density 21.362282
#
# number of rings (size 3 to 8) (size 9 to 14) (size 15 to 20)
#    0.000    0.889    8.889    1.333    0.000    1.333 
#    0.000    1.111    0.000    2.000    0.000    0.000 
#    0.000    0.000    0.000    0.000    0.000    0.000 
#
# Total GULP energy -100266.710222 kJ/mol
# GULP energy per Si atom -5570.372790 kJ/mol
# Density = 2.131366 g / cm^3
# Si number density = 21.362282 Si / 1000 Ang^3
#
#
#
# Elastic Constant Matrix: (Units=GPa)
#
#
# Indices 1 2 3 4 5 6 
#
# 1 77.9597 -8.5054 2.1497 0.0000 20.6260 0.0000
# 2 -8.5054 117.0587 28.2820 0.0000 14.5570 0.0000
# 3 2.1497 28.2820 161.7374 0.0000 28.2668 0.0000
# 4 0.0000 0.0000 0.0000 16.5077 0.0000 -3.5882
# 5 20.6260 14.5570 28.2668 0.0000 33.4408 0.0000
# 6 0.0000 0.0000 0.0000 -3.5882 0.0000 0.1211
#
#
#
# Elastic Compliance Matrix: (Units=1/GPa)
#
#
# Indices 1 2 3 4 5 6 
#
# 1 0.016320 0.002355 0.001537 0.000000 -0.012390 0.000000
# 2 0.002355 0.009525 -0.000843 0.000000 -0.004887 0.000000
# 3 0.001537 -0.000843 0.007523 0.000000 -0.006940 0.000000
# 4 0.000000 0.000000 0.000000 -0.011135 0.000000 -0.329919
# 5 -0.012390 -0.004887 -0.006940 0.000000 0.045539 0.000000
# 6 0.000000 0.000000 0.000000 -0.329919 0.000000 -1.517809
#
#
# Mechanical properties :
#
#
# Convention : Reuss Voigt Hill
#
# Bulk Modulus (GPa) = 25.33835 44.51203 34.92519
# Shear Modulus (GPa) = -3.46505 32.33589 14.43542
#
# Velocity S-wave (km/s) = -1.27498 3.89484 2.60233
# Velocity P-wave (km/s) = 3.11763 6.41158 5.04123
#
# Compressibility (1/GPa) = 0.03946586
#
# Stress axis : x y z
#
# Youngs Moduli (GPa) = 61.27515 104.98480 132.93161
#
# Poissons Ratio (x) = -0.24727 -0.20427
# Poissons Ratio (y) = -0.14432 0.11204
# Poissons Ratio (z) = -0.09416 0.08849
#
# Static dielectric constant tensor:
#      x y z
#    x 1.880710 0.000000 0.008790 
#    y 0.000000 1.723680 0.000000 
#    z 0.008790 0.000000 1.933930 
# 
# From -- ./inp_files/216561.got.cif
#   From: 2010.05.17/outbox.cif.g08.bks.cpg/sg12_109_cif.got.tgz:216561.got - 2010.06.03 13:09:07.
