data_PCOD9188888
_publ_section_title
;
Structure prediction by ZEFSAII (Michael W. Deem and Ramdas Pophale) SiO2 
 PCOD9188888
Probable space group: C 2/M
;
_chemical_formula_sum "Si O2"
_cell_formula_units_Z 56
_cell_length_a 16.478368
_cell_length_b 27.974558
_cell_length_c 11.351241
_cell_angle_alpha 90.000000
_cell_angle_beta 23.178369
_cell_angle_gamma 90.000000
_cell_volume 2059.539917
_symmetry_space_group_name_H-M "C 2/M"
_symmetry_group_IT_number 12
_symmetry_cell_setting 'monoclinic'
loop_
_space_group_symop_operation_xyz
x,y,z
-x,y,-z
-x,-y,-z
x,-y,z
1/2+x,1/2+y,z
1/2-x,1/2+y,-z
1/2-x,1/2-y,-z
1/2+x,1/2-y,z
loop_
_atom_site_type_symbol
_atom_site_label
_atom_site_fract_x
_atom_site_fract_y
_atom_site_fract_z
Si Si1 0.842266 0.368249 0.944042
Si Si2 0.724010 0.052723 0.145429
Si Si3 0.193266 0.693018 0.368902
Si Si4 0.723959 0.553501 0.264550
Si Si5 0.733682 0.800925 0.746040
Si Si6 0.661155 0.552646 0.631703
Si Si7 0.089593 0.157147 0.716338
O O1 0.732930 0.404136 0.999509
O O2 0.995068 0.339075 0.654630
O O3 0.879708 0.408361 0.999031
O O4 0.757745 0.326915 0.140168
O O5 0.500000 0.058295 0.500000
O O6 0.728362 0.000000 0.081693
O O7 0.912715 0.051035 0.983206
O O8 0.181774 0.747723 0.348017
O O9 0.289320 0.697033 0.371775
O O10 0.357703 0.665132 0.068857
O O11 0.500000 0.559524 0.500000
O O12 0.798168 0.500000 0.141913
O O13 0.697549 0.555172 0.440975
O O14 0.869497 0.831700 0.473290
O O15 0.500000 0.800345 0.000000
O O16 0.741593 0.500000 0.564040
O O17 0.694890 0.607837 0.621987
#
# Coordination Sequence:
#
# PCOD9188888 Si02
#       7
#     8   8   8   8   8   8   8
#     4  12  22  36  67 100 122 162 222 263 316 380
#     4  10  21  39  64  96 133 170 208 251 312 392
#     4  11  24  39  62  89 122 165 216 274 316 379
#     4  10  19  36  62  92 124 160 205 252 306 375
#     4  12  22  41  65  92 120 164 225 269 319 370
#     4  10  20  36  60  89 124 165 205 249 308 378
#     4  11  21  39  62  90 124 168 212 257 323 378
#
# _framework density 27.190539999999999
#
# number of rings (size 3 to 8) (size 9 to 14) (size 15 to 20)
#    0.000    1.143    5.714    2.571    0.000    0.000 
#    0.000    3.571    0.000   18.429    0.000    0.000 
#    0.000    0.000    0.000    0.000    0.000    0.000 
#
# Total GULP energy -156512.065261 kJ/mol
# GULP energy per Si atom -5589.716616 kJ/mol
# Density = 2.712865 g / cm^3
# Si number density = 27.190540 Si / 1000 Ang^3
#
#
#
# Elastic Constant Matrix: (Units=GPa)
#
#
# Indices 1 2 3 4 5 6 
#
# 1 78.1755 30.5764 18.9494 -0.0115 -1.0819 -0.0025
# 2 30.5764 280.3721 76.3198 0.0147 16.5423 0.0070
# 3 18.9494 76.3198 142.8524 -0.0392 3.3640 0.0204
# 4 -0.0115 0.0147 -0.0392 48.3173 0.0297 21.4992
# 5 -1.0819 16.5423 3.3640 0.0297 26.3401 0.0021
# 6 -0.0025 0.0070 0.0204 21.4992 0.0021 46.4856
#
#
#
# Elastic Compliance Matrix: (Units=1/GPa)
#
#
# Indices 1 2 3 4 5 6 
#
# 1 0.013585 -0.001252 -0.001169 0.000001 0.001493 0.000001
# 2 -0.001252 0.004438 -0.002145 -0.000002 -0.002565 0.000001
# 3 -0.001169 -0.002145 0.008295 0.000011 0.000240 -0.000008
# 4 0.000001 -0.000002 0.000011 0.026059 -0.000028 -0.012052
# 5 0.001493 -0.002565 0.000240 -0.000028 0.039606 0.000012
# 6 0.000001 0.000001 -0.000008 -0.012052 0.000012 0.027086
#
#
# Mechanical properties :
#
#
# Convention : Reuss Voigt Hill
#
# Bulk Modulus (GPa) = 58.17631 83.67678 70.92654
# Shear Modulus (GPa) = 37.33283 49.26556 43.29920
#
# Velocity S-wave (km/s) = 3.70943 4.26122 3.99486
# Velocity P-wave (km/s) = 6.30783 7.41968 6.88623
#
# Compressibility (1/GPa) = 0.01718913
#
# Stress axis : x y z
#
# Youngs Moduli (GPa) = 73.60964 225.30940 120.54756
#
# Poissons Ratio (x) = 0.28199 0.14087
# Poissons Ratio (y) = 0.09213 0.25855
# Poissons Ratio (z) = 0.08602 0.48324
#
# Static dielectric constant tensor:
#      x y z
#    x 2.181500 -0.000030 -0.082870 
#    y -0.000030 2.058160 0.000040 
#    z -0.082870 0.000040 2.173240 
# 
# From -- ./inp_files/242144.got.cif
#   From: 2010.05.17/outbox.cif.g08.bks.cpg/sg12_122_cif.got.tgz:242144.got - 2010.06.03 13:09:07.
