data_PCOD9188985
_publ_section_title
;
Structure prediction by ZEFSAII (Michael W. Deem and Ramdas Pophale) SiO2 
 PCOD9188985
Probable space group: C 2/M
;
_chemical_formula_sum "Si O2"
_cell_formula_units_Z 56
_cell_length_a 13.374675
_cell_length_b 13.344973
_cell_length_c 17.161753
_cell_angle_alpha 90.000000
_cell_angle_beta 62.811969
_cell_angle_gamma 90.000000
_cell_volume 2724.672559
_symmetry_space_group_name_H-M "C 2/M"
_symmetry_group_IT_number 12
_symmetry_cell_setting 'monoclinic'
loop_
_space_group_symop_operation_xyz
x,y,z
-x,y,-z
-x,-y,-z
x,-y,z
1/2+x,1/2+y,z
1/2-x,1/2+y,-z
1/2-x,1/2-y,-z
1/2+x,1/2-y,z
loop_
_atom_site_type_symbol
_atom_site_label
_atom_site_fract_x
_atom_site_fract_y
_atom_site_fract_z
Si Si1 0.566700 0.737242 0.052116
Si Si2 0.047643 0.884618 0.772776
Si Si3 0.720724 0.880172 0.092280
Si Si4 0.516180 0.761278 0.653575
Si Si5 0.184504 0.613320 0.690814
Si Si6 0.883684 0.889877 0.493914
Si Si7 0.773174 0.303230 0.732764
O O1 0.487924 0.670818 0.135572
O O2 0.617800 0.828128 0.083631
O O3 0.500000 0.772144 0.000000
O O4 0.668085 0.665931 0.987231
O O5 0.985937 0.828005 0.724527
O O6 0.182202 0.868282 0.717681
O O7 0.019143 0.000000 0.785686
O O8 0.719909 0.844422 0.182247
O O9 0.719088 0.000000 0.088965
O O10 0.575302 0.845442 0.684791
O O11 0.603669 0.706777 0.565147
O O12 0.401039 0.799200 0.656430
O O13 0.170386 0.500000 0.723164
O O14 0.282962 0.616531 0.590952
O O15 0.221519 0.691569 0.743671
O O16 0.000000 0.891940 0.500000
O O17 0.874612 0.000000 0.456465
#
# Coordination Sequence:
#
# PCOD9188985 Si02
#       7
#     8   8   8   8   8   8   8
#     4  11  23  42  64  90 122 159 211 251 296 368
#     4  11  23  39  61  89 120 161 205 253 303 358
#     4  11  24  42  64  91 125 163 202 253 309 357
#     4  11  22  39  61  90 124 160 201 257 306 368
#     4  10  23  40  62  90 123 163 206 251 307 366
#     4  10  19  36  64  91 118 160 207 255 307 360
#     4  11  22  39  58  91 122 156 204 247 304 364
#
# _framework density 20.552928000000001
#
# number of rings (size 3 to 8) (size 9 to 14) (size 15 to 20)
#    0.000    1.286    4.286    1.714    0.000    2.571 
#    0.000    0.714    0.000    1.286    0.000    0.000 
#    0.000    0.000    0.000    0.000    0.000    0.000 
#
# Total GULP energy -156408.198422 kJ/mol
# GULP energy per Si atom -5586.007087 kJ/mol
# Density = 2.050615 g / cm^3
# Si number density = 20.552928 Si / 1000 Ang^3
#
#
#
# Elastic Constant Matrix: (Units=GPa)
#
#
# Indices 1 2 3 4 5 6 
#
# 1 76.2464 21.9742 -10.3111 0.0000 -9.6307 0.0000
# 2 21.9742 131.8996 17.3554 0.0000 2.0817 0.0000
# 3 -10.3111 17.3554 37.0187 0.0000 -3.5821 0.0000
# 4 0.0000 0.0000 0.0000 15.4920 0.0000 3.0491
# 5 -9.6307 2.0817 -3.5821 0.0000 27.6659 0.0000
# 6 0.0000 0.0000 0.0000 3.0491 0.0000 5.2853
#
#
#
# Elastic Compliance Matrix: (Units=1/GPa)
#
#
# Indices 1 2 3 4 5 6 
#
# 1 0.015935 -0.003655 0.006801 0.000000 0.006703 0.000000
# 2 -0.003655 0.008952 -0.005472 0.000000 -0.002655 0.000000
# 3 0.006801 -0.005472 0.032145 0.000000 0.006941 0.000000
# 4 0.000000 0.000000 0.000000 0.072817 0.000000 -0.042009
# 5 0.006703 -0.002655 0.006941 0.000000 0.039577 0.000000
# 6 0.000000 0.000000 0.000000 -0.042009 0.000000 0.213440
#
#
# Mechanical properties :
#
#
# Convention : Reuss Voigt Hill
#
# Bulk Modulus (GPa) = 19.09161 33.68909 26.39035
# Shear Modulus (GPa) = 12.34627 24.09840 18.22234
#
# Velocity S-wave (km/s) = 2.45359 3.42790 2.98082
# Velocity P-wave (km/s) = 4.16365 5.66518 4.97143
#
# Compressibility (1/GPa) = 0.05237903
#
# Stress axis : x y z
#
# Youngs Moduli (GPa) = 62.75420 111.70144 31.10919
#
# Poissons Ratio (x) = 0.40831 -0.21157
# Poissons Ratio (y) = 0.22939 0.17024
# Poissons Ratio (z) = -0.42678 0.61125
#
# Static dielectric constant tensor:
#      x y z
#    x 1.740300 0.000000 -0.030960 
#    y 0.000000 1.722470 0.000000 
#    z -0.030960 0.000000 1.752970 
# 
# From -- ./inp_files/269184.got.cif
#   From: 2010.05.17/outbox.cif.g08.bks.cpg/sg12_135_cif.got.tgz:269184.got - 2010.06.03 13:09:07.
