data_PCOD9188182
_publ_section_title
;
Structure prediction by ZEFSAII (Michael W. Deem and Ramdas Pophale) SiO2 
 PCOD9188182
Probable space group: C 2/M
;
_chemical_formula_sum "Si O2"
_cell_formula_units_Z 64
_cell_length_a 18.671142
_cell_length_b 28.158421
_cell_length_c 15.955013
_cell_angle_alpha 90.000000
_cell_angle_beta 157.876547
_cell_angle_gamma 90.000000
_cell_volume 3159.080421
_symmetry_space_group_name_H-M "C 2/M"
_symmetry_group_IT_number 12
_symmetry_cell_setting 'monoclinic'
loop_
_space_group_symop_operation_xyz
x,y,z
-x,y,-z
-x,-y,-z
x,-y,z
1/2+x,1/2+y,z
1/2-x,1/2+y,-z
1/2-x,1/2-y,-z
1/2+x,1/2-y,z
loop_
_atom_site_type_symbol
_atom_site_label
_atom_site_fract_x
_atom_site_fract_y
_atom_site_fract_z
Si Si1 0.610425 0.793998 0.938744
Si Si2 0.874578 0.400725 0.051088
Si Si3 0.911991 0.712868 0.286642
Si Si4 0.874622 0.054682 0.073331
Si Si5 0.092146 0.856388 0.007092
Si Si6 0.709208 0.443295 0.709583
Si Si7 0.359101 0.270939 0.765852
Si Si8 0.220294 0.554284 0.399894
O O1 0.595845 0.795849 0.822101
O O2 0.417123 0.773319 0.770193
O O3 0.658255 0.847548 0.013418
O O4 0.780015 0.759514 0.152948
O O5 0.758072 0.420261 0.002233
O O6 0.831719 0.432232 0.923106
O O7 0.091568 0.409541 0.310797
O O8 0.136710 0.722485 0.548254
O O9 0.795826 0.670881 0.210148
O O10 0.892874 0.092042 0.017804
O O11 0.074246 0.052075 0.337571
O O12 0.817963 0.000000 0.991351
O O13 0.939147 0.818091 0.804829
O O14 0.000000 0.862698 0.000000
O O15 0.500000 0.423955 0.500000
O O16 0.697177 0.500000 0.687484
O O17 0.772494 0.426894 0.687286
O O18 0.500000 0.266337 0.000000
O O19 0.144984 0.500000 0.320604
#
# Coordination Sequence:
#
# PCOD9188182 Si02
#       8
#     8   8   8   8   8   8   8   8
#     4  10  23  38  64  96 126 170 207 253 318 376
#     4  12  22  37  59  93 123 170 213 257 309 374
#     4  10  21  45  66  92 128 164 210 258 317 385
#     4  11  23  40  61  91 130 164 209 268 324 379
#     4  10  23  41  67  96 119 164 215 262 330 386
#     4  10  19  36  57  81 121 170 212 252 300 361
#     4  10  23  42  66  96 128 164 207 262 318 384
#     4  10  22  37  58  85 122 172 212 254 308 370
#
# _framework density 20.259060000000002
#
# number of rings (size 3 to 8) (size 9 to 14) (size 15 to 20)
#    0.000    1.625    2.500    1.875    1.750    7.750 
#    2.250    0.000    0.000    0.000    0.000    7.000 
#    0.000    0.000    0.000    0.000    0.000    0.000 
#
# Total GULP energy -178282.700952 kJ/mol
# GULP energy per Si atom -5571.334405 kJ/mol
# Density = 2.021295 g / cm^3
# Si number density = 20.259060 Si / 1000 Ang^3
#
#
#
# Elastic Constant Matrix: (Units=GPa)
#
#
# Indices 1 2 3 4 5 6 
#
# 1 133.1991 48.8496 23.3587 0.0000 16.1472 0.0001
# 2 48.8496 104.5297 29.9479 0.0000 19.5779 0.0000
# 3 23.3587 29.9479 107.9215 0.0004 27.7838 0.0001
# 4 0.0000 0.0000 0.0004 9.0094 0.0000 9.7065
# 5 16.1472 19.5779 27.7838 0.0000 29.0284 0.0001
# 6 0.0001 0.0000 0.0001 9.7065 0.0001 13.0600
#
#
#
# Elastic Compliance Matrix: (Units=1/GPa)
#
#
# Indices 1 2 3 4 5 6 
#
# 1 0.009233 -0.003792 -0.000375 0.000000 -0.002220 0.000000
# 2 -0.003792 0.012695 -0.001381 0.000000 -0.005131 0.000000
# 3 -0.000375 -0.001381 0.012523 -0.000003 -0.010846 0.000002
# 4 0.000000 0.000000 -0.000003 0.557008 0.000003 -0.413983
# 5 -0.002220 -0.005131 -0.010846 0.000003 0.049525 -0.000002
# 6 0.000000 0.000000 0.000002 -0.413983 -0.000002 0.384252
#
#
# Mechanical properties :
#
#
# Convention : Reuss Voigt Hill
#
# Bulk Modulus (GPa) = 42.81633 61.10697 51.96165
# Shear Modulus (GPa) = 4.78873 26.45251 15.62062
#
# Velocity S-wave (km/s) = 1.53912 3.61738 2.77978
# Velocity P-wave (km/s) = 4.93344 6.90475 6.00060
#
# Compressibility (1/GPa) = 0.02335557
#
# Stress axis : x y z
#
# Youngs Moduli (GPa) = 108.30776 78.76886 79.85600
#
# Poissons Ratio (x) = 0.29867 0.02992
# Poissons Ratio (y) = 0.41067 0.11030
# Poissons Ratio (z) = 0.04058 0.10880
#
# Static dielectric constant tensor:
#      x y z
#    x 1.771880 0.000000 0.031240 
#    y 0.000000 1.746310 0.000000 
#    z 0.031240 0.000000 1.787370 
# 
# From -- ./inp_files/286699.got.cif
#   From: 2010.05.17/outbox.cif.g08.bks.cpg/sg12_144_cif.got.tgz:286699.got - 2010.06.03 13:09:07.
