data_PCOD9188426
_publ_section_title
;
Structure prediction by ZEFSAII (Michael W. Deem and Ramdas Pophale) SiO2 
 PCOD9188426
Probable space group: C 2/M
;
_chemical_formula_sum "Si O2"
_cell_formula_units_Z 42
_cell_length_a 17.062672
_cell_length_b 14.547751
_cell_length_c 7.635641
_cell_angle_alpha 90.000000
_cell_angle_beta 111.720467
_cell_angle_gamma 90.000000
_cell_volume 1760.776847
_symmetry_space_group_name_H-M "C 2/M"
_symmetry_group_IT_number 12
_symmetry_cell_setting 'monoclinic'
loop_
_space_group_symop_operation_xyz
x,y,z
-x,y,-z
-x,-y,-z
x,-y,z
1/2+x,1/2+y,z
1/2-x,1/2+y,-z
1/2-x,1/2-y,-z
1/2+x,1/2-y,z
loop_
_atom_site_type_symbol
_atom_site_label
_atom_site_fract_x
_atom_site_fract_y
_atom_site_fract_z
Si Si1 0.529259 0.163068 0.327757
Si Si2 0.119933 0.825065 0.557916
Si Si3 0.135441 0.718639 0.935829
Si Si4 0.785654 0.600812 0.544356
Si Si5 0.777562 0.105928 0.900171
Si Si6 0.000000 0.000000 0.500000
O O1 0.500000 0.129536 0.500000
O O2 0.559651 0.268287 0.378755
O O3 0.451443 0.163058 0.130479
O O4 0.616334 0.117824 0.339525
O O5 0.128105 0.764087 0.737256
O O6 0.213639 0.834641 0.561020
O O7 0.073709 0.919862 0.555786
O O8 0.213275 0.647295 0.992168
O O9 0.153944 0.811097 0.062664
O O10 0.763701 0.500000 0.592404
O O11 0.772386 0.601648 0.323705
O O12 0.806444 0.000000 0.960346
#
# Coordination Sequence:
#
# PCOD9188426 Si02
#       6
#     8   8   8   8   8   2
#     4  10  19  36  59  84 119 156 199 244 296 360
#     4  11  21  37  62  88 118 157 207 251 297 359
#     4  10  21  39  60  86 118 170 201 244 310 370
#     4  11  22  36  60  94 120 154 201 258 304 353
#     4  10  22  37  59  89 125 158 200 252 313 368
#     4  12  20  36  64  90 116 158 208 248 294 368
#
# _framework density 23.853107999999999
#
# number of rings (size 3 to 8) (size 9 to 14) (size 15 to 20)
#    0.000    1.524    7.619    0.571    1.333    1.143 
#    0.000    0.952    0.000    3.429    0.000    4.000 
#    0.000    0.000    0.000    0.000    0.000    0.000 
#
# Total GULP energy -116984.519258 kJ/mol
# GULP energy per Si atom -5570.691393 kJ/mol
# Density = 2.379882 g / cm^3
# Si number density = 23.853108 Si / 1000 Ang^3
#
#
#
# Elastic Constant Matrix: (Units=GPa)
#
#
# Indices 1 2 3 4 5 6 
#
# 1 149.0858 1.5600 21.9379 0.0000 13.1833 0.0000
# 2 1.5600 77.1964 4.8200 0.0000 -10.7832 0.0000
# 3 21.9379 4.8200 52.1419 0.0000 17.9275 0.0000
# 4 0.0000 0.0000 0.0000 17.8033 0.0000 13.3745
# 5 13.1833 -10.7832 17.9275 0.0000 33.6653 0.0000
# 6 0.0000 0.0000 0.0000 13.3745 0.0000 38.7366
#
#
#
# Elastic Compliance Matrix: (Units=1/GPa)
#
#
# Indices 1 2 3 4 5 6 
#
# 1 0.007213 -0.000211 -0.002474 0.000000 -0.001575 0.000000
# 2 -0.000211 0.014066 -0.003414 0.000000 0.006406 0.000000
# 3 -0.002474 -0.003414 0.025190 0.000000 -0.013539 0.000000
# 4 0.000000 0.000000 0.000000 0.075841 0.000000 -0.026186
# 5 -0.001575 0.006406 -0.013539 0.000000 0.039583 0.000000
# 6 0.000000 0.000000 0.000000 -0.026186 0.000000 0.034856
#
#
# Mechanical properties :
#
#
# Convention : Reuss Voigt Hill
#
# Bulk Modulus (GPa) = 29.17920 37.22889 33.20405
# Shear Modulus (GPa) = 22.68903 34.71478 28.70190
#
# Velocity S-wave (km/s) = 3.08750 3.81905 3.47259
# Velocity P-wave (km/s) = 4.99696 5.92354 5.47987
#
# Compressibility (1/GPa) = 0.03427099
#
# Stress axis : x y z
#
# Youngs Moduli (GPa) = 138.63781 71.09206 39.69869
#
# Poissons Ratio (x) = 0.01502 0.09820
# Poissons Ratio (y) = 0.02930 0.13553
# Poissons Ratio (z) = 0.34295 0.24271
#
# Static dielectric constant tensor:
#      x y z
#    x 1.956010 0.000000 0.002450 
#    y 0.000000 1.924900 0.000000 
#    z 0.002450 0.000000 1.969610 
# 
# From -- ./inp_files/72932.got.cif
#   From: 2010.05.17/outbox.cif.g08.bks.cpg/sg12_37_cif.got.tgz:72932.got - 2010.06.03 13:09:07.
