data_PCOD9188834
_publ_section_title
;
Structure prediction by ZEFSAII (Michael W. Deem and Ramdas Pophale) SiO2 
 PCOD9188834
Probable space group: C 2/M
;
_chemical_formula_sum "Si O2"
_cell_formula_units_Z 56
_cell_length_a 19.317485
_cell_length_b 8.835250
_cell_length_c 18.049255
_cell_angle_alpha 90.000000
_cell_angle_beta 94.994618
_cell_angle_gamma 90.000000
_cell_volume 3068.855928
_symmetry_space_group_name_H-M "C 2/M"
_symmetry_group_IT_number 12
_symmetry_cell_setting 'monoclinic'
loop_
_space_group_symop_operation_xyz
x,y,z
-x,y,-z
-x,-y,-z
x,-y,z
1/2+x,1/2+y,z
1/2-x,1/2+y,-z
1/2-x,1/2-y,-z
1/2+x,1/2-y,z
loop_
_atom_site_type_symbol
_atom_site_label
_atom_site_fract_x
_atom_site_fract_y
_atom_site_fract_z
Si Si1 0.447839 0.669017 0.427542
Si Si2 0.713758 0.318877 0.569539
Si Si3 0.008255 0.326000 0.299293
Si Si4 0.108225 0.819630 0.813197
Si Si5 0.604595 0.678257 0.202733
Si Si6 0.987415 0.319140 0.085110
Si Si7 0.248127 0.681252 0.257939
O O1 0.500000 0.656159 0.500000
O O2 0.443774 0.500000 0.390559
O O3 0.369180 0.709648 0.441020
O O4 0.482459 0.791080 0.378160
O O5 0.723820 0.500000 0.567527
O O6 0.750000 0.250000 0.500000
O O7 0.739256 0.269299 0.654721
O O8 0.026370 0.500000 0.289034
O O9 0.943571 0.273804 0.243740
O O10 0.071278 0.221363 0.279102
O O11 0.082566 0.761509 0.890922
O O12 0.184450 0.791409 0.787385
O O13 0.095268 0.000000 0.807250
O O14 0.602824 0.500000 0.190192
O O15 0.553269 0.758154 0.138745
O O16 0.682197 0.740571 0.214239
O O17 0.981736 0.500000 0.095234
O O18 0.000000 0.288354 0.000000
O O19 0.237225 0.500000 0.259213
#
# Coordination Sequence:
#
# PCOD9188834 Si02
#       7
#     8   8   8   8   8   8   8
#     4  10  21  38  57  78 108 146 192 242 292 345
#     4  10  22  39  56  80 115 153 193 241 297 347
#     4  11  21  35  56  81 111 146 190 239 286 342
#     4  10  19  36  62  86 113 151 192 232 282 339
#     4  11  23  37  59  87 116 151 195 237 281 340
#     4  10  21  39  63  91 123 153 185 231 285 340
#     4  10  21  39  59  82 118 155 192 242 293 342
#
# _framework density 18.247844000000001
#
# number of rings (size 3 to 8) (size 9 to 14) (size 15 to 20)
#    0.000    1.714    1.429    5.143    2.000    3.714 
#    0.000    0.714    0.000    0.000    0.000    0.000 
#    0.000    0.000    0.000    0.000    0.000    0.000 
#
# Total GULP energy -156139.367831 kJ/mol
# GULP energy per Si atom -5576.405994 kJ/mol
# Density = 1.820631 g / cm^3
# Si number density = 18.247844 Si / 1000 Ang^3
#
#
#
# Elastic Constant Matrix: (Units=GPa)
#
#
# Indices 1 2 3 4 5 6 
#
# 1 92.0249 34.0856 52.9605 0.0000 -2.6950 0.0000
# 2 34.0856 56.6765 38.8715 0.0000 -4.6862 0.0000
# 3 52.9605 38.8715 101.7478 0.0000 -19.6830 0.0000
# 4 0.0000 0.0000 0.0000 32.3713 0.0000 -5.6967
# 5 -2.6950 -4.6862 -19.6830 0.0000 24.7327 0.0000
# 6 0.0000 0.0000 0.0000 -5.6967 0.0000 30.1952
#
#
#
# Elastic Compliance Matrix: (Units=1/GPa)
#
#
# Indices 1 2 3 4 5 6 
#
# 1 0.017312 -0.005360 -0.008032 0.000000 -0.005521 0.000000
# 2 -0.005360 0.025789 -0.007364 0.000000 -0.001558 0.000000
# 3 -0.008032 -0.007364 0.019364 0.000000 0.013140 0.000000
# 4 0.000000 0.000000 0.000000 0.031952 0.000000 0.006028
# 5 -0.005521 -0.001558 0.013140 0.000000 0.049993 0.000000
# 6 0.000000 0.000000 0.000000 0.006028 0.000000 0.034255
#
#
# Mechanical properties :
#
#
# Convention : Reuss Voigt Hill
#
# Bulk Modulus (GPa) = 47.72203 55.80937 51.76570
# Shear Modulus (GPa) = 22.01077 25.76195 23.88636
#
# Velocity S-wave (km/s) = 3.47682 3.76144 3.62193
# Velocity P-wave (km/s) = 6.50589 7.03670 6.77649
#
# Compressibility (1/GPa) = 0.02095468
#
# Stress axis : x y z
#
# Youngs Moduli (GPa) = 57.76203 38.77587 51.64231
#
# Poissons Ratio (x) = 0.20783 0.41477
# Poissons Ratio (y) = 0.30959 0.38030
# Poissons Ratio (z) = 0.46392 0.28555
#
# Static dielectric constant tensor:
#      x y z
#    x 1.632190 0.000000 -0.023640 
#    y 0.000000 1.643180 0.000000 
#    z -0.023640 0.000000 1.685050 
# 
# From -- ./inp_files/280441.got.cif
#   From: 2010.05.17/outbox.cif.g08.bks.cpg/sg12_141_cif.got.tgz:280441.got - 2010.06.03 13:09:07.
