data_PCOD9188495
_publ_section_title
;
Structure prediction by ZEFSAII (Michael W. Deem and Ramdas Pophale) SiO2 
 PCOD9188495
Probable space group: C 2/M
;
_chemical_formula_sum "Si O2"
_cell_formula_units_Z 48
_cell_length_a 20.862322
_cell_length_b 8.984629
_cell_length_c 15.215254
_cell_angle_alpha 90.000000
_cell_angle_beta 80.171060
_cell_angle_gamma 90.000000
_cell_volume 2810.089106
_symmetry_space_group_name_H-M "C 2/M"
_symmetry_group_IT_number 12
_symmetry_cell_setting 'monoclinic'
loop_
_space_group_symop_operation_xyz
x,y,z
-x,y,-z
-x,-y,-z
x,-y,z
1/2+x,1/2+y,z
1/2-x,1/2+y,-z
1/2-x,1/2-y,-z
1/2+x,1/2-y,z
loop_
_atom_site_type_symbol
_atom_site_label
_atom_site_fract_x
_atom_site_fract_y
_atom_site_fract_z
Si Si1 0.541897 0.320836 0.576276
Si Si2 0.304929 0.678181 0.046365
Si Si3 0.841633 0.179516 0.229074
Si Si4 0.553113 0.678363 0.062113
Si Si5 0.308637 0.321951 0.433023
Si Si6 0.519674 0.822549 0.765989
O O1 0.500000 0.285205 0.500000
O O2 0.539864 0.500000 0.590186
O O3 0.618519 0.279305 0.551567
O O4 0.513758 0.241690 0.669109
O O5 0.298216 0.500000 0.044792
O O6 0.304178 0.722302 0.149294
O O7 0.250000 0.750000 0.000000
O O8 0.375922 0.715531 0.991245
O O9 0.807085 0.215675 0.329376
O O10 0.911773 0.257214 0.214820
O O11 0.852265 0.000000 0.224665
O O12 0.549449 0.500000 0.077346
O O13 0.534998 0.761872 0.155519
O O14 0.500000 0.715911 0.000000
O O15 0.303712 0.500000 0.442042
O O16 0.250000 0.250000 0.500000
O O17 0.521086 0.000000 0.764665
#
# Coordination Sequence:
#
# PCOD9188495 Si02
#       6
#     8   8   8   8   8   8
#     4   9  19  38  60  78 105 145 184 220 263 325
#     4  10  21  37  57  79 108 144 180 225 272 318
#     4   9  18  37  58  75 103 149 189 214 262 331
#     4  10  19  36  60  79 103 145 189 220 258 327
#     4   9  18  33  56  80 103 135 176 220 263 314
#     4  11  21  32  54  87 114 137 174 232 279 312
#
# _framework density 17.081309000000001
#
# number of rings (size 3 to 8) (size 9 to 14) (size 15 to 20)
#    0.000    2.333    1.667    2.500    0.000    4.667 
#    3.000    0.000    0.000    0.000    0.000    0.000 
#    0.000    0.000    0.000    0.000    0.000    0.000 
#
# Total GULP energy -133881.351575 kJ/mol
# GULP energy per Si atom -5578.389649 kJ/mol
# Density = 1.704243 g / cm^3
# Si number density = 17.081309 Si / 1000 Ang^3
#
#
#
# Elastic Constant Matrix: (Units=GPa)
#
#
# Indices 1 2 3 4 5 6 
#
# 1 121.8046 40.8321 97.9731 0.0000 13.8675 0.0000
# 2 40.8321 30.0099 55.6460 0.0000 1.9524 0.0000
# 3 97.9731 55.6460 164.1343 0.0000 7.9949 0.0000
# 4 0.0000 0.0000 0.0000 23.6347 0.0000 -4.4554
# 5 13.8675 1.9524 7.9949 0.0000 32.0855 0.0000
# 6 0.0000 0.0000 0.0000 -4.4554 0.0000 27.9648
#
#
#
# Elastic Compliance Matrix: (Units=1/GPa)
#
#
# Indices 1 2 3 4 5 6 
#
# 1 0.018117 -0.012756 -0.006221 0.000000 -0.005504 0.000000
# 2 -0.012756 0.098859 -0.026195 0.000000 0.006025 0.000000
# 3 -0.006221 -0.026195 0.018705 0.000000 -0.000378 0.000000
# 4 0.000000 0.000000 0.000000 0.043621 0.000000 0.006950
# 5 -0.005504 0.006025 -0.000378 0.000000 0.033273 0.000000
# 6 0.000000 0.000000 0.000000 0.006950 0.000000 0.036867
#
#
# Mechanical properties :
#
#
# Convention : Reuss Voigt Hill
#
# Bulk Modulus (GPa) = 22.05748 78.31680 50.18714
# Shear Modulus (GPa) = 14.08854 24.83684 19.46269
#
# Velocity S-wave (km/s) = 2.87504 3.81732 3.37918
# Velocity P-wave (km/s) = 4.89514 8.08568 6.68358
#
# Compressibility (1/GPa) = 0.04533609
#
# Stress axis : x y z
#
# Youngs Moduli (GPa) = 55.19782 10.11542 53.46046
#
# Poissons Ratio (x) = 0.12903 0.33259
# Poissons Ratio (y) = 0.70410 1.40041
# Poissons Ratio (z) = 0.34340 0.26498
#
# Static dielectric constant tensor:
#      x y z
#    x 1.559850 0.000000 0.005410 
#    y 0.000000 1.571530 0.000000 
#    z 0.005410 0.000000 1.580770 
# 
# From -- ./inp_files/229826.got.cif
#   From: 2010.05.17/outbox.cif.g08.bks.cpg/sg12_115_cif.got.tgz:229826.got - 2010.06.03 13:09:07.
