data_PCOD9188138
_publ_section_title
;
Structure prediction by ZEFSAII (Michael W. Deem and Ramdas Pophale) SiO2 
 PCOD9188138
Probable space group: C 2/M
;
_chemical_formula_sum "Si O2"
_cell_formula_units_Z 56
_cell_length_a 15.478195
_cell_length_b 7.578557
_cell_length_c 25.723389
_cell_angle_alpha 90.000000
_cell_angle_beta 119.471566
_cell_angle_gamma 90.000000
_cell_volume 2626.961237
_symmetry_space_group_name_H-M "C 2/M"
_symmetry_group_IT_number 12
_symmetry_cell_setting 'monoclinic'
loop_
_space_group_symop_operation_xyz
x,y,z
-x,y,-z
-x,-y,-z
x,-y,z
1/2+x,1/2+y,z
1/2-x,1/2+y,-z
1/2-x,1/2-y,-z
1/2+x,1/2-y,z
loop_
_atom_site_type_symbol
_atom_site_label
_atom_site_fract_x
_atom_site_fract_y
_atom_site_fract_z
Si Si1 0.787819 0.804616 0.067663
Si Si2 0.373714 0.287673 0.808833
Si Si3 0.148070 0.795058 0.723858
Si Si4 0.425769 0.283950 0.408444
Si Si5 0.648668 0.711220 0.502103
Si Si6 0.910950 0.786403 0.935799
Si Si7 0.559283 0.282702 0.804101
O O1 0.690371 0.797155 0.074184
O O2 0.871160 0.715833 0.128050
O O3 0.827650 0.000000 0.070060
O O4 0.750000 0.750000 0.000000
O O5 0.365167 0.500000 0.806405
O O6 0.264726 0.213940 0.769421
O O7 0.421581 0.239304 0.878640
O O8 0.447719 0.235343 0.785164
O O9 0.120345 0.720590 0.659411
O O10 0.095203 0.717404 0.759016
O O11 0.117682 0.000000 0.712739
O O12 0.423949 0.500000 0.408951
O O13 0.363320 0.227251 0.441160
O O14 0.542210 0.231035 0.446298
O O15 0.644889 0.500000 0.502415
O O16 0.750000 0.750000 0.500000
O O17 0.901957 0.000000 0.937038
O O18 0.000000 0.732401 0.000000
O O19 0.567244 0.500000 0.805989
#
# Coordination Sequence:
#
# PCOD9188138 Si02
#       7
#     8   8   8   8   8   8   8
#     4  11  21  35  54  77 103 134 176 224 273 329
#     4  10  20  35  54  77 106 138 173 219 273 322
#     4  10  19  36  57  77 105 144 185 221 260 316
#     4   8  17  33  54  77 109 149 181 213 264 323
#     4   9  17  33  55  82 111 143 182 221 262 310
#     4  10  20  35  54  75 104 138 173 218 278 332
#     4   9  19  35  54  74 102 138 175 214 265 325
#
# _framework density 21.317405999999998
#
# number of rings (size 3 to 8) (size 9 to 14) (size 15 to 20)
#    0.000    2.429    1.429    2.143    0.000    3.714 
#    0.000    7.857    0.000    0.000    0.000    0.000 
#    0.000    0.000    0.000    0.000    0.000    0.000 
#
# Total GULP energy -156150.060922 kJ/mol
# GULP energy per Si atom -5576.787890 kJ/mol
# Density = 2.126889 g / cm^3
# Si number density = 21.317406 Si / 1000 Ang^3
#
#
#
# Elastic Constant Matrix: (Units=GPa)
#
#
# Indices 1 2 3 4 5 6 
#
# 1 144.0553 -2.7524 66.0144 0.0000 -30.2515 0.0000
# 2 -2.7524 40.6796 11.5090 0.0000 -5.0722 0.0000
# 3 66.0144 11.5090 165.9474 0.0000 -26.4690 0.0000
# 4 0.0000 0.0000 0.0000 33.9794 0.0000 1.7404
# 5 -30.2515 -5.0722 -26.4690 0.0000 24.9204 0.0000
# 6 0.0000 0.0000 0.0000 1.7404 0.0000 21.9800
#
#
#
# Elastic Compliance Matrix: (Units=1/GPa)
#
#
# Indices 1 2 3 4 5 6 
#
# 1 0.010390 0.002748 -0.002676 0.000000 0.010329 0.000000
# 2 0.002748 0.026123 -0.001836 0.000000 0.006703 0.000000
# 3 -0.002676 -0.001836 0.007995 0.000000 0.004869 0.000000
# 4 0.000000 0.000000 0.000000 0.029549 0.000000 -0.002340
# 5 0.010329 0.006703 0.004869 0.000000 0.059203 0.000000
# 6 0.000000 0.000000 0.000000 -0.002340 0.000000 0.045681
#
#
# Mechanical properties :
#
#
# Convention : Reuss Voigt Hill
#
# Bulk Modulus (GPa) = 24.40212 55.58048 39.99130
# Shear Modulus (GPa) = 25.49346 34.57005 30.03176
#
# Velocity S-wave (km/s) = 3.46193 4.03138 3.75746
# Velocity P-wave (km/s) = 5.23945 6.91367 6.13395
#
# Compressibility (1/GPa) = 0.04098005
#
# Stress axis : x y z
#
# Youngs Moduli (GPa) = 96.24829 38.27983 125.08575
#
# Poissons Ratio (x) = -0.10519 0.33474
# Poissons Ratio (y) = -0.26449 0.22963
# Poissons Ratio (z) = 0.25757 0.07027
#
# Static dielectric constant tensor:
#      x y z
#    x 1.736540 0.000000 -0.018570 
#    y 0.000000 1.831170 0.000000 
#    z -0.018570 0.000000 1.792420 
# 
# From -- ./inp_files/338198.got.cif
#   From: 2010.05.17/outbox.cif.g08.bks.cpg/sg12_170_cif.got.tgz:338198.got - 2010.06.03 13:09:07.
