data_PCOD9188001
_publ_section_title
;
Structure prediction by ZEFSAII (Michael W. Deem and Ramdas Pophale) SiO2 
 PCOD9188001
Probable space group: C 2/M
;
_chemical_formula_sum "Si O2"
_cell_formula_units_Z 36
_cell_length_a 16.925411
_cell_length_b 14.232877
_cell_length_c 15.253721
_cell_angle_alpha 90.000000
_cell_angle_beta 149.714638
_cell_angle_gamma 90.000000
_cell_volume 1853.116560
_symmetry_space_group_name_H-M "C 2/M"
_symmetry_group_IT_number 12
_symmetry_cell_setting 'monoclinic'
loop_
_space_group_symop_operation_xyz
x,y,z
-x,y,-z
-x,-y,-z
x,-y,z
1/2+x,1/2+y,z
1/2-x,1/2+y,-z
1/2-x,1/2-y,-z
1/2+x,1/2-y,z
loop_
_atom_site_type_symbol
_atom_site_label
_atom_site_fract_x
_atom_site_fract_y
_atom_site_fract_z
Si Si1 0.842534 0.708819 0.005908
Si Si2 0.275232 0.500000 0.324809
Si Si3 0.823992 0.803992 0.652537
Si Si4 0.748958 0.500000 0.904987
Si Si5 0.684686 0.702587 0.671051
Si Si6 0.588362 0.500000 0.346999
O O1 0.010017 0.757398 0.164971
O O2 0.750000 0.750000 0.000000
O O3 0.845897 0.595078 0.012484
O O4 0.747360 0.729626 0.826015
O O5 0.318168 0.500000 0.260084
O O6 0.219881 0.609383 0.270174
O O7 0.357086 0.500000 0.498902
O O8 0.750000 0.750000 0.500000
O O9 0.712536 0.784924 0.628432
O O10 0.852145 0.909084 0.647166
O O11 0.599825 0.500000 0.825663
O O12 0.500000 0.677119 0.500000
#
# Coordination Sequence:
#
# PCOD9188001 Si02
#       6
#     8   4   8   4   8   4
#     4  11  22  41  64  97 130 168 218 268 323 385
#     4  10  19  35  66  95 123 163 209 276 326 379
#     4  12  25  40  65  97 134 174 212 263 324 395
#     4  10  21  38  69  96 128 167 220 273 331 372
#     4  11  22  41  65  97 129 169 217 270 330 379
#     4  12  21  41  63  97 133 172 217 256 338 385
#
# _framework density 19.426731
#
# number of rings (size 3 to 8) (size 9 to 14) (size 15 to 20)
#    0.000    0.889    4.444    5.333    0.000    1.778 
#    0.000    7.222    0.000    0.000    0.000    0.000 
#    0.000    0.000    0.000    0.000    0.000    0.000 
#
# Total GULP energy -100317.797182 kJ/mol
# GULP energy per Si atom -5573.210955 kJ/mol
# Density = 1.938252 g / cm^3
# Si number density = 19.426731 Si / 1000 Ang^3
#
#
#
# Elastic Constant Matrix: (Units=GPa)
#
#
# Indices 1 2 3 4 5 6 
#
# 1 65.4584 54.1234 22.5618 0.0001 -16.0358 0.0000
# 2 54.1234 165.7442 41.7574 0.0001 -11.0303 0.0000
# 3 22.5618 41.7574 108.2572 0.0001 -23.2326 0.0000
# 4 0.0001 0.0001 0.0001 25.1542 0.0001 -0.8956
# 5 -16.0358 -11.0303 -23.2326 0.0001 31.6263 0.0000
# 6 0.0000 0.0000 0.0000 -0.8956 0.0000 32.8273
#
#
#
# Elastic Compliance Matrix: (Units=1/GPa)
#
#
# Indices 1 2 3 4 5 6 
#
# 1 0.023379 -0.006968 -0.000193 0.000000 0.009282 0.000000
# 2 -0.006968 0.008767 -0.002412 0.000000 -0.002247 0.000000
# 3 -0.000193 -0.002412 0.011879 0.000000 0.007787 0.000000
# 4 0.000000 0.000000 0.000000 0.039793 0.000000 0.001086
# 5 0.009282 -0.002247 0.007787 0.000000 0.041263 0.000000
# 6 0.000000 0.000000 0.000000 0.001086 0.000000 0.030492
#
#
# Mechanical properties :
#
#
# Convention : Reuss Voigt Hill
#
# Bulk Modulus (GPa) = 40.19311 64.03835 52.11573
# Shear Modulus (GPa) = 27.32094 32.65605 29.98850
#
# Velocity S-wave (km/s) = 3.75421 4.10443 3.93322
# Velocity P-wave (km/s) = 6.28702 7.44966 6.89290
#
# Compressibility (1/GPa) = 0.02487989
#
# Stress axis : x y z
#
# Youngs Moduli (GPa) = 42.77426 114.06673 84.18341
#
# Poissons Ratio (x) = 0.79481 0.01621
# Poissons Ratio (y) = 0.29805 0.20302
# Poissons Ratio (z) = 0.00824 0.27508
#
# Static dielectric constant tensor:
#      x y z
#    x 1.689770 0.000000 0.030880 
#    y 0.000000 1.696220 0.000000 
#    z 0.030880 0.000000 1.674430 
# 
# From -- ./inp_files/111457.got.cif
#   From: 2010.05.17/outbox.cif.g08.bks.cpg/sg12_56_cif.got.tgz:111457.got - 2010.06.03 13:09:07.
