data_PCOD9188490
_publ_section_title
;
Structure prediction by ZEFSAII (Michael W. Deem and Ramdas Pophale) SiO2 
 PCOD9188490
Probable space group: C 2/M
;
_chemical_formula_sum "Si O2"
_cell_formula_units_Z 48
_cell_length_a 8.829702
_cell_length_b 17.308272
_cell_length_c 16.688487
_cell_angle_alpha 90.000000
_cell_angle_beta 93.940314
_cell_angle_gamma 90.000000
_cell_volume 2544.420650
_symmetry_space_group_name_H-M "C 2/M"
_symmetry_group_IT_number 12
_symmetry_cell_setting 'monoclinic'
loop_
_space_group_symop_operation_xyz
x,y,z
-x,y,-z
-x,-y,-z
x,-y,z
1/2+x,1/2+y,z
1/2-x,1/2+y,-z
1/2-x,1/2-y,-z
1/2+x,1/2-y,z
loop_
_atom_site_type_symbol
_atom_site_label
_atom_site_fract_x
_atom_site_fract_y
_atom_site_fract_z
Si Si1 0.089023 0.194917 0.833958
Si Si2 0.619297 0.179777 0.695868
Si Si3 0.898037 0.814442 0.424094
Si Si4 0.371774 0.216542 0.942011
Si Si5 0.396778 0.090276 0.575676
Si Si6 0.928048 0.091236 0.704133
O O1 0.969511 0.218422 0.898864
O O2 0.027325 0.123608 0.781086
O O3 0.091520 0.269904 0.774822
O O4 0.258157 0.178885 0.873311
O O5 0.662546 0.243873 0.630970
O O6 0.477761 0.133939 0.652787
O O7 0.757817 0.121522 0.711278
O O8 0.759827 0.866697 0.447880
O O9 0.000000 0.784354 0.500000
O O10 0.003421 0.866950 0.371255
O O11 0.500000 0.172889 0.000000
O O12 0.250000 0.250000 0.000000
O O13 0.500000 0.093902 0.500000
O O14 0.372556 0.000000 0.594015
O O15 0.933366 0.000000 0.696267
#
# Coordination Sequence:
#
# PCOD9188490 Si02
#       6
#     8   8   8   8   8   8
#     4  10  19  36  59  92 117 148 191 235 273 341
#     4  11  22  37  59  83 116 149 198 239 285 332
#     4  11  23  39  58  81 111 152 202 249 286 331
#     4   9  18  34  62  94 116 143 186 234 277 331
#     4  11  24  39  55  79 114 154 195 240 290 340
#     4  11  23  37  57  85 119 156 190 235 290 339
#
# _framework density 18.864805
#
# number of rings (size 3 to 8) (size 9 to 14) (size 15 to 20)
#    0.000    1.500    1.667    4.500    2.333    4.667 
#    0.000    0.000    0.000    5.000    0.000    0.000 
#    0.000    0.000    0.000    0.000    0.000    0.000 
#
# Total GULP energy -133992.138919 kJ/mol
# GULP energy per Si atom -5583.005788 kJ/mol
# Density = 1.882187 g / cm^3
# Si number density = 18.864805 Si / 1000 Ang^3
#
#
#
# Elastic Constant Matrix: (Units=GPa)
#
#
# Indices 1 2 3 4 5 6 
#
# 1 89.1628 3.7585 23.6351 0.0000 19.5601 0.0000
# 2 3.7585 75.8466 9.6146 0.0000 7.5062 0.0000
# 3 23.6351 9.6146 78.9705 0.0000 13.3579 0.0000
# 4 0.0000 0.0000 0.0000 0.2571 0.0000 8.8510
# 5 19.5601 7.5062 13.3579 0.0000 43.3760 0.0000
# 6 0.0000 0.0000 0.0000 8.8510 0.0000 5.3181
#
#
#
# Elastic Compliance Matrix: (Units=1/GPa)
#
#
# Indices 1 2 3 4 5 6 
#
# 1 0.013128 0.000239 -0.003112 0.000000 -0.005003 0.000000
# 2 0.000239 0.013548 -0.001378 0.000000 -0.002028 0.000000
# 3 -0.003112 -0.001378 0.014225 0.000000 -0.002739 0.000000
# 4 0.000000 0.000000 0.000000 -0.069090 0.000000 0.114988
# 5 -0.005003 -0.002028 -0.002739 0.000000 0.026505 0.000000
# 6 0.000000 0.000000 0.000000 0.114988 0.000000 -0.003341
#
#
# Mechanical properties :
#
#
# Convention : Reuss Voigt Hill
#
# Bulk Modulus (GPa) = 30.86458 35.33292 33.09875
# Shear Modulus (GPa) = 350.23229 23.58837 186.91033
#
# Velocity S-wave (km/s) = 13.64027 3.53992 9.96463
# Velocity P-wave (km/s) = 16.26260 5.95636 12.24644
#
# Compressibility (1/GPa) = 0.03239960
#
# Stress axis : x y z
#
# Youngs Moduli (GPa) = 76.17444 73.81147 70.29683
#
# Poissons Ratio (x) = -0.01765 0.21875
# Poissons Ratio (y) = -0.01821 0.09687
# Poissons Ratio (z) = 0.23704 0.10171
#
# Static dielectric constant tensor:
#      x y z
#    x 1.675090 0.000000 0.023680 
#    y 0.000000 1.604030 0.000000 
#    z 0.023680 0.000000 1.703310 
# 
# From -- ./inp_files/256186.got.cif
#   From: 2010.05.17/outbox.cif.g08.bks.cpg/sg12_129_cif.got.tgz:256186.got - 2010.06.03 13:09:07.
