data_PCOD9188198
_publ_section_title
;
Structure prediction by ZEFSAII (Michael W. Deem and Ramdas Pophale) SiO2 
 PCOD9188198
Probable space group: C 2/M
;
_chemical_formula_sum "Si O2"
_cell_formula_units_Z 64
_cell_length_a 30.195995
_cell_length_b 9.152083
_cell_length_c 24.645686
_cell_angle_alpha 90.000000
_cell_angle_beta 26.087024
_cell_angle_gamma 90.000000
_cell_volume 2995.035738
_symmetry_space_group_name_H-M "C 2/M"
_symmetry_group_IT_number 12
_symmetry_cell_setting 'monoclinic'
loop_
_space_group_symop_operation_xyz
x,y,z
-x,y,-z
-x,-y,-z
x,-y,z
1/2+x,1/2+y,z
1/2-x,1/2+y,-z
1/2-x,1/2-y,-z
1/2+x,1/2-y,z
loop_
_atom_site_type_symbol
_atom_site_label
_atom_site_fract_x
_atom_site_fract_y
_atom_site_fract_z
Si Si1 0.079279 0.324144 0.586014
Si Si2 0.409949 0.659793 0.705147
Si Si3 0.101367 0.662497 0.922107
Si Si4 0.206341 0.334809 0.996732
Si Si5 0.047060 0.824241 0.094248
Si Si6 0.882972 0.650987 0.638847
Si Si7 0.139419 0.175973 0.627762
Si Si8 0.748377 0.663949 0.682959
O O1 0.073990 0.500000 0.597853
O O2 0.076619 0.239350 0.645719
O O3 0.189032 0.289881 0.438615
O O4 0.989699 0.268445 0.645519
O O5 0.458489 0.500000 0.649277
O O6 0.307243 0.653010 0.850715
O O7 0.371409 0.711719 0.689195
O O8 0.136841 0.500000 0.899565
O O9 0.172089 0.733987 0.798586
O O10 0.079518 0.757721 0.000152
O O11 0.000000 0.649100 0.000000
O O12 0.170143 0.500000 0.049600
O O13 0.250000 0.250000 0.000000
O O14 0.121702 0.246829 0.056688
O O15 0.931341 0.792383 0.241412
O O16 0.058074 0.000000 0.081117
O O17 0.847216 0.500000 0.706258
O O18 0.833591 0.654225 0.635204
O O19 0.000000 0.642860 0.500000
O O20 0.250000 0.250000 0.500000
O O21 0.150386 0.000000 0.612601
O O22 0.705922 0.500000 0.720490
#
# Coordination Sequence:
#
# PCOD9188198 Si02
#       8
#     8   8   8   8   8   8   8   8
#     4  11  23  41  65  96 130 170 216 265 320 383
#     4  11  23  37  57  91 130 168 211 260 314 375
#     4  11  26  45  67  97 130 169 217 272 334 393
#     4  11  24  41  64  95 132 174 219 267 320 383
#     4  11  25  46  70  97 131 173 222 272 325 393
#     4  10  19  36  57  84 122 164 206 250 302 369
#     4  11  26  46  69  98 128 164 211 266 326 387
#     4  10  22  40  64  93 128 170 217 264 318 383
#
# _framework density 21.368693
#
# number of rings (size 3 to 8) (size 9 to 14) (size 15 to 20)
#    0.000    1.250    1.250    3.750    1.750   11.750 
#    0.000    0.000    0.000    0.000    0.000    0.000 
#    0.000    0.000    0.000    0.000    0.000    0.000 
#
# Total GULP energy -178564.132593 kJ/mol
# GULP energy per Si atom -5580.129144 kJ/mol
# Density = 2.132006 g / cm^3
# Si number density = 21.368693 Si / 1000 Ang^3
#
#
#
# Elastic Constant Matrix: (Units=GPa)
#
#
# Indices 1 2 3 4 5 6 
#
# 1 45.4463 16.6233 -2.0756 -0.0007 4.6139 0.0003
# 2 16.6233 111.1145 48.3444 -0.0078 10.5244 0.0010
# 3 -2.0756 48.3444 99.2951 -0.0056 7.2623 0.0010
# 4 -0.0007 -0.0078 -0.0056 24.7639 0.0015 1.1237
# 5 4.6139 10.5244 7.2623 0.0015 36.6199 0.0002
# 6 0.0003 0.0010 0.0010 1.1237 0.0002 25.2564
#
#
#
# Elastic Compliance Matrix: (Units=1/GPa)
#
#
# Indices 1 2 3 4 5 6 
#
# 1 0.024076 -0.004666 0.002942 0.000000 -0.002276 0.000000
# 2 -0.004666 0.012502 -0.006053 0.000003 -0.001805 0.000000
# 3 0.002942 -0.006053 0.013170 0.000001 -0.001243 0.000000
# 4 0.000000 0.000003 0.000001 0.040463 -0.000003 -0.001800
# 5 -0.002276 -0.001805 -0.001243 -0.000003 0.028359 0.000000
# 6 0.000000 0.000000 0.000000 -0.001800 0.000000 0.039674
#
#
# Mechanical properties :
#
#
# Convention : Reuss Voigt Hill
#
# Bulk Modulus (GPa) = 29.24468 42.40445 35.82456
# Shear Modulus (GPa) = 26.99820 30.19229 28.59525
#
# Velocity S-wave (km/s) = 3.55836 3.76296 3.66209
# Velocity P-wave (km/s) = 5.53155 6.22633 5.88919
#
# Compressibility (1/GPa) = 0.03419425
#
# Stress axis : x y z
#
# Youngs Moduli (GPa) = 41.53483 79.98630 75.92882
#
# Poissons Ratio (x) = 0.37323 -0.22335
# Poissons Ratio (y) = 0.19381 0.45956
# Poissons Ratio (z) = -0.12218 0.48412
#
# Static dielectric constant tensor:
#      x y z
#    x 1.694270 0.000000 -0.066900 
#    y 0.000000 1.832570 0.000000 
#    z -0.066900 0.000000 1.765540 
# 
# From -- ./inp_files/353359.got.cif
#   From: 2010.05.17/outbox.cif.g08.bks.cpg/sg12_177_cif.got.tgz:353359.got - 2010.06.03 13:09:07.
