data_PCOD9188648
_publ_section_title
;
Structure prediction by ZEFSAII (Michael W. Deem and Ramdas Pophale) SiO2 
 PCOD9188648
Probable space group: C 2/M
;
_chemical_formula_sum "Si O2"
_cell_formula_units_Z 48
_cell_length_a 27.498048
_cell_length_b 19.610969
_cell_length_c 9.350547
_cell_angle_alpha 90.000000
_cell_angle_beta 28.948057
_cell_angle_gamma 90.000000
_cell_volume 2440.608467
_symmetry_space_group_name_H-M "C 2/M"
_symmetry_group_IT_number 12
_symmetry_cell_setting 'monoclinic'
loop_
_space_group_symop_operation_xyz
x,y,z
-x,y,-z
-x,-y,-z
x,-y,z
1/2+x,1/2+y,z
1/2-x,1/2+y,-z
1/2-x,1/2-y,-z
1/2+x,1/2-y,z
loop_
_atom_site_type_symbol
_atom_site_label
_atom_site_fract_x
_atom_site_fract_y
_atom_site_fract_z
Si Si1 0.789681 0.724048 0.053691
Si Si2 0.253657 0.576650 0.124249
Si Si3 0.627075 0.336134 0.988086
Si Si4 0.889629 0.190128 0.296201
Si Si5 0.617349 0.077835 0.231735
Si Si6 0.071221 0.080846 0.562695
O O1 0.876750 0.770725 0.898386
O O2 0.692825 0.730456 0.403940
O O3 0.750000 0.750000 0.000000
O O4 0.827695 0.645752 0.966357
O O5 0.269727 0.500000 0.130484
O O6 0.336653 0.590029 0.785341
O O7 0.278879 0.624222 0.189003
O O8 0.146378 0.582472 0.324674
O O9 0.644031 0.320615 0.778898
O O10 0.527473 0.382953 0.248214
O O11 0.906115 0.120815 0.347827
O O12 0.000000 0.222862 0.000000
O O13 0.500000 0.081436 0.500000
O O14 0.652472 0.000000 0.098332
O O15 0.056344 0.000000 0.621657
#
# Coordination Sequence:
#
# PCOD9188648 Si02
#       6
#     8   8   8   8   8   8
#     4  12  23  42  66  91 122 166 213 260 313 375
#     4  10  19  36  60  89 125 161 209 260 305 367
#     4  11  22  35  56  92 129 158 199 251 322 378
#     4  10  23  39  59  90 131 165 205 255 319 383
#     4  10  22  40  63  88 117 159 214 265 304 358
#     4  10  20  37  62  92 128 169 206 251 312 383
#
# _framework density 19.667225999999999
#
# number of rings (size 3 to 8) (size 9 to 14) (size 15 to 20)
#    0.000    1.500    3.333    1.500    0.000   10.333 
#    0.000    0.000    0.000    0.000    0.000    3.500 
#    0.000    0.000    0.000    0.000    0.000    0.000 
#
# Total GULP energy -133773.722466 kJ/mol
# GULP energy per Si atom -5573.905103 kJ/mol
# Density = 1.962246 g / cm^3
# Si number density = 19.667226 Si / 1000 Ang^3
#
#
#
# Elastic Constant Matrix: (Units=GPa)
#
#
# Indices 1 2 3 4 5 6 
#
# 1 158.0909 60.7371 39.1143 0.0000 -3.6202 0.0000
# 2 60.7371 109.1774 22.6587 0.0000 -16.5060 0.0000
# 3 39.1143 22.6587 65.7554 0.0000 -10.3254 0.0000
# 4 0.0000 0.0000 0.0000 20.7302 0.0000 -10.7531
# 5 -3.6202 -16.5060 -10.3254 0.0000 24.9854 0.0000
# 6 0.0000 0.0000 0.0000 -10.7531 0.0000 31.5574
#
#
#
# Elastic Compliance Matrix: (Units=1/GPa)
#
#
# Indices 1 2 3 4 5 6 
#
# 1 0.009139 -0.004721 -0.004375 0.000000 -0.003603 0.000000
# 2 -0.004721 0.013055 -0.000474 0.000000 0.007744 0.000000
# 3 -0.004375 -0.000474 0.019062 0.000000 0.006930 0.000000
# 4 0.000000 0.000000 0.000000 0.058596 0.000000 0.019966
# 5 -0.003603 0.007744 0.006930 0.000000 0.047482 0.000000
# 6 0.000000 0.000000 0.000000 0.019966 0.000000 0.038492
#
#
# Mechanical properties :
#
#
# Convention : Reuss Voigt Hill
#
# Bulk Modulus (GPa) = 45.21765 64.22710 54.72238
# Shear Modulus (GPa) = 23.54727 29.48882 26.51805
#
# Velocity S-wave (km/s) = 3.46393 3.87640 3.67595
# Velocity P-wave (km/s) = 6.24818 7.26382 6.77506
#
# Compressibility (1/GPa) = 0.02211526
#
# Stress axis : x y z
#
# Youngs Moduli (GPa) = 109.41811 76.59893 52.45966
#
# Poissons Ratio (x) = 0.36162 0.22953
# Poissons Ratio (y) = 0.51655 0.02488
# Poissons Ratio (z) = 0.47875 0.03633
#
# Static dielectric constant tensor:
#      x y z
#    x 1.700680 0.000000 -0.024510 
#    y 0.000000 1.780700 0.000000 
#    z -0.024510 0.000000 1.692330 
# 
# From -- ./inp_files/106511.got.cif
#   From: 2010.05.17/outbox.cif.g08.bks.cpg/sg12_54_cif.got.tgz:106511.got - 2010.06.03 13:09:07.
