data_PCOD9188142
_publ_section_title
;
Structure prediction by ZEFSAII (Michael W. Deem and Ramdas Pophale) SiO2 
 PCOD9188142
Probable space group: C 2/M
;
_chemical_formula_sum "Si O2"
_cell_formula_units_Z 64
_cell_length_a 15.192927
_cell_length_b 12.237955
_cell_length_c 28.729635
_cell_angle_alpha 90.000000
_cell_angle_beta 34.401613
_cell_angle_gamma 90.000000
_cell_volume 3018.014701
_symmetry_space_group_name_H-M "C 2/M"
_symmetry_group_IT_number 12
_symmetry_cell_setting 'monoclinic'
loop_
_space_group_symop_operation_xyz
x,y,z
-x,y,-z
-x,-y,-z
x,-y,z
1/2+x,1/2+y,z
1/2-x,1/2+y,-z
1/2-x,1/2-y,-z
1/2+x,1/2-y,z
loop_
_atom_site_type_symbol
_atom_site_label
_atom_site_fract_x
_atom_site_fract_y
_atom_site_fract_z
Si Si1 0.223962 0.724620 0.936196
Si Si2 0.737977 0.627522 0.480115
Si Si3 0.394942 0.835822 0.316140
Si Si4 0.216344 0.213723 0.762488
Si Si5 0.068826 0.628217 0.089452
Si Si6 0.884565 0.120615 0.633983
Si Si7 0.532548 0.620858 0.759722
Si Si8 0.753825 0.381132 0.846824
O O1 0.292644 0.820083 0.939874
O O2 0.368211 0.651327 0.855351
O O3 0.172646 0.788445 0.912673
O O4 0.110159 0.654736 0.017795
O O5 0.756252 0.500000 0.493460
O O6 0.750000 0.750000 0.500000
O O7 0.855135 0.629853 0.385418
O O8 0.559963 0.627126 0.539026
O O9 0.250622 0.865333 0.345577
O O10 0.423089 0.706505 0.299235
O O11 0.559547 0.880515 0.225146
O O12 0.361529 0.283561 0.681360
O O13 0.157098 0.137641 0.746644
O O14 0.239812 0.147648 0.798967
O O15 0.082743 0.304266 0.829691
O O16 0.053271 0.500000 0.103950
O O17 0.863775 0.000000 0.664123
O O18 0.529368 0.500000 0.742842
O O19 0.689296 0.500000 0.885159
#
# Coordination Sequence:
#
# PCOD9188142 Si02
#       8
#     8   8   8   8   8   8   8   8
#     4   9  20  34  55  83 103 136 187 226 270 329
#     4  11  23  39  60  88 120 151 185 230 283 336
#     4  10  21  36  59  85 108 144 192 231 270 326
#     4  10  21  34  53  82 110 142 182 219 274 337
#     4  10  19  36  57  77 107 141 180 228 273 322
#     4  10  20  37  60  84 111 144 187 232 272 322
#     4   9  18  35  56  79 111 146 182 226 276 329
#     4  11  21  36  55  77 109 141 177 226 276 325
#
# _framework density 21.205992999999999
#
# number of rings (size 3 to 8) (size 9 to 14) (size 15 to 20)
#    0.000    2.000    0.000    4.500    0.000    2.000 
#    0.000   13.125    0.000    3.750    0.000    0.000 
#    0.000    0.000    0.000    0.000    0.000    0.000 
#
# Total GULP energy -178505.585186 kJ/mol
# GULP energy per Si atom -5578.299537 kJ/mol
# Density = 2.115773 g / cm^3
# Si number density = 21.205993 Si / 1000 Ang^3
#
#
#
# Elastic Constant Matrix: (Units=GPa)
#
#
# Indices 1 2 3 4 5 6 
#
# 1 37.2463 9.9360 -8.8999 0.0000 -1.1050 0.0000
# 2 9.9360 143.3204 0.6830 0.0000 -1.3205 0.0000
# 3 -8.8999 0.6830 58.2467 0.0002 -1.9733 0.0000
# 4 0.0000 0.0000 0.0002 16.6032 0.0000 3.0062
# 5 -1.1050 -1.3205 -1.9733 0.0000 23.8474 0.0000
# 6 0.0000 0.0000 0.0000 3.0062 0.0000 6.8557
#
#
#
# Elastic Compliance Matrix: (Units=1/GPa)
#
#
# Indices 1 2 3 4 5 6 
#
# 1 0.028482 -0.001981 0.004429 0.000000 0.001577 0.000000
# 2 -0.001981 0.007119 -0.000377 0.000000 0.000271 0.000000
# 3 0.004429 -0.000377 0.017906 0.000000 0.001666 0.000000
# 4 0.000000 0.000000 0.000000 0.065424 0.000000 -0.028688
# 5 0.001577 0.000271 0.001666 0.000000 0.042159 0.000000
# 6 0.000000 0.000000 0.000000 -0.028688 0.000000 0.158443
#
#
# Mechanical properties :
#
#
# Convention : Reuss Voigt Hill
#
# Bulk Modulus (GPa) = 17.34681 26.91684 22.13182
# Shear Modulus (GPa) = 14.94286 25.26754 20.10520
#
# Velocity S-wave (km/s) = 2.65741 3.45560 3.08245
# Velocity P-wave (km/s) = 4.19686 5.35183 4.80915
#
# Compressibility (1/GPa) = 0.05764750
#
# Stress axis : x y z
#
# Youngs Moduli (GPa) = 35.11018 140.46885 55.84757
#
# Poissons Ratio (x) = 0.27829 -0.24732
# Poissons Ratio (y) = 0.06956 0.02105
# Poissons Ratio (z) = -0.15549 0.05296
#
# Static dielectric constant tensor:
#      x y z
#    x 1.804060 0.000000 -0.011270 
#    y 0.000000 1.791120 0.000000 
#    z -0.011270 0.000000 1.745120 
# 
# From -- ./inp_files/361040.got.cif
#   From: 2010.05.17/outbox.cif.g08.bks.cpg/sg12_181_cif.got.tgz:361040.got - 2010.06.03 13:09:07.
