data_PCOD9188103
_publ_section_title
;
Structure prediction by ZEFSAII (Michael W. Deem and Ramdas Pophale) SiO2 
 PCOD9188103
Probable space group: C 2/M
;
_chemical_formula_sum "Si O2"
_cell_formula_units_Z 64
_cell_length_a 14.974049
_cell_length_b 21.071173
_cell_length_c 14.304600
_cell_angle_alpha 90.000000
_cell_angle_beta 45.703365
_cell_angle_gamma 90.000000
_cell_volume 3230.391641
_symmetry_space_group_name_H-M "C 2/M"
_symmetry_group_IT_number 12
_symmetry_cell_setting 'monoclinic'
loop_
_space_group_symop_operation_xyz
x,y,z
-x,y,-z
-x,-y,-z
x,-y,z
1/2+x,1/2+y,z
1/2-x,1/2+y,-z
1/2-x,1/2-y,-z
1/2+x,1/2-y,z
loop_
_atom_site_type_symbol
_atom_site_label
_atom_site_fract_x
_atom_site_fract_y
_atom_site_fract_z
Si Si1 0.239280 0.673952 0.526413
Si Si2 0.354942 0.864919 0.600118
Si Si3 0.855012 0.240154 0.701616
Si Si4 0.996968 0.113334 0.403163
Si Si5 0.871346 0.679531 0.043443
Si Si6 0.182153 0.073269 0.112510
Si Si7 0.973361 0.678382 0.776482
Si Si8 0.287430 0.075477 0.841349
O O1 0.250000 0.750000 0.500000
O O2 0.201853 0.633189 0.461261
O O3 0.363099 0.642357 0.475788
O O4 0.119619 0.668762 0.681231
O O5 0.500000 0.887309 0.500000
O O6 0.356602 0.789436 0.617362
O O7 0.278794 0.896148 0.742276
O O8 0.715045 0.229412 0.839938
O O9 0.940281 0.273493 0.717865
O O10 0.912493 0.172551 0.640843
O O11 0.000000 0.076094 0.500000
O O12 0.057573 0.082629 0.265549
O O13 0.785246 0.618780 0.083942
O O14 0.910515 0.705972 0.914259
O O15 0.000000 0.663213 0.000000
O O16 0.219793 0.000000 0.092042
O O17 0.183273 0.087947 0.999195
O O18 0.907052 0.612537 0.796112
O O19 0.303172 0.000000 0.822487
#
# Coordination Sequence:
#
# PCOD9188103 Si02
#       8
#     8   8   8   8   8   8   8   8
#     4  12  22  36  59  87 126 162 196 241 302 372
#     4  11  20  37  58  92 122 158 200 246 308 376
#     4  10  19  36  56  81 121 156 194 243 299 371
#     4  11  23  37  61  85 116 162 207 244 300 361
#     4  10  22  33  57  88 113 152 206 255 299 360
#     4   9  21  43  63  80 114 161 202 255 318 362
#     4  10  20  36  55  86 121 156 198 239 307 367
#     4   9  19  40  65  85 117 155 197 255 314 362
#
# _framework density 19.811838999999999
#
# number of rings (size 3 to 8) (size 9 to 14) (size 15 to 20)
#    0.000    1.750    3.750    1.500    5.250    1.750 
#    0.000    1.875    0.000    1.500    0.000    0.000 
#    0.000    0.000    0.000    0.000    0.000    0.000 
#
# Total GULP energy -178328.396386 kJ/mol
# GULP energy per Si atom -5572.762387 kJ/mol
# Density = 1.976675 g / cm^3
# Si number density = 19.811839 Si / 1000 Ang^3
#
#
#
# Elastic Constant Matrix: (Units=GPa)
#
#
# Indices 1 2 3 4 5 6 
#
# 1 84.8965 -1.9420 44.1398 0.0001 5.9880 0.0000
# 2 -1.9420 47.1509 15.1187 0.0001 9.7377 0.0000
# 3 44.1398 15.1187 138.7135 0.0001 2.9585 -0.0001
# 4 0.0001 0.0001 0.0001 18.6714 -0.0001 6.4655
# 5 5.9880 9.7377 2.9585 -0.0001 27.4977 0.0001
# 6 0.0000 0.0000 -0.0001 6.4655 0.0001 9.2667
#
#
#
# Elastic Compliance Matrix: (Units=1/GPa)
#
#
# Indices 1 2 3 4 5 6 
#
# 1 0.014659 0.002942 -0.004906 0.000000 -0.003706 0.000000
# 2 0.002942 0.024247 -0.003390 0.000000 -0.008863 0.000000
# 3 -0.004906 -0.003390 0.009112 0.000000 0.001288 0.000000
# 4 0.000000 0.000000 0.000000 0.070620 0.000001 -0.049273
# 5 -0.003706 -0.008863 0.001288 0.000001 0.040174 -0.000001
# 6 0.000000 0.000000 0.000000 -0.049273 -0.000001 0.142292
#
#
# Mechanical properties :
#
#
# Convention : Reuss Voigt Hill
#
# Bulk Modulus (GPa) = 26.80231 42.82153 34.81192
# Shear Modulus (GPa) = 15.42028 25.31676 20.36852
#
# Velocity S-wave (km/s) = 2.79290 3.57860 3.20988
# Velocity P-wave (km/s) = 4.89471 6.22384 5.59885
#
# Compressibility (1/GPa) = 0.03731022
#
# Stress axis : x y z
#
# Youngs Moduli (GPa) = 68.21942 41.24224 109.74212
#
# Poissons Ratio (x) = -0.12135 0.53841
# Poissons Ratio (y) = -0.20072 0.37202
# Poissons Ratio (z) = 0.33469 0.13981
#
# Static dielectric constant tensor:
#      x y z
#    x 1.722610 0.000000 0.046910 
#    y 0.000000 1.671850 0.000000 
#    z 0.046910 0.000000 1.786260 
# 
# From -- ./inp_files/218499.got.cif
#   From: 2010.05.17/outbox.cif.g08.bks.cpg/sg12_110_cif.got.tgz:218499.got - 2010.06.03 13:09:07.
