data_PCOD9188345
_publ_section_title
;
Structure prediction by ZEFSAII (Michael W. Deem and Ramdas Pophale) SiO2 
 PCOD9188345
Probable space group: C 2/M
;
_chemical_formula_sum "Si O2"
_cell_formula_units_Z 48
_cell_length_a 30.657567
_cell_length_b 8.540456
_cell_length_c 19.953114
_cell_angle_alpha 90.000000
_cell_angle_beta 148.750509
_cell_angle_gamma 90.000000
_cell_volume 2710.195702
_symmetry_space_group_name_H-M "C 2/M"
_symmetry_group_IT_number 12
_symmetry_cell_setting 'monoclinic'
loop_
_space_group_symop_operation_xyz
x,y,z
-x,y,-z
-x,-y,-z
x,-y,z
1/2+x,1/2+y,z
1/2-x,1/2+y,-z
1/2-x,1/2-y,-z
1/2+x,1/2-y,z
loop_
_atom_site_type_symbol
_atom_site_label
_atom_site_fract_x
_atom_site_fract_y
_atom_site_fract_z
Si Si1 0.403990 0.809243 0.878002
Si Si2 0.276180 0.189480 0.822531
Si Si3 0.756983 0.312213 0.584274
Si Si4 0.637090 0.813826 0.539097
Si Si5 0.783559 0.811221 0.114021
Si Si6 0.024701 0.810888 0.607913
O O1 0.356851 0.761642 0.884759
O O2 0.342222 0.761556 0.735850
O O3 0.405924 0.000000 0.879784
O O4 0.500000 0.753876 0.000000
O O5 0.194908 0.249729 0.675689
O O6 0.270022 0.240562 0.891370
O O7 0.272969 0.000000 0.816836
O O8 0.756595 0.500000 0.583143
O O9 0.750000 0.250000 0.500000
O O10 0.679583 0.253316 0.527892
O O11 0.542997 0.757331 0.429729
O O12 0.640911 0.000000 0.542637
O O13 0.880179 0.762468 0.252016
O O14 0.781929 0.000000 0.111004
O O15 0.750000 0.750000 0.000000
O O16 0.000000 0.762456 0.500000
O O17 0.020157 0.000000 0.604428
#
# Coordination Sequence:
#
# PCOD9188345 Si02
#       6
#     8   8   8   8   8   8
#     4   8  15  30  55  81 102 132 178 222 260 313
#     4   9  17  34  56  76 104 146 183 217 271 330
#     4  10  20  36  57  80 113 146 178 221 275 329
#     4  11  21  33  55  85 110 137 183 233 275 319
#     4  10  21  36  54  77 109 147 180 221 274 328
#     4  10  19  36  59  78 105 144 186 222 269 332
#
# _framework density 17.710896999999999
#
# number of rings (size 3 to 8) (size 9 to 14) (size 15 to 20)
#    0.000    2.333    1.667    3.000    0.000    1.667 
#    3.000    0.000    0.000   12.500    0.000    0.000 
#    0.000    0.000    0.000    0.000    0.000    0.000 
#
# Total GULP energy -133874.599595 kJ/mol
# GULP energy per Si atom -5578.108316 kJ/mol
# Density = 1.767059 g / cm^3
# Si number density = 17.710897 Si / 1000 Ang^3
#
#
#
# Elastic Constant Matrix: (Units=GPa)
#
#
# Indices 1 2 3 4 5 6 
#
# 1 182.2384 32.2002 108.2938 0.0000 -7.1040 0.0000
# 2 32.2002 19.8524 23.4294 0.0000 -0.1656 0.0000
# 3 108.2938 23.4294 126.5130 0.0000 -0.5588 0.0000
# 4 0.0000 0.0000 0.0000 17.7152 0.0000 -10.6711
# 5 -7.1040 -0.1656 -0.5588 0.0000 36.6873 0.0000
# 6 0.0000 0.0000 0.0000 -10.6711 0.0000 20.0951
#
#
#
# Elastic Compliance Matrix: (Units=1/GPa)
#
#
# Indices 1 2 3 4 5 6 
#
# 1 0.012682 -0.009919 -0.009009 0.000000 0.002274 0.000000
# 2 -0.009919 0.072219 -0.004891 0.000000 -0.001669 0.000000
# 3 -0.009009 -0.004891 0.016515 0.000000 -0.001515 0.000000
# 4 0.000000 0.000000 0.000000 0.082998 0.000000 0.044074
# 5 0.002274 -0.001669 -0.001515 0.000000 0.027667 0.000000
# 6 0.000000 0.000000 0.000000 0.044074 0.000000 0.073168
#
#
# Mechanical properties :
#
#
# Convention : Reuss Voigt Hill
#
# Bulk Modulus (GPa) = 18.59511 72.93897 45.76704
# Shear Modulus (GPa) = 14.25266 25.87820 20.06543
#
# Velocity S-wave (km/s) = 2.83987 3.82664 3.36957
# Velocity P-wave (km/s) = 4.61250 7.79723 6.40593
#
# Compressibility (1/GPa) = 0.05377757
#
# Stress axis : x y z
#
# Youngs Moduli (GPa) = 78.85313 13.84685 60.55226
#
# Poissons Ratio (x) = 0.13735 0.54549
# Poissons Ratio (y) = 0.78214 0.29618
# Poissons Ratio (z) = 0.71035 0.06773
#
# Static dielectric constant tensor:
#      x y z
#    x 1.608870 0.000000 0.009510 
#    y 0.000000 1.601620 0.000000 
#    z 0.009510 0.000000 1.584960 
# 
# From -- ./inp_files/280072.got.cif
#   From: 2010.05.17/outbox.cif.g08.bks.cpg/sg12_141_cif.got.tgz:280072.got - 2010.06.03 13:09:07.
