data_PCOD9188377
_publ_section_title
;
Structure prediction by ZEFSAII (Michael W. Deem and Ramdas Pophale) SiO2 
 PCOD9188377
Probable space group: C 2/M
;
_chemical_formula_sum "Si O2"
_cell_formula_units_Z 30
_cell_length_a 14.895276
_cell_length_b 5.299367
_cell_length_c 18.569089
_cell_angle_alpha 90.000000
_cell_angle_beta 82.406923
_cell_angle_gamma 90.000000
_cell_volume 1452.908453
_symmetry_space_group_name_H-M "C 2/M"
_symmetry_group_IT_number 12
_symmetry_cell_setting 'monoclinic'
loop_
_space_group_symop_operation_xyz
x,y,z
-x,y,-z
-x,-y,-z
x,-y,z
1/2+x,1/2+y,z
1/2-x,1/2+y,-z
1/2-x,1/2-y,-z
1/2+x,1/2-y,z
loop_
_atom_site_type_symbol
_atom_site_label
_atom_site_fract_x
_atom_site_fract_y
_atom_site_fract_z
Si Si1 0.619363 0.000000 0.285328
Si Si2 0.321084 0.000000 0.566049
Si Si3 0.500000 0.500000 0.000000
Si Si4 0.198179 0.500000 0.589072
Si Si5 0.295094 0.500000 0.962186
Si Si6 0.845450 0.000000 0.795870
Si Si7 0.086931 0.500000 0.747287
Si Si8 0.444766 0.500000 0.171524
O O1 0.667845 0.250126 0.250091
O O2 0.518795 0.000000 0.263685
O O3 0.614070 0.000000 0.372087
O O4 0.259636 0.750250 0.580324
O O5 0.357739 0.000000 0.480396
O O6 0.400751 0.500000 0.971102
O O7 0.549831 0.500000 0.914799
O O8 0.141451 0.500000 0.667649
O O9 0.289800 0.500000 0.875895
O O10 0.250000 0.750000 0.000000
O O11 0.951787 0.000000 0.808645
O O12 0.101765 0.749647 0.792712
#
# Coordination Sequence:
#
# PCOD9188377 Si02
#       8
#     4   4   2   4   4   4   4   4
#     4  10  19  36  59  82 110 152 190 231 306 341
#     4  10  21  37  56  80 113 159 181 228 305 343
#     4  10  24  46  66  88 134 170 204 268 322 376
#     4  10  21  38  55  80 119 145 190 240 280 352
#     4  11  24  43  64  93 125 166 214 260 316 383
#     4   9  19  37  58  82 120 147 185 252 292 350
#     4  10  20  37  58  86 113 143 197 248 279 353
#     4   9  20  37  61  84 113 157 189 235 313 348
#
# _framework density 20.648237000000002
#
# number of rings (size 3 to 8) (size 9 to 14) (size 15 to 20)
#    0.000    2.133    0.000    2.400    0.000    5.867 
#   14.400    0.000    0.000    9.600    0.000    0.000 
#    0.000    0.000    0.000    0.000    0.000    0.000 
#
# Total GULP energy -83530.043302 kJ/mol
# GULP energy per Si atom -5568.669553 kJ/mol
# Density = 2.060124 g / cm^3
# Si number density = 20.648237 Si / 1000 Ang^3
#
#
#
# Elastic Constant Matrix: (Units=GPa)
#
#
# Indices 1 2 3 4 5 6 
#
# 1 47.9061 13.5333 13.9014 0.0000 3.8047 0.0000
# 2 13.5333 179.4997 74.1900 0.0000 -9.5769 0.0000
# 3 13.9014 74.1900 212.3289 0.0000 -0.9582 0.0000
# 4 0.0000 0.0000 0.0000 19.2415 0.0000 3.4345
# 5 3.8047 -9.5769 -0.9582 0.0000 42.8960 0.0000
# 6 0.0000 0.0000 0.0000 3.4345 0.0000 -4.6488
#
#
#
# Elastic Compliance Matrix: (Units=1/GPa)
#
#
# Indices 1 2 3 4 5 6 
#
# 1 0.021715 -0.001362 -0.000956 0.000000 -0.002252 0.000000
# 2 -0.001362 0.006682 -0.002239 0.000000 0.001563 0.000000
# 3 -0.000956 -0.002239 0.005553 0.000000 -0.000291 0.000000
# 4 0.000000 0.000000 0.000000 0.045916 0.000000 0.033922
# 5 -0.002252 0.001563 -0.000291 0.000000 0.023854 0.000000
# 6 0.000000 0.000000 0.000000 0.033922 0.000000 -0.190046
#
#
# Mechanical properties :
#
#
# Convention : Reuss Voigt Hill
#
# Bulk Modulus (GPa) = 40.26228 71.44270 55.85249
# Shear Modulus (GPa) = -72.53521 34.03839 -19.24841
#
# Velocity S-wave (km/s) = -5.93340 4.06456 -3.05652
# Velocity P-wave (km/s) = 5.23440 7.53011 3.82777
#
# Compressibility (1/GPa) = 0.02483714
#
# Stress axis : x y z
#
# Youngs Moduli (GPa) = 46.05069 149.64694 180.07778
#
# Poissons Ratio (x) = 0.20386 0.17213
# Poissons Ratio (y) = 0.06273 0.40313
# Poissons Ratio (z) = 0.04402 0.33501
#
# Static dielectric constant tensor:
#      x y z
#    x 1.741960 0.000000 0.016170 
#    y 0.000000 1.711380 0.000000 
#    z 0.016170 0.000000 1.701530 
# 
# From -- ./inp_files/266481.got.cif
#   From: 2010.05.17/outbox.cif.g08.bks.cpg/sg12_134_cif.got.tgz:266481.got - 2010.06.03 13:09:07.
