data_PCOD9188055
_publ_section_title
;
Structure prediction by ZEFSAII (Michael W. Deem and Ramdas Pophale) SiO2 
 PCOD9188055
Probable space group: C 2/M
;
_chemical_formula_sum "Si O2"
_cell_formula_units_Z 48
_cell_length_a 23.229116
_cell_length_b 14.348073
_cell_length_c 14.746996
_cell_angle_alpha 90.000000
_cell_angle_beta 35.194649
_cell_angle_gamma 90.000000
_cell_volume 2832.830830
_symmetry_space_group_name_H-M "C 2/M"
_symmetry_group_IT_number 12
_symmetry_cell_setting 'monoclinic'
loop_
_space_group_symop_operation_xyz
x,y,z
-x,y,-z
-x,-y,-z
x,-y,z
1/2+x,1/2+y,z
1/2-x,1/2+y,-z
1/2-x,1/2-y,-z
1/2+x,1/2-y,z
loop_
_atom_site_type_symbol
_atom_site_label
_atom_site_fract_x
_atom_site_fract_y
_atom_site_fract_z
Si Si1 0.093188 0.272910 0.511228
Si Si2 0.260016 0.388882 0.639890
Si Si3 0.636265 0.776924 0.251302
Si Si4 0.239189 0.606198 0.968912
Si Si5 0.882113 0.611333 0.339685
Si Si6 0.589354 0.892800 0.997882
O O1 0.142114 0.172212 0.468791
O O2 0.133985 0.302238 0.359908
O O3 0.120841 0.338222 0.560141
O O4 0.974258 0.274782 0.649105
O O5 0.275727 0.500000 0.635583
O O6 0.215449 0.375835 0.596620
O O7 0.170860 0.354958 0.822250
O O8 0.680630 0.673873 0.179978
O O9 0.704792 0.847957 0.106983
O O10 0.272929 0.500000 0.934721
O O11 0.144120 0.607345 0.024269
O O12 0.896210 0.500000 0.334637
O O13 0.979090 0.646433 0.157251
O O14 0.574812 0.000000 0.986688
#
# Coordination Sequence:
#
# PCOD9188055 Si02
#       6
#     8   8   8   8   8   8
#     4  11  21  34  50  76 109 135 162 206 256 305
#     4  10  20  34  53  76 102 134 171 209 251 297
#     4  10  22  34  52  78 102 134 172 202 250 310
#     4  10  19  36  55  72 100 135 171 212 247 289
#     4  10  20  34  53  76 102 134 171 209 251 297
#     4   9  16  31  53  74  95 125 169 213 248 285
#
# _framework density 16.944181
#
# number of rings (size 3 to 8) (size 9 to 14) (size 15 to 20)
#    0.000    2.000    3.333    1.000    0.000    3.333 
#    0.000    3.333    0.000    0.000    0.000    0.000 
#    0.000   14.000    0.000    0.000    0.000    0.000 
#
# Total GULP energy -133726.128561 kJ/mol
# GULP energy per Si atom -5571.922023 kJ/mol
# Density = 1.690562 g / cm^3
# Si number density = 16.944181 Si / 1000 Ang^3
#
#
#
# Elastic Constant Matrix: (Units=GPa)
#
#
# Indices 1 2 3 4 5 6 
#
# 1 54.2140 9.4424 6.4905 0.0000 16.1132 0.0000
# 2 9.4424 45.5704 12.2965 0.0000 14.2557 0.0000
# 3 6.4905 12.2965 57.1950 0.0000 13.6145 0.0000
# 4 0.0000 0.0000 0.0000 14.8550 0.0000 -0.7258
# 5 16.1132 14.2557 13.6145 0.0000 10.8673 0.0000
# 6 0.0000 0.0000 0.0000 -0.7258 0.0000 22.5983
#
#
#
# Elastic Compliance Matrix: (Units=1/GPa)
#
#
# Indices 1 2 3 4 5 6 
#
# 1 0.053852 0.028048 0.022263 0.000000 -0.144533 0.000000
# 2 0.028048 0.052925 0.016906 0.000000 -0.132195 0.000000
# 3 0.022263 0.016906 0.034853 0.000000 -0.098851 0.000000
# 4 0.000000 0.000000 0.000000 0.067423 0.000000 0.002165
# 5 -0.144533 -0.132195 -0.098851 0.000000 0.603576 0.000000
# 6 0.000000 0.000000 0.000000 0.002165 0.000000 0.044321
#
#
# Mechanical properties :
#
#
# Convention : Reuss Voigt Hill
#
# Bulk Modulus (GPa) = 3.62235 23.71535 13.66885
# Shear Modulus (GPa) = 6.13845 18.24745 12.19295
#
# Velocity S-wave (km/s) = 1.90542 3.28520 2.68544
# Velocity P-wave (km/s) = 2.64259 5.33072 4.20713
#
# Compressibility (1/GPa) = 0.27606417
#
# Stress axis : x y z
#
# Youngs Moduli (GPa) = 18.56934 18.89471 28.69177
#
# Poissons Ratio (x) = -0.52996 -0.63876
# Poissons Ratio (y) = -0.52084 -0.48506
# Poissons Ratio (z) = -0.41341 -0.31943
#
# Static dielectric constant tensor:
#      x y z
#    x 1.581680 0.000000 0.004570 
#    y 0.000000 1.561520 0.000000 
#    z 0.004570 0.000000 1.594610 
# 
# From -- ./inp_files/143863.got.cif
#   From: 2010.05.17/outbox.cif.g08.bks.cpg/sg12_72_cif.got.tgz:143863.got - 2010.06.03 13:09:07.
