data_PCOD9188867
_publ_section_title
;
Structure prediction by ZEFSAII (Michael W. Deem and Ramdas Pophale) SiO2 
 PCOD9188867
Probable space group: C 2/M
;
_chemical_formula_sum "Si O2"
_cell_formula_units_Z 42
_cell_length_a 23.383007
_cell_length_b 12.428574
_cell_length_c 23.445225
_cell_angle_alpha 90.000000
_cell_angle_beta 161.920775
_cell_angle_gamma 90.000000
_cell_volume 2114.473716
_symmetry_space_group_name_H-M "C 2/M"
_symmetry_group_IT_number 12
_symmetry_cell_setting 'monoclinic'
loop_
_space_group_symop_operation_xyz
x,y,z
-x,y,-z
-x,-y,-z
x,-y,z
1/2+x,1/2+y,z
1/2-x,1/2+y,-z
1/2-x,1/2-y,-z
1/2+x,1/2-y,z
loop_
_atom_site_type_symbol
_atom_site_label
_atom_site_fract_x
_atom_site_fract_y
_atom_site_fract_z
Si Si1 0.037186 0.625783 0.818680
Si Si2 0.220117 0.120052 0.701132
Si Si3 0.193676 0.161054 0.158762
Si Si4 0.500000 0.000000 0.500000
Si Si5 0.311112 0.773098 0.150704
Si Si6 0.342453 0.372946 0.487461
O O1 0.063664 0.500000 0.856572
O O2 0.104242 0.652759 0.818682
O O3 0.820668 0.649341 0.622420
O O4 0.159870 0.697176 0.977471
O O5 0.292491 0.214094 0.809220
O O6 0.246238 0.145323 0.659061
O O7 0.000000 0.117018 0.500000
O O8 0.290362 0.000000 0.780375
O O9 0.219581 0.160965 0.115331
O O10 0.357290 0.093570 0.341524
O O11 0.000000 0.122194 0.000000
O O12 0.479323 0.700263 0.334038
O O13 0.392678 0.500000 0.537819
#
# Coordination Sequence:
#
# PCOD9188867 Si02
#       6
#     8   8   8   2   8   8
#     4  10  23  39  58  88 123 159 210 257 306 366
#     4  10  19  36  62  97 129 159 200 258 323 387
#     4  12  25  42  68  95 128 171 214 259 327 379
#     4  12  26  48  62  90 132 172 218 270 296 382
#     4  11  22  39  64  86 122 161 207 258 310 365
#     4  10  19  36  62  89 124 161 198 248 314 375
#
# _framework density 19.863099999999999
#
# number of rings (size 3 to 8) (size 9 to 14) (size 15 to 20)
#    0.000    1.333    2.857    2.571    1.333    1.143 
#    0.000    0.000    0.000    0.000    0.000    0.000 
#    0.000    0.000    0.000    0.000    0.000    0.000 
#
# Total GULP energy -117079.507508 kJ/mol
# GULP energy per Si atom -5575.214643 kJ/mol
# Density = 1.981789 g / cm^3
# Si number density = 19.863100 Si / 1000 Ang^3
#
#
#
# Elastic Constant Matrix: (Units=GPa)
#
#
# Indices 1 2 3 4 5 6 
#
# 1 142.5142 24.7276 52.1774 0.0012 19.8891 -0.0025
# 2 24.7276 55.4044 13.4286 0.0093 0.3154 0.0011
# 3 52.1774 13.4286 56.0625 0.0043 8.8195 0.0016
# 4 0.0012 0.0093 0.0043 26.9634 0.0002 3.6209
# 5 19.8891 0.3154 8.8195 0.0002 20.7172 -0.0005
# 6 -0.0025 0.0011 0.0016 3.6209 -0.0005 16.6032
#
#
#
# Elastic Compliance Matrix: (Units=1/GPa)
#
#
# Indices 1 2 3 4 5 6 
#
# 1 0.011978 -0.003066 -0.009230 0.000002 -0.007523 0.000002
# 2 -0.003066 0.020008 -0.002523 -0.000006 0.003713 0.000000
# 3 -0.009230 -0.002523 0.027472 -0.000003 -0.002795 -0.000003
# 4 0.000002 -0.000006 -0.000003 0.038206 -0.000001 -0.008332
# 5 -0.007523 0.003713 -0.002795 -0.000001 0.056625 0.000001
# 6 0.000002 0.000000 -0.000003 -0.008332 0.000001 0.062046
#
#
# Mechanical properties :
#
#
# Convention : Reuss Voigt Hill
#
# Bulk Modulus (GPa) = 33.53512 48.29427 40.91470
# Shear Modulus (GPa) = 19.53785 23.76661 21.65223
#
# Velocity S-wave (km/s) = 3.13968 3.46283 3.30521
# Velocity P-wave (km/s) = 5.48300 6.35253 5.93371
#
# Compressibility (1/GPa) = 0.02981948
#
# Stress axis : x y z
#
# Youngs Moduli (GPa) = 83.48567 49.98032 36.40094
#
# Poissons Ratio (x) = 0.15324 0.33598
# Poissons Ratio (y) = 0.25597 0.09184
# Poissons Ratio (z) = 0.77058 0.12610
#
# Static dielectric constant tensor:
#      x y z
#    x 1.389930 -0.000080 0.021590 
#    y -0.000080 1.679970 0.000000 
#    z 0.021590 0.000000 1.670970 
# 
# From -- ./inp_files/349430.got.cif
#   From: 2010.05.17/outbox.cif.g08.bks.cpg/sg12_175_cif.got.tgz:349430.got - 2010.06.03 13:09:07.
