data_PCOD9188016
_publ_section_title
;
Structure prediction by ZEFSAII (Michael W. Deem and Ramdas Pophale) SiO2 
 PCOD9188016
Probable space group: C 2/M
;
_chemical_formula_sum "Si O2"
_cell_formula_units_Z 64
_cell_length_a 13.302362
_cell_length_b 26.562591
_cell_length_c 17.017455
_cell_angle_alpha 90.000000
_cell_angle_beta 35.976949
_cell_angle_gamma 90.000000
_cell_volume 3532.416506
_symmetry_space_group_name_H-M "C 2/M"
_symmetry_group_IT_number 12
_symmetry_cell_setting 'monoclinic'
loop_
_space_group_symop_operation_xyz
x,y,z
-x,y,-z
-x,-y,-z
x,-y,z
1/2+x,1/2+y,z
1/2-x,1/2+y,-z
1/2-x,1/2-y,-z
1/2+x,1/2-y,z
loop_
_atom_site_type_symbol
_atom_site_label
_atom_site_fract_x
_atom_site_fract_y
_atom_site_fract_z
Si Si1 0.281894 0.657885 0.424850
Si Si2 0.758990 0.350523 0.951881
Si Si3 0.432350 0.692406 0.630817
Si Si4 0.302749 0.941488 0.602604
Si Si5 0.058626 0.705850 0.289167
Si Si6 0.478013 0.274140 0.189114
Si Si7 0.443571 0.174092 0.123647
Si Si8 0.514649 0.556744 0.084295
O O1 0.429397 0.670675 0.395068
O O2 0.261671 0.599231 0.419225
O O3 0.332149 0.687567 0.312345
O O4 0.103745 0.678161 0.571400
O O5 0.802949 0.332494 0.834974
O O6 0.933733 0.353093 0.891251
O O7 0.643558 0.307510 0.065787
O O8 0.648842 0.400971 0.024806
O O9 0.500000 0.693244 0.500000
O O10 0.392082 0.749732 0.682836
O O11 0.255899 0.662048 0.742816
O O12 0.500000 0.930287 0.500000
O O13 0.171112 0.935943 0.758536
O O14 0.296067 0.000000 0.581268
O O15 0.001961 0.737261 0.248062
O O16 0.458838 0.234189 0.131410
O O17 0.500000 0.163445 0.000000
O O18 0.571128 0.500000 0.069823
O O19 0.500000 0.559683 0.000000
#
# Coordination Sequence:
#
# PCOD9188016 Si02
#       8
#     8   8   8   8   8   8   8   8
#     4  11  21  38  59  82 117 153 192 236 289 339
#     4  11  21  38  58  83 116 155 192 233 284 339
#     4  11  21  36  54  82 121 161 192 229 273 333
#     4  10  23  43  65  88 110 140 189 244 298 349
#     4  10  21  34  54  80 117 155 196 232 268 327
#     4  10  19  36  52  77 114 156 193 230 270 322
#     4  11  21  32  53  83 118 154 193 225 269 336
#     4  10  23  43  64  87 112 142 187 244 300 345
#
# _framework density 18.117908
#
# number of rings (size 3 to 8) (size 9 to 14) (size 15 to 20)
#    0.000    1.500    1.250    7.500    1.750    3.000 
#    0.000    0.000    0.000    1.500    0.000    0.000 
#    0.000    0.000    0.000    0.000    0.000    0.000 
#
# Total GULP energy -178560.656606 kJ/mol
# GULP energy per Si atom -5580.020519 kJ/mol
# Density = 1.807667 g / cm^3
# Si number density = 18.117908 Si / 1000 Ang^3
#
#
#
# Elastic Constant Matrix: (Units=GPa)
#
#
# Indices 1 2 3 4 5 6 
#
# 1 62.2306 40.3509 30.0349 0.0006 -3.9274 -0.0001
# 2 40.3509 90.1845 37.2019 -0.0001 -13.4446 -0.0005
# 3 30.0349 37.2019 133.0509 0.0017 -4.9751 0.0003
# 4 0.0006 -0.0001 0.0017 25.4913 -0.0015 -13.9545
# 5 -3.9274 -13.4446 -4.9751 -0.0015 21.3796 -0.0001
# 6 -0.0001 -0.0005 0.0003 -13.9545 -0.0001 0.4752
#
#
#
# Elastic Compliance Matrix: (Units=1/GPa)
#
#
# Indices 1 2 3 4 5 6 
#
# 1 0.023562 -0.009808 -0.002668 0.000000 -0.002461 0.000002
# 2 -0.009808 0.017795 -0.002432 -0.000001 0.008823 -0.000003
# 3 -0.002668 -0.002432 0.008799 0.000000 0.000028 0.000002
# 4 0.000000 -0.000001 0.000000 -0.002602 -0.000001 -0.076416
# 5 -0.002461 0.008823 0.000028 -0.000001 0.051876 -0.000008
# 6 0.000002 -0.000003 0.000002 -0.076416 -0.000008 -0.139592
#
#
# Mechanical properties :
#
#
# Convention : Reuss Voigt Hill
#
# Bulk Modulus (GPa) = 49.16507 55.62683 52.39595
# Shear Modulus (GPa) = -1402.17355 21.32778 -690.42288
#
# Velocity S-wave (km/s) = -27.84952 3.43471 -19.54225
# Velocity P-wave (km/s) = 31.73220 6.81901 21.91385
#
# Compressibility (1/GPa) = 0.02033964
#
# Stress axis : x y z
#
# Youngs Moduli (GPa) = 42.44207 56.19497 113.64619
#
# Poissons Ratio (x) = 0.55117 0.30325
# Poissons Ratio (y) = 0.41628 0.27635
# Poissons Ratio (z) = 0.11325 0.13665
#
# Static dielectric constant tensor:
#      x y z
#    x 2.197830 0.000000 -0.588510 
#    y 0.000000 1.622230 0.000000 
#    z -0.588510 0.000000 2.242510 
# 
# From -- ./inp_files/272805.got.cif
#   From: 2010.05.17/outbox.cif.g08.bks.cpg/sg12_137_cif.got.tgz:272805.got - 2010.06.03 13:09:07.
