data_PCOD9188213
_publ_section_title
;
Structure prediction by ZEFSAII (Michael W. Deem and Ramdas Pophale) SiO2 
 PCOD9188213
Probable space group: C 2/M
;
_chemical_formula_sum "Si O2"
_cell_formula_units_Z 44
_cell_length_a 14.878802
_cell_length_b 14.301304
_cell_length_c 12.439747
_cell_angle_alpha 90.000000
_cell_angle_beta 126.614453
_cell_angle_gamma 90.000000
_cell_volume 2124.665599
_symmetry_space_group_name_H-M "C 2/M"
_symmetry_group_IT_number 12
_symmetry_cell_setting 'monoclinic'
loop_
_space_group_symop_operation_xyz
x,y,z
-x,y,-z
-x,-y,-z
x,-y,z
1/2+x,1/2+y,z
1/2-x,1/2+y,-z
1/2-x,1/2-y,-z
1/2+x,1/2-y,z
loop_
_atom_site_type_symbol
_atom_site_label
_atom_site_fract_x
_atom_site_fract_y
_atom_site_fract_z
Si Si1 0.109046 0.000000 0.648436
Si Si2 0.106418 0.103809 0.156531
Si Si3 0.846687 0.500000 0.693370
Si Si4 0.182851 0.635480 0.851363
Si Si5 0.904265 0.307839 0.841672
Si Si6 0.198975 0.156044 0.850661
Si Si7 0.501179 0.000000 0.628475
O O1 0.220946 0.000000 0.652071
O O2 0.114340 0.911720 0.731567
O O3 0.000000 0.000000 0.500000
O O4 0.218057 0.115334 0.163452
O O5 0.095200 0.203629 0.210442
O O6 0.109312 0.000000 0.211341
O O7 0.000000 0.102386 0.000000
O O8 0.905013 0.404369 0.776730
O O9 0.876059 0.500000 0.588139
O O10 0.152009 0.743818 0.851386
O O11 0.074568 0.585297 0.727777
O O12 0.236871 0.607624 0.004458
O O13 0.789905 0.316700 0.826582
O O14 0.000000 0.310058 0.000000
O O15 0.500000 0.000000 0.500000
#
# Coordination Sequence:
#
# PCOD9188213 Si02
#       7
#     4   8   4   8   8   8   4
#     4  10  21  39  62  89 121 159 198 250 300 366
#     4   9  17  30  51  82 119 157 189 243 302 361
#     4  10  21  38  58  83 114 156 213 249 296 365
#     4  10  19  36  57  87 121 154 198 248 300 357
#     4   9  16  29  54  87 118 149 190 250 303 353
#     4   9  19  33  60  90 117 152 194 244 303 358
#     4  12  25  39  59  84 122 165 201 251 302 367
#
# _framework density 20.709140000000001
#
# number of rings (size 3 to 8) (size 9 to 14) (size 15 to 20)
#    0.000    2.364    0.909    1.909    0.000    3.636 
#    0.000    1.818    0.000   10.909    0.000    0.000 
#    0.000    0.000    0.000    0.000    0.000    0.000 
#
# Total GULP energy -122521.741053 kJ/mol
# GULP energy per Si atom -5569.170048 kJ/mol
# Density = 2.066201 g / cm^3
# Si number density = 20.709140 Si / 1000 Ang^3
#
#
#
# Elastic Constant Matrix: (Units=GPa)
#
#
# Indices 1 2 3 4 5 6 
#
# 1 56.4248 21.0446 15.5394 0.0000 0.7797 0.0000
# 2 21.0446 191.7715 61.1918 0.0000 1.3957 0.0000
# 3 15.5394 61.1918 110.6975 0.0000 3.2224 0.0000
# 4 0.0000 0.0000 0.0000 29.9485 0.0000 25.7213
# 5 0.7797 1.3957 3.2224 0.0000 27.6786 0.0000
# 6 0.0000 0.0000 0.0000 25.7213 0.0000 37.0286
#
#
#
# Elastic Compliance Matrix: (Units=1/GPa)
#
#
# Indices 1 2 3 4 5 6 
#
# 1 0.018777 -0.001481 -0.001810 0.000000 -0.000244 0.000000
# 2 -0.001481 0.006448 -0.003360 0.000000 0.000108 0.000000
# 3 -0.001810 -0.003360 0.011176 0.000000 -0.001081 0.000000
# 4 0.000000 0.000000 0.000000 0.082771 0.000000 -0.057495
# 5 -0.000244 0.000108 -0.001081 0.000000 0.036256 0.000000
# 6 0.000000 0.000000 0.000000 -0.057495 0.000000 0.066945
#
#
# Mechanical properties :
#
#
# Convention : Reuss Voigt Hill
#
# Bulk Modulus (GPa) = 43.29037 61.60505 52.44771
# Shear Modulus (GPa) = 20.54442 36.33900 28.44171
#
# Velocity S-wave (km/s) = 3.15309 4.19350 3.70995
# Velocity P-wave (km/s) = 5.84854 7.29791 6.61305
#
# Compressibility (1/GPa) = 0.02309983
#
# Stress axis : x y z
#
# Youngs Moduli (GPa) = 53.25664 155.07823 89.47438
#
# Poissons Ratio (x) = 0.22971 0.16195
# Poissons Ratio (y) = 0.07889 0.30061
# Poissons Ratio (z) = 0.09639 0.52102
#
# Static dielectric constant tensor:
#      x y z
#    x 1.765880 0.000000 -0.015920 
#    y 0.000000 1.856610 0.000000 
#    z -0.015920 0.000000 1.647410 
# 
# From -- ./inp_files/143315.got.cif
#   From: 2010.05.17/outbox.cif.g08.bks.cpg/sg12_72_cif.got.tgz:143315.got - 2010.06.03 13:09:07.
