data_PCOD9188837
_publ_section_title
;
Structure prediction by ZEFSAII (Michael W. Deem and Ramdas Pophale) SiO2 
 PCOD9188837
Probable space group: C 2/M
;
_chemical_formula_sum "Si O2"
_cell_formula_units_Z 52
_cell_length_a 13.109654
_cell_length_b 33.452452
_cell_length_c 8.158731
_cell_angle_alpha 90.000000
_cell_angle_beta 137.952744
_cell_angle_gamma 90.000000
_cell_volume 2396.349620
_symmetry_space_group_name_H-M "C 2/M"
_symmetry_group_IT_number 12
_symmetry_cell_setting 'monoclinic'
loop_
_space_group_symop_operation_xyz
x,y,z
-x,y,-z
-x,-y,-z
x,-y,z
1/2+x,1/2+y,z
1/2-x,1/2+y,-z
1/2-x,1/2-y,-z
1/2+x,1/2-y,z
loop_
_atom_site_type_symbol
_atom_site_label
_atom_site_fract_x
_atom_site_fract_y
_atom_site_fract_z
Si Si1 0.304068 0.643526 0.859081
Si Si2 0.688147 0.327315 0.474674
Si Si3 0.098711 0.454298 0.950881
Si Si4 0.429895 0.272338 0.093159
Si Si5 0.261811 0.375407 0.140870
Si Si6 0.000000 0.411420 0.500000
Si Si7 0.521469 0.811010 0.723347
O O1 0.365981 0.647262 0.748940
O O2 0.150524 0.616248 0.652162
O O3 0.313869 0.691027 0.922795
O O4 0.365679 0.625424 0.102986
O O5 0.571044 0.291221 0.361751
O O6 0.691086 0.352705 0.641437
O O7 0.855885 0.312558 0.615857
O O8 0.147539 0.500000 0.983725
O O9 0.020927 0.438068 0.689349
O O10 0.225932 0.421034 0.133726
O O11 0.000000 0.453250 0.000000
O O12 0.393118 0.229503 0.121898
O O13 0.500000 0.263494 0.000000
O O14 0.112776 0.349563 0.901960
O O15 0.500000 0.810773 0.500000
#
# Coordination Sequence:
#
# PCOD9188837 Si02
#       7
#     8   8   8   8   8   4   8
#     4  10  21  38  56  83 111 147 193 240 279 338
#     4  11  21  39  57  79 112 158 194 238 284 332
#     4  10  20  34  56  89 119 142 180 233 293 353
#     4  10  24  39  54  80 116 152 202 242 277 330
#     4  11  22  36  60  82 113 151 188 232 289 347
#     4  10  19  36  62  86 116 152 184 230 299 344
#     4  12  23  37  57  81 114 153 195 242 285 334
#
# _framework density 21.699672
#
# number of rings (size 3 to 8) (size 9 to 14) (size 15 to 20)
#    0.000    1.385    1.538    5.769    3.231    1.846 
#    0.000    0.000    0.000    0.000    0.000    9.692 
#    0.000   66.462    0.000    0.000    0.000    0.000 
#
# Total GULP energy -144905.463899 kJ/mol
# GULP energy per Si atom -5573.287073 kJ/mol
# Density = 2.165028 g / cm^3
# Si number density = 21.699672 Si / 1000 Ang^3
#
#
#
# Elastic Constant Matrix: (Units=GPa)
#
#
# Indices 1 2 3 4 5 6 
#
# 1 79.6618 40.2440 15.1471 0.0000 -12.8183 0.0000
# 2 40.2440 156.9276 27.9746 0.0000 -6.8180 0.0000
# 3 15.1471 27.9746 83.0946 0.0000 -17.2464 0.0000
# 4 0.0000 0.0000 0.0000 19.1549 0.0000 -15.7825
# 5 -12.8183 -6.8180 -17.2464 0.0000 45.2743 0.0000
# 6 0.0000 0.0000 0.0000 -15.7825 0.0000 25.0955
#
#
#
# Elastic Compliance Matrix: (Units=1/GPa)
#
#
# Indices 1 2 3 4 5 6 
#
# 1 0.015062 -0.003565 -0.000838 0.000000 0.003408 0.000000
# 2 -0.003565 0.007624 -0.002050 0.000000 -0.000642 0.000000
# 3 -0.000838 -0.002050 0.013860 0.000000 0.004734 0.000000
# 4 0.000000 0.000000 0.000000 0.108350 0.000000 0.068141
# 5 0.003408 -0.000642 0.004734 0.000000 0.024759 0.000000
# 6 0.000000 0.000000 0.000000 0.068141 0.000000 0.082702
#
#
# Mechanical properties :
#
#
# Convention : Reuss Voigt Hill
#
# Bulk Modulus (GPa) = 42.30212 54.04615 48.17414
# Shear Modulus (GPa) = 18.30542 33.65949 25.98246
#
# Velocity S-wave (km/s) = 2.90760 3.94274 3.46405
# Velocity P-wave (km/s) = 5.55057 6.75925 6.18451
#
# Compressibility (1/GPa) = 0.02363948
#
# Stress axis : x y z
#
# Youngs Moduli (GPa) = 66.39278 131.16091 72.15046
#
# Poissons Ratio (x) = 0.46761 0.06046
# Poissons Ratio (y) = 0.23670 0.14792
# Poissons Ratio (z) = 0.05563 0.26890
#
# Static dielectric constant tensor:
#      x y z
#    x 1.995590 0.000000 0.153570 
#    y 0.000000 1.758890 0.000000 
#    z 0.153570 0.000000 1.985190 
# 
# From -- ./inp_files/68679.got.cif
#   From: 2010.05.17/outbox.cif.g08.bks.cpg/sg12_35_cif.got.tgz:68679.got - 2010.06.03 13:09:07.
