data_PCOD9188767
_publ_section_title
;
Structure prediction by ZEFSAII (Michael W. Deem and Ramdas Pophale) SiO2 
 PCOD9188767
Probable space group: C 2/M
;
_chemical_formula_sum "Si O2"
_cell_formula_units_Z 56
_cell_length_a 25.248588
_cell_length_b 17.777456
_cell_length_c 8.390477
_cell_angle_alpha 90.000000
_cell_angle_beta 131.654434
_cell_angle_gamma 90.000000
_cell_volume 2813.915390
_symmetry_space_group_name_H-M "C 2/M"
_symmetry_group_IT_number 12
_symmetry_cell_setting 'monoclinic'
loop_
_space_group_symop_operation_xyz
x,y,z
-x,y,-z
-x,-y,-z
x,-y,z
1/2+x,1/2+y,z
1/2-x,1/2+y,-z
1/2-x,1/2-y,-z
1/2+x,1/2-y,z
loop_
_atom_site_type_symbol
_atom_site_label
_atom_site_fract_x
_atom_site_fract_y
_atom_site_fract_z
Si Si1 0.330118 0.645880 0.467600
Si Si2 0.418988 0.500000 0.643556
Si Si3 0.080421 0.713532 0.851178
Si Si4 0.822204 0.412916 0.837115
Si Si5 0.080425 0.286468 0.470520
Si Si6 0.322200 0.912916 0.451693
Si Si7 0.418990 0.500000 0.032395
Si Si8 0.830122 0.854119 0.852868
O O1 0.377599 0.574741 0.510996
O O2 0.249806 0.629494 0.254026
O O3 0.366552 0.721786 0.482844
O O4 0.329333 0.647691 0.658661
O O5 0.499999 0.500000 0.751203
O O6 0.419098 0.500000 0.838193
O O7 0.079393 0.715215 0.658788
O O8 0.999998 0.726557 0.749307
O O9 0.111104 0.633896 0.969154
O O10 0.133443 0.778214 0.016639
O O11 0.820843 0.500000 0.885617
O O12 0.822307 0.412481 0.644613
O O13 0.111109 0.366104 0.475279
O O14 0.250190 0.870505 0.254800
O O15 0.320838 0.000000 0.397744
O O16 0.377602 0.425259 0.999400
#
# Coordination Sequence:
#
# PCOD9188767 Si02
#       8
#     8   4   8   8   8   8   4   8
#     4  10  19  36  61  89 117 147 189 238 289 346
#     4   9  16  28  53  87 118 147 180 224 281 341
#     4  11  25  41  56  81 119 159 198 239 284 339
#     4  10  21  39  63  90 117 146 189 244 294 343
#     4  11  25  41  56  81 119 159 198 239 284 339
#     4  10  21  39  63  90 117 146 189 244 294 343
#     4   9  16  28  53  87 118 147 180 224 281 341
#     4  10  19  36  61  89 117 147 189 238 289 346
#
# _framework density 19.901095999999999
#
# number of rings (size 3 to 8) (size 9 to 14) (size 15 to 20)
#    0.000    1.857    1.429    2.571    0.000    9.143 
#    0.000    3.571    0.000    2.571    0.000    0.000 
#    0.000    0.000    0.000    0.000    0.000    0.000 
#
# Total GULP energy -156443.554360 kJ/mol
# GULP energy per Si atom -5587.269799 kJ/mol
# Density = 1.985580 g / cm^3
# Si number density = 19.901096 Si / 1000 Ang^3
#
#
#
# Elastic Constant Matrix: (Units=GPa)
#
#
# Indices 1 2 3 4 5 6 
#
# 1 34.1398 33.5516 -2.4953 0.0000 7.9546 0.0000
# 2 33.5516 129.1938 34.6122 0.0000 16.6483 0.0000
# 3 -2.4953 34.6122 35.1119 0.0000 7.3885 0.0000
# 4 0.0000 0.0000 0.0000 -145.3955 0.0000 146.1924
# 5 7.9546 16.6483 7.3885 0.0000 9.7374 0.0000
# 6 0.0000 0.0000 0.0000 146.1924 0.0000 -154.5887
#
#
#
# Elastic Compliance Matrix: (Units=1/GPa)
#
#
# Indices 1 2 3 4 5 6 
#
# 1 0.058923 -0.018375 0.030725 0.000000 -0.040032 0.000000
# 2 -0.018375 0.017585 -0.018412 0.000000 -0.001084 0.000000
# 3 0.030725 -0.018412 0.056491 0.000000 -0.036484 0.000000
# 4 0.000000 0.000000 0.000000 -0.139987 0.000000 -0.132383
# 5 -0.040032 -0.001084 -0.036484 0.000000 0.164935 0.000000
# 6 0.000000 0.000000 0.000000 -0.132383 0.000000 -0.131662
#
#
# Mechanical properties :
#
#
# Convention : Reuss Voigt Hill
#
# Bulk Modulus (GPa) = 8.27310 36.64251 22.45780
# Shear Modulus (GPa) = 63.53049 -49.19758 7.16645
#
# Velocity S-wave (km/s) = 5.65618 -4.97742 1.89970
# Velocity P-wave (km/s) = 6.84271 3.81846 4.01510
#
# Compressibility (1/GPa) = 0.12087374
#
# Stress axis : x y z
#
# Youngs Moduli (GPa) = 16.97132 56.86736 17.70182
#
# Poissons Ratio (x) = 1.04494 -0.54388
# Poissons Ratio (y) = 0.31185 0.32593
# Poissons Ratio (z) = -0.52144 1.04706
#
# Static dielectric constant tensor:
#      x y z
#    x 1.694450 0.000000 0.002870 
#    y 0.000000 1.674950 0.000000 
#    z 0.002870 0.000000 1.694640 
# 
# From -- ./inp_files/106079.got.cif
#   From: 2010.05.17/outbox.cif.g08.bks.cpg/sg12_54_cif.got.tgz:106079.got - 2010.06.03 13:09:07.
