data_PCOD9188523
_publ_section_title
;
Structure prediction by ZEFSAII (Michael W. Deem and Ramdas Pophale) SiO2 
 PCOD9188523
Probable space group: C 2/M
;
_chemical_formula_sum "Si O2"
_cell_formula_units_Z 56
_cell_length_a 18.621336
_cell_length_b 18.351436
_cell_length_c 9.502668
_cell_angle_alpha 90.000000
_cell_angle_beta 113.982749
_cell_angle_gamma 90.000000
_cell_volume 2966.981262
_symmetry_space_group_name_H-M "C 2/M"
_symmetry_group_IT_number 12
_symmetry_cell_setting 'monoclinic'
loop_
_space_group_symop_operation_xyz
x,y,z
-x,y,-z
-x,-y,-z
x,-y,z
1/2+x,1/2+y,z
1/2-x,1/2+y,-z
1/2-x,1/2-y,-z
1/2+x,1/2-y,z
loop_
_atom_site_type_symbol
_atom_site_label
_atom_site_fract_x
_atom_site_fract_y
_atom_site_fract_z
Si Si1 0.172955 0.085146 0.719389
Si Si2 0.021976 0.324237 0.858081
Si Si3 0.025393 0.820428 0.681514
Si Si4 0.268125 0.088342 0.289689
Si Si5 0.376090 0.414117 0.640738
Si Si6 0.431817 0.087203 0.563004
Si Si7 0.682321 0.912763 0.981724
O O1 0.104836 0.133043 0.734064
O O2 0.164731 0.091298 0.545132
O O3 0.159876 0.000000 0.745598
O O4 0.258214 0.105438 0.845411
O O5 0.036116 0.252191 0.778466
O O6 0.100000 0.372918 0.923670
O O7 0.955883 0.370486 0.722407
O O8 0.000000 0.306495 0.000000
O O9 0.000000 0.803713 0.500000
O O10 0.955795 0.868584 0.694091
O O11 0.187489 0.113236 0.297043
O O12 0.347640 0.111240 0.433995
O O13 0.276697 0.107483 0.133449
O O14 0.267152 0.000000 0.298002
O O15 0.393297 0.500000 0.678705
O O16 0.500000 0.099780 0.500000
O O17 0.429388 0.000000 0.586114
O O18 0.669195 0.000000 0.970030
#
# Coordination Sequence:
#
# PCOD9188523 Si02
#       7
#     8   8   8   8   8   8   8
#     4   9  19  37  63  90 115 144 185 240 295 341
#     4  12  26  38  55  82 120 156 197 236 281 336
#     4  10  22  41  60  82 115 157 195 231 284 345
#     4   9  18  33  58  89 115 143 184 234 285 339
#     4   9  18  36  64  92 113 140 189 244 287 338
#     4  10  19  36  60  83 113 154 196 236 283 338
#     4  10  21  38  59  87 118 149 187 234 290 342
#
# _framework density 18.874403000000001
#
# number of rings (size 3 to 8) (size 9 to 14) (size 15 to 20)
#    0.000    2.143    1.429    1.286    2.000    4.571 
#    0.000    0.714    0.000    4.286    0.000    0.000 
#    0.000    0.000    0.000    0.000    0.000    0.000 
#
# Total GULP energy -156361.129624 kJ/mol
# GULP energy per Si atom -5584.326058 kJ/mol
# Density = 1.883144 g / cm^3
# Si number density = 18.874403 Si / 1000 Ang^3
#
#
#
# Elastic Constant Matrix: (Units=GPa)
#
#
# Indices 1 2 3 4 5 6 
#
# 1 61.9489 12.5778 -6.6588 0.0000 -6.5073 0.0000
# 2 12.5778 37.0878 18.5386 0.0000 1.3577 0.0000
# 3 -6.6588 18.5386 25.5520 0.0000 8.8361 0.0000
# 4 0.0000 0.0000 0.0000 37.3967 0.0000 -21.2107
# 5 -6.5073 1.3577 8.8361 0.0000 26.9107 0.0000
# 6 0.0000 0.0000 0.0000 -21.2107 0.0000 10.2388
#
#
#
# Elastic Compliance Matrix: (Units=1/GPa)
#
#
# Indices 1 2 3 4 5 6 
#
# 1 0.021105 -0.015448 0.016553 0.000000 0.000448 0.000000
# 2 -0.015448 0.055620 -0.047512 0.000000 0.009059 0.000000
# 3 0.016553 -0.047512 0.085405 0.000000 -0.021643 0.000000
# 4 0.000000 0.000000 0.000000 -0.152823 0.000000 -0.316588
# 5 0.000448 0.009059 -0.021643 0.000000 0.043918 0.000000
# 6 0.000000 0.000000 0.000000 -0.316588 0.000000 -0.558179
#
#
# Mechanical properties :
#
#
# Convention : Reuss Voigt Hill
#
# Bulk Modulus (GPa) = 14.42666 19.27822 16.85244
# Shear Modulus (GPa) = -12.85230 21.58465 4.36618
#
# Velocity S-wave (km/s) = -2.61231 3.38537 1.52260
# Velocity P-wave (km/s) = 1.19949 5.05145 3.46975
#
# Compressibility (1/GPa) = 0.06931611
#
# Stress axis : x y z
#
# Youngs Moduli (GPa) = 47.38188 17.97926 11.70892
#
# Poissons Ratio (x) = 0.27775 -0.19382
# Poissons Ratio (y) = 0.73196 0.55631
# Poissons Ratio (z) = -0.78432 0.85423
#
# Static dielectric constant tensor:
#      x y z
#    x 1.634210 0.000000 -0.007120 
#    y 0.000000 1.641780 0.000000 
#    z -0.007120 0.000000 1.649970 
# 
# From -- ./inp_files/75957.got.cif
#   From: 2010.05.17/outbox.cif.g08.bks.cpg/sg12_38_cif.got.tgz:75957.got - 2010.06.03 13:09:07.
