data_PCOD9188558
_publ_section_title
;
Structure prediction by ZEFSAII (Michael W. Deem and Ramdas Pophale) SiO2 
 PCOD9188558
Probable space group: C 2/M
;
_chemical_formula_sum "Si O2"
_cell_formula_units_Z 40
_cell_length_a 10.589867
_cell_length_b 21.105734
_cell_length_c 7.637849
_cell_angle_alpha 90.000000
_cell_angle_beta 83.960494
_cell_angle_gamma 90.000000
_cell_volume 1697.636895
_symmetry_space_group_name_H-M "C 2/M"
_symmetry_group_IT_number 12
_symmetry_cell_setting 'monoclinic'
loop_
_space_group_symop_operation_xyz
x,y,z
-x,y,-z
-x,-y,-z
x,-y,z
1/2+x,1/2+y,z
1/2-x,1/2+y,-z
1/2-x,1/2-y,-z
1/2+x,1/2-y,z
loop_
_atom_site_type_symbol
_atom_site_label
_atom_site_fract_x
_atom_site_fract_y
_atom_site_fract_z
Si Si1 0.454509 0.000000 0.277791
Si Si2 0.113079 0.757121 0.618214
Si Si3 0.675182 0.123158 0.578487
Si Si4 0.794183 0.500000 0.945286
Si Si5 0.332362 0.377462 0.193282
Si Si6 0.919336 0.928228 0.692218
O O1 0.405661 0.061564 0.380487
O O2 0.603051 0.000000 0.225517
O O3 0.379720 0.000000 0.104543
O O4 0.250000 0.750000 0.500000
O O5 0.090660 0.682736 0.650930
O O6 0.134294 0.801234 0.786364
O O7 0.000000 0.779574 0.500000
O O8 0.737410 0.120182 0.375822
O O9 0.800503 0.117147 0.682181
O O10 0.724785 0.430959 0.930940
O O11 0.473217 0.404734 0.196078
O O12 0.000000 0.931039 0.500000
O O13 0.877405 0.000000 0.736339
#
# Coordination Sequence:
#
# PCOD9188558 Si02
#       6
#     4   8   8   4   8   8
#     4  11  25  40  53  80 118 151 202 239 278 335
#     4  10  21  35  55  92 122 143 183 241 289 341
#     4  10  20  35  60  86 116 146 186 237 283 340
#     4  11  25  40  55  78 114 159 193 242 288 333
#     4  10  19  36  60  85 113 146 187 231 295 345
#     4   9  15  29  52  84 113 136 171 228 286 331
#
# _framework density 23.562165
#
# number of rings (size 3 to 8) (size 9 to 14) (size 15 to 20)
#    0.000    2.000    2.000    3.600    5.600    0.800 
#    0.000    3.000    0.000    0.000    0.000    0.000 
#    0.000    0.000    0.000    0.000    0.000    0.000 
#
# Total GULP energy -111353.090768 kJ/mol
# GULP energy per Si atom -5567.654538 kJ/mol
# Density = 2.350854 g / cm^3
# Si number density = 23.562165 Si / 1000 Ang^3
#
#
#
# Elastic Constant Matrix: (Units=GPa)
#
#
# Indices 1 2 3 4 5 6 
#
# 1 94.1163 16.0469 5.0448 0.0000 19.5037 0.0000
# 2 16.0469 178.3189 37.3717 0.0000 12.0682 0.0000
# 3 5.0448 37.3717 74.6749 0.0000 15.4023 0.0000
# 4 0.0000 0.0000 0.0000 20.9850 0.0000 -14.4382
# 5 19.5037 12.0682 15.4023 0.0000 33.4115 0.0000
# 6 0.0000 0.0000 0.0000 -14.4382 0.0000 59.2140
#
#
#
# Elastic Compliance Matrix: (Units=1/GPa)
#
#
# Indices 1 2 3 4 5 6 
#
# 1 0.012231 -0.000835 0.001108 0.000000 -0.007349 0.000000
# 2 -0.000835 0.006347 -0.003036 0.000000 -0.000405 0.000000
# 3 0.001108 -0.003036 0.016292 0.000000 -0.007060 0.000000
# 4 0.000000 0.000000 0.000000 0.057259 0.000000 0.013962
# 5 -0.007349 -0.000405 -0.007060 0.000000 0.037621 0.000000
# 6 0.000000 0.000000 0.000000 0.013962 0.000000 0.020292
#
#
# Mechanical properties :
#
#
# Convention : Reuss Voigt Hill
#
# Bulk Modulus (GPa) = 34.08111 51.55966 42.82038
# Shear Modulus (GPa) = 30.23867 41.96520 36.10194
#
# Velocity S-wave (km/s) = 3.58628 4.22482 3.91858
# Velocity P-wave (km/s) = 5.62533 6.76230 6.21985
#
# Compressibility (1/GPa) = 0.02934177
#
# Stress axis : x y z
#
# Youngs Moduli (GPa) = 81.75886 157.55759 61.37834
#
# Poissons Ratio (x) = 0.13163 -0.06798
# Poissons Ratio (y) = 0.06831 0.18637
# Poissons Ratio (z) = -0.09055 0.47840
#
# Static dielectric constant tensor:
#      x y z
#    x 1.818270 0.000000 0.042570 
#    y 0.000000 2.057910 0.000000 
#    z 0.042570 0.000000 2.021200 
# 
# From -- ./inp_files/48748.got.cif
#   From: 2010.05.17/outbox.cif.g08.bks.cpg/sg12_25_cif.got.tgz:48748.got - 2010.06.03 13:09:07.
