data_PCOD9188273
_publ_section_title
;
Structure prediction by ZEFSAII (Michael W. Deem and Ramdas Pophale) SiO2 
 PCOD9188273
Probable space group: C 2/M
;
_chemical_formula_sum "Si O2"
_cell_formula_units_Z 44
_cell_length_a 16.791345
_cell_length_b 13.635762
_cell_length_c 29.331150
_cell_angle_alpha 90.000000
_cell_angle_beta 21.902819
_cell_angle_gamma 90.000000
_cell_volume 2505.196202
_symmetry_space_group_name_H-M "C 2/M"
_symmetry_group_IT_number 12
_symmetry_cell_setting 'monoclinic'
loop_
_space_group_symop_operation_xyz
x,y,z
-x,y,-z
-x,-y,-z
x,-y,z
1/2+x,1/2+y,z
1/2-x,1/2+y,-z
1/2-x,1/2-y,-z
1/2+x,1/2-y,z
loop_
_atom_site_type_symbol
_atom_site_label
_atom_site_fract_x
_atom_site_fract_y
_atom_site_fract_z
Si Si1 0.380916 0.309222 0.696842
Si Si2 0.302076 0.000000 0.047597
Si Si3 0.887643 0.884707 0.513585
Si Si4 0.388961 0.800899 0.964585
Si Si5 0.500000 0.687281 0.000000
Si Si6 0.420021 0.111073 0.732601
Si Si7 0.181142 0.000000 0.212081
O O1 0.525265 0.328217 0.576488
O O2 0.423576 0.202788 0.696010
O O3 0.408620 0.400765 0.717343
O O4 0.129583 0.314336 0.818334
O O5 0.165560 0.000000 0.166052
O O6 0.268998 0.902034 0.037628
O O7 0.560162 0.000000 0.919149
O O8 0.631921 0.878436 0.650657
O O9 0.000000 0.850417 0.500000
O O10 0.943924 0.000000 0.477478
O O11 0.426088 0.751043 0.995008
O O12 0.250000 0.750000 0.000000
O O13 0.703009 0.625205 0.876134
O O14 0.425719 0.000000 0.709931
#
# Coordination Sequence:
#
# PCOD9188273 Si02
#       7
#     8   4   8   8   4   8   4
#     4  10  19  36  58  82 110 146 190 235 288 335
#     4   9  16  32  52  81 107 142 187 239 279 326
#     4  10  21  36  57  86 113 145 192 242 285 332
#     4  10  21  35  56  84 115 150 190 235 286 348
#     4  10  21  39  58  84 118 151 192 233 292 336
#     4  10  21  37  58  82 115 153 186 231 280 349
#     4   9  16  32  61  78 104 138 191 247 284 319
#
# _framework density 17.563493999999999
#
# number of rings (size 3 to 8) (size 9 to 14) (size 15 to 20)
#    0.000    2.182    0.909    4.091    2.545    0.000 
#    8.182    0.000    0.000    0.545    0.000    0.000 
#    0.000    0.000    0.000    0.000    0.000    0.000 
#
# Total GULP energy -122572.092575 kJ/mol
# GULP energy per Si atom -5571.458753 kJ/mol
# Density = 1.752352 g / cm^3
# Si number density = 17.563494 Si / 1000 Ang^3
#
#
#
# Elastic Constant Matrix: (Units=GPa)
#
#
# Indices 1 2 3 4 5 6 
#
# 1 99.7178 65.6568 48.4342 -0.0022 1.7925 -0.0017
# 2 65.6568 136.0077 41.0402 -0.0050 6.3304 -0.0022
# 3 48.4342 41.0402 87.7867 -0.0399 4.6298 -0.0026
# 4 -0.0022 -0.0050 -0.0399 10.8128 0.0135 -0.0774
# 5 1.7925 6.3304 4.6298 0.0135 19.3656 -0.0006
# 6 -0.0017 -0.0022 -0.0026 -0.0774 -0.0006 17.1905
#
#
#
# Elastic Compliance Matrix: (Units=1/GPa)
#
#
# Indices 1 2 3 4 5 6 
#
# 1 0.017581 -0.006549 -0.006750 -0.000027 0.002127 0.000000
# 2 -0.006549 0.011067 -0.001419 0.000002 -0.002672 0.000000
# 3 -0.006750 -0.001419 0.015923 0.000060 -0.002718 0.000002
# 4 -0.000027 0.000002 0.000060 0.092487 -0.000077 0.000416
# 5 0.002127 -0.002672 -0.002718 -0.000077 0.052964 0.000001
# 6 0.000000 0.000000 0.000002 0.000416 0.000001 0.058174
#
#
# Mechanical properties :
#
#
# Convention : Reuss Voigt Hill
#
# Bulk Modulus (GPa) = 66.08360 70.41941 68.25151
# Shear Modulus (GPa) = 17.68804 20.69917 19.19360
#
# Velocity S-wave (km/s) = 3.17691 3.43670 3.30936
# Velocity P-wave (km/s) = 7.15292 7.47858 7.31756
#
# Compressibility (1/GPa) = 0.01513235
#
# Stress axis : x y z
#
# Youngs Moduli (GPa) = 56.87975 90.36050 62.80408
#
# Poissons Ratio (x) = 0.59179 0.42395
# Poissons Ratio (y) = 0.37252 0.08915
# Poissons Ratio (z) = 0.38396 0.12826
#
# Static dielectric constant tensor:
#      x y z
#    x 1.657820 0.000000 -0.015780 
#    y 0.000000 1.625910 0.000000 
#    z -0.015780 0.000000 1.597010 
# 
# From -- ./inp_files/223010.got.cif
#   From: 2010.05.17/outbox.cif.g08.bks.cpg/sg12_112_cif.got.tgz:223010.got - 2010.06.03 13:09:07.
