data_PCOD9188466
_publ_section_title
;
Structure prediction by ZEFSAII (Michael W. Deem and Ramdas Pophale) SiO2 
 PCOD9188466
Probable space group: C 2/M
;
_chemical_formula_sum "Si O2"
_cell_formula_units_Z 48
_cell_length_a 12.106896
_cell_length_b 20.524072
_cell_length_c 16.629986
_cell_angle_alpha 90.000000
_cell_angle_beta 139.910618
_cell_angle_gamma 90.000000
_cell_volume 2661.104086
_symmetry_space_group_name_H-M "C 2/M"
_symmetry_group_IT_number 12
_symmetry_cell_setting 'monoclinic'
loop_
_space_group_symop_operation_xyz
x,y,z
-x,y,-z
-x,-y,-z
x,-y,z
1/2+x,1/2+y,z
1/2-x,1/2+y,-z
1/2-x,1/2-y,-z
1/2+x,1/2-y,z
loop_
_atom_site_type_symbol
_atom_site_label
_atom_site_fract_x
_atom_site_fract_y
_atom_site_fract_z
Si Si1 0.626485 0.178228 0.763183
Si Si2 0.469261 0.574590 0.226965
Si Si3 0.614052 0.319444 0.694889
Si Si4 0.801814 0.353248 0.375304
Si Si5 0.745331 0.296125 0.597338
Si Si6 0.839454 0.075172 0.972133
O O1 0.663664 0.255409 0.774281
O O2 0.704744 0.150280 0.724507
O O3 0.419586 0.178170 0.654894
O O4 0.708725 0.133115 0.877122
O O5 0.450449 0.500000 0.238959
O O6 0.380662 0.620376 0.242749
O O7 0.668121 0.595755 0.334756
O O8 0.399714 0.583423 0.097636
O O9 0.724635 0.325520 0.675303
O O10 0.421906 0.309778 0.550245
O O11 0.756943 0.281773 0.386215
O O12 0.000000 0.367617 0.500000
O O13 0.773442 0.000000 0.926501
O O14 0.000000 0.080409 0.000000
#
# Coordination Sequence:
#
# PCOD9188466 Si02
#       6
#     8   8   8   8   8   8
#     4  11  19  33  62  86 112 150 199 236 279 351
#     4  11  23  39  57  81 119 159 197 238 289 345
#     4  10  20  37  60  86 121 154 190 234 297 346
#     4  11  19  33  59  90 116 148 185 240 302 348
#     4  10  19  36  59  88 120 151 182 241 300 342
#     4  10  22  40  57  80 119 159 189 238 301 340
#
# _framework density 18.037624999999998
#
# number of rings (size 3 to 8) (size 9 to 14) (size 15 to 20)
#    0.000    1.500    6.667    1.500    0.000    1.000 
#    0.000    5.833    0.000    2.000    0.000    0.000 
#    0.000    0.000    0.000    0.000    0.000    0.000 
#
# Total GULP energy -133814.042939 kJ/mol
# GULP energy per Si atom -5575.585122 kJ/mol
# Density = 1.799657 g / cm^3
# Si number density = 18.037625 Si / 1000 Ang^3
#
#
#
# Elastic Constant Matrix: (Units=GPa)
#
#
# Indices 1 2 3 4 5 6 
#
# 1 74.4067 33.8485 3.7414 0.0000 -19.0127 0.0000
# 2 33.8485 105.7069 54.9253 0.0004 -19.6068 0.0001
# 3 3.7414 54.9253 49.5120 -0.0005 -11.9168 -0.0005
# 4 0.0000 0.0004 -0.0005 16.3481 0.0002 -3.1328
# 5 -19.0127 -19.6068 -11.9168 0.0002 26.3742 0.0000
# 6 0.0000 0.0001 -0.0005 -3.1328 0.0000 29.5563
#
#
#
# Elastic Compliance Matrix: (Units=1/GPa)
#
#
# Indices 1 2 3 4 5 6 
#
# 1 0.021784 -0.012540 0.015485 0.000001 0.013378 0.000000
# 2 -0.012540 0.030452 -0.033168 -0.000002 -0.001388 -0.000001
# 3 0.015485 -0.033168 0.058989 0.000003 0.013158 0.000001
# 4 0.000001 -0.000002 0.000003 0.062437 0.000000 0.006618
# 5 0.013378 -0.001388 0.013158 0.000000 0.052473 0.000000
# 6 0.000000 -0.000001 0.000001 0.006618 0.000000 0.034535
#
#
# Mechanical properties :
#
#
# Convention : Reuss Voigt Hill
#
# Bulk Modulus (GPa) = 19.69350 46.07291 32.88320
# Shear Modulus (GPa) = 14.79096 23.59643 19.19369
#
# Velocity S-wave (km/s) = 2.86668 3.62080 3.26558
# Velocity P-wave (km/s) = 4.67962 6.56341 5.69988
#
# Compressibility (1/GPa) = 0.05077819
#
# Stress axis : x y z
#
# Youngs Moduli (GPa) = 45.90518 32.83808 16.95234
#
# Poissons Ratio (x) = 0.41179 -0.26251
# Poissons Ratio (y) = 0.57565 0.56228
# Poissons Ratio (z) = -0.71084 1.08919
#
# Static dielectric constant tensor:
#      x y z
#    x 1.633350 0.000000 -0.014820 
#    y 0.000000 1.604630 0.000000 
#    z -0.014820 0.000000 1.636590 
# 
# From -- ./inp_files/207931.got.cif
#   From: 2010.05.17/outbox.cif.g08.bks.cpg/sg12_104_cif.got.tgz:207931.got - 2010.06.03 13:09:07.
