data_PCOD9188197
_publ_section_title
;
Structure prediction by ZEFSAII (Michael W. Deem and Ramdas Pophale) SiO2 
 PCOD9188197
Probable space group: C 2/M
;
_chemical_formula_sum "Si O2"
_cell_formula_units_Z 32
_cell_length_a 8.614993
_cell_length_b 21.666346
_cell_length_c 14.488255
_cell_angle_alpha 90.000000
_cell_angle_beta 34.801375
_cell_angle_gamma 90.000000
_cell_volume 1543.440447
_symmetry_space_group_name_H-M "C 2/M"
_symmetry_group_IT_number 12
_symmetry_cell_setting 'monoclinic'
loop_
_space_group_symop_operation_xyz
x,y,z
-x,y,-z
-x,-y,-z
x,-y,z
1/2+x,1/2+y,z
1/2-x,1/2+y,-z
1/2-x,1/2-y,-z
1/2+x,1/2-y,z
loop_
_atom_site_type_symbol
_atom_site_label
_atom_site_fract_x
_atom_site_fract_y
_atom_site_fract_z
Si Si1 0.000000 0.244758 0.000000
Si Si2 0.371736 0.396200 0.406155
Si Si3 0.681497 0.000000 0.618476
Si Si4 0.931426 0.197285 0.229238
Si Si5 0.173348 0.500000 0.823077
Si Si6 0.000000 0.797451 0.500000
O O1 0.918229 0.202074 0.125885
O O2 0.744360 0.288202 0.101226
O O3 0.158408 0.440394 0.563913
O O4 0.323267 0.364036 0.331704
O O5 0.634827 0.439738 0.267139
O O6 0.436721 0.340648 0.444149
O O7 0.531367 0.000000 0.790538
O O8 0.000000 0.000000 0.500000
O O9 0.753160 0.253785 0.354636
O O10 0.000000 0.500000 0.000000
#
# Coordination Sequence:
#
# PCOD9188197 Si02
#       6
#     4   8   4   8   4   4
#     4  10  24  38  52  86 132 162 186 244 310 346
#     4  10  19  36  57  84 122 146 209 245 285 346
#     4   8  16  36  54  78 113 152 199 258 279 323
#     4  11  23  38  58  89 125 162 195 242 300 358
#     4  10  20  32  58  86 113 156 195 254 299 328
#     4  12  20  37  62  93 116 164 196 242 290 364
#
# _framework density 20.732904000000001
#
# number of rings (size 3 to 8) (size 9 to 14) (size 15 to 20)
#    0.000    2.000    6.250    0.750    1.750    0.000 
#    0.000    0.000    0.000    6.000    0.000    0.000 
#    0.000    0.000    0.000    0.000    0.000    0.000 
#
# Total GULP energy -89280.347043 kJ/mol
# GULP energy per Si atom -5580.021690 kJ/mol
# Density = 2.068571 g / cm^3
# Si number density = 20.732904 Si / 1000 Ang^3
#
#
#
# Elastic Constant Matrix: (Units=GPa)
#
#
# Indices 1 2 3 4 5 6 
#
# 1 48.8782 27.6479 28.7720 0.0003 27.4316 0.0000
# 2 27.6479 123.0188 46.5999 0.0000 26.6326 0.0001
# 3 28.7720 46.5999 123.8745 0.0022 37.0862 0.0002
# 4 0.0003 0.0000 0.0022 80.3302 -0.0006 24.0219
# 5 27.4316 26.6326 37.0862 -0.0006 49.9459 0.0001
# 6 0.0000 0.0001 0.0002 24.0219 0.0001 20.8183
#
#
#
# Elastic Compliance Matrix: (Units=1/GPa)
#
#
# Indices 1 2 3 4 5 6 
#
# 1 0.031296 -0.003298 -0.001811 0.000000 -0.014085 0.000000
# 2 -0.003298 0.010215 -0.002556 0.000000 -0.001737 0.000000
# 3 -0.001811 -0.002556 0.011250 0.000000 -0.005995 0.000000
# 4 0.000000 0.000000 0.000000 0.019007 0.000001 -0.021932
# 5 -0.014085 -0.001737 -0.005995 0.000001 0.033135 -0.000001
# 6 0.000000 0.000000 0.000000 -0.021932 -0.000001 0.073342
#
#
# Mechanical properties :
#
#
# Convention : Reuss Voigt Hill
#
# Bulk Modulus (GPa) = 26.71795 55.75677 41.23736
# Shear Modulus (GPa) = 24.26564 43.06898 33.66731
#
# Velocity S-wave (km/s) = 3.42481 4.56271 4.03408
# Velocity P-wave (km/s) = 5.34358 7.39656 6.45224
#
# Compressibility (1/GPa) = 0.03742803
#
# Stress axis : x y z
#
# Youngs Moduli (GPa) = 31.95336 97.89982 88.88823
#
# Poissons Ratio (x) = 0.32288 0.16102
# Poissons Ratio (y) = 0.10539 0.22724
# Poissons Ratio (z) = 0.05788 0.25028
#
# Static dielectric constant tensor:
#      x y z
#    x 1.803060 0.000000 0.011330 
#    y 0.000000 1.719070 0.000000 
#    z 0.011330 0.000000 1.792140 
# 
# From -- ./inp_files/120542.got.cif
#   From: 2010.05.17/outbox.cif.g08.bks.cpg/sg12_61_cif.got.tgz:120542.got - 2010.06.03 13:09:07.
