data_PCOD9188083
_publ_section_title
;
Structure prediction by ZEFSAII (Michael W. Deem and Ramdas Pophale) SiO2 
 PCOD9188083
Probable space group: C 2/M
;
_chemical_formula_sum "Si O2"
_cell_formula_units_Z 40
_cell_length_a 10.932232
_cell_length_b 19.227808
_cell_length_c 13.802722
_cell_angle_alpha 90.000000
_cell_angle_beta 46.344390
_cell_angle_gamma 90.000000
_cell_volume 2099.148718
_symmetry_space_group_name_H-M "C 2/M"
_symmetry_group_IT_number 12
_symmetry_cell_setting 'monoclinic'
loop_
_space_group_symop_operation_xyz
x,y,z
-x,y,-z
-x,-y,-z
x,-y,z
1/2+x,1/2+y,z
1/2-x,1/2+y,-z
1/2-x,1/2-y,-z
1/2+x,1/2-y,z
loop_
_atom_site_type_symbol
_atom_site_label
_atom_site_fract_x
_atom_site_fract_y
_atom_site_fract_z
Si Si1 0.500000 0.878512 0.500000
Si Si2 0.233593 0.851820 0.804442
Si Si3 0.089412 0.500000 0.575070
Si Si4 0.129725 0.000000 0.178073
Si Si5 0.178782 0.000000 0.771264
Si Si6 0.361413 0.000000 0.228329
Si Si7 0.855355 0.384554 0.953167
Si Si8 0.000000 0.734947 0.000000
O O1 0.378138 0.841935 0.643448
O O2 0.620425 0.929892 0.497722
O O3 0.313988 0.863021 0.866275
O O4 0.111103 0.786343 0.873905
O O5 0.135907 0.924432 0.838134
O O6 0.158961 0.500000 0.644582
O O7 0.881522 0.500000 0.685641
O O8 0.196368 0.000000 0.251661
O O9 0.213494 0.933561 0.078547
O O10 0.930291 0.000000 0.268084
O O11 0.476240 0.067188 0.139696
O O12 0.885244 0.315858 0.998946
#
# Coordination Sequence:
#
# PCOD9188083 Si02
#       8
#     4   8   4   4   4   4   8   4
#     4   9  18  36  62  90 108 153 214 240 292 351
#     4  11  22  38  62  87 118 156 202 257 287 355
#     4   9  17  34  66  86 112 147 204 258 291 354
#     4  11  21  31  62  86 127 149 192 256 303 357
#     4  10  19  36  55  91 111 147 204 250 294 326
#     4  11  17  37  61  88 118 156 194 250 304 360
#     4  11  20  37  55  87 118 161 196 236 307 360
#     4  12  24  36  54  90 132 154 190 248 308 350
#
# _framework density 19.055344999999999
#
# number of rings (size 3 to 8) (size 9 to 14) (size 15 to 20)
#    0.000    1.400    6.000    3.600    0.000    1.200 
#    0.000    1.000    0.000    9.600    0.000    0.000 
#    0.000    1.000    0.000    0.000    0.000    0.000 
#
# Total GULP energy -111478.911165 kJ/mol
# GULP energy per Si atom -5573.945558 kJ/mol
# Density = 1.901197 g / cm^3
# Si number density = 19.055345 Si / 1000 Ang^3
#
#
#
# Elastic Constant Matrix: (Units=GPa)
#
#
# Indices 1 2 3 4 5 6 
#
# 1 120.3341 19.5080 32.0196 -0.0001 12.1835 -0.0001
# 2 19.5080 119.8686 36.1437 0.0001 -6.4337 0.0001
# 3 32.0196 36.1437 105.3213 0.0000 9.9227 0.0000
# 4 -0.0001 0.0001 0.0000 57.8498 0.0001 49.5374
# 5 12.1835 -6.4337 9.9227 0.0001 28.0827 0.0000
# 6 -0.0001 0.0001 0.0000 49.5374 0.0000 48.9026
#
#
#
# Elastic Compliance Matrix: (Units=1/GPa)
#
#
# Indices 1 2 3 4 5 6 
#
# 1 0.009420 -0.001074 -0.002159 0.000000 -0.003570 0.000000
# 2 -0.001074 0.009747 -0.003386 0.000000 0.003895 0.000000
# 3 -0.002159 -0.003386 0.011687 0.000000 -0.003968 0.000000
# 4 0.000000 0.000000 0.000000 0.130387 -0.000001 -0.132079
# 5 -0.003570 0.003895 -0.003968 -0.000001 0.039453 0.000001
# 6 0.000000 0.000000 0.000000 -0.132079 0.000001 0.154242
#
#
# Mechanical properties :
#
#
# Convention : Reuss Voigt Hill
#
# Bulk Modulus (GPa) = 56.76156 57.87408 57.31782
# Shear Modulus (GPa) = 13.36737 44.15721 28.76229
#
# Velocity S-wave (km/s) = 2.65146 4.81907 3.88932
# Velocity P-wave (km/s) = 6.26307 7.83595 7.09324
#
# Compressibility (1/GPa) = 0.01761756
#
# Stress axis : x y z
#
# Youngs Moduli (GPa) = 106.15460 102.59466 85.56618
#
# Poissons Ratio (x) = 0.11015 0.18475
# Poissons Ratio (y) = 0.11398 0.28969
# Poissons Ratio (z) = 0.22920 0.34734
#
# Static dielectric constant tensor:
#      x y z
#    x 1.668850 0.000000 -0.006820 
#    y 0.000000 1.668500 0.000000 
#    z -0.006820 0.000000 1.760430 
# 
# From -- ./inp_files/120298.got.cif
#   From: 2010.05.17/outbox.cif.g08.bks.cpg/sg12_61_cif.got.tgz:120298.got - 2010.06.03 13:09:07.
