data_PCOD9188148
_publ_section_title
;
Structure prediction by ZEFSAII (Michael W. Deem and Ramdas Pophale) SiO2 
 PCOD9188148
Probable space group: C 2/M
;
_chemical_formula_sum "Si O2"
_cell_formula_units_Z 48
_cell_length_a 32.070324
_cell_length_b 8.651564
_cell_length_c 9.933436
_cell_angle_alpha 90.000000
_cell_angle_beta 78.289771
_cell_angle_gamma 90.000000
_cell_volume 2698.751695
_symmetry_space_group_name_H-M "C 2/M"
_symmetry_group_IT_number 12
_symmetry_cell_setting 'monoclinic'
loop_
_space_group_symop_operation_xyz
x,y,z
-x,y,-z
-x,-y,-z
x,-y,z
1/2+x,1/2+y,z
1/2-x,1/2+y,-z
1/2-x,1/2-y,-z
1/2+x,1/2-y,z
loop_
_atom_site_type_symbol
_atom_site_label
_atom_site_fract_x
_atom_site_fract_y
_atom_site_fract_z
Si Si1 0.315892 0.185424 0.162876
Si Si2 0.262900 0.815103 0.637531
Si Si3 0.390130 0.812681 0.322501
Si Si4 0.861212 0.686916 0.629198
Si Si5 0.121492 0.183772 0.092326
Si Si6 0.951399 0.312634 0.051315
O O1 0.270053 0.250659 0.231261
O O2 0.348447 0.230820 0.262571
O O3 0.337445 0.249155 0.013761
O O4 0.314554 0.000000 0.157773
O O5 0.250000 0.750000 0.500000
O O6 0.311501 0.773956 0.639675
O O7 0.260016 0.000000 0.634452
O O8 0.385864 0.760256 0.478410
O O9 0.430868 0.764783 0.208065
O O10 0.390076 0.000000 0.326406
O O11 0.864321 0.500000 0.637185
O O12 0.877680 0.760617 0.755097
O O13 0.080306 0.248669 0.041095
O O14 0.122098 0.000000 0.083364
O O15 0.949919 0.500000 0.045964
O O16 0.000000 0.263409 0.000000
#
# Coordination Sequence:
#
# PCOD9188148 Si02
#       6
#     8   8   8   8   8   8
#     4  10  19  36  57  78 106 146 189 232 273 324
#     4  11  21  33  53  81 111 146 190 234 275 321
#     4   8  15  31  55  80 105 137 181 223 265 319
#     4  10  20  36  54  76 109 150 186 225 272 323
#     4  11  23  37  54  81 112 144 180 227 282 330
#     4   9  18  36  63  88 108 138 179 222 272 336
#
# _framework density 17.786000000000001
#
# number of rings (size 3 to 8) (size 9 to 14) (size 15 to 20)
#    0.000    2.167    1.667    3.500    0.000    2.333 
#    0.000    1.667    0.000    5.000    0.000    0.000 
#    0.000    0.000    0.000    0.000    0.000    0.000 
#
# Total GULP energy -133948.057057 kJ/mol
# GULP energy per Si atom -5581.169044 kJ/mol
# Density = 1.774552 g / cm^3
# Si number density = 17.786000 Si / 1000 Ang^3
#
#
#
# Elastic Constant Matrix: (Units=GPa)
#
#
# Indices 1 2 3 4 5 6 
#
# 1 117.4099 38.1379 75.1296 0.0000 -25.7641 0.0000
# 2 38.1379 38.2422 35.1945 0.0000 -5.4673 0.0000
# 3 75.1296 35.1945 167.3306 0.0000 -14.0488 0.0000
# 4 0.0000 0.0000 0.0000 18.1576 0.0000 0.4642
# 5 -25.7641 -5.4673 -14.0488 0.0000 22.8125 0.0000
# 6 0.0000 0.0000 0.0000 0.4642 0.0000 22.3482
#
#
#
# Elastic Compliance Matrix: (Units=1/GPa)
#
#
# Indices 1 2 3 4 5 6 
#
# 1 0.018873 -0.012404 -0.004561 0.000000 0.015534 0.000000
# 2 -0.012404 0.040887 -0.003569 0.000000 -0.006407 0.000000
# 3 -0.004561 -0.003569 0.008721 0.000000 -0.000635 0.000000
# 4 0.000000 0.000000 0.000000 0.055103 0.000000 -0.001145
# 5 0.015534 -0.006407 -0.000635 0.000000 0.059452 0.000000
# 6 0.000000 0.000000 0.000000 -0.001145 0.000000 0.044770
#
#
# Mechanical properties :
#
#
# Convention : Reuss Voigt Hill
#
# Bulk Modulus (GPa) = 36.47574 68.87851 52.67713
# Shear Modulus (GPa) = 17.98484 24.29837 21.14160
#
# Velocity S-wave (km/s) = 3.18335 3.70016 3.45144
# Velocity P-wave (km/s) = 5.83646 7.55415 6.75017
#
# Compressibility (1/GPa) = 0.02741548
#
# Stress axis : x y z
#
# Youngs Moduli (GPa) = 52.98454 24.45752 114.66303
#
# Poissons Ratio (x) = 0.30336 0.52297
# Poissons Ratio (y) = 0.65721 0.40918
# Poissons Ratio (z) = 0.24166 0.08728
#
# Static dielectric constant tensor:
#      x y z
#    x 1.589450 0.000000 -0.019000 
#    y 0.000000 1.596390 0.000000 
#    z -0.019000 0.000000 1.607460 
# 
# From -- ./inp_files/108753.got.cif
#   From: 2010.05.17/outbox.cif.g08.bks.cpg/sg12_55_cif.got.tgz:108753.got - 2010.06.03 13:09:07.
