data_PCOD9188467
_publ_section_title
;
Structure prediction by ZEFSAII (Michael W. Deem and Ramdas Pophale) SiO2 
 PCOD9188467
Probable space group: C 2/M
;
_chemical_formula_sum "Si O2"
_cell_formula_units_Z 48
_cell_length_a 12.153057
_cell_length_b 18.633509
_cell_length_c 11.132630
_cell_angle_alpha 90.000000
_cell_angle_beta 71.387849
_cell_angle_gamma 90.000000
_cell_volume 2389.181701
_symmetry_space_group_name_H-M "C 2/M"
_symmetry_group_IT_number 12
_symmetry_cell_setting 'monoclinic'
loop_
_space_group_symop_operation_xyz
x,y,z
-x,y,-z
-x,-y,-z
x,-y,z
1/2+x,1/2+y,z
1/2-x,1/2+y,-z
1/2-x,1/2-y,-z
1/2+x,1/2-y,z
loop_
_atom_site_type_symbol
_atom_site_label
_atom_site_fract_x
_atom_site_fract_y
_atom_site_fract_z
Si Si1 0.820791 0.821875 0.999387
Si Si2 0.115049 0.633482 0.720017
Si Si3 0.130064 0.583153 0.965726
Si Si4 0.056311 0.198449 0.788781
Si Si5 0.410266 0.079502 0.642579
Si Si6 0.741405 0.668537 0.552673
O O1 0.724977 0.883089 0.018738
O O2 0.924259 0.821403 0.865140
O O3 0.750000 0.750000 0.000000
O O4 0.876444 0.820510 0.111649
O O5 0.171808 0.598004 0.815890
O O6 0.080720 0.716683 0.756997
O O7 0.205810 0.626306 0.578664
O O8 0.993813 0.595924 0.725484
O O9 0.117743 0.500000 0.996682
O O10 0.000000 0.616450 0.000000
O O11 0.113669 0.160180 0.653180
O O12 0.500000 0.076653 0.500000
O O13 0.324469 0.143905 0.634607
O O14 0.355641 0.000000 0.672769
O O15 0.750000 0.750000 0.500000
#
# Coordination Sequence:
#
# PCOD9188467 Si02
#       6
#     8   8   8   8   8   8
#     4  11  22  40  62  86 119 158 203 249 300 358
#     4  10  19  36  59  88 121 153 195 255 300 356
#     4  11  24  40  62  91 120 157 204 254 304 355
#     4  10  22  37  61  89 116 158 204 245 297 366
#     4   9  18  32  54  84 119 155 191 239 300 357
#     4   9  20  36  56  87 120 157 198 246 298 356
#
# _framework density 20.090561999999998
#
# number of rings (size 3 to 8) (size 9 to 14) (size 15 to 20)
#    0.000    2.000    1.667    1.500    4.667    0.667 
#    0.000    3.333    0.000    1.000    0.000    0.000 
#    0.000    0.000    0.000    0.000    0.000    0.000 
#
# Total GULP energy -133745.961168 kJ/mol
# GULP energy per Si atom -5572.748382 kJ/mol
# Density = 2.004483 g / cm^3
# Si number density = 20.090562 Si / 1000 Ang^3
#
#
#
# Elastic Constant Matrix: (Units=GPa)
#
#
# Indices 1 2 3 4 5 6 
#
# 1 97.5412 39.9579 31.6163 0.0000 -14.0121 0.0000
# 2 39.9579 64.8379 4.0663 0.0000 -1.0634 0.0000
# 3 31.6163 4.0663 93.4686 0.0000 -32.3016 0.0000
# 4 0.0000 0.0000 0.0000 12.1603 0.0000 6.9809
# 5 -14.0121 -1.0634 -32.3016 0.0000 43.9755 0.0000
# 6 0.0000 0.0000 0.0000 6.9809 0.0000 33.5701
#
#
#
# Elastic Compliance Matrix: (Units=1/GPa)
#
#
# Indices 1 2 3 4 5 6 
#
# 1 0.015749 -0.009406 -0.004372 0.000000 0.001579 0.000000
# 2 -0.009406 0.021083 0.001883 0.000000 -0.001104 0.000000
# 3 -0.004372 0.001883 0.015587 0.000000 0.010101 0.000000
# 4 0.000000 0.000000 0.000000 0.093382 0.000000 -0.019419
# 5 0.001579 -0.001104 0.010101 0.000000 0.030636 0.000000
# 6 0.000000 0.000000 0.000000 -0.019419 0.000000 0.033827
#
#
# Mechanical properties :
#
#
# Convention : Reuss Voigt Hill
#
# Bulk Modulus (GPa) = 34.93001 45.23650 40.08326
# Shear Modulus (GPa) = 20.52561 29.95501 25.24031
#
# Velocity S-wave (km/s) = 3.19980 3.86553 3.54832
# Velocity P-wave (km/s) = 5.57455 6.51831 6.06482
#
# Compressibility (1/GPa) = 0.02862868
#
# Stress axis : x y z
#
# Youngs Moduli (GPa) = 63.49518 47.43067 64.15707
#
# Poissons Ratio (x) = 0.44612 0.28052
# Poissons Ratio (y) = 0.59722 -0.12079
# Poissons Ratio (z) = 0.27762 -0.08930
#
# Static dielectric constant tensor:
#      x y z
#    x 1.694470 0.000000 -0.000500 
#    y 0.000000 1.743910 0.000000 
#    z -0.000500 0.000000 1.796300 
# 
# From -- ./inp_files/131685.got.cif
#   From: 2010.05.17/outbox.cif.g08.bks.cpg/sg12_66_cif.got.tgz:131685.got - 2010.06.03 13:09:07.
