data_PCOD9188246
_publ_section_title
;
Structure prediction by ZEFSAII (Michael W. Deem and Ramdas Pophale) SiO2 
 PCOD9188246
Probable space group: C 2/M
;
_chemical_formula_sum "Si O2"
_cell_formula_units_Z 58
_cell_length_a 15.118484
_cell_length_b 8.953580
_cell_length_c 23.826686
_cell_angle_alpha 90.000000
_cell_angle_beta 97.641977
_cell_angle_gamma 90.000000
_cell_volume 3196.642976
_symmetry_space_group_name_H-M "C 2/M"
_symmetry_group_IT_number 12
_symmetry_cell_setting 'monoclinic'
loop_
_space_group_symop_operation_xyz
x,y,z
-x,y,-z
-x,-y,-z
x,-y,z
1/2+x,1/2+y,z
1/2-x,1/2+y,-z
1/2-x,1/2-y,-z
1/2+x,1/2-y,z
loop_
_atom_site_type_symbol
_atom_site_label
_atom_site_fract_x
_atom_site_fract_y
_atom_site_fract_z
Si Si1 0.323562 0.321626 0.743187
Si Si2 0.154905 0.321050 0.651248
Si Si3 0.181588 0.164832 0.534820
Si Si4 0.535570 0.181688 0.062924
Si Si5 0.902343 0.679411 0.151497
Si Si6 0.210100 0.679237 0.139315
Si Si7 0.000000 0.000000 0.500000
Si Si8 0.997347 0.320319 0.278155
O O1 0.325969 0.500000 0.751621
O O2 0.235175 0.284057 0.700576
O O3 0.320508 0.240944 0.802870
O O4 0.409897 0.265055 0.717386
O O5 0.153974 0.500000 0.645304
O O6 0.170221 0.247886 0.592784
O O7 0.063230 0.275943 0.674152
O O8 0.250000 0.250000 0.500000
O O9 0.081239 0.128255 0.504100
O O10 0.221066 0.000000 0.548994
O O11 0.470627 0.225437 0.108443
O O12 0.635920 0.226234 0.087527
O O13 0.534712 0.000000 0.061470
O O14 0.500000 0.235524 0.000000
O O15 0.890930 0.500000 0.148080
O O16 0.807418 0.756298 0.135855
O O17 0.943308 0.713218 0.216129
O O18 0.212452 0.500000 0.141681
O O19 0.011282 0.500000 0.280423
#
# Coordination Sequence:
#
# PCOD9188246 Si02
#       8
#     8   8   8   8   8   8   2   8
#     4  11  22  37  58  88 122 160 196 244 309 364
#     4  10  22  40  61  92 129 159 203 254 301 368
#     4  10  22  44  70  95 132 171 215 264 313 368
#     4   9  19  36  57  79 108 152 198 244 301 364
#     4  10  19  36  58  79 114 156 189 240 304 361
#     4  11  21  35  57  83 113 150 200 246 297 369
#     4   8  24  44  70  98 132 168 218 264 308 374
#     4  10  20  37  57  85 124 159 199 242 303 372
#
# _framework density 18.144034999999999
#
# number of rings (size 3 to 8) (size 9 to 14) (size 15 to 20)
#    0.414    1.517    2.759    1.241    0.000    3.862 
#    2.483    2.759    0.000    2.897    0.000    0.000 
#    0.000    0.000    0.000    0.000    0.000    0.000 
#
# Total GULP energy -161497.508616 kJ/mol
# GULP energy per Si atom -5568.879607 kJ/mol
# Density = 1.810274 g / cm^3
# Si number density = 18.144035 Si / 1000 Ang^3
#
#
#
# Elastic Constant Matrix: (Units=GPa)
#
#
# Indices 1 2 3 4 5 6 
#
# 1 77.2147 17.2278 -12.3322 0.0000 -3.9691 0.0000
# 2 17.2278 19.5182 4.9822 0.0000 0.2697 0.0000
# 3 -12.3322 4.9822 40.4981 0.0000 -12.6349 0.0000
# 4 0.0000 0.0000 0.0000 19.4422 0.0000 -1.0516
# 5 -3.9691 0.2697 -12.6349 0.0000 20.9979 0.0000
# 6 0.0000 0.0000 0.0000 -1.0516 0.0000 39.3982
#
#
#
# Elastic Compliance Matrix: (Units=1/GPa)
#
#
# Indices 1 2 3 4 5 6 
#
# 1 0.020249 -0.021191 0.012375 0.000000 0.011546 0.000000
# 2 -0.021191 0.075625 -0.021310 0.000000 -0.017800 0.000000
# 3 0.012375 -0.021310 0.039270 0.000000 0.026242 0.000000
# 4 0.000000 0.000000 0.000000 0.051509 0.000000 0.001375
# 5 0.011546 -0.017800 0.026242 0.000000 0.065826 0.000000
# 6 0.000000 0.000000 0.000000 0.001375 0.000000 0.025419
#
#
# Mechanical properties :
#
#
# Convention : Reuss Voigt Hill
#
# Bulk Modulus (GPa) = 13.35262 17.44296 15.39779
# Shear Modulus (GPa) = 13.76985 24.45788 19.11386
#
# Velocity S-wave (km/s) = 2.75784 3.67547 3.24921
# Velocity P-wave (km/s) = 4.18522 5.25801 4.75198
#
# Compressibility (1/GPa) = 0.07489166
#
# Stress axis : x y z
#
# Youngs Moduli (GPa) = 49.38500 13.22322 25.46478
#
# Poissons Ratio (x) = 0.28022 -0.31514
# Poissons Ratio (y) = 1.04654 0.54265
# Poissons Ratio (z) = -0.61116 0.28179
#
# Static dielectric constant tensor:
#      x y z
#    x 1.621120 0.000000 -0.001700 
#    y 0.000000 1.615220 0.000000 
#    z -0.001700 0.000000 1.618250 
# 
# From -- ./inp_files/338029.got.cif
#   From: 2010.05.17/outbox.cif.g08.bks.cpg/sg12_170_cif.got.tgz:338029.got - 2010.06.03 13:09:07.
