data_PCOD9188961
_publ_section_title
;
Structure prediction by ZEFSAII (Michael W. Deem and Ramdas Pophale) SiO2 
 PCOD9188961
Probable space group: C 2/M
;
_chemical_formula_sum "Si O2"
_cell_formula_units_Z 48
_cell_length_a 10.872799
_cell_length_b 24.162539
_cell_length_c 9.997822
_cell_angle_alpha 90.000000
_cell_angle_beta 59.767626
_cell_angle_gamma 90.000000
_cell_volume 2269.333193
_symmetry_space_group_name_H-M "C 2/M"
_symmetry_group_IT_number 12
_symmetry_cell_setting 'monoclinic'
loop_
_space_group_symop_operation_xyz
x,y,z
-x,y,-z
-x,-y,-z
x,-y,z
1/2+x,1/2+y,z
1/2-x,1/2+y,-z
1/2-x,1/2-y,-z
1/2+x,1/2-y,z
loop_
_atom_site_type_symbol
_atom_site_label
_atom_site_fract_x
_atom_site_fract_y
_atom_site_fract_z
Si Si1 0.138607 0.433645 0.633596
Si Si2 0.891017 0.934918 0.286469
Si Si3 0.285042 0.435415 0.839560
Si Si4 0.920907 0.757482 0.912299
Si Si5 0.824711 0.866495 0.064327
Si Si6 0.544167 0.174207 0.326516
O O1 0.098991 0.500000 0.641796
O O2 0.262482 0.421083 0.457097
O O3 0.201866 0.425663 0.747869
O O4 0.021585 0.386187 0.672939
O O5 0.880971 0.908455 0.145425
O O6 0.045275 0.925083 0.268787
O O7 0.881117 0.000000 0.270446
O O8 0.266213 0.500000 0.883906
O O9 0.243631 0.398892 0.989890
O O10 0.992841 0.725217 0.750977
O O11 0.750000 0.750000 0.000000
O O12 0.926351 0.823815 0.927007
O O13 0.000000 0.734487 0.000000
O O14 0.712731 0.831795 0.213191
O O15 0.500000 0.187330 0.500000
#
# Coordination Sequence:
#
# PCOD9188961 Si02
#       6
#     8   8   8   8   8   8
#     4  10  22  38  62  97 133 170 209 257 320 392
#     4  10  19  36  63  95 133 169 206 259 318 385
#     4  10  21  36  61  98 134 167 209 258 321 386
#     4  10  24  44  69  93 126 173 218 275 326 378
#     4  11  22  40  64  92 126 166 216 264 318 381
#     4  11  24  44  64  89 126 169 212 268 324 385
#
# _framework density 21.151588
#
# number of rings (size 3 to 8) (size 9 to 14) (size 15 to 20)
#    0.000    1.667    1.667    2.500    4.667    5.000 
#    0.000    8.333    0.000    0.000    0.000    0.000 
#    0.000    0.000    0.000    0.000    0.000    0.000 
#
# Total GULP energy -133738.437776 kJ/mol
# GULP energy per Si atom -5572.434907 kJ/mol
# Density = 2.110345 g / cm^3
# Si number density = 21.151588 Si / 1000 Ang^3
#
#
#
# Elastic Constant Matrix: (Units=GPa)
#
#
# Indices 1 2 3 4 5 6 
#
# 1 43.9287 23.0446 36.1947 0.0000 14.1577 0.0000
# 2 23.0446 59.6678 57.6329 0.0000 10.0421 0.0000
# 3 36.1947 57.6329 150.7594 0.0000 17.1401 0.0000
# 4 0.0000 0.0000 0.0000 39.8380 0.0000 -1.6959
# 5 14.1577 10.0421 17.1401 0.0000 37.0020 0.0000
# 6 0.0000 0.0000 0.0000 -1.6959 0.0000 9.3673
#
#
#
# Elastic Compliance Matrix: (Units=1/GPa)
#
#
# Indices 1 2 3 4 5 6 
#
# 1 0.032728 -0.007204 -0.004119 0.000000 -0.008659 0.000000
# 2 -0.007204 0.028404 -0.009042 0.000000 -0.000764 0.000000
# 3 -0.004119 -0.009042 0.011211 0.000000 -0.001163 0.000000
# 4 0.000000 0.000000 0.000000 0.025297 0.000000 0.004580
# 5 -0.008659 -0.000764 -0.001163 0.000000 0.031085 0.000000
# 6 0.000000 0.000000 0.000000 0.004580 0.000000 0.107584
#
#
# Mechanical properties :
#
#
# Convention : Reuss Voigt Hill
#
# Bulk Modulus (GPa) = 31.63299 54.23336 42.93318
# Shear Modulus (GPa) = 17.38674 26.40702 21.89688
#
# Velocity S-wave (km/s) = 2.87018 3.53720 3.22100
# Velocity P-wave (km/s) = 5.09625 6.50986 5.84594
#
# Compressibility (1/GPa) = 0.03161256
#
# Stress axis : x y z
#
# Youngs Moduli (GPa) = 30.55497 35.20641 89.19994
#
# Poissons Ratio (x) = 0.25364 0.36740
# Poissons Ratio (y) = 0.22013 0.80654
# Poissons Ratio (z) = 0.12585 0.31833
#
# Static dielectric constant tensor:
#      x y z
#    x 1.774120 0.000000 -0.073600 
#    y 0.000000 1.825800 0.000000 
#    z -0.073600 0.000000 1.743430 
# 
# From -- ./inp_files/51331.got.cif
#   From: 2010.05.17/outbox.cif.g08.bks.cpg/sg12_26_cif.got.tgz:51331.got - 2010.06.03 13:09:07.
