data_PCOD9188925
_publ_section_title
;
Structure prediction by ZEFSAII (Michael W. Deem and Ramdas Pophale) SiO2 
 PCOD9188925
Probable space group: C 2/M
;
_chemical_formula_sum "Si O2"
_cell_formula_units_Z 40
_cell_length_a 15.296602
_cell_length_b 14.717078
_cell_length_c 14.577907
_cell_angle_alpha 90.000000
_cell_angle_beta 152.092224
_cell_angle_gamma 90.000000
_cell_volume 1536.044343
_symmetry_space_group_name_H-M "C 2/M"
_symmetry_group_IT_number 12
_symmetry_cell_setting 'monoclinic'
loop_
_space_group_symop_operation_xyz
x,y,z
-x,y,-z
-x,-y,-z
x,-y,z
1/2+x,1/2+y,z
1/2-x,1/2+y,-z
1/2-x,1/2-y,-z
1/2+x,1/2-y,z
loop_
_atom_site_type_symbol
_atom_site_label
_atom_site_fract_x
_atom_site_fract_y
_atom_site_fract_z
Si Si1 0.664035 0.140820 0.029350
Si Si2 0.550746 0.656910 0.859757
Si Si3 0.302447 0.897301 0.234120
Si Si4 0.247203 0.100637 0.675112
Si Si5 0.843730 0.701650 0.466453
O O1 0.827767 0.117436 0.110483
O O2 0.728341 0.121894 0.193187
O O3 0.618417 0.244901 0.960441
O O4 0.458654 0.097692 0.831959
O O5 0.332944 0.669962 0.638232
O O6 0.607695 0.599549 0.001021
O O7 0.461087 0.842502 0.322984
O O8 0.298538 0.842806 0.325216
O O9 0.365984 0.000000 0.304945
O O10 0.149246 0.190498 0.543696
O O11 0.164278 0.000000 0.584355
#
# Coordination Sequence:
#
# PCOD9188925 Si02
#       5
#     8   8   8   8   8
#     4   9  18  35  60  94 122 157 206 248 302 362
#     4  10  20  37  64  91 121 164 199 251 310 365
#     4  11  23  39  62  90 123 160 203 260 312 362
#     4  10  19  36  63  89 124 168 204 250 303 362
#     4  10  21  40  62  90 126 161 205 250 305 371
#
# _framework density 26.040914999999998
#
# number of rings (size 3 to 8) (size 9 to 14) (size 15 to 20)
#    0.000    2.000    2.000    3.000    0.000    4.000 
#    0.000   11.000    0.000    0.000    0.000    0.000 
#    0.000    0.000    0.000    0.000    0.000    0.000 
#
# Total GULP energy -111912.053195 kJ/mol
# GULP energy per Si atom -5595.602660 kJ/mol
# Density = 2.598164 g / cm^3
# Si number density = 26.040915 Si / 1000 Ang^3
#
#
#
# Elastic Constant Matrix: (Units=GPa)
#
#
# Indices 1 2 3 4 5 6 
#
# 1 124.2584 39.0379 32.9065 0.0000 16.2011 -0.0009
# 2 39.0379 205.2626 36.1191 -0.0041 6.8410 0.0004
# 3 32.9065 36.1191 105.0116 -0.0064 17.4750 0.0044
# 4 0.0000 -0.0041 -0.0064 -3.2010 -0.0015 14.8285
# 5 16.2011 6.8410 17.4750 -0.0015 45.4596 0.0012
# 6 -0.0009 0.0004 0.0044 14.8285 0.0012 -9.7929
#
#
#
# Elastic Compliance Matrix: (Units=1/GPa)
#
#
# Indices 1 2 3 4 5 6 
#
# 1 0.009318 -0.001329 -0.002076 0.000000 -0.002323 -0.000001
# 2 -0.001329 0.005376 -0.001471 0.000001 0.000230 0.000001
# 3 -0.002076 -0.001471 0.011238 0.000000 -0.003359 0.000004
# 4 0.000000 0.000001 0.000000 0.051942 0.000000 0.078651
# 5 -0.002323 0.000230 -0.003359 0.000000 0.024082 0.000001
# 6 -0.000001 0.000001 0.000004 0.078651 0.000001 0.016978
#
#
# Mechanical properties :
#
#
# Convention : Reuss Voigt Hill
#
# Bulk Modulus (GPa) = 61.80699 72.29548 67.05123
# Shear Modulus (GPa) = 37.29130 28.25775 32.77453
#
# Velocity S-wave (km/s) = 3.78832 3.29770 3.55149
# Velocity P-wave (km/s) = 6.55143 6.50556 6.52854
#
# Compressibility (1/GPa) = 0.01617940
#
# Stress axis : x y z
#
# Youngs Moduli (GPa) = 107.31859 186.01986 88.98270
#
# Poissons Ratio (x) = 0.24730 0.18474
# Poissons Ratio (y) = 0.14267 0.13087
# Poissons Ratio (z) = 0.22281 0.27358
#
# Static dielectric constant tensor:
#      x y z
#    x 2.093330 0.000000 0.060040 
#    y 0.000000 2.066750 0.000000 
#    z 0.060040 0.000000 2.061260 
# 
# From -- ./inp_files/270808.got.cif
#   From: 2010.05.17/outbox.cif.g08.bks.cpg/sg12_136_cif.got.tgz:270808.got - 2010.06.03 13:09:07.
