data_PCOD9188039
_publ_section_title
;
Structure prediction by ZEFSAII (Michael W. Deem and Ramdas Pophale) SiO2 
 PCOD9188039
Probable space group: C 2/M
;
_chemical_formula_sum "Si O2"
_cell_formula_units_Z 52
_cell_length_a 14.461964
_cell_length_b 22.618876
_cell_length_c 11.459329
_cell_angle_alpha 90.000000
_cell_angle_beta 32.826711
_cell_angle_gamma 90.000000
_cell_volume 2032.061777
_symmetry_space_group_name_H-M "C 2/M"
_symmetry_group_IT_number 12
_symmetry_cell_setting 'monoclinic'
loop_
_space_group_symop_operation_xyz
x,y,z
-x,y,-z
-x,-y,-z
x,-y,z
1/2+x,1/2+y,z
1/2-x,1/2+y,-z
1/2-x,1/2-y,-z
1/2+x,1/2-y,z
loop_
_atom_site_type_symbol
_atom_site_label
_atom_site_fract_x
_atom_site_fract_y
_atom_site_fract_z
Si Si1 0.426981 0.500000 0.949281
Si Si2 0.795348 0.000000 0.520718
Si Si3 0.192759 0.388607 0.170215
Si Si4 0.831353 0.160026 0.242503
Si Si5 0.117465 0.805915 0.221738
Si Si6 0.976127 0.500000 0.385614
Si Si7 0.728386 0.628628 0.430475
Si Si8 0.983124 0.277487 0.868127
O O1 0.514795 0.500000 0.729326
O O2 0.500000 0.500000 0.000000
O O3 0.316756 0.441962 0.065636
O O4 0.698693 0.000000 0.498454
O O5 0.757757 0.061131 0.625461
O O6 0.186802 0.351239 0.298267
O O7 0.042525 0.432390 0.284110
O O8 0.285851 0.347735 0.975956
O O9 0.804001 0.129228 0.394994
O O10 0.894848 0.225882 0.210288
O O11 0.000000 0.137592 0.000000
O O12 0.045801 0.746924 0.233167
O O13 0.942429 0.839923 0.440585
O O14 0.285480 0.787038 0.117945
O O15 0.000000 0.500000 0.500000
O O16 0.903969 0.664733 0.234031
#
# Coordination Sequence:
#
# PCOD9188039 Si02
#       8
#     4   4   8   8   8   4   8   8
#     4  11  19  29  49  75 105 153 177 205 255 328
#     4  12  20  34  52  76 107 150 190 218 272 333
#     4  11  20  33  53  75 112 154 188 220 271 327
#     4  11  18  34  57  78 107 153 187 221 276 336
#     4  10  19  36  54  76 107 149 192 228 281 321
#     4  11  23  31  43  81 123 150 188 230 256 322
#     4  11  21  36  56  77 112 148 185 233 281 330
#     4  10  22  35  56  76 109 148 187 239 279 327
#
# _framework density 25.589773000000001
#
# number of rings (size 3 to 8) (size 9 to 14) (size 15 to 20)
#    0.000    1.231    4.615    6.000    0.000    0.000 
#    0.000    0.000    3.385    0.000    0.000    0.538 
#    0.000    1.231    0.000    0.000    0.000    0.000 
#
# Total GULP energy -144864.120602 kJ/mol
# GULP energy per Si atom -5571.696946 kJ/mol
# Density = 2.553153 g / cm^3
# Si number density = 25.589773 Si / 1000 Ang^3
#
#
#
# Elastic Constant Matrix: (Units=GPa)
#
#
# Indices 1 2 3 4 5 6 
#
# 1 89.2508 42.2416 34.2635 0.0126 -19.7669 -0.0089
# 2 42.2416 184.3296 42.6214 0.0031 -44.9717 -0.0008
# 3 34.2635 42.6214 75.7754 0.0143 -36.7533 -0.0080
# 4 0.0126 0.0031 0.0143 72.7904 -0.0130 -37.3712
# 5 -19.7669 -44.9717 -36.7533 -0.0130 34.0347 0.0083
# 6 -0.0089 -0.0008 -0.0080 -37.3712 0.0083 46.1182
#
#
#
# Elastic Compliance Matrix: (Units=1/GPa)
#
#
# Indices 1 2 3 4 5 6 
#
# 1 0.014193 -0.002090 -0.005425 -0.000001 -0.000377 0.000001
# 2 -0.002090 0.008377 0.002128 0.000001 0.012153 -0.000001
# 3 -0.005425 0.002128 0.030004 0.000000 0.032061 -0.000002
# 4 -0.000001 0.000001 0.000000 0.023525 0.000005 0.019063
# 5 -0.000377 0.012153 0.032061 0.000005 0.079843 -0.000004
# 6 0.000001 -0.000001 -0.000002 0.019063 -0.000004 0.037131
#
#
# Mechanical properties :
#
#
# Convention : Reuss Voigt Hill
#
# Bulk Modulus (GPa) = 23.92401 65.28987 44.60694
# Shear Modulus (GPa) = 22.95899 45.93728 34.44813
#
# Velocity S-wave (km/s) = 2.99857 4.24151 3.67300
# Velocity P-wave (km/s) = 4.62146 7.03965 5.95460
#
# Compressibility (1/GPa) = 0.04179901
#
# Stress axis : x y z
#
# Youngs Moduli (GPa) = 70.45883 119.37444 33.32944
#
# Poissons Ratio (x) = 0.24950 0.18080
# Poissons Ratio (y) = 0.14726 -0.07091
# Poissons Ratio (z) = 0.38222 -0.25399
#
# Static dielectric constant tensor:
#      x y z
#    x 2.159160 -0.000010 -0.036170 
#    y -0.000010 2.276840 0.000000 
#    z -0.036170 0.000000 2.138550 
# 
# From -- ./inp_files/227903.got.cif
#   From: 2010.05.17/outbox.cif.g08.bks.cpg/sg12_114_cif.got.tgz:227903.got - 2010.06.03 13:09:07.
