data_PCOD9188684
_publ_section_title
;
Structure prediction by ZEFSAII (Michael W. Deem and Ramdas Pophale) SiO2 
 PCOD9188684
Probable space group: C 2/M
;
_chemical_formula_sum "Si O2"
_cell_formula_units_Z 56
_cell_length_a 32.236630
_cell_length_b 7.704247
_cell_length_c 12.318478
_cell_angle_alpha 90.000000
_cell_angle_beta 58.607557
_cell_angle_gamma 90.000000
_cell_volume 2611.567266
_symmetry_space_group_name_H-M "C 2/M"
_symmetry_group_IT_number 12
_symmetry_cell_setting 'monoclinic'
loop_
_space_group_symop_operation_xyz
x,y,z
-x,y,-z
-x,-y,-z
x,-y,z
1/2+x,1/2+y,z
1/2-x,1/2+y,-z
1/2-x,1/2-y,-z
1/2+x,1/2-y,z
loop_
_atom_site_type_symbol
_atom_site_label
_atom_site_fract_x
_atom_site_fract_y
_atom_site_fract_z
Si Si1 0.074751 0.212210 0.127171
Si Si2 0.103353 0.296105 0.618190
Si Si3 0.786346 0.290400 0.547329
Si Si4 0.325593 0.289336 0.903772
Si Si5 0.487924 0.705916 0.395694
Si Si6 0.744650 0.203409 0.181190
Si Si7 0.556301 0.290157 0.913270
O O1 0.120723 0.263970 0.136252
O O2 0.025618 0.273121 0.253059
O O3 0.073643 0.000000 0.125206
O O4 0.079922 0.267485 0.994948
O O5 0.106185 0.500000 0.594279
O O6 0.158351 0.224895 0.540950
O O7 0.066176 0.227468 0.577623
O O8 0.080827 0.269207 0.768734
O O9 0.789396 0.500000 0.550999
O O10 0.750000 0.250000 0.500000
O O11 0.762986 0.220974 0.690235
O O12 0.323976 0.500000 0.902244
O O13 0.305006 0.222751 0.818532
O O14 0.287595 0.225164 0.047222
O O15 0.500000 0.775679 0.500000
O O16 0.496969 0.500000 0.389369
O O17 0.755966 0.000000 0.178314
O O18 0.557247 0.500000 0.907992
O O19 0.500000 0.237186 0.000000
#
# Coordination Sequence:
#
# PCOD9188684 Si02
#       7
#     8   8   8   8   8   8   8
#     4   9  18  33  55  86 112 137 185 239 277 323
#     4  11  24  40  57  84 121 153 188 239 297 349
#     4  10  24  42  59  82 114 152 195 240 285 345
#     4   9  18  33  57  84 108 138 180 233 284 331
#     4  10  21  38  60  86 116 152 197 238 277 339
#     4   9  19  37  56  78 110 144 181 226 284 341
#     4  10  19  36  61  83 110 147 190 233 276 333
#
# _framework density 21.443064
#
# number of rings (size 3 to 8) (size 9 to 14) (size 15 to 20)
#    0.000    2.286    1.429    0.429    4.000    2.286 
#    0.000    1.429    0.000    0.000    0.000    0.000 
#    0.000    0.000    0.000    0.000    0.000    0.000 
#
# Total GULP energy -156308.835330 kJ/mol
# GULP energy per Si atom -5582.458405 kJ/mol
# Density = 2.139426 g / cm^3
# Si number density = 21.443064 Si / 1000 Ang^3
#
#
#
# Elastic Constant Matrix: (Units=GPa)
#
#
# Indices 1 2 3 4 5 6 
#
# 1 124.8235 -15.1673 53.6399 0.0000 12.1743 0.0000
# 2 -15.1673 27.2563 -0.6037 0.0000 -0.6923 0.0000
# 3 53.6399 -0.6037 99.6222 0.0000 30.0922 0.0000
# 4 0.0000 0.0000 0.0000 7.0586 0.0000 0.0525
# 5 12.1743 -0.6923 30.0922 0.0000 35.4127 0.0000
# 6 0.0000 0.0000 0.0000 0.0525 0.0000 23.8587
#
#
#
# Elastic Compliance Matrix: (Units=1/GPa)
#
#
# Indices 1 2 3 4 5 6 
#
# 1 0.011474 0.006284 -0.006707 0.000000 0.001878 0.000000
# 2 0.006284 0.040149 -0.003666 0.000000 0.001739 0.000000
# 3 -0.006707 -0.003666 0.017425 0.000000 -0.012573 0.000000
# 4 0.000000 0.000000 0.000000 0.141673 0.000000 -0.000312
# 5 0.001878 0.001739 -0.012573 0.000000 0.038311 0.000000
# 6 0.000000 0.000000 0.000000 -0.000312 0.000000 0.041914
#
#
# Mechanical properties :
#
#
# Convention : Reuss Voigt Hill
#
# Bulk Modulus (GPa) = 16.42846 36.38218 26.40532
# Shear Modulus (GPa) = 15.65375 27.52157 21.58766
#
# Velocity S-wave (km/s) = 2.70481 3.58644 3.17636
# Velocity P-wave (km/s) = 4.17525 5.84413 5.07871
#
# Compressibility (1/GPa) = 0.06086999
#
# Stress axis : x y z
#
# Youngs Moduli (GPa) = 87.15404 24.90746 57.38963
#
# Poissons Ratio (x) = -0.15652 0.38491
# Poissons Ratio (y) = -0.54768 0.21037
# Poissons Ratio (z) = 0.58455 0.09130
#
# Static dielectric constant tensor:
#      x y z
#    x 1.759100 0.000000 -0.003090 
#    y 0.000000 1.809510 0.000000 
#    z -0.003090 0.000000 1.773410 
# 
# From -- ./inp_files/187257.got.cif
#   From: 2010.05.17/outbox.cif.g08.bks.cpg/sg12_94_cif.got.tgz:187257.got - 2010.06.03 13:09:07.
