data_PCOD9188997
_publ_section_title
;
Structure prediction by ZEFSAII (Michael W. Deem and Ramdas Pophale) SiO2 
 PCOD9188997
Probable space group: C 2/M
;
_chemical_formula_sum "Si O2"
_cell_formula_units_Z 40
_cell_length_a 17.379808
_cell_length_b 13.461926
_cell_length_c 9.336464
_cell_angle_alpha 90.000000
_cell_angle_beta 46.041327
_cell_angle_gamma 90.000000
_cell_volume 1572.428755
_symmetry_space_group_name_H-M "C 2/M"
_symmetry_group_IT_number 12
_symmetry_cell_setting 'monoclinic'
loop_
_space_group_symop_operation_xyz
x,y,z
-x,y,-z
-x,-y,-z
x,-y,z
1/2+x,1/2+y,z
1/2-x,1/2+y,-z
1/2-x,1/2-y,-z
1/2+x,1/2-y,z
loop_
_atom_site_type_symbol
_atom_site_label
_atom_site_fract_x
_atom_site_fract_y
_atom_site_fract_z
Si Si1 0.983989 0.116015 0.863211
Si Si2 0.198131 0.122027 0.128292
Si Si3 0.089680 0.396776 0.766372
Si Si4 0.696850 0.320305 0.440006
Si Si5 0.942317 0.620733 0.723926
O O1 0.097777 0.125144 0.639202
O O2 0.886952 0.148251 0.886856
O O3 0.958834 0.000000 0.920138
O O4 0.000000 0.164153 0.000000
O O5 0.168562 0.187195 0.307769
O O6 0.187915 0.000000 0.168236
O O7 0.318716 0.143644 0.917882
O O8 0.117908 0.500000 0.651893
O O9 0.194003 0.379310 0.721573
O O10 0.030075 0.333451 0.722209
O O11 0.000000 0.405804 0.000000
O O12 0.750000 0.250000 0.500000
O O13 0.939781 0.500000 0.742223
O O14 0.000000 0.641031 0.500000
#
# Coordination Sequence:
#
# PCOD9188997 Si02
#       5
#     8   8   8   8   8
#     4  10  23  43  71 100 128 169 230 291 333 386
#     4  10  20  41  71 101 132 174 228 282 336 394
#     4  10  19  36  64  93 123 164 218 275 331 395
#     4  12  25  40  61  93 136 181 221 268 331 408
#     4   9  18  32  60  99 130 158 205 274 339 390
#
# _framework density 25.438357
#
# number of rings (size 3 to 8) (size 9 to 14) (size 15 to 20)
#    0.000    1.800    2.000    2.400    2.800    2.400 
#    0.000    3.000    0.000    0.000    0.000    0.000 
#    0.000    0.000    0.000    0.000    0.000    1.400 
#
# Total GULP energy -111365.104903 kJ/mol
# GULP energy per Si atom -5568.255245 kJ/mol
# Density = 2.538046 g / cm^3
# Si number density = 25.438357 Si / 1000 Ang^3
#
#
#
# Elastic Constant Matrix: (Units=GPa)
#
#
# Indices 1 2 3 4 5 6 
#
# 1 210.6308 12.0904 50.7317 0.0000 21.9451 0.0000
# 2 12.0904 71.8727 -21.3836 0.0000 11.6174 0.0000
# 3 50.7317 -21.3836 95.7593 0.0000 20.9384 0.0000
# 4 0.0000 0.0000 0.0000 16.3707 0.0000 5.5214
# 5 21.9451 11.6174 20.9384 0.0000 58.3045 0.0000
# 6 0.0000 0.0000 0.0000 5.5214 0.0000 44.9880
#
#
#
# Elastic Compliance Matrix: (Units=1/GPa)
#
#
# Indices 1 2 3 4 5 6 
#
# 1 0.005713 -0.001850 -0.003310 0.000000 -0.000593 0.000000
# 2 -0.001850 0.016687 0.005731 0.000000 -0.004687 0.000000
# 3 -0.003310 0.005731 0.014600 0.000000 -0.005139 0.000000
# 4 0.000000 0.000000 0.000000 0.063723 0.000000 -0.007821
# 5 -0.000593 -0.004687 -0.005139 0.000000 0.020154 0.000000
# 6 0.000000 0.000000 0.000000 -0.007821 0.000000 0.023188
#
#
# Mechanical properties :
#
#
# Convention : Reuss Voigt Hill
#
# Bulk Modulus (GPa) = 26.21712 51.23774 38.72743
# Shear Modulus (GPa) = 32.12611 46.38760 39.25685
#
# Velocity S-wave (km/s) = 3.55759 4.27491 3.93264
# Velocity P-wave (km/s) = 5.21572 6.67474 5.98982
#
# Compressibility (1/GPa) = 0.03814301
#
# Stress axis : x y z
#
# Youngs Moduli (GPa) = 175.04396 59.92519 68.49301
#
# Poissons Ratio (x) = 0.11086 0.22671
# Poissons Ratio (y) = 0.32383 -0.39256
# Poissons Ratio (z) = 0.57940 -0.34345
#
# Static dielectric constant tensor:
#      x y z
#    x 2.073730 0.000000 0.129680 
#    y 0.000000 2.356770 0.000000 
#    z 0.129680 0.000000 2.020190 
# 
# From -- ./inp_files/63170.got.cif
#   From: 2010.05.17/outbox.cif.g08.bks.cpg/sg12_32_cif.got.tgz:63170.got - 2010.06.03 13:09:07.
