data_PCOD9188964
_publ_section_title
;
Structure prediction by ZEFSAII (Michael W. Deem and Ramdas Pophale) SiO2 
 PCOD9188964
Probable space group: C 2/M
;
_chemical_formula_sum "Si O2"
_cell_formula_units_Z 44
_cell_length_a 13.833666
_cell_length_b 14.085691
_cell_length_c 17.889746
_cell_angle_alpha 90.000000
_cell_angle_beta 34.386940
_cell_angle_gamma 90.000000
_cell_volume 1968.784085
_symmetry_space_group_name_H-M "C 2/M"
_symmetry_group_IT_number 12
_symmetry_cell_setting 'monoclinic'
loop_
_space_group_symop_operation_xyz
x,y,z
-x,y,-z
-x,-y,-z
x,-y,z
1/2+x,1/2+y,z
1/2-x,1/2+y,-z
1/2-x,1/2-y,-z
1/2+x,1/2-y,z
loop_
_atom_site_type_symbol
_atom_site_label
_atom_site_fract_x
_atom_site_fract_y
_atom_site_fract_z
Si Si1 0.425149 0.792235 0.916871
Si Si2 0.500000 0.742330 0.500000
Si Si3 0.770783 0.794239 0.223692
Si Si4 0.990132 0.613295 0.720851
Si Si5 0.135020 0.112762 0.549362
Si Si6 0.222220 0.108283 0.172332
O O1 0.531158 0.702568 0.882842
O O2 0.509106 0.841675 0.791042
O O3 0.250000 0.750000 0.000000
O O4 0.355054 0.866598 0.022727
O O5 0.649779 0.807531 0.371505
O O6 0.575785 0.675245 0.516628
O O7 0.675990 0.845202 0.215935
O O8 0.766598 0.681171 0.209200
O O9 0.973282 0.500000 0.737073
O O10 0.165801 0.636240 0.563191
O O11 0.983699 0.126268 0.707747
O O12 0.132511 0.000000 0.532641
O O13 0.240682 0.000000 0.182553
#
# Coordination Sequence:
#
# PCOD9188964 Si02
#       6
#     8   4   8   8   8   8
#     4  12  24  42  65  93 131 172 221 268 323 391
#     4  10  19  36  63  96 130 166 208 278 336 372
#     4  11  24  41  65  99 132 169 219 273 326 391
#     4  11  24  44  70  96 132 179 222 267 326 394
#     4   9  19  37  63  97 128 164 217 270 327 393
#     4  10  22  39  65  97 130 162 209 275 334 382
#
# _framework density 22.348821000000001
#
# number of rings (size 3 to 8) (size 9 to 14) (size 15 to 20)
#    0.000    1.455    3.636    1.364    0.000    7.273 
#    0.000    3.182    0.000    0.000    0.000    0.000 
#    0.000    0.000    0.000    0.000    0.000    0.000 
#
# Total GULP energy -122686.256966 kJ/mol
# GULP energy per Si atom -5576.648044 kJ/mol
# Density = 2.229795 g / cm^3
# Si number density = 22.348821 Si / 1000 Ang^3
#
#
#
# Elastic Constant Matrix: (Units=GPa)
#
#
# Indices 1 2 3 4 5 6 
#
# 1 80.8851 9.2278 33.1467 -0.0001 -19.4664 0.0000
# 2 9.2278 35.5682 2.8391 0.0001 1.7259 0.0000
# 3 33.1467 2.8391 133.7190 0.0004 -9.4236 0.0000
# 4 -0.0001 0.0001 0.0004 26.8838 0.0000 1.2761
# 5 -19.4664 1.7259 -9.4236 0.0000 42.9608 0.0000
# 6 0.0000 0.0000 0.0000 1.2761 0.0000 -7.1668
#
#
#
# Elastic Compliance Matrix: (Units=1/GPa)
#
#
# Indices 1 2 3 4 5 6 
#
# 1 0.015801 -0.004151 -0.003364 0.000000 0.006589 0.000000
# 2 -0.004151 0.029323 0.000194 0.000000 -0.003016 0.000000
# 3 -0.003364 0.000194 0.008329 0.000000 0.000295 0.000000
# 4 0.000000 0.000000 0.000000 0.036885 0.000000 0.006567
# 5 0.006589 -0.003016 0.000295 0.000000 0.026448 0.000000
# 6 0.000000 0.000000 0.000000 0.006567 0.000000 -0.138362
#
#
# Mechanical properties :
#
#
# Convention : Reuss Voigt Hill
#
# Bulk Modulus (GPa) = 25.76634 37.84439 31.80536
# Shear Modulus (GPa) = 832.85562 26.19947 429.52755
#
# Velocity S-wave (km/s) = 19.32540 3.42760 13.87839
# Velocity P-wave (km/s) = 22.57245 5.71269 16.46436
#
# Compressibility (1/GPa) = 0.03881033
#
# Stress axis : x y z
#
# Youngs Moduli (GPa) = 63.28665 34.10330 120.06245
#
# Poissons Ratio (x) = 0.14155 0.40394
# Poissons Ratio (y) = 0.26267 -0.02326
# Poissons Ratio (z) = 0.21292 -0.00661
#
# Static dielectric constant tensor:
#      x y z
#    x 1.943980 0.000000 -0.082240 
#    y 0.000000 1.809210 0.000000 
#    z -0.082240 0.000000 1.953640 
# 
# From -- ./inp_files/310721.got.cif
#   From: 2010.05.17/outbox.cif.g08.bks.cpg/sg12_156_cif.got.tgz:310721.got - 2010.06.03 13:09:07.
