data_PCOD9188445
_publ_section_title
;
Structure prediction by ZEFSAII (Michael W. Deem and Ramdas Pophale) SiO2 
 PCOD9188445
Probable space group: C 2/M
;
_chemical_formula_sum "Si O2"
_cell_formula_units_Z 58
_cell_length_a 5.317086
_cell_length_b 27.328556
_cell_length_c 20.933712
_cell_angle_alpha 90.000000
_cell_angle_beta 96.660829
_cell_angle_gamma 90.000000
_cell_volume 3021.309856
_symmetry_space_group_name_H-M "C 2/M"
_symmetry_group_IT_number 12
_symmetry_cell_setting 'monoclinic'
loop_
_space_group_symop_operation_xyz
x,y,z
-x,y,-z
-x,-y,-z
x,-y,z
1/2+x,1/2+y,z
1/2-x,1/2+y,-z
1/2-x,1/2-y,-z
1/2+x,1/2-y,z
loop_
_atom_site_type_symbol
_atom_site_label
_atom_site_fract_x
_atom_site_fract_y
_atom_site_fract_z
Si Si1 0.907046 0.360718 0.427999
Si Si2 0.623295 0.940817 0.812919
Si Si3 0.518034 0.762302 0.394594
Si Si4 0.766309 0.559371 0.036330
Si Si5 0.000000 0.000000 0.500000
Si Si6 0.595097 0.395943 0.750294
Si Si7 0.107433 0.912185 0.599928
Si Si8 0.555184 0.278244 0.748043
O O1 0.611199 0.372180 0.421853
O O2 0.000000 0.343730 0.500000
O O3 0.969565 0.318870 0.378929
O O4 0.103975 0.403247 0.415031
O O5 0.694699 0.929040 0.888355
O O6 0.351901 0.917111 0.788897
O O7 0.845122 0.919208 0.774946
O O8 0.609653 0.000000 0.805574
O O9 0.290470 0.744865 0.430527
O O10 0.488126 0.731157 0.329150
O O11 0.763806 0.500000 0.032424
O O12 0.500000 0.576889 0.000000
O O13 0.000000 0.576622 0.000000
O O14 0.986854 0.957933 0.443429
O O15 0.604486 0.412587 0.676407
O O16 0.581678 0.336656 0.756979
O O17 0.310120 0.252137 0.772055
#
# Coordination Sequence:
#
# PCOD9188445 Si02
#       8
#     8   8   8   8   2   8   8   8
#     4  12  23  43  61  85 108 141 185 258 323 396
#     4  11  24  40  60  97 134 169 215 243 288 365
#     4  10  20  34  58  81 110 134 173 225 308 385
#     4   9  17  33  59  89 128 172 202 242 291 341
#     4  12  28  46  64  82 104 158 216 278 288 390
#     4  12  24  41  65  87 125 167 204 264 316 369
#     4  12  26  44  62  82 111 151 210 259 322 348
#     4  10  19  36  59  86 114 149 194 251 324 382
#
# _framework density 19.196971999999999
#
# number of rings (size 3 to 8) (size 9 to 14) (size 15 to 20)
#    0.000    1.103    1.379    7.034    1.931    3.862 
#    0.000    0.000    0.000    0.000    0.000    0.000 
#    0.000   38.621    0.000    0.000    0.000    0.000 
#
# Total GULP energy -161528.856116 kJ/mol
# GULP energy per Si atom -5569.960556 kJ/mol
# Density = 1.915328 g / cm^3
# Si number density = 19.196972 Si / 1000 Ang^3
#
#
#
# Elastic Constant Matrix: (Units=GPa)
#
#
# Indices 1 2 3 4 5 6 
#
# 1 125.8627 20.4413 22.0066 0.0000 11.5542 0.0000
# 2 20.4413 96.5882 31.5420 0.0000 -0.0596 0.0000
# 3 22.0066 31.5420 75.8426 0.0000 13.5490 0.0000
# 4 0.0000 0.0000 0.0000 8.3317 0.0000 4.2058
# 5 11.5542 -0.0596 13.5490 0.0000 27.1618 0.0000
# 6 0.0000 0.0000 0.0000 4.2058 0.0000 4.1902
#
#
#
# Elastic Compliance Matrix: (Units=1/GPa)
#
#
# Indices 1 2 3 4 5 6 
#
# 1 0.008691 -0.001380 -0.001413 0.000000 -0.002995 0.000000
# 2 -0.001380 0.012390 -0.005338 0.000000 0.003277 0.000000
# 3 -0.001413 -0.005338 0.017247 0.000000 -0.008014 0.000000
# 4 0.000000 0.000000 0.000000 0.243298 0.000000 -0.244207
# 5 -0.002995 0.003277 -0.008014 0.000000 0.042095 0.000000
# 6 0.000000 0.000000 0.000000 -0.244207 0.000000 0.483773
#
#
# Mechanical properties :
#
#
# Convention : Reuss Voigt Hill
#
# Bulk Modulus (GPa) = 45.31654 49.58592 47.45123
# Shear Modulus (GPa) = 6.01604 22.89031 14.45318
#
# Velocity S-wave (km/s) = 1.77219 3.45685 2.74686
# Velocity P-wave (km/s) = 5.27682 6.46678 5.90187
#
# Compressibility (1/GPa) = 0.02206700
#
# Stress axis : x y z
#
# Youngs Moduli (GPa) = 115.05791 80.70708 57.98151
#
# Poissons Ratio (x) = 0.11136 0.08192
# Poissons Ratio (y) = 0.15876 0.30951
# Poissons Ratio (z) = 0.16257 0.43082
#
# Static dielectric constant tensor:
#      x y z
#    x 1.763750 0.000000 0.008240 
#    y 0.000000 1.673400 0.000000 
#    z 0.008240 0.000000 1.648790 
# 
# From -- ./inp_files/298320.got.cif
#   From: 2010.05.17/outbox.cif.g08.bks.cpg/sg12_150_cif.got.tgz:298320.got - 2010.06.03 13:09:07.
