data_PCOD9188327
_publ_section_title
;
Structure prediction by ZEFSAII (Michael W. Deem and Ramdas Pophale) SiO2 
 PCOD9188327
Probable space group: C 2/M
;
_chemical_formula_sum "Si O2"
_cell_formula_units_Z 40
_cell_length_a 13.914209
_cell_length_b 15.555937
_cell_length_c 18.897127
_cell_angle_alpha 90.000000
_cell_angle_beta 150.919549
_cell_angle_gamma 90.000000
_cell_volume 1988.016631
_symmetry_space_group_name_H-M "C 2/M"
_symmetry_group_IT_number 12
_symmetry_cell_setting 'monoclinic'
loop_
_space_group_symop_operation_xyz
x,y,z
-x,y,-z
-x,-y,-z
x,-y,z
1/2+x,1/2+y,z
1/2-x,1/2+y,-z
1/2-x,1/2-y,-z
1/2+x,1/2-y,z
loop_
_atom_site_type_symbol
_atom_site_label
_atom_site_fract_x
_atom_site_fract_y
_atom_site_fract_z
Si Si1 0.126004 0.097653 0.153006
Si Si2 0.633921 0.906147 0.017552
Si Si3 0.538007 0.686846 0.325974
Si Si4 0.516177 0.239481 0.848355
Si Si5 0.466188 0.172134 0.563724
O O1 0.359141 0.113225 0.292843
O O2 0.066385 0.175508 0.166570
O O3 0.092189 0.000000 0.157381
O O4 0.000000 0.108332 0.000000
O O5 0.843962 0.865545 0.177434
O O6 0.672210 0.000000 0.010698
O O7 0.500000 0.913200 0.000000
O O8 0.498817 0.847495 0.880070
O O9 0.553545 0.762382 0.276671
O O10 0.513740 0.734181 0.385343
O O11 0.747858 0.640636 0.447173
O O12 0.750000 0.250000 0.000000
O O13 0.500000 0.175586 0.500000
#
# Coordination Sequence:
#
# PCOD9188327 Si02
#       5
#     8   8   8   8   8
#     4  11  23  39  62  93 129 167 209 262 320 379
#     4  10  21  37  63  93 127 169 217 264 309 372
#     4  10  22  38  64  92 124 169 219 256 319 378
#     4  10  19  36  58  89 121 161 204 259 308 372
#     4  11  22  41  63  94 125 172 209 259 320 382
#
# _framework density 20.120556000000001
#
# number of rings (size 3 to 8) (size 9 to 14) (size 15 to 20)
#    0.000    1.600    2.000    4.200    0.000    4.400 
#    0.000    1.000    0.000    1.800    0.000    0.000 
#    0.000    0.000    0.000    0.000    0.000    0.000 
#
# Total GULP energy -111389.723723 kJ/mol
# GULP energy per Si atom -5569.486186 kJ/mol
# Density = 2.007476 g / cm^3
# Si number density = 20.120556 Si / 1000 Ang^3
#
#
#
# Elastic Constant Matrix: (Units=GPa)
#
#
# Indices 1 2 3 4 5 6 
#
# 1 67.1262 31.7512 32.4814 0.0114 -0.0583 0.0366
# 2 31.7512 103.6161 36.3004 0.0087 -2.2621 0.0324
# 3 32.4814 36.3004 127.4702 0.0397 10.1386 0.1406
# 4 0.0114 0.0087 0.0397 80.0235 0.0024 243.1967
# 5 -0.0583 -2.2621 10.1386 0.0024 37.6946 0.0066
# 6 0.0366 0.0324 0.1406 243.1967 0.0066 686.1077
#
#
#
# Elastic Compliance Matrix: (Units=1/GPa)
#
#
# Indices 1 2 3 4 5 6 
#
# 1 0.018738 -0.004481 -0.003556 0.000003 0.000716 -0.000001
# 2 -0.004481 0.011875 -0.002346 0.000000 0.001337 0.000000
# 3 -0.003556 -0.002346 0.009637 -0.000014 -0.002738 0.000003
# 4 0.000003 0.000000 -0.000014 -0.161821 0.000004 0.057359
# 5 0.000716 0.001337 -0.002738 0.000004 0.027347 -0.000001
# 6 -0.000001 0.000000 0.000003 0.057359 -0.000001 -0.018874
#
#
# Mechanical properties :
#
#
# Convention : Reuss Voigt Hill
#
# Bulk Modulus (GPa) = 51.32217 55.47540 53.39879
# Shear Modulus (GPa) = -58.24939 173.94377 57.84719
#
# Velocity S-wave (km/s) = -5.38638 9.30798 5.36775
# Velocity P-wave (km/s) = 3.62234 11.96450 8.06312
#
# Compressibility (1/GPa) = 0.01948476
#
# Stress axis : x y z
#
# Youngs Moduli (GPa) = 53.36802 84.20918 103.76647
#
# Poissons Ratio (x) = 0.37730 0.36897
# Poissons Ratio (y) = 0.23912 0.24348
# Poissons Ratio (z) = 0.18976 0.19759
#
# Static dielectric constant tensor:
#      x y z
#    x 1.767220 0.000000 -0.001860 
#    y 0.000000 1.855260 0.000000 
#    z -0.001860 0.000000 1.777450 
# 
# From -- ./inp_files/310627.got.cif
#   From: 2010.05.17/outbox.cif.g08.bks.cpg/sg12_156_cif.got.tgz:310627.got - 2010.06.03 13:09:07.
