data_PCOD9188624
_publ_section_title
;
Structure prediction by ZEFSAII (Michael W. Deem and Ramdas Pophale) SiO2 
 PCOD9188624
Probable space group: C 2/M
;
_chemical_formula_sum "Si O2"
_cell_formula_units_Z 58
_cell_length_a 19.493235
_cell_length_b 7.522589
_cell_length_c 22.326875
_cell_angle_alpha 90.000000
_cell_angle_beta 41.261449
_cell_angle_gamma 90.000000
_cell_volume 2159.192604
_symmetry_space_group_name_H-M "C 2/M"
_symmetry_group_IT_number 12
_symmetry_cell_setting 'monoclinic'
loop_
_space_group_symop_operation_xyz
x,y,z
-x,y,-z
-x,-y,-z
x,-y,z
1/2+x,1/2+y,z
1/2-x,1/2+y,-z
1/2-x,1/2-y,-z
1/2+x,1/2-y,z
loop_
_atom_site_type_symbol
_atom_site_label
_atom_site_fract_x
_atom_site_fract_y
_atom_site_fract_z
Si Si1 0.851672 0.783220 0.646691
Si Si2 0.635559 0.783236 0.752352
Si Si3 0.330562 0.800341 0.101760
Si Si4 0.623640 0.801153 0.628591
Si Si5 0.103530 0.792376 0.069873
Si Si6 0.072630 0.210896 0.534575
Si Si7 0.885213 0.784969 0.803434
Si Si8 0.000000 0.000000 0.000000
O O1 0.731566 0.728666 0.731332
O O2 0.953232 0.721169 0.616193
O O3 0.879901 0.731540 0.559512
O O4 0.849710 0.000000 0.652606
O O5 0.655480 0.716188 0.670938
O O6 0.521766 0.720196 0.845317
O O7 0.631448 0.000000 0.752646
O O8 0.209076 0.746230 0.179402
O O9 0.343403 0.000000 0.118695
O O10 0.355804 0.811183 0.013666
O O11 0.411859 0.655691 0.069340
O O12 0.639323 0.741775 0.550163
O O13 0.497334 0.795017 0.716572
O O14 0.663692 0.000000 0.605081
O O15 0.141242 0.733261 0.110554
O O16 0.128600 0.000000 0.043377
O O17 0.063597 0.000000 0.535289
O O18 0.898179 0.000000 0.794175
#
# Coordination Sequence:
#
# PCOD9188624 Si02
#       8
#     8   8   8   8   8   8   8   2
#     4   8  16  33  55  75  99 139 190 234 276 339
#     4   9  18  34  53  78 110 144 185 234 286 346
#     4  11  23  42  63  86 118 162 199 238 298 346
#     4  10  20  32  51  80 114 144 177 230 290 343
#     4  10  19  36  60  88 116 145 191 247 293 345
#     4   9  17  33  55  75 100 140 188 233 279 341
#     4   9  20  37  61  86 111 146 194 242 289 347
#     4  12  26  44  60  86 128 156 196 254 276 358
#
# _framework density 26.861892999999998
#
# number of rings (size 3 to 8) (size 9 to 14) (size 15 to 20)
#    0.000    2.483    0.690    2.276    0.966    1.655 
#    2.483    2.759    0.000    0.000    0.000    0.000 
#    0.000    0.000    0.000    0.000    0.000    0.000 
#
# Total GULP energy -162026.246292 kJ/mol
# GULP energy per Si atom -5587.111941 kJ/mol
# Density = 2.680075 g / cm^3
# Si number density = 26.861893 Si / 1000 Ang^3
#
#
#
# Elastic Constant Matrix: (Units=GPa)
#
#
# Indices 1 2 3 4 5 6 
#
# 1 173.4721 18.8251 27.3324 -0.0005 -14.7847 -0.0005
# 2 18.8251 98.3077 5.2827 -0.0025 -11.1547 -0.0023
# 3 27.3324 5.2827 69.5445 0.0005 -8.3735 0.0001
# 4 -0.0005 -0.0025 0.0005 11.3782 0.0000 -3.2590
# 5 -14.7847 -11.1547 -8.3735 0.0000 60.6653 0.0002
# 6 -0.0005 -0.0023 0.0001 -3.2590 0.0002 22.2046
#
#
#
# Elastic Compliance Matrix: (Units=1/GPa)
#
#
# Indices 1 2 3 4 5 6 
#
# 1 0.006319 -0.000969 -0.002284 0.000000 0.001047 0.000000
# 2 -0.000969 0.010560 -0.000220 0.000003 0.001675 0.000001
# 3 -0.002284 -0.000220 0.015479 -0.000001 0.001540 0.000000
# 4 0.000000 0.000003 -0.000001 0.091744 0.000000 0.013465
# 5 0.001047 0.001675 0.001540 0.000000 0.017259 0.000000
# 6 0.000000 0.000001 0.000000 0.013465 0.000000 0.047012
#
#
# Mechanical properties :
#
#
# Convention : Reuss Voigt Hill
#
# Bulk Modulus (GPa) = 39.34992 49.35608 44.35300
# Shear Modulus (GPa) = 24.53531 38.17523 31.35527
#
# Velocity S-wave (km/s) = 3.02551 3.77393 3.42025
# Velocity P-wave (km/s) = 5.18514 6.11588 5.66964
#
# Compressibility (1/GPa) = 0.02541301
#
# Stress axis : x y z
#
# Youngs Moduli (GPa) = 158.25893 94.70144 64.60396
#
# Poissons Ratio (x) = 0.09172 0.14754
# Poissons Ratio (y) = 0.15327 0.01420
# Poissons Ratio (z) = 0.36143 0.02081
#
# Static dielectric constant tensor:
#      x y z
#    x 2.139250 0.000000 0.064770 
#    y 0.000000 2.058760 0.000000 
#    z 0.064770 0.000000 2.175330 
# 
# From -- ./inp_files/346487.got.cif
#   From: 2010.05.17/outbox.cif.g08.bks.cpg/sg12_174_cif.got.tgz:346487.got - 2010.06.03 13:09:07.
