data_PCOD9188828
_publ_section_title
;
Structure prediction by ZEFSAII (Michael W. Deem and Ramdas Pophale) SiO2 
 PCOD9188828
Probable space group: C 2/M
;
_chemical_formula_sum "Si O2"
_cell_formula_units_Z 48
_cell_length_a 16.847588
_cell_length_b 17.239769
_cell_length_c 7.318925
_cell_angle_alpha 90.000000
_cell_angle_beta 113.753073
_cell_angle_gamma 90.000000
_cell_volume 1945.696652
_symmetry_space_group_name_H-M "C 2/M"
_symmetry_group_IT_number 12
_symmetry_cell_setting 'monoclinic'
loop_
_space_group_symop_operation_xyz
x,y,z
-x,y,-z
-x,-y,-z
x,-y,z
1/2+x,1/2+y,z
1/2-x,1/2+y,-z
1/2-x,1/2-y,-z
1/2+x,1/2-y,z
loop_
_atom_site_type_symbol
_atom_site_label
_atom_site_fract_x
_atom_site_fract_y
_atom_site_fract_z
Si Si1 0.242400 0.588281 0.600263
Si Si2 0.894515 0.645777 0.057324
Si Si3 0.287640 0.588897 0.207082
Si Si4 0.052333 0.203293 0.705252
Si Si5 0.572358 0.588020 0.220557
Si Si6 0.930903 0.592151 0.678771
O O1 0.237003 0.500000 0.663861
O O2 0.261483 0.588715 0.398089
O O3 0.334117 0.618490 0.761133
O O4 0.146565 0.624601 0.522172
O O5 0.912937 0.735063 0.117551
O O6 0.966112 0.601114 0.245955
O O7 0.795721 0.617464 0.986040
O O8 0.914130 0.628918 0.862690
O O9 0.310008 0.500000 0.177665
O O10 0.367040 0.647400 0.261070
O O11 0.973139 0.147515 0.688585
O O12 0.000000 0.249838 0.500000
O O13 0.584828 0.500000 0.306297
O O14 0.500000 0.581869 0.000000
O O15 0.914270 0.500000 0.676643
#
# Coordination Sequence:
#
# PCOD9188828 Si02
#       6
#     8   8   8   8   8   8
#     4   8  15  31  57  87 110 140 198 250 288 334
#     4  10  20  34  56  89 120 147 193 249 298 345
#     4  10  19  36  62  85 111 158 209 247 279 347
#     4  12  24  37  56  84 129 165 193 232 302 367
#     4  10  21  37  58  85 118 157 205 253 288 340
#     4   9  17  35  65  89 111 153 205 251 289 348
#
# _framework density 24.669827999999999
#
# number of rings (size 3 to 8) (size 9 to 14) (size 15 to 20)
#    0.000    2.167    1.667    4.000    2.333    0.667 
#    0.000    4.167    0.000    6.500    0.000    0.000 
#    0.000    0.000    0.000    0.000    0.000    0.000 
#
# Total GULP energy -133941.634647 kJ/mol
# GULP energy per Si atom -5580.901444 kJ/mol
# Density = 2.461368 g / cm^3
# Si number density = 24.669828 Si / 1000 Ang^3
#
#
#
# Elastic Constant Matrix: (Units=GPa)
#
#
# Indices 1 2 3 4 5 6 
#
# 1 127.1104 32.7250 55.8916 0.0000 53.3424 0.0000
# 2 32.7250 86.9535 30.3883 0.0000 16.9438 0.0000
# 3 55.8916 30.3883 133.0769 0.0000 67.8257 0.0000
# 4 0.0000 0.0000 0.0000 14.2402 0.0000 10.9919
# 5 53.3424 16.9438 67.8257 0.0000 58.7396 0.0000
# 6 0.0000 0.0000 0.0000 10.9919 0.0000 39.6633
#
#
#
# Elastic Compliance Matrix: (Units=1/GPa)
#
#
# Indices 1 2 3 4 5 6 
#
# 1 0.013548 -0.003130 0.002029 0.000000 -0.013744 0.000000
# 2 -0.003130 0.013235 -0.002942 0.000000 0.002422 0.000000
# 3 0.002029 -0.002942 0.019054 0.000000 -0.022996 0.000000
# 4 0.000000 0.000000 0.000000 0.089334 0.000000 -0.024757
# 5 -0.013744 0.002422 -0.022996 0.000000 0.055360 0.000000
# 6 0.000000 0.000000 0.000000 -0.024757 0.000000 0.032073
#
#
# Mechanical properties :
#
#
# Convention : Reuss Voigt Hill
#
# Bulk Modulus (GPa) = 26.48820 65.01671 45.75245
# Shear Modulus (GPa) = 20.55299 37.73767 29.14533
#
# Velocity S-wave (km/s) = 2.88952 3.91539 3.44090
# Velocity P-wave (km/s) = 4.67898 6.84488 5.86281
#
# Compressibility (1/GPa) = 0.03775266
#
# Stress axis : x y z
#
# Youngs Moduli (GPa) = 73.80961 75.55955 52.48121
#
# Poissons Ratio (x) = 0.23650 -0.10651
# Poissons Ratio (y) = 0.23103 0.15439
# Poissons Ratio (z) = -0.14979 0.22228
#
# Static dielectric constant tensor:
#      x y z
#    x 2.072350 0.000000 -0.106240 
#    y 0.000000 1.937400 0.000000 
#    z -0.106240 0.000000 2.186680 
# 
# From -- ./inp_files/88161.got.cif
#   From: 2010.05.17/outbox.cif.g08.bks.cpg/sg12_45_cif.got.tgz:88161.got - 2010.06.03 13:09:07.
