data_PCOD9188239
_publ_section_title
;
Structure prediction by ZEFSAII (Michael W. Deem and Ramdas Pophale) SiO2 
 PCOD9188239
Probable space group: C 2/M
;
_chemical_formula_sum "Si O2"
_cell_formula_units_Z 56
_cell_length_a 19.622854
_cell_length_b 8.240609
_cell_length_c 25.291108
_cell_angle_alpha 90.000000
_cell_angle_beta 45.423708
_cell_angle_gamma 90.000000
_cell_volume 2913.146704
_symmetry_space_group_name_H-M "C 2/M"
_symmetry_group_IT_number 12
_symmetry_cell_setting 'monoclinic'
loop_
_space_group_symop_operation_xyz
x,y,z
-x,y,-z
-x,-y,-z
x,-y,z
1/2+x,1/2+y,z
1/2-x,1/2+y,-z
1/2-x,1/2-y,-z
1/2+x,1/2-y,z
loop_
_atom_site_type_symbol
_atom_site_label
_atom_site_fract_x
_atom_site_fract_y
_atom_site_fract_z
Si Si1 0.548093 0.185122 0.329642
Si Si2 0.742085 0.301167 0.759694
Si Si3 0.575629 0.180504 0.188601
Si Si4 0.343238 0.195593 0.417892
Si Si5 0.872053 0.806046 0.282675
Si Si6 0.105730 0.190912 0.930097
Si Si7 0.236057 0.682937 0.949251
O O1 0.648285 0.258788 0.294745
O O2 0.559543 0.176158 0.260046
O O3 0.441520 0.257763 0.392614
O O4 0.543992 0.000000 0.353137
O O5 0.746633 0.500000 0.761851
O O6 0.698317 0.260192 0.726597
O O7 0.670694 0.244779 0.845788
O O8 0.475560 0.226457 0.217016
O O9 0.658271 0.306591 0.132503
O O10 0.607022 0.000000 0.154739
O O11 0.250000 0.250000 0.500000
O O12 0.339944 0.255007 0.358957
O O13 0.349388 0.000000 0.413439
O O14 0.882971 0.000000 0.275983
O O15 0.167684 0.212537 0.949226
O O16 0.092399 0.000000 0.925618
O O17 0.000000 0.260246 0.000000
O O18 0.199666 0.500000 0.969695
O O19 0.250000 0.750000 0.000000
#
# Coordination Sequence:
#
# PCOD9188239 Si02
#       7
#     8   8   8   8   8   8   8
#     4   8  15  31  57  81 103 140 186 222 268 331
#     4   9  17  33  56  83 114 149 189 231 276 340
#     4  10  19  36  58  79 108 147 189 237 284 337
#     4  10  20  36  59  84 113 148 188 236 286 340
#     4  10  20  33  56  88 118 148 187 230 276 340
#     4  10  21  38  60  84 115 155 193 237 295 349
#     4  12  25  39  56  80 110 147 195 248 298 348
#
# _framework density 19.223199999999999
#
# number of rings (size 3 to 8) (size 9 to 14) (size 15 to 20)
#    0.000    2.143    1.429    3.429    2.000    0.286 
#    0.000    2.143    0.000    4.286    0.000    0.000 
#    0.000    0.000    0.000    0.000    0.000    0.000 
#
# Total GULP energy -156074.094434 kJ/mol
# GULP energy per Si atom -5574.074801 kJ/mol
# Density = 1.917945 g / cm^3
# Si number density = 19.223200 Si / 1000 Ang^3
#
#
#
# Elastic Constant Matrix: (Units=GPa)
#
#
# Indices 1 2 3 4 5 6 
#
# 1 161.2444 1.0939 55.6306 0.0000 -24.0510 0.0005
# 2 1.0939 28.4784 -4.0537 0.0001 -0.6949 0.0008
# 3 55.6306 -4.0537 84.8077 0.0000 -24.9200 0.0001
# 4 0.0000 0.0001 0.0000 20.1587 0.0000 0.6887
# 5 -24.0510 -0.6949 -24.9200 0.0000 28.6754 0.0000
# 6 0.0005 0.0008 0.0001 0.6887 0.0000 23.0697
#
#
#
# Elastic Compliance Matrix: (Units=1/GPa)
#
#
# Indices 1 2 3 4 5 6 
#
# 1 0.008221 -0.000898 -0.004587 0.000000 0.002887 0.000000
# 2 -0.000898 0.035663 0.003124 0.000000 0.002826 -0.000001
# 3 -0.004587 0.003124 0.018588 0.000000 0.012382 0.000000
# 4 0.000000 0.000000 0.000000 0.049657 0.000000 -0.001483
# 5 0.002887 0.002826 0.012382 0.000000 0.048123 0.000000
# 6 0.000000 -0.000001 0.000000 -0.001483 0.000000 0.043391
#
#
# Mechanical properties :
#
#
# Convention : Reuss Voigt Hill
#
# Bulk Modulus (GPa) = 17.31634 42.20802 29.76218
# Shear Modulus (GPa) = 21.96680 29.17140 25.56910
#
# Velocity S-wave (km/s) = 3.38409 3.89975 3.65103
# Velocity P-wave (km/s) = 4.92920 6.50245 5.76970
#
# Compressibility (1/GPa) = 0.05774894
#
# Stress axis : x y z
#
# Youngs Moduli (GPa) = 121.63729 28.04064 53.79751
#
# Poissons Ratio (x) = 0.02519 0.24679
# Poissons Ratio (y) = 0.10927 -0.16808
# Poissons Ratio (z) = 0.55800 -0.08761
#
# Static dielectric constant tensor:
#      x y z
#    x 1.672690 0.000000 -0.023060 
#    y 0.000000 1.708550 0.000000 
#    z -0.023060 0.000000 1.697410 
# 
# From -- ./inp_files/342201.got.cif
#   From: 2010.05.17/outbox.cif.g08.bks.cpg/sg12_172_cif.got.tgz:342201.got - 2010.06.03 13:09:07.
