data_PCOD9188853
_publ_section_title
;
Structure prediction by ZEFSAII (Michael W. Deem and Ramdas Pophale) SiO2 
 PCOD9188853
Probable space group: C 2/M
;
_chemical_formula_sum "Si O2"
_cell_formula_units_Z 58
_cell_length_a 18.320525
_cell_length_b 12.447977
_cell_length_c 26.726060
_cell_angle_alpha 90.000000
_cell_angle_beta 151.171596
_cell_angle_gamma 90.000000
_cell_volume 2938.922024
_symmetry_space_group_name_H-M "C 2/M"
_symmetry_group_IT_number 12
_symmetry_cell_setting 'monoclinic'
loop_
_space_group_symop_operation_xyz
x,y,z
-x,y,-z
-x,-y,-z
x,-y,z
1/2+x,1/2+y,z
1/2-x,1/2+y,-z
1/2-x,1/2-y,-z
1/2+x,1/2-y,z
loop_
_atom_site_type_symbol
_atom_site_label
_atom_site_fract_x
_atom_site_fract_y
_atom_site_fract_z
Si Si1 0.853770 0.687249 0.470536
Si Si2 0.500000 0.000000 0.500000
Si Si3 0.741635 0.125327 0.333295
Si Si4 0.625928 0.622075 0.116536
Si Si5 0.917635 0.716905 0.162943
Si Si6 0.630801 0.723598 0.692280
Si Si7 0.875227 0.881838 0.047545
Si Si8 0.966435 0.124349 0.683064
O O1 0.825753 0.798257 0.423995
O O2 0.709849 0.657375 0.418119
O O3 0.880562 0.593953 0.446562
O O4 0.005735 0.696759 0.593920
O O5 0.564026 0.145131 0.238280
O O6 0.784329 0.167105 0.303292
O O7 0.779590 0.000000 0.361137
O O8 0.679762 0.500000 0.137094
O O9 0.755675 0.707587 0.205118
O O10 0.529883 0.616281 0.109851
O O11 0.500000 0.653362 0.000000
O O12 0.893789 0.797004 0.102304
O O13 0.951447 0.792371 0.230340
O O14 0.763461 0.649368 0.072270
O O15 0.538155 0.642052 0.671664
O O16 0.843871 0.000000 0.049525
O O17 0.983406 0.000000 0.708347
#
# Coordination Sequence:
#
# PCOD9188853 Si02
#       8
#     8   2   8   8   8   8   8   8
#     4  11  25  42  68  98 124 167 213 271 315 376
#     4  12  20  44  70  96 130 152 224 278 308 356
#     4  11  23  41  64  96 131 169 211 255 316 386
#     4  10  22  38  61  92 125 163 211 267 323 378
#     4  10  21  38  61  92 121 164 215 265 313 378
#     4  12  23  41  62  94 127 171 209 254 319 386
#     4  10  19  36  62  88 120 160 212 271 321 367
#     4  11  24  41  61  88 131 165 208 259 321 384
#
# _framework density 19.735126999999999
#
# number of rings (size 3 to 8) (size 9 to 14) (size 15 to 20)
#    0.000    1.241    3.448    2.483    0.966    1.655 
#    2.483    2.759    0.000    1.655    0.000    0.000 
#    0.000    0.000    0.000    0.000    0.000    0.000 
#
# Total GULP energy -161681.244866 kJ/mol
# GULP energy per Si atom -5575.215340 kJ/mol
# Density = 1.969021 g / cm^3
# Si number density = 19.735127 Si / 1000 Ang^3
#
#
#
# Elastic Constant Matrix: (Units=GPa)
#
#
# Indices 1 2 3 4 5 6 
#
# 1 84.2639 22.6429 12.5315 0.0001 12.4865 0.0000
# 2 22.6429 119.8926 37.6092 0.0012 7.6039 0.0001
# 3 12.5315 37.6092 70.7197 0.0016 7.9592 0.0007
# 4 0.0001 0.0012 0.0016 13.3834 0.0000 13.3661
# 5 12.4865 7.6039 7.9592 0.0000 27.0942 0.0000
# 6 0.0000 0.0001 0.0007 13.3661 0.0000 -1.5630
#
#
#
# Elastic Compliance Matrix: (Units=1/GPa)
#
#
# Indices 1 2 3 4 5 6 
#
# 1 0.013292 -0.001945 -0.000717 0.000000 -0.005369 0.000000
# 2 -0.001945 0.010339 -0.005097 0.000000 -0.000508 0.000000
# 3 -0.000717 -0.005097 0.017353 -0.000001 -0.003337 -0.000001
# 4 0.000000 0.000000 -0.000001 0.007832 0.000000 0.066974
# 5 -0.005369 -0.000508 -0.003337 0.000000 0.040506 0.000000
# 6 0.000000 0.000000 -0.000001 0.066974 0.000000 -0.067061
#
#
# Mechanical properties :
#
#
# Convention : Reuss Voigt Hill
#
# Bulk Modulus (GPa) = 39.26470 46.71596 42.99033
# Shear Modulus (GPa) = 108.06683 21.25574 64.66128
#
# Velocity S-wave (km/s) = 7.40793 3.28541 5.73024
# Velocity P-wave (km/s) = 9.64930 6.17371 8.10012
#
# Compressibility (1/GPa) = 0.02546817
#
# Stress axis : x y z
#
# Youngs Moduli (GPa) = 75.23105 96.72018 57.62590
#
# Poissons Ratio (x) = 0.18812 0.04130
# Poissons Ratio (y) = 0.14633 0.29369
# Poissons Ratio (z) = 0.05392 0.49294
#
# Static dielectric constant tensor:
#      x y z
#    x 1.705540 0.000000 -0.002430 
#    y 0.000000 1.679850 0.000000 
#    z -0.002430 0.000000 1.699550 
# 
# From -- ./inp_files/293312.got.cif
#   From: 2010.05.17/outbox.cif.g08.bks.cpg/sg12_147_cif.got.tgz:293312.got - 2010.06.03 13:09:07.
