data_PCOD9188588
_publ_section_title
;
Structure prediction by ZEFSAII (Michael W. Deem and Ramdas Pophale) SiO2 
 PCOD9188588
Probable space group: C 2/M
;
_chemical_formula_sum "Si O2"
_cell_formula_units_Z 52
_cell_length_a 10.945647
_cell_length_b 20.870104
_cell_length_c 20.884165
_cell_angle_alpha 90.000000
_cell_angle_beta 146.730632
_cell_angle_gamma 90.000000
_cell_volume 2617.097396
_symmetry_space_group_name_H-M "C 2/M"
_symmetry_group_IT_number 12
_symmetry_cell_setting 'monoclinic'
loop_
_space_group_symop_operation_xyz
x,y,z
-x,y,-z
-x,-y,-z
x,-y,z
1/2+x,1/2+y,z
1/2-x,1/2+y,-z
1/2-x,1/2-y,-z
1/2+x,1/2-y,z
loop_
_atom_site_type_symbol
_atom_site_label
_atom_site_fract_x
_atom_site_fract_y
_atom_site_fract_z
Si Si1 0.934676 0.681815 0.217840
Si Si2 0.949650 0.838958 0.622272
Si Si3 0.476786 0.797993 0.382769
Si Si4 0.978936 0.179488 0.199302
Si Si5 0.742248 0.928728 0.012614
Si Si6 0.812370 0.427073 0.746033
Si Si7 0.500000 0.611762 0.000000
O O1 0.019659 0.696802 0.325716
O O2 0.684668 0.656060 0.113605
O O3 0.930207 0.744508 0.170717
O O4 0.080897 0.624659 0.254276
O O5 0.023733 0.779222 0.609227
O O6 0.061041 0.904105 0.647303
O O7 0.683567 0.831550 0.507952
O O8 0.046193 0.831511 0.735949
O O9 0.239628 0.827188 0.296232
O O10 0.832321 0.129733 0.094725
O O11 0.781630 0.000000 0.057560
O O12 0.480206 0.922679 0.880750
O O13 0.872679 0.925189 0.001150
O O14 0.824834 0.500000 0.728826
#
# Coordination Sequence:
#
# PCOD9188588 Si02
#       7
#     8   8   8   8   8   8   4
#     4  10  21  36  61  90 118 153 201 245 300 343
#     4  10  22  37  61  84 120 157 198 238 301 352
#     4  10  20  39  59  88 116 154 199 252 286 348
#     4  11  21  37  62  89 119 153 197 249 296 355
#     4  10  22  38  61  87 119 159 198 244 301 356
#     4  10  22  41  60  87 123 157 197 244 297 358
#     4  10  19  36  60  86 117 154 194 252 291 354
#
# _framework density 19.869340999999999
#
# number of rings (size 3 to 8) (size 9 to 14) (size 15 to 20)
#    0.000    1.846    3.077    0.692    0.000    7.385 
#    0.000    3.846    0.000    1.846    0.000    0.000 
#    0.000    0.000    0.000    0.000    0.000    0.000 
#
# Total GULP energy -144958.956057 kJ/mol
# GULP energy per Si atom -5575.344464 kJ/mol
# Density = 1.982412 g / cm^3
# Si number density = 19.869341 Si / 1000 Ang^3
#
#
#
# Elastic Constant Matrix: (Units=GPa)
#
#
# Indices 1 2 3 4 5 6 
#
# 1 23.1366 26.3035 6.4557 0.0003 5.8395 -0.0017
# 2 26.3035 138.1653 35.9074 0.0001 3.4750 0.0005
# 3 6.4557 35.9074 54.3954 0.0000 7.7615 -0.0007
# 4 0.0003 0.0001 0.0000 25.9442 0.0004 15.7613
# 5 5.8395 3.4750 7.7615 0.0004 30.3305 -0.0022
# 6 -0.0017 0.0005 -0.0007 15.7613 -0.0022 -107.7272
#
#
#
# Elastic Compliance Matrix: (Units=1/GPa)
#
#
# Indices 1 2 3 4 5 6 
#
# 1 0.058184 -0.011355 0.002079 0.000000 -0.010433 -0.000001
# 2 -0.011355 0.010960 -0.006248 0.000000 0.002529 0.000000
# 3 0.002079 -0.006248 0.023058 0.000000 -0.005585 0.000000
# 4 0.000000 0.000000 0.000000 0.035398 0.000000 0.005179
# 5 -0.010433 0.002529 -0.005585 0.000000 0.036118 -0.000001
# 6 -0.000001 0.000000 0.000000 0.005179 -0.000001 -0.008525
#
#
# Mechanical properties :
#
#
# Convention : Reuss Voigt Hill
#
# Bulk Modulus (GPa) = 16.35217 39.22564 27.78891
# Shear Modulus (GPa) = 24.19844 -0.48845 11.85499
#
# Velocity S-wave (km/s) = 3.49360 -0.49635 2.44529
# Velocity P-wave (km/s) = 4.95190 4.41091 4.68922
#
# Compressibility (1/GPa) = 0.06115396
#
# Stress axis : x y z
#
# Youngs Moduli (GPa) = 17.18699 91.24496 43.36804
#
# Poissons Ratio (x) = 1.03606 -0.09015
# Poissons Ratio (y) = 0.19515 0.27096
# Poissons Ratio (z) = -0.03573 0.57009
#
# Static dielectric constant tensor:
#      x y z
#    x 1.724280 0.000000 -0.006830 
#    y 0.000000 1.713180 0.000000 
#    z -0.006830 0.000000 1.707040 
# 
# From -- ./inp_files/306925.got.cif
#   From: 2010.05.17/outbox.cif.g08.bks.cpg/sg12_154_cif.got.tgz:306925.got - 2010.06.03 13:09:07.
