data_PCOD9188390
_publ_section_title
;
Structure prediction by ZEFSAII (Michael W. Deem and Ramdas Pophale) SiO2 
 PCOD9188390
Probable space group: C 2/M
;
_chemical_formula_sum "Si O2"
_cell_formula_units_Z 36
_cell_length_a 14.333333
_cell_length_b 16.208074
_cell_length_c 22.437929
_cell_angle_alpha 90.000000
_cell_angle_beta 158.410950
_cell_angle_gamma 90.000000
_cell_volume 1917.990554
_symmetry_space_group_name_H-M "C 2/M"
_symmetry_group_IT_number 12
_symmetry_cell_setting 'monoclinic'
loop_
_space_group_symop_operation_xyz
x,y,z
-x,y,-z
-x,-y,-z
x,-y,z
1/2+x,1/2+y,z
1/2-x,1/2+y,-z
1/2-x,1/2-y,-z
1/2+x,1/2-y,z
loop_
_atom_site_type_symbol
_atom_site_label
_atom_site_fract_x
_atom_site_fract_y
_atom_site_fract_z
Si Si1 0.695831 0.226247 0.569627
Si Si2 0.538992 0.000000 0.213886
Si Si3 0.959916 0.167483 0.323813
Si Si4 0.061427 0.000000 0.449020
Si Si5 0.645011 0.181110 0.890694
Si Si6 0.000000 0.247823 0.000000
O O1 0.500000 0.187572 0.500000
O O2 0.554982 0.267640 0.430061
O O3 0.905549 0.172547 0.660750
O O4 0.857520 0.293381 0.702465
O O5 0.666993 0.000000 0.356022
O O6 0.380408 0.084236 0.107902
O O7 0.803467 0.000000 0.334833
O O8 0.032404 0.080780 0.392988
O O9 0.671462 0.192452 0.141995
O O10 0.750000 0.250000 0.000000
O O11 0.819707 0.193453 0.935558
#
# Coordination Sequence:
#
# PCOD9188390 Si02
#       6
#     8   4   8   4   8   4
#     4  10  19  36  59  82 114 157 202 236 290 353
#     4  11  22  35  62  88 119 155 195 251 291 349
#     4  10  21  35  59  87 117 156 196 247 291 352
#     4  11  20  37  57  90 118 145 206 245 293 350
#     4  11  22  38  60  89 119 156 198 242 298 352
#     4  10  22  38  58  86 120 158 196 235 298 349
#
# _framework density 18.769642999999999
#
# number of rings (size 3 to 8) (size 9 to 14) (size 15 to 20)
#    0.000    1.556    2.222    4.000    0.000    0.889 
#    0.000    5.000    0.000    0.000    0.000    0.000 
#    0.000    0.000    0.000    0.000    0.000    0.000 
#
# Total GULP energy -100256.461183 kJ/mol
# GULP energy per Si atom -5569.803399 kJ/mol
# Density = 1.872692 g / cm^3
# Si number density = 18.769643 Si / 1000 Ang^3
#
#
#
# Elastic Constant Matrix: (Units=GPa)
#
#
# Indices 1 2 3 4 5 6 
#
# 1 76.5905 9.6243 -2.3497 -0.0008 14.9678 0.0001
# 2 9.6243 85.1504 11.4088 0.0174 -8.3637 0.0037
# 3 -2.3497 11.4088 82.0522 0.0100 -12.1991 0.0035
# 4 -0.0008 0.0174 0.0100 13.1238 0.0034 -9.4961
# 5 14.9678 -8.3637 -12.1991 0.0034 32.7886 -0.0038
# 6 0.0001 0.0037 0.0035 -9.4961 -0.0038 20.1872
#
#
#
# Elastic Compliance Matrix: (Units=1/GPa)
#
#
# Indices 1 2 3 4 5 6 
#
# 1 0.014807 -0.002361 -0.000362 0.000008 -0.007496 0.000003
# 2 -0.002361 0.012553 -0.001246 -0.000027 0.003816 -0.000014
# 3 -0.000362 -0.001246 0.013049 -0.000016 0.004703 -0.000009
# 4 0.000008 -0.000027 -0.000016 0.115515 -0.000023 0.054339
# 5 -0.007496 0.003816 0.004703 -0.000023 0.036644 -0.000005
# 6 0.000003 -0.000014 -0.000009 0.054339 -0.000005 0.075097
#
#
# Mechanical properties :
#
#
# Convention : Reuss Voigt Hill
#
# Bulk Modulus (GPa) = 30.79695 31.23999 31.01847
# Shear Modulus (GPa) = 17.45644 28.22722 22.84183
#
# Velocity S-wave (km/s) = 3.05296 3.88219 3.49227
# Velocity P-wave (km/s) = 5.37316 6.06426 5.72914
#
# Compressibility (1/GPa) = 0.03247075
#
# Stress axis : x y z
#
# Youngs Moduli (GPa) = 67.53524 79.66480 76.63221
#
# Poissons Ratio (x) = 0.18812 0.02775
# Poissons Ratio (y) = 0.15948 0.09545
# Poissons Ratio (z) = 0.02446 0.09923
#
# Static dielectric constant tensor:
#      x y z
#    x 1.708180 0.000000 0.009880 
#    y 0.000000 1.642780 -0.000010 
#    z 0.009880 -0.000010 1.681380 
# 
# From -- ./inp_files/141768.got.cif
#   From: 2010.05.17/outbox.cif.g08.bks.cpg/sg12_71_cif.got.tgz:141768.got - 2010.06.03 13:09:07.
