data_PCOD9188889
_publ_section_title
;
Structure prediction by ZEFSAII (Michael W. Deem and Ramdas Pophale) SiO2 
 PCOD9188889
Probable space group: C 2/M
;
_chemical_formula_sum "Si O2"
_cell_formula_units_Z 64
_cell_length_a 15.989484
_cell_length_b 29.419785
_cell_length_c 8.777972
_cell_angle_alpha 90.000000
_cell_angle_beta 44.427881
_cell_angle_gamma 90.000000
_cell_volume 2890.499884
_symmetry_space_group_name_H-M "C 2/M"
_symmetry_group_IT_number 12
_symmetry_cell_setting 'monoclinic'
loop_
_space_group_symop_operation_xyz
x,y,z
-x,y,-z
-x,-y,-z
x,-y,z
1/2+x,1/2+y,z
1/2-x,1/2+y,-z
1/2-x,1/2-y,-z
1/2+x,1/2-y,z
loop_
_atom_site_type_symbol
_atom_site_label
_atom_site_fract_x
_atom_site_fract_y
_atom_site_fract_z
Si Si1 0.544578 0.923610 0.099291
Si Si2 0.653547 0.816750 0.408983
Si Si3 0.564757 0.635630 0.264004
Si Si4 0.323466 0.279691 0.707546
Si Si5 0.593654 0.688944 0.742920
Si Si6 0.563174 0.182251 0.072977
Si Si7 0.878579 0.418255 0.577826
Si Si8 0.727084 0.548602 0.008329
O O1 0.590589 0.871614 0.023979
O O2 0.419264 0.919101 0.352873
O O3 0.500000 0.943694 0.000000
O O4 0.653377 0.948048 0.042658
O O5 0.654821 0.773564 0.296890
O O6 0.778374 0.817063 0.340648
O O7 0.536834 0.812396 0.667171
O O8 0.644182 0.866000 0.343788
O O9 0.500000 0.619381 0.500000
O O10 0.616213 0.684802 0.253636
O O11 0.477257 0.645793 0.236436
O O12 0.655455 0.595150 0.116708
O O13 0.367687 0.287181 0.471783
O O14 0.184836 0.290077 0.911358
O O15 0.500000 0.705146 0.000000
O O16 0.500000 0.195213 0.000000
O O17 0.000000 0.433798 0.500000
O O18 0.773767 0.448880 0.773841
O O19 0.667371 0.500000 0.116364
#
# Coordination Sequence:
#
# PCOD9188889 Si02
#       8
#     8   8   8   8   8   8   8   8
#     4   9  19  36  64  95 131 168 204 259 326 383
#     4  11  23  37  65  94 128 176 220 262 316 380
#     4  10  24  45  66  90 131 170 221 269 321 381
#     4  11  23  40  66  92 131 174 219 265 316 377
#     4  11  24  41  63  91 129 175 220 261 314 377
#     4  10  19  36  62  92 133 166 215 265 314 373
#     4   9  21  39  61  95 131 163 209 264 324 384
#     4  11  22  42  68  93 124 167 215 268 335 394
#
# _framework density 22.141500000000001
#
# number of rings (size 3 to 8) (size 9 to 14) (size 15 to 20)
#    0.000    1.750    2.500    1.125    1.750    4.250 
#    0.000    2.500    0.000    3.375    0.000    0.000 
#    0.000    0.000    0.000    0.000    0.000    0.000 
#
# Total GULP energy -178408.359188 kJ/mol
# GULP energy per Si atom -5575.261225 kJ/mol
# Density = 2.209110 g / cm^3
# Si number density = 22.141500 Si / 1000 Ang^3
#
#
#
# Elastic Constant Matrix: (Units=GPa)
#
#
# Indices 1 2 3 4 5 6 
#
# 1 82.5090 20.1669 31.9799 0.0000 -16.0422 0.0000
# 2 20.1669 107.9980 45.1875 0.0000 -5.7370 0.0000
# 3 31.9799 45.1875 122.7046 0.0000 -6.6343 0.0000
# 4 0.0000 0.0000 0.0000 21.2016 0.0000 -7.8255
# 5 -16.0422 -5.7370 -6.6343 0.0000 32.1256 0.0000
# 6 0.0000 0.0000 0.0000 -7.8255 0.0000 7.6008
#
#
#
# Elastic Compliance Matrix: (Units=1/GPa)
#
#
# Indices 1 2 3 4 5 6 
#
# 1 0.014881 -0.001129 -0.003106 0.000000 0.006588 0.000000
# 2 -0.001129 0.011073 -0.003749 0.000000 0.000639 0.000000
# 3 -0.003106 -0.003749 0.010335 0.000000 -0.000086 0.000000
# 4 0.000000 0.000000 0.000000 0.076076 0.000000 0.078325
# 5 0.006588 0.000639 -0.000086 0.000000 0.034514 0.000000
# 6 0.000000 0.000000 0.000000 0.078325 0.000000 0.212205
#
#
# Mechanical properties :
#
#
# Convention : Reuss Voigt Hill
#
# Bulk Modulus (GPa) = 49.21227 56.43113 52.82170
# Shear Modulus (GPa) = 13.09498 26.57743 19.83620
#
# Velocity S-wave (km/s) = 2.43456 3.46836 2.99638
# Velocity P-wave (km/s) = 5.49338 6.44835 5.98993
#
# Compressibility (1/GPa) = 0.02032014
#
# Stress axis : x y z
#
# Youngs Moduli (GPa) = 67.20123 90.31142 96.75740
#
# Poissons Ratio (x) = 0.10197 0.30056
# Poissons Ratio (y) = 0.07588 0.36273
# Poissons Ratio (z) = 0.20875 0.33856
#
# Static dielectric constant tensor:
#      x y z
#    x 1.825660 0.000000 0.009040 
#    y 0.000000 1.845680 0.000000 
#    z 0.009040 0.000000 1.973200 
# 
# From -- ./inp_files/80720.got.cif
#   From: 2010.05.17/outbox.cif.g08.bks.cpg/sg12_41_cif.got.tgz:80720.got - 2010.06.03 13:09:07.
