data_PCOD9188494
_publ_section_title
;
Structure prediction by ZEFSAII (Michael W. Deem and Ramdas Pophale) SiO2 
 PCOD9188494
Probable space group: C 2/M
;
_chemical_formula_sum "Si O2"
_cell_formula_units_Z 64
_cell_length_a 21.036367
_cell_length_b 8.537795
_cell_length_c 22.328849
_cell_angle_alpha 90.000000
_cell_angle_beta 117.928063
_cell_angle_gamma 90.000000
_cell_volume 3543.294200
_symmetry_space_group_name_H-M "C 2/M"
_symmetry_group_IT_number 12
_symmetry_cell_setting 'monoclinic'
loop_
_space_group_symop_operation_xyz
x,y,z
-x,y,-z
-x,-y,-z
x,-y,z
1/2+x,1/2+y,z
1/2-x,1/2+y,-z
1/2-x,1/2-y,-z
1/2+x,1/2-y,z
loop_
_atom_site_type_symbol
_atom_site_label
_atom_site_fract_x
_atom_site_fract_y
_atom_site_fract_z
Si Si1 0.925433 0.689723 0.842227
Si Si2 0.151880 0.187682 0.702171
Si Si3 0.775730 0.313359 0.447700
Si Si4 0.345666 0.189311 0.929033
Si Si5 0.300254 0.812288 0.700418
Si Si6 0.586088 0.312375 0.918503
Si Si7 0.820283 0.808761 0.153421
Si Si8 0.420803 0.188726 0.446191
O O1 0.928068 0.500000 0.843107
O O2 0.888816 0.738261 0.888773
O O3 0.873220 0.739076 0.764966
O O4 0.004967 0.755854 0.873560
O O5 0.233232 0.219678 0.715338
O O6 0.146556 0.241868 0.768344
O O7 0.099507 0.262558 0.630222
O O8 0.142031 0.000000 0.696059
O O9 0.779454 0.500000 0.452793
O O10 0.750000 0.250000 0.500000
O O11 0.719839 0.264869 0.371209
O O12 0.854588 0.255641 0.459413
O O13 0.262728 0.241067 0.888236
O O14 0.345994 0.000000 0.930286
O O15 0.382720 0.249402 0.005433
O O16 0.303076 0.000000 0.693385
O O17 0.588030 0.500000 0.920734
O O18 0.634904 0.257459 0.884364
O O19 0.820084 0.000000 0.154325
O O20 0.500000 0.245426 0.500000
O O21 0.421203 0.000000 0.449484
#
# Coordination Sequence:
#
# PCOD9188494 Si02
#       8
#     8   8   8   8   8   8   8   8
#     4  10  20  36  57  78 101 137 181 220 260 312
#     4   9  16  32  58  81 100 131 179 222 255 301
#     4  10  20  35  56  81 110 142 175 214 259 308
#     4  10  19  36  60  77  96 136 186 222 255 310
#     4   9  17  33  58  81 101 133 180 224 259 303
#     4  11  23  35  49  77 115 142 165 215 276 317
#     4   9  18  35  56  77 104 137 174 219 265 309
#     4   9  19  36  55  78 110 141 170 210 261 308
#
# _framework density 18.062289
#
# number of rings (size 3 to 8) (size 9 to 14) (size 15 to 20)
#    0.000    2.375    1.250    1.500    0.000    3.250 
#    2.250    2.500    0.000    0.000    0.000    0.000 
#    0.000    0.000    0.000    0.000    0.000    0.000 
#
# Total GULP energy -178544.177913 kJ/mol
# GULP energy per Si atom -5579.505560 kJ/mol
# Density = 1.802118 g / cm^3
# Si number density = 18.062289 Si / 1000 Ang^3
#
#
#
# Elastic Constant Matrix: (Units=GPa)
#
#
# Indices 1 2 3 4 5 6 
#
# 1 73.0099 13.2974 41.7684 0.0000 8.6925 0.0000
# 2 13.2974 6.7007 17.7985 0.0000 -1.4660 0.0000
# 3 41.7684 17.7985 120.7637 0.0000 8.5815 0.0000
# 4 0.0000 0.0000 0.0000 19.3202 0.0000 -0.6927
# 5 8.6925 -1.4660 8.5815 0.0000 33.6695 0.0000
# 6 0.0000 0.0000 0.0000 -0.6927 0.0000 21.8410
#
#
#
# Elastic Compliance Matrix: (Units=1/GPa)
#
#
# Indices 1 2 3 4 5 6 
#
# 1 0.023518 -0.046489 -0.000720 0.000000 -0.007912 0.000000
# 2 -0.046489 0.351510 -0.038362 0.000000 0.037085 0.000000
# 3 -0.000720 -0.038362 0.014553 0.000000 -0.005194 0.000000
# 4 0.000000 0.000000 0.000000 0.051818 0.000000 0.001644
# 5 -0.007912 0.037085 -0.005194 0.000000 0.034682 0.000000
# 6 0.000000 0.000000 0.000000 0.001644 0.000000 0.045838
#
#
# Mechanical properties :
#
#
# Convention : Reuss Voigt Hill
#
# Bulk Modulus (GPa) = 4.57799 38.46699 21.52249
# Shear Modulus (GPa) = 6.52849 23.47348 15.00099
#
# Velocity S-wave (km/s) = 1.90323 3.60889 2.88499
# Velocity P-wave (km/s) = 2.71473 6.22162 4.79991
#
# Compressibility (1/GPa) = 0.21843660
#
# Stress axis : x y z
#
# Youngs Moduli (GPa) = 42.52065 2.84487 68.71563
#
# Poissons Ratio (x) = 0.13226 0.04949
# Poissons Ratio (y) = 1.97676 2.63610
# Poissons Ratio (z) = 0.03062 0.10914
#
# Static dielectric constant tensor:
#      x y z
#    x 1.611220 0.000000 -0.001540 
#    y 0.000000 1.623130 0.000000 
#    z -0.001540 0.000000 1.596490 
# 
# From -- ./inp_files/319771.got.cif
#   From: 2010.05.17/outbox.cif.g08.bks.cpg/sg12_160_cif.got.tgz:319771.got - 2010.06.03 13:09:07.
