data_PCOD9188891
_publ_section_title
;
Structure prediction by ZEFSAII (Michael W. Deem and Ramdas Pophale) SiO2 
 PCOD9188891
Probable space group: C 2/M
;
_chemical_formula_sum "Si O2"
_cell_formula_units_Z 64
_cell_length_a 11.741135
_cell_length_b 17.577176
_cell_length_c 16.501553
_cell_angle_alpha 90.000000
_cell_angle_beta 91.432369
_cell_angle_gamma 90.000000
_cell_volume 3404.460308
_symmetry_space_group_name_H-M "C 2/M"
_symmetry_group_IT_number 12
_symmetry_cell_setting 'monoclinic'
loop_
_space_group_symop_operation_xyz
x,y,z
-x,y,-z
-x,-y,-z
x,-y,z
1/2+x,1/2+y,z
1/2-x,1/2+y,-z
1/2-x,1/2-y,-z
1/2+x,1/2-y,z
loop_
_atom_site_type_symbol
_atom_site_label
_atom_site_fract_x
_atom_site_fract_y
_atom_site_fract_z
Si Si1 0.648978 0.854762 0.710965
Si Si2 0.379944 0.410642 0.794316
Si Si3 0.568784 0.914325 0.220109
Si Si4 0.288318 0.819009 0.893886
Si Si5 0.244423 0.409175 0.366557
Si Si6 0.870736 0.843679 0.963611
Si Si7 0.397337 0.316789 0.253528
Si Si8 0.371670 0.091693 0.470867
O O1 0.772517 0.869486 0.750766
O O2 0.561861 0.908639 0.757515
O O3 0.595330 0.771254 0.722404
O O4 0.654269 0.873128 0.616211
O O5 0.388645 0.500000 0.771139
O O6 0.366880 0.403536 0.890874
O O7 0.490306 0.360741 0.772728
O O8 0.607148 0.862230 0.146541
O O9 0.638381 0.894959 0.303594
O O10 0.601490 0.000000 0.199344
O O11 0.333550 0.737434 0.924279
O O12 0.193305 0.815741 0.821719
O O13 0.221905 0.857902 0.967520
O O14 0.265896 0.500000 0.366113
O O15 0.346150 0.363046 0.328275
O O16 0.210938 0.386293 0.456722
O O17 0.000000 0.839118 0.000000
O O18 0.500000 0.110947 0.500000
O O19 0.366582 0.000000 0.462724
#
# Coordination Sequence:
#
# PCOD9188891 Si02
#       8
#     8   8   8   8   8   8   8   8
#     4  12  24  39  65  92 128 165 211 254 311 369
#     4  12  26  43  64  94 129 168 210 257 314 376
#     4  10  20  36  61  91 122 156 203 259 311 361
#     4  10  22  39  65  91 119 161 209 256 314 371
#     4   9  19  37  62  91 122 159 207 257 307 364
#     4  11  22  41  63  92 123 163 208 257 312 377
#     4  11  23  41  63  89 127 166 208 252 312 377
#     4  10  19  36  62  93 125 161 207 258 310 366
#
# _framework density 18.798867999999999
#
# number of rings (size 3 to 8) (size 9 to 14) (size 15 to 20)
#    0.000    1.375    3.750    2.250    1.750    1.750 
#    0.000    0.625    0.000    4.125    0.000    0.000 
#    0.000    0.000    0.000    0.000    0.000    0.000 
#
# Total GULP energy -178620.041246 kJ/mol
# GULP energy per Si atom -5581.876289 kJ/mol
# Density = 1.875608 g / cm^3
# Si number density = 18.798868 Si / 1000 Ang^3
#
#
#
# Elastic Constant Matrix: (Units=GPa)
#
#
# Indices 1 2 3 4 5 6 
#
# 1 62.7595 17.2559 32.8410 0.0000 0.9234 0.0000
# 2 17.2559 64.7627 37.7350 0.0000 -6.9716 0.0000
# 3 32.8410 37.7350 129.4279 0.0000 -19.9433 0.0000
# 4 0.0000 0.0000 0.0000 8.4935 0.0000 -13.0184
# 5 0.9234 -6.9716 -19.9433 0.0000 26.3918 0.0000
# 6 0.0000 0.0000 0.0000 -13.0184 0.0000 12.8378
#
#
#
# Elastic Compliance Matrix: (Units=1/GPa)
#
#
# Indices 1 2 3 4 5 6 
#
# 1 0.019340 -0.002873 -0.004856 0.000000 -0.005105 0.000000
# 2 -0.002873 0.019048 -0.004565 0.000000 0.001682 0.000000
# 3 -0.004856 -0.004565 0.011465 0.000000 0.007628 0.000000
# 4 0.000000 0.000000 0.000000 -0.212398 0.000000 -0.215386
# 5 -0.005105 0.001682 0.007628 0.000000 0.044278 0.000000
# 6 0.000000 0.000000 0.000000 -0.215386 0.000000 -0.140521
#
#
# Mechanical properties :
#
#
# Convention : Reuss Voigt Hill
#
# Bulk Modulus (GPa) = 39.58289 48.06818 43.82554
# Shear Modulus (GPa) = -22.14558 20.81916 -0.66321
#
# Velocity S-wave (km/s) = -3.43596 3.33148 -0.59461
# Velocity P-wave (km/s) = 2.31529 6.35795 4.78456
#
# Compressibility (1/GPa) = 0.02526344
#
# Stress axis : x y z
#
# Youngs Moduli (GPa) = 51.70575 52.50015 87.22305
#
# Poissons Ratio (x) = 0.15084 0.42359
# Poissons Ratio (y) = 0.14855 0.39818
# Poissons Ratio (z) = 0.25110 0.23967
#
# Static dielectric constant tensor:
#      x y z
#    x 1.645030 0.000000 -0.010050 
#    y 0.000000 1.662800 0.000000 
#    z -0.010050 0.000000 1.635950 
# 
# From -- ./inp_files/206668.got.cif
#   From: 2010.05.17/outbox.cif.g08.bks.cpg/sg12_104_cif.got.tgz:206668.got - 2010.06.03 13:09:07.
