data_PCOD9188256
_publ_section_title
;
Structure prediction by ZEFSAII (Michael W. Deem and Ramdas Pophale) SiO2 
 PCOD9188256
Probable space group: C 2/M
;
_chemical_formula_sum "Si O2"
_cell_formula_units_Z 64
_cell_length_a 31.930708
_cell_length_b 11.233783
_cell_length_c 18.889594
_cell_angle_alpha 90.000000
_cell_angle_beta 31.174246
_cell_angle_gamma 90.000000
_cell_volume 3507.414633
_symmetry_space_group_name_H-M "C 2/M"
_symmetry_group_IT_number 12
_symmetry_cell_setting 'monoclinic'
loop_
_space_group_symop_operation_xyz
x,y,z
-x,y,-z
-x,-y,-z
x,-y,z
1/2+x,1/2+y,z
1/2-x,1/2+y,-z
1/2-x,1/2-y,-z
1/2+x,1/2-y,z
loop_
_atom_site_type_symbol
_atom_site_label
_atom_site_fract_x
_atom_site_fract_y
_atom_site_fract_z
Si Si1 0.194639 0.858717 0.710624
Si Si2 0.138159 0.364804 0.994369
Si Si3 0.591649 0.134890 0.340108
Si Si4 0.860803 0.774420 0.503753
Si Si5 0.100349 0.140334 0.710123
Si Si6 0.547023 0.770979 0.999988
Si Si7 0.971070 0.359361 0.724022
Si Si8 0.676576 0.638931 0.291351
O O1 0.278406 0.800758 0.613707
O O2 0.171634 0.827091 0.662571
O O3 0.117319 0.814884 0.867940
O O4 0.201496 0.000000 0.706357
O O5 0.146613 0.500000 0.006429
O O6 0.092740 0.359875 0.985521
O O7 0.229536 0.323829 0.853268
O O8 0.081105 0.306208 0.135767
O O9 0.500000 0.129176 0.500000
O O10 0.581967 0.152532 0.270017
O O11 0.630308 0.252539 0.319244
O O12 0.626902 0.000000 0.302939
O O13 0.878383 0.830635 0.401442
O O14 0.845562 0.857858 0.593439
O O15 0.941169 0.699984 0.406785
O O16 0.087135 0.000000 0.736290
O O17 0.020321 0.204967 0.855274
O O18 0.500000 0.822151 0.000000
O O19 0.986460 0.500000 0.712615
O O20 0.664339 0.500000 0.284616
#
# Coordination Sequence:
#
# PCOD9188256 Si02
#       8
#     8   8   8   8   8   8   8   8
#     4  10  21  35  55  82 113 152 198 247 292 338
#     4  10  21  40  59  82 118 153 192 238 289 348
#     4  10  21  40  64  92 120 152 193 243 293 350
#     4  12  20  35  59  84 116 152 194 239 286 358
#     4  10  21  36  53  79 116 154 193 244 295 341
#     4  10  19  36  58  80 111 152 196 239 288 344
#     4  10  21  38  62  86 112 149 192 243 294 343
#     4  11  24  40  61  89 123 159 189 239 303 356
#
# _framework density 18.247057000000002
#
# number of rings (size 3 to 8) (size 9 to 14) (size 15 to 20)
#    0.000    1.625    3.750    1.500    0.000    3.000 
#    0.000    0.000    0.000    0.000    0.000    0.000 
#    0.000    0.000    0.000    0.000    0.000    0.000 
#
# Total GULP energy -178225.541776 kJ/mol
# GULP energy per Si atom -5569.548181 kJ/mol
# Density = 1.820553 g / cm^3
# Si number density = 18.247057 Si / 1000 Ang^3
#
#
#
# Elastic Constant Matrix: (Units=GPa)
#
#
# Indices 1 2 3 4 5 6 
#
# 1 80.2642 41.3502 36.1426 0.0000 0.2332 0.0000
# 2 41.3502 74.5714 27.4763 0.0000 -12.9112 0.0000
# 3 36.1426 27.4763 89.6167 0.0000 -12.4006 0.0000
# 4 0.0000 0.0000 0.0000 16.9687 0.0000 1.1571
# 5 0.2332 -12.9112 -12.4006 0.0000 26.8360 0.0000
# 6 0.0000 0.0000 0.0000 1.1571 0.0000 25.7921
#
#
#
# Elastic Compliance Matrix: (Units=1/GPa)
#
#
# Indices 1 2 3 4 5 6 
#
# 1 0.020776 -0.010634 -0.006251 0.000000 -0.008185 0.000000
# 2 -0.010634 0.021356 -0.000881 0.000000 0.009960 0.000000
# 3 -0.006251 -0.000881 0.014848 0.000000 0.006492 0.000000
# 4 0.000000 0.000000 0.000000 0.059113 0.000000 -0.002652
# 5 -0.008185 0.009960 0.006492 0.000000 0.045126 0.000000
# 6 0.000000 0.000000 0.000000 -0.002652 0.000000 0.038891
#
#
# Mechanical properties :
#
#
# Convention : Reuss Voigt Hill
#
# Bulk Modulus (GPa) = 46.62533 50.48781 48.55657
# Shear Modulus (GPa) = 20.59386 23.21825 21.90606
#
# Velocity S-wave (km/s) = 3.36313 3.57099 3.46862
# Velocity P-wave (km/s) = 6.37876 6.68818 6.53530
#
# Compressibility (1/GPa) = 0.02144757
#
# Stress axis : x y z
#
# Youngs Moduli (GPa) = 48.13230 46.82591 67.34906
#
# Poissons Ratio (x) = 0.49796 0.42101
# Poissons Ratio (y) = 0.51186 0.05930
# Poissons Ratio (z) = 0.30089 0.04123
#
# Static dielectric constant tensor:
#      x y z
#    x 1.645660 0.000000 0.025220 
#    y 0.000000 1.627730 0.000000 
#    z 0.025220 0.000000 1.648370 
# 
# From -- ./inp_files/245937.got.cif
#   From: 2010.05.17/outbox.cif.g08.bks.cpg/sg12_123_cif.got.tgz:245937.got - 2010.06.03 13:09:07.
