data_PCOD9188822
_publ_section_title
;
Structure prediction by ZEFSAII (Michael W. Deem and Ramdas Pophale) SiO2 
 PCOD9188822
Probable space group: C 2/M
;
_chemical_formula_sum "Si O2"
_cell_formula_units_Z 40
_cell_length_a 24.648123
_cell_length_b 8.108491
_cell_length_c 13.693635
_cell_angle_alpha 90.000000
_cell_angle_beta 135.644956
_cell_angle_gamma 90.000000
_cell_volume 1913.301941
_symmetry_space_group_name_H-M "C 2/M"
_symmetry_group_IT_number 12
_symmetry_cell_setting 'monoclinic'
loop_
_space_group_symop_operation_xyz
x,y,z
-x,y,-z
-x,-y,-z
x,-y,z
1/2+x,1/2+y,z
1/2-x,1/2+y,-z
1/2-x,1/2-y,-z
1/2+x,1/2-y,z
loop_
_atom_site_type_symbol
_atom_site_label
_atom_site_fract_x
_atom_site_fract_y
_atom_site_fract_z
Si Si1 0.486552 0.798819 0.370365
Si Si2 0.872598 0.300265 0.585241
Si Si3 0.316268 0.804784 0.158274
Si Si4 0.913746 0.298268 0.858555
Si Si5 0.247587 0.696025 0.274244
O O1 0.500000 0.753443 0.500000
O O2 0.555514 0.742771 0.389518
O O3 0.400393 0.738002 0.235122
O O4 0.487865 0.000000 0.367191
O O5 0.869917 0.500000 0.580525
O O6 0.890177 0.248822 0.718392
O O7 0.794343 0.238931 0.432993
O O8 0.293575 0.762683 0.240023
O O9 0.322366 0.000000 0.160803
O O10 0.250000 0.750000 0.000000
O O11 0.915423 0.500000 0.862673
O O12 0.841617 0.244674 0.833466
O O13 0.000000 0.242798 0.000000
O O14 0.245357 0.500000 0.261610
#
# Coordination Sequence:
#
# PCOD9188822 Si02
#       5
#     8   8   8   8   8
#     4   9  17  33  58  85 108 143 194 234 272 337
#     4  10  19  36  62  84 110 151 196 242 283 333
#     4  11  23  39  60  87 118 152 190 234 285 342
#     4   9  20  36  58  85 111 149 201 243 279 336
#     4  11  22  37  58  86 117 150 191 240 290 341
#
# _framework density 20.906265000000001
#
# number of rings (size 3 to 8) (size 9 to 14) (size 15 to 20)
#    0.000    2.000    2.000    1.800    2.800    0.000 
#    0.000    4.000    0.000    3.000    0.000    0.000 
#    0.000    0.000    0.000    0.000    0.000    0.000 
#
# Total GULP energy -111689.986848 kJ/mol
# GULP energy per Si atom -5584.499342 kJ/mol
# Density = 2.085868 g / cm^3
# Si number density = 20.906265 Si / 1000 Ang^3
#
#
#
# Elastic Constant Matrix: (Units=GPa)
#
#
# Indices 1 2 3 4 5 6 
#
# 1 63.0491 -0.1485 9.9829 0.0000 25.9199 0.0000
# 2 -0.1485 15.7306 -0.1187 0.0000 4.1620 0.0000
# 3 9.9829 -0.1187 114.5454 0.0000 28.8965 0.0000
# 4 0.0000 0.0000 0.0000 29.5865 0.0000 0.5135
# 5 25.9199 4.1620 28.8965 0.0000 43.2576 0.0000
# 6 0.0000 0.0000 0.0000 0.5135 0.0000 6.8174
#
#
#
# Elastic Compliance Matrix: (Units=1/GPa)
#
#
# Indices 1 2 3 4 5 6 
#
# 1 0.021545 0.004051 0.001782 0.000000 -0.014490 0.000000
# 2 0.004051 0.066370 0.002332 0.000000 -0.010371 0.000000
# 3 0.001782 0.002332 0.010708 0.000000 -0.008445 0.000000
# 4 0.000000 0.000000 0.000000 0.033843 0.000000 -0.002549
# 5 -0.014490 -0.010371 -0.008445 0.000000 0.038439 0.000000
# 6 0.000000 0.000000 0.000000 -0.002549 0.000000 0.146876
#
#
# Mechanical properties :
#
#
# Convention : Reuss Voigt Hill
#
# Bulk Modulus (GPa) = 8.69933 23.63960 16.16947
# Shear Modulus (GPa) = 14.71585 28.17292 21.44439
#
# Velocity S-wave (km/s) = 2.65598 3.67493 3.20619
# Velocity P-wave (km/s) = 3.68454 5.41653 4.63220
#
# Compressibility (1/GPa) = 0.11495132
#
# Stress axis : x y z
#
# Youngs Moduli (GPa) = 46.41475 15.06702 93.39085
#
# Poissons Ratio (x) = -0.06103 -0.16641
# Poissons Ratio (y) = -0.18800 -0.21778
# Poissons Ratio (z) = -0.08270 -0.03514
#
# Static dielectric constant tensor:
#      x y z
#    x 1.756370 0.000000 0.032780 
#    y 0.000000 1.748530 0.000000 
#    z 0.032780 0.000000 1.738310 
# 
# From -- ./inp_files/220566.got.cif
#   From: 2010.05.17/outbox.cif.g08.bks.cpg/sg12_111_cif.got.tgz:220566.got - 2010.06.03 13:09:07.
