data_PCOD9188576
_publ_section_title
;
Structure prediction by ZEFSAII (Michael W. Deem and Ramdas Pophale) SiO2 
 PCOD9188576
Probable space group: C 2/M
;
_chemical_formula_sum "Si O2"
_cell_formula_units_Z 64
_cell_length_a 26.997147
_cell_length_b 7.687309
_cell_length_c 14.301040
_cell_angle_alpha 90.000000
_cell_angle_beta 87.230699
_cell_angle_gamma 90.000000
_cell_volume 2964.506122
_symmetry_space_group_name_H-M "C 2/M"
_symmetry_group_IT_number 12
_symmetry_cell_setting 'monoclinic'
loop_
_space_group_symop_operation_xyz
x,y,z
-x,y,-z
-x,-y,-z
x,-y,z
1/2+x,1/2+y,z
1/2-x,1/2+y,-z
1/2-x,1/2-y,-z
1/2+x,1/2-y,z
loop_
_atom_site_type_symbol
_atom_site_label
_atom_site_fract_x
_atom_site_fract_y
_atom_site_fract_z
Si Si1 0.658571 0.210134 0.398543
Si Si2 0.892690 0.701859 0.927130
Si Si3 0.431650 0.786203 0.725945
Si Si4 0.958986 0.799992 0.076682
Si Si5 0.280216 0.707829 0.904612
Si Si6 0.959538 0.701572 0.288906
Si Si7 0.642410 0.214010 0.613730
Si Si8 0.239557 0.293340 0.712742
O O1 0.613871 0.269597 0.335079
O O2 0.649469 0.266357 0.505584
O O3 0.712002 0.266196 0.355506
O O4 0.658023 0.000000 0.396939
O O5 0.905271 0.500000 0.937977
O O6 0.921752 0.770287 0.833554
O O7 0.835124 0.717419 0.908830
O O8 0.908604 0.791820 0.021452
O O9 0.486221 0.725808 0.690560
O O10 0.431566 0.000000 0.726869
O O11 0.955654 0.709153 0.176587
O O12 0.971985 0.000000 0.094779
O O13 0.000000 0.728567 0.000000
O O14 0.285264 0.500000 0.895394
O O15 0.252935 0.776021 0.814239
O O16 0.250000 0.750000 0.000000
O O17 0.960869 0.500000 0.317866
O O18 0.909900 0.775968 0.339358
O O19 0.689538 0.274944 0.669884
O O20 0.642479 0.000000 0.615847
O O21 0.232076 0.500000 0.723632
#
# Coordination Sequence:
#
# PCOD9188576 Si02
#       8
#     8   8   8   8   8   8   8   8
#     4  10  19  36  60  86 112 145 191 241 287 340
#     4  11  21  37  59  84 114 150 195 240 286 348
#     4   9  18  32  56  87 113 143 191 237 282 340
#     4  11  23  37  55  83 116 150 191 237 285 340
#     4  11  24  39  57  85 120 155 194 239 293 347
#     4  10  20  37  58  83 115 153 191 235 292 349
#     4   9  20  36  58  85 114 147 188 239 292 339
#     4  10  21  38  57  83 115 150 191 235 285 345
#
# _framework density 21.588756
#
# number of rings (size 3 to 8) (size 9 to 14) (size 15 to 20)
#    0.000    1.875    2.500    1.500    1.750    1.500 
#    0.000    4.375    0.000    0.000    0.000    1.750 
#    0.000    0.000    0.000    0.000    0.000    0.000 
#
# Total GULP energy -178808.620193 kJ/mol
# GULP energy per Si atom -5587.769381 kJ/mol
# Density = 2.153962 g / cm^3
# Si number density = 21.588756 Si / 1000 Ang^3
#
#
#
# Elastic Constant Matrix: (Units=GPa)
#
#
# Indices 1 2 3 4 5 6 
#
# 1 143.1491 -6.1031 27.0096 0.0000 -10.0976 0.0000
# 2 -6.1031 41.9889 -11.0720 0.0000 3.4667 0.0000
# 3 27.0096 -11.0720 51.9251 0.0000 -20.1444 0.0000
# 4 0.0000 0.0000 0.0000 8.0522 0.0000 -4.3004
# 5 -10.0976 3.4667 -20.1444 0.0000 36.6266 0.0000
# 6 0.0000 0.0000 0.0000 -4.3004 0.0000 19.4908
#
#
#
# Elastic Compliance Matrix: (Units=1/GPa)
#
#
# Indices 1 2 3 4 5 6 
#
# 1 0.007746 0.000065 -0.004055 0.000000 -0.000100 0.000000
# 2 0.000065 0.025250 0.005632 0.000000 0.000725 0.000000
# 3 -0.004055 0.005632 0.027876 0.000000 0.013681 0.000000
# 4 0.000000 0.000000 0.000000 0.140779 0.000000 0.031061
# 5 -0.000100 0.000725 0.013681 0.000000 0.034730 0.000000
# 6 0.000000 0.000000 0.000000 0.031061 0.000000 0.058159
#
#
# Mechanical properties :
#
#
# Convention : Reuss Voigt Hill
#
# Bulk Modulus (GPa) = 15.58671 28.52577 22.05624
# Shear Modulus (GPa) = 15.99272 27.98249 21.98760
#
# Velocity S-wave (km/s) = 2.72470 3.60413 3.19482
# Velocity P-wave (km/s) = 4.13934 5.52825 4.88343
#
# Compressibility (1/GPa) = 0.06415720
#
# Stress axis : x y z
#
# Youngs Moduli (GPa) = 129.09188 39.60330 35.87348
#
# Poissons Ratio (x) = -0.00258 0.14545
# Poissons Ratio (y) = -0.00841 -0.20203
# Poissons Ratio (z) = 0.52340 -0.22303
#
# Static dielectric constant tensor:
#      x y z
#    x 1.781810 0.000000 0.013130 
#    y 0.000000 1.818290 0.000000 
#    z 0.013130 0.000000 1.747490 
# 
# From -- ./inp_files/238658.got.cif
#   From: 2010.05.17/outbox.cif.g08.bks.cpg/sg12_120_cif.got.tgz:238658.got - 2010.06.03 13:09:07.
