data_PCOD9188032
_publ_section_title
;
Structure prediction by ZEFSAII (Michael W. Deem and Ramdas Pophale) SiO2 
 PCOD9188032
Probable space group: C 2/M
;
_chemical_formula_sum "Si O2"
_cell_formula_units_Z 56
_cell_length_a 24.281411
_cell_length_b 18.153972
_cell_length_c 20.429075
_cell_angle_alpha 90.000000
_cell_angle_beta 159.074869
_cell_angle_gamma 90.000000
_cell_volume 3216.193514
_symmetry_space_group_name_H-M "C 2/M"
_symmetry_group_IT_number 12
_symmetry_cell_setting 'monoclinic'
loop_
_space_group_symop_operation_xyz
x,y,z
-x,y,-z
-x,-y,-z
x,-y,z
1/2+x,1/2+y,z
1/2-x,1/2+y,-z
1/2-x,1/2-y,-z
1/2+x,1/2-y,z
loop_
_atom_site_type_symbol
_atom_site_label
_atom_site_fract_x
_atom_site_fract_y
_atom_site_fract_z
Si Si1 0.316140 0.085363 0.785456
Si Si2 0.002055 0.751902 0.764460
Si Si3 0.795620 0.301675 0.646030
Si Si4 0.028828 0.582602 0.454612
Si Si5 0.303897 0.198067 0.139267
Si Si6 0.675852 0.707938 0.717939
Si Si7 0.169882 0.823120 0.207032
O O1 0.284380 0.129180 0.682466
O O2 0.239255 0.131426 0.759476
O O3 0.267620 0.000000 0.729632
O O4 0.500000 0.088225 0.000000
O O5 0.929077 0.700392 0.739524
O O6 0.862814 0.787569 0.568867
O O7 0.108152 0.707879 0.831395
O O8 0.121233 0.811025 0.926992
O O9 0.831669 0.232152 0.733032
O O10 0.020808 0.500000 0.419105
O O11 0.197865 0.617478 0.632541
O O12 0.000000 0.580469 0.500000
O O13 0.896746 0.634598 0.278927
O O14 0.319131 0.272579 0.200053
O O15 0.500000 0.715525 0.500000
O O16 0.773237 0.771597 0.789756
O O17 0.000000 0.851173 0.000000
#
# Coordination Sequence:
#
# PCOD9188032 Si02
#       7
#     8   8   8   8   8   8   8
#     4  10  21  36  56  84 115 145 177 230 299 343
#     4  10  21  31  59  79 107 144 198 220 262 313
#     4  10  19  36  53  84 109 145 186 236 263 327
#     4  11  22  37  56  82 115 144 178 233 293 335
#     4  11  18  36  54  84 107 146 186 232 261 330
#     4  11  18  33  59  84 110 139 180 235 287 322
#     4  11  19  33  59  83 109 143 184 233 286 330
#
# _framework density 17.411888000000001
#
# number of rings (size 3 to 8) (size 9 to 14) (size 15 to 20)
#    0.000    1.429    4.286    4.286    0.000    0.571 
#    0.000    1.429    0.000    3.429    0.000    0.000 
#    0.000    0.000    0.000    0.000    0.000    0.000 
#
# Total GULP energy -156143.188381 kJ/mol
# GULP energy per Si atom -5576.542442 kJ/mol
# Density = 1.737226 g / cm^3
# Si number density = 17.411888 Si / 1000 Ang^3
#
#
#
# Elastic Constant Matrix: (Units=GPa)
#
#
# Indices 1 2 3 4 5 6 
#
# 1 88.8927 31.2309 12.3554 0.0002 3.3318 0.0003
# 2 31.2309 102.9226 31.8815 -0.0001 -4.3354 0.0010
# 3 12.3554 31.8815 119.5424 0.0015 -4.2446 0.0025
# 4 0.0002 -0.0001 0.0015 6.7057 0.0004 6.4795
# 5 3.3318 -4.3354 -4.2446 0.0004 25.4429 0.0008
# 6 0.0003 0.0010 0.0025 6.4795 0.0008 6.9080
#
#
#
# Elastic Compliance Matrix: (Units=1/GPa)
#
#
# Indices 1 2 3 4 5 6 
#
# 1 0.012744 -0.003852 -0.000375 -0.000006 -0.002388 0.000006
# 2 -0.003852 0.011801 -0.002676 0.000016 0.002069 -0.000015
# 3 -0.000375 -0.002676 0.009157 0.000009 0.001121 -0.000011
# 4 -0.000006 0.000016 0.000009 1.591910 0.000028 -1.493152
# 5 -0.002388 0.002069 0.001121 0.000028 0.040156 -0.000032
# 6 0.000006 -0.000015 -0.000011 -1.493152 -0.000032 1.545280
#
#
# Mechanical properties :
#
#
# Convention : Reuss Voigt Hill
#
# Bulk Modulus (GPa) = 50.25561 51.36594 50.81077
# Shear Modulus (GPa) = 1.54728 23.53730 12.54229
#
# Velocity S-wave (km/s) = 0.94370 3.68066 2.68681
# Velocity P-wave (km/s) = 5.48752 6.90128 6.23460
#
# Compressibility (1/GPa) = 0.01989828
#
# Stress axis : x y z
#
# Youngs Moduli (GPa) = 78.46637 84.74034 109.20181
#
# Poissons Ratio (x) = 0.32639 0.04093
# Poissons Ratio (y) = 0.30222 0.29219
# Poissons Ratio (z) = 0.02941 0.22674
#
# Static dielectric constant tensor:
#      x y z
#    x 1.624820 0.000000 -0.006860 
#    y 0.000000 1.580550 0.000000 
#    z -0.006860 0.000000 1.620320 
# 
# From -- ./inp_files/105558.got.cif
#   From: 2010.05.17/outbox.cif.g08.bks.cpg/sg12_53_cif.got.tgz:105558.got - 2010.06.03 13:09:07.
