data_PCOD9188528
_publ_section_title
;
Structure prediction by ZEFSAII (Michael W. Deem and Ramdas Pophale) SiO2 
 PCOD9188528
Probable space group: C 2/M
;
_chemical_formula_sum "Si O2"
_cell_formula_units_Z 36
_cell_length_a 15.061628
_cell_length_b 25.599495
_cell_length_c 11.123680
_cell_angle_alpha 90.000000
_cell_angle_beta 25.642519
_cell_angle_gamma 90.000000
_cell_volume 1856.067526
_symmetry_space_group_name_H-M "C 2/M"
_symmetry_group_IT_number 12
_symmetry_cell_setting 'monoclinic'
loop_
_space_group_symop_operation_xyz
x,y,z
-x,y,-z
-x,-y,-z
x,-y,z
1/2+x,1/2+y,z
1/2-x,1/2+y,-z
1/2-x,1/2-y,-z
1/2+x,1/2-y,z
loop_
_atom_site_type_symbol
_atom_site_label
_atom_site_fract_x
_atom_site_fract_y
_atom_site_fract_z
Si Si1 0.500000 0.410436 0.500000
Si Si2 0.812368 0.559446 0.313807
Si Si3 0.864800 0.822936 0.828680
Si Si4 0.386232 0.362851 0.255885
Si Si5 0.447768 0.783259 0.428173
O O1 0.378222 0.440738 0.546589
O O2 0.355099 0.370552 0.748976
O O3 0.855584 0.500000 0.301349
O O4 0.754284 0.597227 0.495332
O O5 0.000000 0.577506 0.000000
O O6 0.937721 0.844238 0.867965
O O7 0.040332 0.779796 0.583803
O O8 0.641285 0.797968 0.108978
O O9 0.251146 0.313072 0.377253
O O10 0.500000 0.385816 0.000000
O O11 0.500000 0.800671 0.500000
#
# Coordination Sequence:
#
# PCOD9188528 Si02
#       5
#     4   8   8   8   8
#     4  10  19  36  60  84 106 142 189 230 278 326
#     4  10  22  40  61  83 110 144 189 240 284 334
#     4  10  21  35  54  82 114 149 187 224 268 333
#     4  11  22  37  57  85 114 148 186 231 283 332
#     4  11  20  35  54  79 117 153 184 221 270 331
#
# _framework density 19.395845000000001
#
# number of rings (size 3 to 8) (size 9 to 14) (size 15 to 20)
#    0.000    1.556    3.333    2.333    0.000    0.444 
#    0.000    1.111    0.000    0.667    0.000    0.000 
#    0.000    0.000    0.000    0.000    0.000    0.000 
#
# Total GULP energy -100320.598552 kJ/mol
# GULP energy per Si atom -5573.366586 kJ/mol
# Density = 1.935170 g / cm^3
# Si number density = 19.395845 Si / 1000 Ang^3
#
#
#
# Elastic Constant Matrix: (Units=GPa)
#
#
# Indices 1 2 3 4 5 6 
#
# 1 58.7173 12.9168 2.9406 -0.0004 20.8414 -0.0020
# 2 12.9168 67.9187 27.8717 -0.0009 14.6843 0.0001
# 3 2.9406 27.8717 83.0726 -0.0072 16.6264 -0.0058
# 4 -0.0004 -0.0009 -0.0072 21.6376 0.0027 -3.0530
# 5 20.8414 14.6843 16.6264 0.0027 26.5752 0.0032
# 6 -0.0020 0.0001 -0.0058 -3.0530 0.0032 15.8742
#
#
#
# Elastic Compliance Matrix: (Units=1/GPa)
#
#
# Indices 1 2 3 4 5 6 
#
# 1 0.024583 -0.001787 0.003875 0.000006 -0.020716 0.000010
# 2 -0.001787 0.018311 -0.004956 0.000000 -0.005616 -0.000001
# 3 0.003875 -0.004956 0.015574 0.000008 -0.010044 0.000010
# 4 0.000006 0.000000 0.000008 0.047505 -0.000015 0.009136
# 5 -0.020716 -0.005616 -0.010044 -0.000015 0.063263 -0.000022
# 6 0.000010 -0.000001 0.000010 0.009136 -0.000022 0.064752
#
#
# Mechanical properties :
#
#
# Convention : Reuss Voigt Hill
#
# Bulk Modulus (GPa) = 18.96349 33.01853 25.99101
# Shear Modulus (GPa) = 19.43251 23.88272 21.65762
#
# Velocity S-wave (km/s) = 3.16870 3.51284 3.34520
# Velocity P-wave (km/s) = 4.81517 5.78912 5.32446
#
# Compressibility (1/GPa) = 0.05273291
#
# Stress axis : x y z
#
# Youngs Moduli (GPa) = 40.67875 54.61063 64.21109
#
# Poissons Ratio (x) = 0.09757 -0.24885
# Poissons Ratio (y) = 0.07268 0.31826
# Poissons Ratio (z) = -0.15765 0.27067
#
# Static dielectric constant tensor:
#      x y z
#    x 1.666070 0.000000 0.015570 
#    y 0.000000 1.704500 0.000000 
#    z 0.015570 0.000000 1.719690 
# 
# From -- ./inp_files/7803.got.cif
#   From: 2010.05.17/outbox.cif.g08.bks.cpg/sg12_4_cif.got.tgz:7803.got - 2010.06.03 13:09:07.
