data_PCOD9188048
_publ_section_title
;
Structure prediction by ZEFSAII (Michael W. Deem and Ramdas Pophale) SiO2 
 PCOD9188048
Probable space group: C 2/M
;
_chemical_formula_sum "Si O2"
_cell_formula_units_Z 48
_cell_length_a 12.935594
_cell_length_b 22.650478
_cell_length_c 11.611932
_cell_angle_alpha 90.000000
_cell_angle_beta 131.509290
_cell_angle_gamma 90.000000
_cell_volume 2547.780822
_symmetry_space_group_name_H-M "C 2/M"
_symmetry_group_IT_number 12
_symmetry_cell_setting 'monoclinic'
loop_
_space_group_symop_operation_xyz
x,y,z
-x,y,-z
-x,-y,-z
x,-y,z
1/2+x,1/2+y,z
1/2-x,1/2+y,-z
1/2-x,1/2-y,-z
1/2+x,1/2-y,z
loop_
_atom_site_type_symbol
_atom_site_label
_atom_site_fract_x
_atom_site_fract_y
_atom_site_fract_z
Si Si1 0.216679 0.168492 0.472190
Si Si2 0.632440 0.243553 0.026750
Si Si3 0.543859 0.172665 0.739514
Si Si4 0.427065 0.569142 0.768329
Si Si5 0.686781 0.615747 0.071678
Si Si6 0.172978 0.249980 0.640873
O O1 0.379781 0.161957 0.625689
O O2 0.142074 0.108942 0.380720
O O3 0.136373 0.202225 0.515701
O O4 0.223823 0.209266 0.361345
O O5 0.645799 0.314665 0.036418
O O6 0.752483 0.218217 0.196869
O O7 0.500000 0.227543 0.000000
O O8 0.603039 0.216118 0.881657
O O9 0.647723 0.116855 0.821290
O O10 0.577204 0.205740 0.644106
O O11 0.407937 0.500000 0.736577
O O12 0.354590 0.588910 0.835304
O O13 0.588844 0.584023 0.907224
#
# Coordination Sequence:
#
# PCOD9188048 Si02
#       6
#     8   8   8   8   8   8
#     4  11  21  36  55  86 127 148 190 237 288 359
#     4  11  17  34  55  87 124 148 186 225 288 358
#     4  11  22  34  59  89 123 152 189 238 290 355
#     4  11  22  38  58  80 114 161 199 245 289 332
#     4  10  19  36  54  82 115 151 196 233 276 351
#     4  10  20  33  53  84 127 154 175 225 305 350
#
# _framework density 18.839924
#
# number of rings (size 3 to 8) (size 9 to 14) (size 15 to 20)
#    0.000    1.333    6.667    3.500    2.333    0.000 
#    3.000    2.500    0.000    0.000    0.000   16.333 
#    0.000    0.000    0.000    0.000    0.000    0.000 
#
# Total GULP energy -133645.435528 kJ/mol
# GULP energy per Si atom -5568.559814 kJ/mol
# Density = 1.879704 g / cm^3
# Si number density = 18.839924 Si / 1000 Ang^3
#
#
#
# Elastic Constant Matrix: (Units=GPa)
#
#
# Indices 1 2 3 4 5 6 
#
# 1 66.2247 19.5608 25.0423 0.0000 -7.5492 0.0000
# 2 19.5608 113.1354 54.1637 0.0000 -5.5749 0.0000
# 3 25.0423 54.1637 123.7446 0.0000 -7.1168 0.0000
# 4 0.0000 0.0000 0.0000 21.0457 0.0000 -2.5771
# 5 -7.5492 -5.5749 -7.1168 0.0000 40.4584 0.0000
# 6 0.0000 0.0000 0.0000 -2.5771 0.0000 10.0107
#
#
#
# Elastic Compliance Matrix: (Units=1/GPa)
#
#
# Indices 1 2 3 4 5 6 
#
# 1 0.016816 -0.001549 -0.002583 0.000000 0.002470 0.000000
# 2 -0.001549 0.011344 -0.004625 0.000000 0.000460 0.000000
# 3 -0.002583 -0.004625 0.010672 0.000000 0.000758 0.000000
# 4 0.000000 0.000000 0.000000 0.049062 0.000000 0.012630
# 5 0.002470 0.000460 0.000758 0.000000 0.025374 0.000000
# 6 0.000000 0.000000 0.000000 0.012630 0.000000 0.103144
#
#
# Mechanical properties :
#
#
# Convention : Reuss Voigt Hill
#
# Bulk Modulus (GPa) = 46.91082 55.62649 51.26866
# Shear Modulus (GPa) = 20.74403 27.92549 24.33476
#
# Velocity S-wave (km/s) = 3.32183 3.85418 3.59786
# Velocity P-wave (km/s) = 6.29814 7.02824 6.67318
#
# Compressibility (1/GPa) = 0.02131704
#
# Stress axis : x y z
#
# Youngs Moduli (GPa) = 59.46737 88.15345 93.70328
#
# Poissons Ratio (x) = 0.13656 0.24203
# Poissons Ratio (y) = 0.09212 0.43340
# Poissons Ratio (z) = 0.15360 0.40774
#
# Static dielectric constant tensor:
#      x y z
#    x 1.806590 0.000000 0.121320 
#    y 0.000000 1.625030 0.000000 
#    z 0.121320 0.000000 1.834340 
# 
# From -- ./inp_files/147255.got.cif
#   From: 2010.05.17/outbox.cif.g08.bks.cpg/sg12_74_cif.got.tgz:147255.got - 2010.06.03 13:09:07.
