data_PCOD9188219
_publ_section_title
;
Structure prediction by ZEFSAII (Michael W. Deem and Ramdas Pophale) SiO2 
 PCOD9188219
Probable space group: C 2/M
;
_chemical_formula_sum "Si O2"
_cell_formula_units_Z 64
_cell_length_a 15.962967
_cell_length_b 19.293239
_cell_length_c 12.826479
_cell_angle_alpha 90.000000
_cell_angle_beta 46.206247
_cell_angle_gamma 90.000000
_cell_volume 2851.442150
_symmetry_space_group_name_H-M "C 2/M"
_symmetry_group_IT_number 12
_symmetry_cell_setting 'monoclinic'
loop_
_space_group_symop_operation_xyz
x,y,z
-x,y,-z
-x,-y,-z
x,-y,z
1/2+x,1/2+y,z
1/2-x,1/2+y,-z
1/2-x,1/2-y,-z
1/2+x,1/2-y,z
loop_
_atom_site_type_symbol
_atom_site_label
_atom_site_fract_x
_atom_site_fract_y
_atom_site_fract_z
Si Si1 0.260588 0.922777 0.281814
Si Si2 0.891600 0.079645 0.376164
Si Si3 0.420327 0.332178 0.672000
Si Si4 0.987135 0.578287 0.841410
Si Si5 0.570678 0.920125 0.338488
Si Si6 0.315920 0.284592 0.345904
Si Si7 0.277079 0.207327 0.804967
Si Si8 0.553266 0.775376 0.070048
O O1 0.190296 0.920898 0.451134
O O2 0.198475 0.868763 0.261313
O O3 0.394076 0.912169 0.196692
O O4 0.246202 0.000000 0.250805
O O5 0.833055 0.133220 0.347432
O O6 0.009859 0.116873 0.312045
O O7 0.906655 0.000000 0.329295
O O8 0.500000 0.323802 0.500000
O O9 0.382963 0.257409 0.745645
O O10 0.943294 0.500000 0.901699
O O11 0.006288 0.581006 0.700341
O O12 0.912691 0.645884 0.931165
O O13 0.500000 0.894961 0.500000
O O14 0.679715 0.870883 0.226080
O O15 0.604079 0.000000 0.328356
O O16 0.250000 0.250000 0.500000
O O17 0.251463 0.274858 0.291619
O O18 0.443010 0.250144 0.231011
O O19 0.163937 0.225547 0.969137
O O20 0.500000 0.775807 0.000000
#
# Coordination Sequence:
#
# PCOD9188219 Si02
#       8
#     8   8   8   8   8   8   8   8
#     4   9  17  32  58  88 123 161 201 260 326 380
#     4  10  21  35  57  91 127 164 209 265 325 388
#     4  10  19  36  57  91 125 162 210 261 321 392
#     4  10  21  39  65  94 128 170 216 270 334 392
#     4  10  24  42  64  98 133 170 226 283 327 385
#     4  11  23  40  67  97 126 170 224 276 322 400
#     4  11  24  41  64  91 130 176 212 272 341 388
#     4  10  23  42  63  96 131 164 218 272 333 400
#
# _framework density 22.444782
#
# number of rings (size 3 to 8) (size 9 to 14) (size 15 to 20)
#    0.000    1.875    0.000    4.500    5.250    2.750 
#    0.000    1.875    0.000    3.000    0.000    0.000 
#    0.000    0.000    0.000    0.000    0.000    0.000 
#
# Total GULP energy -178988.535155 kJ/mol
# GULP energy per Si atom -5593.391724 kJ/mol
# Density = 2.239370 g / cm^3
# Si number density = 22.444782 Si / 1000 Ang^3
#
#
#
# Elastic Constant Matrix: (Units=GPa)
#
#
# Indices 1 2 3 4 5 6 
#
# 1 70.0232 22.8013 23.5982 0.0000 0.5968 0.0000
# 2 22.8013 145.7101 47.1953 0.0000 -19.1906 0.0000
# 3 23.5982 47.1953 117.7647 0.0000 -6.7242 0.0000
# 4 0.0000 0.0000 0.0000 26.5232 0.0000 -5.4411
# 5 0.5968 -19.1906 -6.7242 0.0000 17.1716 0.0000
# 6 0.0000 0.0000 0.0000 -5.4411 0.0000 34.9538
#
#
#
# Elastic Compliance Matrix: (Units=1/GPa)
#
#
# Indices 1 2 3 4 5 6 
#
# 1 0.015882 -0.002191 -0.002532 0.000000 -0.003992 0.000000
# 2 -0.002191 0.009345 -0.002767 0.000000 0.009436 0.000000
# 3 -0.002532 -0.002767 0.010164 0.000000 0.000975 0.000000
# 4 0.000000 0.000000 0.000000 0.038947 0.000000 0.006063
# 5 -0.003992 0.009436 0.000975 0.000000 0.069302 0.000000
# 6 0.000000 0.000000 0.000000 0.006063 0.000000 0.029553
#
#
# Mechanical properties :
#
#
# Convention : Reuss Voigt Hill
#
# Bulk Modulus (GPa) = 48.99697 57.85417 53.42557
# Shear Modulus (GPa) = 25.64420 31.72327 28.68374
#
# Velocity S-wave (km/s) = 3.38382 3.76359 3.57875
# Velocity P-wave (km/s) = 6.09462 6.68718 6.39776
#
# Compressibility (1/GPa) = 0.02040943
#
# Stress axis : x y z
#
# Youngs Moduli (GPa) = 62.96510 107.01091 98.38978
#
# Poissons Ratio (x) = 0.23444 0.24917
# Poissons Ratio (y) = 0.13794 0.27227
# Poissons Ratio (z) = 0.15945 0.29613
#
# Static dielectric constant tensor:
#      x y z
#    x 1.834450 0.000000 0.023520 
#    y 0.000000 1.848010 0.000000 
#    z 0.023520 0.000000 1.829020 
# 
# From -- ./inp_files/226848.got.cif
#   From: 2010.05.17/outbox.cif.g08.bks.cpg/sg12_114_cif.got.tgz:226848.got - 2010.06.03 13:09:07.
