data_PCOD9188058
_publ_section_title
;
Structure prediction by ZEFSAII (Michael W. Deem and Ramdas Pophale) SiO2 
 PCOD9188058
Probable space group: C 2/M
;
_chemical_formula_sum "Si O2"
_cell_formula_units_Z 56
_cell_length_a 15.633166
_cell_length_b 13.393133
_cell_length_c 24.156353
_cell_angle_alpha 90.000000
_cell_angle_beta 142.715317
_cell_angle_gamma 90.000000
_cell_volume 3063.884243
_symmetry_space_group_name_H-M "C 2/M"
_symmetry_group_IT_number 12
_symmetry_cell_setting 'monoclinic'
loop_
_space_group_symop_operation_xyz
x,y,z
-x,y,-z
-x,-y,-z
x,-y,z
1/2+x,1/2+y,z
1/2-x,1/2+y,-z
1/2-x,1/2-y,-z
1/2+x,1/2-y,z
loop_
_atom_site_type_symbol
_atom_site_label
_atom_site_fract_x
_atom_site_fract_y
_atom_site_fract_z
Si Si1 0.977720 0.120725 0.248243
Si Si2 0.790570 0.382250 0.427946
Si Si3 0.765854 0.756158 0.206411
Si Si4 0.680505 0.381275 0.942138
Si Si5 0.657689 0.614614 0.056666
Si Si6 0.425711 0.118186 0.375364
Si Si7 0.001880 0.615610 0.067770
O O1 0.866461 0.156021 0.236478
O O2 0.922328 0.156907 0.159363
O O3 0.132853 0.159637 0.344367
O O4 0.981561 0.000000 0.248037
O O5 0.777885 0.500000 0.434178
O O6 0.853169 0.375996 0.398290
O O7 0.912523 0.345758 0.532258
O O8 0.741406 0.685729 0.140657
O O9 0.839326 0.687592 0.289786
O O10 0.618684 0.806735 0.148862
O O11 0.652422 0.500000 0.929824
O O12 0.658336 0.348106 0.993764
O O13 0.843559 0.369925 0.008413
O O14 0.711028 0.500000 0.084951
O O15 0.500000 0.613250 0.000000
O O16 0.423399 0.000000 0.358200
O O17 0.041536 0.500000 0.100023
O O18 0.000000 0.626796 0.000000
#
# Coordination Sequence:
#
# PCOD9188058 Si02
#       7
#     8   8   8   8   8   8   8
#     4  10  20  34  54  79 102 134 181 224 264 309
#     4   8  17  36  58  77 101 135 178 224 270 318
#     4  12  22  31  52  82 109 141 173 221 271 315
#     4   9  19  36  55  72 104 147 179 219 262 306
#     4  10  23  38  49  72 110 146 180 215 261 324
#     4   9  19  36  56  78 105 138 175 220 271 324
#     4  10  19  36  55  75 107 143 185 226 258 304
#
# _framework density 18.277453999999999
#
# number of rings (size 3 to 8) (size 9 to 14) (size 15 to 20)
#    0.000    2.286    1.429    2.143    2.000    2.286 
#    0.000    0.000    0.000    0.000    0.000    8.000 
#    0.000    0.000    0.000    0.000    0.000    0.000 
#
# Total GULP energy -156187.955917 kJ/mol
# GULP energy per Si atom -5578.141283 kJ/mol
# Density = 1.823585 g / cm^3
# Si number density = 18.277454 Si / 1000 Ang^3
#
#
#
# Elastic Constant Matrix: (Units=GPa)
#
#
# Indices 1 2 3 4 5 6 
#
# 1 53.4838 -1.1099 22.2630 0.0000 1.6150 0.0000
# 2 -1.1099 67.0049 45.3914 0.0000 -4.6655 0.0000
# 3 22.2630 45.3914 121.2216 0.0000 10.3304 0.0000
# 4 0.0000 0.0000 0.0000 25.7743 0.0000 -0.9240
# 5 1.6150 -4.6655 10.3304 0.0000 25.3703 0.0000
# 6 0.0000 0.0000 0.0000 -0.9240 0.0000 62.0675
#
#
#
# Elastic Compliance Matrix: (Units=1/GPa)
#
#
# Indices 1 2 3 4 5 6 
#
# 1 0.021073 0.004276 -0.005619 0.000000 0.001733 0.000000
# 2 0.004276 0.022129 -0.009733 0.000000 0.007760 0.000000
# 3 -0.005619 -0.009733 0.013517 0.000000 -0.006936 0.000000
# 4 0.000000 0.000000 0.000000 0.038819 0.000000 0.000578
# 5 0.001733 0.007760 -0.006936 0.000000 0.043557 0.000000
# 6 0.000000 0.000000 0.000000 0.000578 0.000000 0.016120
#
#
# Mechanical properties :
#
#
# Convention : Reuss Voigt Hill
#
# Bulk Modulus (GPa) = 28.92927 41.64437 35.28682
# Shear Modulus (GPa) = 26.47076 34.32016 30.39546
#
# Velocity S-wave (km/s) = 3.80975 4.33798 4.08242
# Velocity P-wave (km/s) = 5.93418 6.92277 6.44745
#
# Compressibility (1/GPa) = 0.03456706
#
# Stress axis : x y z
#
# Youngs Moduli (GPa) = 47.45499 45.19014 73.98200
#
# Poissons Ratio (x) = -0.19324 0.41570
# Poissons Ratio (y) = -0.20293 0.72005
# Poissons Ratio (z) = 0.26665 0.43982
#
# Static dielectric constant tensor:
#      x y z
#    x 1.628080 0.000000 0.022030 
#    y 0.000000 1.659640 0.000000 
#    z 0.022030 0.000000 1.645960 
# 
# From -- ./inp_files/310836.got.cif
#   From: 2010.05.17/outbox.cif.g08.bks.cpg/sg12_156_cif.got.tgz:310836.got - 2010.06.03 13:09:07.
