data_PCOD9188215
_publ_section_title
;
Structure prediction by ZEFSAII (Michael W. Deem and Ramdas Pophale) SiO2 
 PCOD9188215
Probable space group: C 2/M
;
_chemical_formula_sum "Si O2"
_cell_formula_units_Z 60
_cell_length_a 23.598537
_cell_length_b 12.770859
_cell_length_c 22.484704
_cell_angle_alpha 90.000000
_cell_angle_beta 152.545106
_cell_angle_gamma 90.000000
_cell_volume 3124.212409
_symmetry_space_group_name_H-M "C 2/M"
_symmetry_group_IT_number 12
_symmetry_cell_setting 'monoclinic'
loop_
_space_group_symop_operation_xyz
x,y,z
-x,y,-z
-x,-y,-z
x,-y,z
1/2+x,1/2+y,z
1/2-x,1/2+y,-z
1/2-x,1/2-y,-z
1/2+x,1/2-y,z
loop_
_atom_site_type_symbol
_atom_site_label
_atom_site_fract_x
_atom_site_fract_y
_atom_site_fract_z
Si Si1 0.500000 0.733717 0.000000
Si Si2 0.669015 0.622479 0.061919
Si Si3 0.639564 0.879033 0.444018
Si Si4 0.925236 0.877502 0.161301
Si Si5 0.651503 0.761652 0.337223
Si Si6 0.095752 0.744360 0.747128
Si Si7 0.447224 0.377397 0.513400
Si Si8 0.846622 0.622144 0.775412
O O1 0.562199 0.664635 0.005921
O O2 0.604354 0.809252 0.124626
O O3 0.692100 0.500000 0.096550
O O4 0.790003 0.693631 0.180310
O O5 0.634639 0.629592 0.959782
O O6 0.677974 0.847011 0.412776
O O7 0.727140 0.804903 0.564867
O O8 0.497732 0.847005 0.319163
O O9 0.659469 0.000000 0.474598
O O10 0.863837 0.812113 0.157616
O O11 0.057258 0.822346 0.276302
O O12 0.934969 0.000000 0.185945
O O13 0.597678 0.823306 0.231389
O O14 0.013110 0.817356 0.628029
O O15 0.500000 0.337651 0.500000
O O16 0.479510 0.500000 0.549279
O O17 0.299833 0.371634 0.371610
O O18 0.879703 0.500000 0.812112
#
# Coordination Sequence:
#
# PCOD9188215 Si02
#       8
#     4   8   8   8   8   8   8   8
#     4  12  24  44  66  86 124 164 212 252 308 370
#     4  11  24  42  63  87 124 166 210 258 305 367
#     4  10  20  33  56  89 122 157 193 240 307 364
#     4  10  21  38  62  91 123 162 208 253 306 370
#     4  10  19  36  57  87 123 160 194 252 300 364
#     4  11  21  38  63  89 124 158 205 255 311 357
#     4  10  21  38  61  88 121 158 198 249 310 369
#     4  11  22  39  62  90 119 157 204 256 309 360
#
# _framework density 19.204840000000001
#
# number of rings (size 3 to 8) (size 9 to 14) (size 15 to 20)
#    0.000    1.467    2.667    3.200    0.000    0.000 
#    0.000    2.000    0.000    1.600    0.000    0.000 
#    0.000    0.000    0.000    0.000    0.000    0.000 
#
# Total GULP energy -167397.619321 kJ/mol
# GULP energy per Si atom -5579.920644 kJ/mol
# Density = 1.916113 g / cm^3
# Si number density = 19.204840 Si / 1000 Ang^3
#
#
#
# Elastic Constant Matrix: (Units=GPa)
#
#
# Indices 1 2 3 4 5 6 
#
# 1 71.3290 49.9709 12.7339 0.0000 -0.0651 0.0000
# 2 49.9709 116.4687 29.3314 0.0000 -3.7779 0.0000
# 3 12.7339 29.3314 53.5520 -0.0001 -6.3701 0.0000
# 4 0.0000 0.0000 -0.0001 26.9232 0.0000 -1.0363
# 5 -0.0651 -3.7779 -6.3701 0.0000 33.7671 0.0000
# 6 0.0000 0.0000 0.0000 -1.0363 0.0000 22.4369
#
#
#
# Elastic Compliance Matrix: (Units=1/GPa)
#
#
# Indices 1 2 3 4 5 6 
#
# 1 0.020075 -0.008600 -0.000177 0.000000 -0.000957 0.000000
# 2 -0.008600 0.013644 -0.005369 0.000000 0.000497 0.000000
# 3 -0.000177 -0.005369 0.022080 0.000000 0.003564 0.000000
# 4 0.000000 0.000000 0.000000 0.037209 0.000000 0.001719
# 5 -0.000957 0.000497 0.003564 0.000000 0.030341 0.000000
# 6 0.000000 0.000000 0.000000 0.001719 0.000000 0.044649
#
#
# Mechanical properties :
#
#
# Convention : Reuss Voigt Hill
#
# Bulk Modulus (GPa) = 36.35373 47.26913 41.81143
# Shear Modulus (GPa) = 24.33583 26.57966 25.45775
#
# Velocity S-wave (km/s) = 3.56360 3.72426 3.64482
# Velocity P-wave (km/s) = 5.99190 6.56963 6.28741
#
# Compressibility (1/GPa) = 0.02750750
#
# Stress axis : x y z
#
# Youngs Moduli (GPa) = 49.81353 73.29287 45.28921
#
# Poissons Ratio (x) = 0.63028 0.00803
# Poissons Ratio (y) = 0.42837 0.24316
# Poissons Ratio (z) = 0.00883 0.39351
#
# Static dielectric constant tensor:
#      x y z
#    x 1.689800 0.000000 0.003160 
#    y 0.000000 1.637480 0.000000 
#    z 0.003160 0.000000 1.688700 
# 
# From -- ./inp_files/325279.got.cif
#   From: 2010.05.17/outbox.cif.g08.bks.cpg/sg12_163_cif.got.tgz:325279.got - 2010.06.03 13:09:07.
