data_PCOD9188660
_publ_section_title
;
Structure prediction by ZEFSAII (Michael W. Deem and Ramdas Pophale) SiO2 
 PCOD9188660
Probable space group: C 2/M
;
_chemical_formula_sum "Si O2"
_cell_formula_units_Z 56
_cell_length_a 8.266218
_cell_length_b 24.100441
_cell_length_c 15.556391
_cell_angle_alpha 90.000000
_cell_angle_beta 58.444377
_cell_angle_gamma 90.000000
_cell_volume 2640.874927
_symmetry_space_group_name_H-M "C 2/M"
_symmetry_group_IT_number 12
_symmetry_cell_setting 'monoclinic'
loop_
_space_group_symop_operation_xyz
x,y,z
-x,y,-z
-x,-y,-z
x,-y,z
1/2+x,1/2+y,z
1/2-x,1/2+y,-z
1/2-x,1/2-y,-z
1/2+x,1/2-y,z
loop_
_atom_site_type_symbol
_atom_site_label
_atom_site_fract_x
_atom_site_fract_y
_atom_site_fract_z
Si Si1 0.916794 0.937200 0.337261
Si Si2 0.864445 0.437550 0.249179
Si Si3 0.105147 0.678450 0.675772
Si Si4 0.036207 0.884630 0.857038
Si Si5 0.189734 0.781692 0.737379
Si Si6 0.223386 0.335109 0.462099
Si Si7 0.228512 0.434292 0.048780
O O1 0.142932 0.935275 0.288660
O O2 0.886884 0.914673 0.249449
O O3 0.811192 0.896128 0.430914
O O4 0.406468 0.000000 0.271000
O O5 0.648632 0.500000 0.635634
O O6 0.902588 0.386497 0.301640
O O7 0.004920 0.429717 0.128792
O O8 0.170917 0.715655 0.737836
O O9 0.236830 0.686477 0.555265
O O10 0.895945 0.699854 0.711576
O O11 0.048607 0.819125 0.833283
O O12 0.169635 0.904815 0.898011
O O13 0.826688 0.905521 0.940182
O O14 0.174116 0.800693 0.641690
O O15 0.000000 0.336549 0.500000
O O16 0.274704 0.500000 0.033710
#
# Coordination Sequence:
#
# PCOD9188660 Si02
#       7
#     8   8   8   8   8   8   8
#     4  10  21  37  58  89 125 161 198 250 305 353
#     4  10  23  40  60  87 124 161 201 248 302 359
#     4  11  22  41  61  87 121 160 202 248 301 357
#     4  10  19  36  60  91 117 152 203 249 296 356
#     4  10  22  38  62  87 120 155 199 253 301 357
#     4   9  21  39  58  89 119 154 208 249 297 358
#     4  10  19  36  64  90 117 161 203 248 299 357
#
# _framework density 21.205093999999999
#
# number of rings (size 3 to 8) (size 9 to 14) (size 15 to 20)
#    0.000    2.000    1.429    2.143    4.000    2.000 
#    0.000    4.286    0.000    0.000    0.000    0.000 
#    0.000    0.000    0.000    0.000    0.000    0.000 
#
# Total GULP energy -156325.626095 kJ/mol
# GULP energy per Si atom -5583.058075 kJ/mol
# Density = 2.115683 g / cm^3
# Si number density = 21.205094 Si / 1000 Ang^3
#
#
#
# Elastic Constant Matrix: (Units=GPa)
#
#
# Indices 1 2 3 4 5 6 
#
# 1 29.9193 25.1778 3.7166 0.0000 3.4449 0.0000
# 2 25.1778 122.9423 36.7502 0.0000 8.3522 0.0000
# 3 3.7166 36.7502 73.5519 0.0000 -2.9043 0.0000
# 4 0.0000 0.0000 0.0000 34.5162 0.0000 -3.9103
# 5 3.4449 8.3522 -2.9043 0.0000 15.3485 0.0000
# 6 0.0000 0.0000 0.0000 -3.9103 0.0000 16.3235
#
#
#
# Elastic Compliance Matrix: (Units=1/GPa)
#
#
# Indices 1 2 3 4 5 6 
#
# 1 0.040995 -0.008764 0.002149 0.000000 -0.004025 0.000000
# 2 -0.008764 0.012050 -0.005802 0.000000 -0.005688 0.000000
# 3 0.002149 -0.005802 0.016616 0.000000 0.005819 0.000000
# 4 0.000000 0.000000 0.000000 0.029780 0.000000 0.007134
# 5 -0.004025 -0.005688 0.005819 0.000000 0.070253 0.000000
# 6 0.000000 0.000000 0.000000 0.007134 0.000000 0.062970
#
#
# Mechanical properties :
#
#
# Convention : Reuss Voigt Hill
#
# Bulk Modulus (GPa) = 22.30902 39.74477 31.02689
# Shear Modulus (GPa) = 18.35256 23.95557 21.15407
#
# Velocity S-wave (km/s) = 2.94509 3.36476 3.16190
# Velocity P-wave (km/s) = 4.70194 5.82058 5.29091
#
# Compressibility (1/GPa) = 0.04482493
#
# Stress axis : x y z
#
# Youngs Moduli (GPa) = 24.39310 82.98988 60.18225
#
# Poissons Ratio (x) = 0.72736 -0.12931
# Poissons Ratio (y) = 0.21379 0.34920
# Poissons Ratio (z) = -0.05241 0.48154
#
# Static dielectric constant tensor:
#      x y z
#    x 1.782810 0.000000 0.001390 
#    y 0.000000 1.804720 0.000000 
#    z 0.001390 0.000000 1.775860 
# 
# From -- ./inp_files/198802.got.cif
#   From: 2010.05.17/outbox.cif.g08.bks.cpg/sg12_100_cif.got.tgz:198802.got - 2010.06.03 13:09:07.
