data_PCOD9188287
_publ_section_title
;
Structure prediction by ZEFSAII (Michael W. Deem and Ramdas Pophale) SiO2 
 PCOD9188287
Probable space group: C 2/M
;
_chemical_formula_sum "Si O2"
_cell_formula_units_Z 58
_cell_length_a 14.350009
_cell_length_b 7.473800
_cell_length_c 23.811737
_cell_angle_alpha 90.000000
_cell_angle_beta 82.433120
_cell_angle_gamma 90.000000
_cell_volume 2531.548473
_symmetry_space_group_name_H-M "C 2/M"
_symmetry_group_IT_number 12
_symmetry_cell_setting 'monoclinic'
loop_
_space_group_symop_operation_xyz
x,y,z
-x,y,-z
-x,-y,-z
x,-y,z
1/2+x,1/2+y,z
1/2-x,1/2+y,-z
1/2-x,1/2-y,-z
1/2+x,1/2-y,z
loop_
_atom_site_type_symbol
_atom_site_label
_atom_site_fract_x
_atom_site_fract_y
_atom_site_fract_z
Si Si1 0.000000 0.500000 0.000000
Si Si2 0.725190 0.786162 0.592075
Si Si3 0.394635 0.214596 0.504244
Si Si4 0.706759 0.286721 0.063629
Si Si5 0.510687 0.291588 0.917063
Si Si6 0.519314 0.786109 0.204147
Si Si7 0.157241 0.718962 0.717965
Si Si8 0.262699 0.705874 0.819387
O O1 0.054180 0.657087 0.957994
O O2 0.660025 0.716028 0.546453
O O3 0.831198 0.751904 0.563649
O O4 0.696413 0.717307 0.655397
O O5 0.712872 0.000000 0.594691
O O6 0.500000 0.283890 0.500000
O O7 0.399314 0.000000 0.498299
O O8 0.700708 0.500000 0.070916
O O9 0.598600 0.223438 0.072371
O O10 0.754538 0.214007 0.116944
O O11 0.750000 0.250000 0.000000
O O12 0.518582 0.500000 0.931592
O O13 0.532708 0.267727 0.849773
O O14 0.450771 0.733359 0.260196
O O15 0.623864 0.707929 0.196492
O O16 0.529238 0.000000 0.202993
O O17 0.161934 0.500000 0.716998
O O18 0.217578 0.783165 0.766728
O O19 0.229884 0.500000 0.824318
#
# Coordination Sequence:
#
# PCOD9188287 Si02
#       8
#     2   8   8   8   8   8   8   8
#     4  12  22  36  60  82 108 152 190 242 296 370
#     4   9  18  34  54  80 114 150 193 245 285 340
#     4   9  18  33  54  80 115 156 192 235 296 347
#     4   9  19  33  53  78 106 141 181 235 292 356
#     4  10  22  39  55  83 116 148 191 244 301 364
#     4  10  19  36  58  83 110 149 191 237 293 360
#     4   9  19  35  57  83 112 150 198 238 291 356
#     4   9  19  37  55  75 107 148 183 233 295 350
#
# _framework density 22.910878
#
# number of rings (size 3 to 8) (size 9 to 14) (size 15 to 20)
#    0.000    2.621    0.690    1.448    0.966    3.034 
#    2.483    4.828    0.000    0.000    0.000    0.000 
#    0.000    0.000    0.000    0.000    0.000    0.000 
#
# Total GULP energy -161760.169554 kJ/mol
# GULP energy per Si atom -5577.936881 kJ/mol
# Density = 2.285873 g / cm^3
# Si number density = 22.910878 Si / 1000 Ang^3
#
#
#
# Elastic Constant Matrix: (Units=GPa)
#
#
# Indices 1 2 3 4 5 6 
#
# 1 75.5889 -4.9764 63.4264 0.0000 -18.7485 0.0000
# 2 -4.9764 97.2716 3.5153 0.0000 1.5203 0.0000
# 3 63.4264 3.5153 188.8668 0.0000 -34.8040 0.0000
# 4 0.0000 0.0000 0.0000 17.8960 0.0000 -8.2578
# 5 -18.7485 1.5203 -34.8040 0.0000 28.2330 0.0000
# 6 0.0000 0.0000 0.0000 -8.2578 0.0000 -0.9552
#
#
#
# Elastic Compliance Matrix: (Units=1/GPa)
#
#
# Indices 1 2 3 4 5 6 
#
# 1 0.019343 0.001088 -0.005383 0.000000 0.006151 0.000000
# 2 0.001088 0.010371 -0.000683 0.000000 -0.000678 0.000000
# 3 -0.005383 -0.000683 0.008363 0.000000 0.006772 0.000000
# 4 0.000000 0.000000 0.000000 0.011200 0.000000 -0.096826
# 5 0.006151 -0.000678 0.006772 0.000000 0.047889 0.000000
# 6 0.000000 0.000000 0.000000 -0.096826 0.000000 -0.209838
#
#
# Mechanical properties :
#
#
# Convention : Reuss Voigt Hill
#
# Bulk Modulus (GPa) = 35.56003 53.96198 44.76100
# Shear Modulus (GPa) = -53.56670 29.01891 -12.27390
#
# Velocity S-wave (km/s) = -4.84058 3.56279 -2.31708
# Velocity P-wave (km/s) = 3.96067 6.36622 3.52433
#
# Compressibility (1/GPa) = 0.02812146
#
# Stress axis : x y z
#
# Youngs Moduli (GPa) = 51.69725 96.41843 119.57415
#
# Poissons Ratio (x) = -0.10490 0.64364
# Poissons Ratio (y) = -0.05625 0.08172
# Poissons Ratio (z) = 0.27827 0.06590
#
# Static dielectric constant tensor:
#      x y z
#    x 1.947190 0.000000 0.023940 
#    y 0.000000 1.868120 0.000000 
#    z 0.023940 0.000000 1.880920 
# 
# From -- ./inp_files/337960.got.cif
#   From: 2010.05.17/outbox.cif.g08.bks.cpg/sg12_169_cif.got.tgz:337960.got - 2010.06.03 13:09:07.
