data_PCOD9188843
_publ_section_title
;
Structure prediction by ZEFSAII (Michael W. Deem and Ramdas Pophale) SiO2 
 PCOD9188843
Probable space group: C 2/M
;
_chemical_formula_sum "Si O2"
_cell_formula_units_Z 48
_cell_length_a 24.396244
_cell_length_b 10.838253
_cell_length_c 16.424823
_cell_angle_alpha 90.000000
_cell_angle_beta 144.204397
_cell_angle_gamma 90.000000
_cell_volume 2540.160624
_symmetry_space_group_name_H-M "C 2/M"
_symmetry_group_IT_number 12
_symmetry_cell_setting 'monoclinic'
loop_
_space_group_symop_operation_xyz
x,y,z
-x,y,-z
-x,-y,-z
x,-y,z
1/2+x,1/2+y,z
1/2-x,1/2+y,-z
1/2-x,1/2-y,-z
1/2+x,1/2-y,z
loop_
_atom_site_type_symbol
_atom_site_label
_atom_site_fract_x
_atom_site_fract_y
_atom_site_fract_z
Si Si1 0.460168 0.643267 0.543883
Si Si2 0.314264 0.134432 0.366649
Si Si3 0.798539 0.799210 0.926054
Si Si4 0.487272 0.353648 0.080959
Si Si5 0.696173 0.641494 0.387740
Si Si6 0.849040 0.135623 0.165481
O O1 0.500000 0.643285 0.500000
O O2 0.433041 0.500000 0.532157
O O3 0.378758 0.744658 0.450835
O O4 0.547633 0.692987 0.703289
O O5 0.259921 0.136896 0.215611
O O6 0.238931 0.139879 0.348403
O O7 0.363595 0.000000 0.432945
O O8 0.731533 0.689980 0.875354
O O9 0.816110 0.866282 0.032980
O O10 0.901187 0.776151 0.012884
O O11 0.463045 0.500000 0.061317
O O12 0.585242 0.333634 0.245349
O O13 0.500000 0.331476 0.000000
O O14 0.708322 0.500000 0.434868
O O15 0.750000 0.750000 0.500000
O O16 0.867237 0.000000 0.218924
#
# Coordination Sequence:
#
# PCOD9188843 Si02
#       6
#     8   8   8   8   8   8
#     4  10  21  39  59  83 118 161 200 237 289 359
#     4  11  22  38  60  89 120 153 197 253 303 348
#     4  11  21  37  61  88 117 154 199 251 296 345
#     4  10  19  36  62  87 112 149 197 247 293 349
#     4  10  23  41  62  88 120 154 195 246 302 361
#     4  10  22  39  58  85 120 160 204 244 291 353
#
# _framework density 18.896442
#
# number of rings (size 3 to 8) (size 9 to 14) (size 15 to 20)
#    0.000    1.667    3.333    1.500    2.333    1.000 
#    0.000    1.667    0.000    1.000    0.000    0.000 
#    0.000    0.000    0.000    0.000    0.000    0.000 
#
# Total GULP energy -133714.318607 kJ/mol
# GULP energy per Si atom -5571.429942 kJ/mol
# Density = 1.885343 g / cm^3
# Si number density = 18.896442 Si / 1000 Ang^3
#
#
#
# Elastic Constant Matrix: (Units=GPa)
#
#
# Indices 1 2 3 4 5 6 
#
# 1 84.6044 34.1997 32.0111 0.0000 7.8001 0.0000
# 2 34.1997 83.2082 61.3616 0.0000 13.3648 0.0000
# 3 32.0111 61.3616 123.4184 0.0000 11.5762 0.0000
# 4 0.0000 0.0000 0.0000 26.1860 0.0000 -1.0328
# 5 7.8001 13.3648 11.5762 0.0000 36.6253 0.0000
# 6 0.0000 0.0000 0.0000 -1.0328 0.0000 -2.7241
#
#
#
# Elastic Compliance Matrix: (Units=1/GPa)
#
#
# Indices 1 2 3 4 5 6 
#
# 1 0.014322 -0.004839 -0.001224 0.000000 -0.000897 0.000000
# 2 -0.004839 0.021216 -0.008928 0.000000 -0.003889 0.000000
# 3 -0.001224 -0.008928 0.012912 0.000000 -0.000562 0.000000
# 4 0.000000 0.000000 0.000000 0.037626 0.000000 -0.014265
# 5 -0.000897 -0.003889 -0.000562 0.000000 0.029092 0.000000
# 6 0.000000 0.000000 0.000000 -0.014265 0.000000 -0.361681
#
#
# Mechanical properties :
#
#
# Convention : Reuss Voigt Hill
#
# Bulk Modulus (GPa) = 54.15512 60.70842 57.43177
# Shear Modulus (GPa) = -23.76711 22.92800 -0.41956
#
# Velocity S-wave (km/s) = -3.55033 3.48710 -0.47171
# Velocity P-wave (km/s) = 3.45176 6.95771 5.49201
#
# Compressibility (1/GPa) = 0.01846548
#
# Stress axis : x y z
#
# Youngs Moduli (GPa) = 69.82287 47.13460 77.44857
#
# Poissons Ratio (x) = 0.22810 0.09483
# Poissons Ratio (y) = 0.33790 0.69147
# Poissons Ratio (z) = 0.08549 0.42083
#
# Static dielectric constant tensor:
#      x y z
#    x 1.649360 0.000000 -0.012290 
#    y 0.000000 1.672770 0.000000 
#    z -0.012290 0.000000 1.681270 
# 
# From -- ./inp_files/289445.got.cif
#   From: 2010.05.17/outbox.cif.g08.bks.cpg/sg12_145_cif.got.tgz:289445.got - 2010.06.03 13:09:07.
