data_PCOD9188020
_publ_section_title
;
Structure prediction by ZEFSAII (Michael W. Deem and Ramdas Pophale) SiO2 
 PCOD9188020
Probable space group: C 2/M
;
_chemical_formula_sum "Si O2"
_cell_formula_units_Z 40
_cell_length_a 13.204622
_cell_length_b 28.720255
_cell_length_c 6.924739
_cell_angle_alpha 90.000000
_cell_angle_beta 47.194729
_cell_angle_gamma 90.000000
_cell_volume 1926.712299
_symmetry_space_group_name_H-M "C 2/M"
_symmetry_group_IT_number 12
_symmetry_cell_setting 'monoclinic'
loop_
_space_group_symop_operation_xyz
x,y,z
-x,y,-z
-x,-y,-z
x,-y,z
1/2+x,1/2+y,z
1/2-x,1/2+y,-z
1/2-x,1/2-y,-z
1/2+x,1/2-y,z
loop_
_atom_site_type_symbol
_atom_site_label
_atom_site_fract_x
_atom_site_fract_y
_atom_site_fract_z
Si Si1 0.133271 0.774660 0.933852
Si Si2 0.133549 0.448830 0.192281
Si Si3 0.000000 0.202256 0.500000
Si Si4 0.161878 0.352207 0.251947
Si Si5 0.218210 0.327018 0.736625
Si Si6 0.000000 0.601153 0.000000
O O1 0.087663 0.770066 0.220823
O O2 0.251847 0.812860 0.751854
O O3 0.171197 0.726432 0.780438
O O4 0.000000 0.793208 0.000000
O O5 0.199305 0.500000 0.091346
O O6 0.214977 0.405660 0.184102
O O7 0.000000 0.453378 0.500000
O O8 0.074432 0.430710 0.063449
O O9 0.884738 0.172995 0.531216
O O10 0.000000 0.351052 0.500000
O O11 0.178509 0.338316 0.008132
O O12 0.120800 0.364762 0.756171
#
# Coordination Sequence:
#
# PCOD9188020 Si02
#       6
#     8   8   4   8   8   4
#     4  11  23  35  51  77 105 148 185 211 258 311
#     4   9  18  33  56  81 103 131 170 222 275 311
#     4  10  22  36  50  68 107 148 179 220 250 302
#     4   9  19  34  55  76 108 139 176 224 263 309
#     4  10  21  34  51  77 108 145 182 212 257 313
#     4  10  19  36  52  82 108 132 175 222 258 310
#
# _framework density 20.760755
#
# number of rings (size 3 to 8) (size 9 to 14) (size 15 to 20)
#    0.000    2.200    1.000    2.700    5.600    5.600 
#    0.000    0.000    0.000    0.600    0.000   78.400 
#    0.000    0.000    0.000    0.000    0.000    0.000 
#
# Total GULP energy -111430.559071 kJ/mol
# GULP energy per Si atom -5571.527954 kJ/mol
# Density = 2.071350 g / cm^3
# Si number density = 20.760755 Si / 1000 Ang^3
#
#
#
# Elastic Constant Matrix: (Units=GPa)
#
#
# Indices 1 2 3 4 5 6 
#
# 1 54.5608 26.7059 6.9661 0.0000 -19.0175 0.0000
# 2 26.7059 164.1067 30.4740 0.0000 -12.2295 0.0000
# 3 6.9661 30.4740 71.1309 0.0000 -5.0384 0.0000
# 4 0.0000 0.0000 0.0000 23.9072 0.0000 2.7563
# 5 -19.0175 -12.2295 -5.0384 0.0000 35.7592 0.0000
# 6 0.0000 0.0000 0.0000 2.7563 0.0000 26.2390
#
#
#
# Elastic Compliance Matrix: (Units=1/GPa)
#
#
# Indices 1 2 3 4 5 6 
#
# 1 0.023873 -0.002973 -0.000240 0.000000 0.011646 0.000000
# 2 -0.002973 0.007118 -0.002725 0.000000 0.000470 0.000000
# 3 -0.000240 -0.002725 0.015328 0.000000 0.001100 0.000000
# 4 0.000000 0.000000 0.000000 0.042341 0.000000 -0.004448
# 5 0.011646 0.000470 0.001100 0.000000 0.034474 0.000000
# 6 0.000000 0.000000 0.000000 -0.004448 0.000000 0.038578
#
#
# Mechanical properties :
#
#
# Convention : Reuss Voigt Hill
#
# Bulk Modulus (GPa) = 29.03260 46.45449 37.74355
# Shear Modulus (GPa) = 27.01701 32.22458 29.62079
#
# Velocity S-wave (km/s) = 3.61134 3.94405 3.78136
# Velocity P-wave (km/s) = 5.60390 6.57004 6.10611
#
# Compressibility (1/GPa) = 0.03444404
#
# Stress axis : x y z
#
# Youngs Moduli (GPa) = 41.88840 140.48070 65.24203
#
# Poissons Ratio (x) = 0.41760 0.01563
# Poissons Ratio (y) = 0.12452 0.17780
# Poissons Ratio (z) = 0.01003 0.38285
#
# Static dielectric constant tensor:
#      x y z
#    x 1.933980 0.000000 0.042100 
#    y 0.000000 1.837670 0.000000 
#    z 0.042100 0.000000 1.810210 
# 
# From -- ./inp_files/66404.got.cif
#   From: 2010.05.17/outbox.cif.g08.bks.cpg/sg12_34_cif.got.tgz:66404.got - 2010.06.03 13:09:07.
