data_PCOD9188276
_publ_section_title
;
Structure prediction by ZEFSAII (Michael W. Deem and Ramdas Pophale) SiO2 
 PCOD9188276
Probable space group: C 2/M
;
_chemical_formula_sum "Si O2"
_cell_formula_units_Z 56
_cell_length_a 30.887381
_cell_length_b 8.998384
_cell_length_c 12.106319
_cell_angle_alpha 90.000000
_cell_angle_beta 116.899614
_cell_angle_gamma 90.000000
_cell_volume 3000.719982
_symmetry_space_group_name_H-M "C 2/M"
_symmetry_group_IT_number 12
_symmetry_cell_setting 'monoclinic'
loop_
_space_group_symop_operation_xyz
x,y,z
-x,y,-z
-x,-y,-z
x,-y,z
1/2+x,1/2+y,z
1/2-x,1/2+y,-z
1/2-x,1/2-y,-z
1/2+x,1/2-y,z
loop_
_atom_site_type_symbol
_atom_site_label
_atom_site_fract_x
_atom_site_fract_y
_atom_site_fract_z
Si Si1 0.092406 0.322609 0.297552
Si Si2 0.096550 0.823049 0.067268
Si Si3 0.182996 0.823830 0.997523
Si Si4 0.865097 0.823536 0.437964
Si Si5 0.207718 0.675527 0.800756
Si Si6 0.022014 0.322775 0.825557
Si Si7 0.552982 0.175667 0.615946
O O1 0.098507 0.500000 0.307493
O O2 0.105041 0.257579 0.192768
O O3 0.122744 0.248039 0.430128
O O4 0.035094 0.290634 0.250440
O O5 0.139715 0.788929 0.030948
O O6 0.094472 0.000000 0.080921
O O7 0.047538 0.764045 0.953679
O O8 0.235109 0.796059 0.115015
O O9 0.180837 0.000000 0.967679
O O10 0.182097 0.731258 0.883783
O O11 0.815677 0.761891 0.327900
O O12 0.907566 0.769848 0.403679
O O13 0.864409 0.000000 0.444640
O O14 0.200231 0.500000 0.778670
O O15 0.027073 0.500000 0.850056
O O16 0.047642 0.286141 0.738704
O O17 0.500000 0.194875 0.500000
O O18 0.565294 0.000000 0.620360
#
# Coordination Sequence:
#
# PCOD9188276 Si02
#       7
#     8   8   8   8   8   8   8
#     4  11  23  41  59  78 110 154 200 237 275 334
#     4  11  23  38  57  84 116 147 186 237 290 337
#     4   9  20  39  61  88 119 147 183 236 289 338
#     4  12  24  37  56  86 120 151 188 235 291 340
#     4  10  20  37  63  89 115 150 189 229 282 345
#     4  10  21  37  58  82 111 151 195 234 275 332
#     4  10  19  36  58  82 113 150 190 231 276 332
#
# _framework density 18.662186999999999
#
# number of rings (size 3 to 8) (size 9 to 14) (size 15 to 20)
#    0.000    1.571    1.429    3.857    0.000    7.714 
#    0.000    0.714    0.000    0.000    0.000    0.000 
#    0.000    0.000    0.000    0.000    0.000    0.000 
#
# Total GULP energy -156562.685251 kJ/mol
# GULP energy per Si atom -5591.524473 kJ/mol
# Density = 1.861971 g / cm^3
# Si number density = 18.662187 Si / 1000 Ang^3
#
#
#
# Elastic Constant Matrix: (Units=GPa)
#
#
# Indices 1 2 3 4 5 6 
#
# 1 28.4696 26.2727 31.8920 0.0000 -3.8340 0.0000
# 2 26.2727 76.6497 74.3647 0.0000 -1.9920 0.0000
# 3 31.8920 74.3647 144.6399 0.0000 -1.9131 0.0000
# 4 0.0000 0.0000 0.0000 33.3233 0.0000 -4.3549
# 5 -3.8340 -1.9920 -1.9131 0.0000 19.2757 0.0000
# 6 0.0000 0.0000 0.0000 -4.3549 0.0000 24.1908
#
#
#
# Elastic Compliance Matrix: (Units=1/GPa)
#
#
# Indices 1 2 3 4 5 6 
#
# 1 0.054402 -0.013751 -0.004807 0.000000 0.008923 0.000000
# 2 -0.013751 0.029543 -0.012169 0.000000 -0.000890 0.000000
# 3 -0.004807 -0.012169 0.014219 0.000000 -0.000802 0.000000
# 4 0.000000 0.000000 0.000000 0.030732 0.000000 0.005532
# 5 0.008923 -0.000890 -0.000802 0.000000 0.053482 0.000000
# 6 0.000000 0.000000 0.000000 0.005532 0.000000 0.042334
#
#
# Mechanical properties :
#
#
# Convention : Reuss Voigt Hill
#
# Bulk Modulus (GPa) = 27.24068 57.20200 42.22134
# Shear Modulus (GPa) = 16.75587 23.17328 19.96458
#
# Velocity S-wave (km/s) = 2.99967 3.52763 3.27431
# Velocity P-wave (km/s) = 5.16001 6.87823 6.08012
#
# Compressibility (1/GPa) = 0.03670981
#
# Stress axis : x y z
#
# Youngs Moduli (GPa) = 18.38167 33.84944 70.32644
#
# Poissons Ratio (x) = 0.46547 0.33807
# Poissons Ratio (y) = 0.25277 0.85578
# Poissons Ratio (z) = 0.08836 0.41190
#
# Static dielectric constant tensor:
#      x y z
#    x 1.636300 0.000000 0.011330 
#    y 0.000000 1.617430 0.000000 
#    z 0.011330 0.000000 1.632360 
# 
# From -- ./inp_files/187772.got.cif
#   From: 2010.05.17/outbox.cif.g08.bks.cpg/sg12_94_cif.got.tgz:187772.got - 2010.06.03 13:09:07.
