data_PCOD9188953
_publ_section_title
;
Structure prediction by ZEFSAII (Michael W. Deem and Ramdas Pophale) SiO2 
 PCOD9188953
Probable space group: C 2/M
;
_chemical_formula_sum "Si O2"
_cell_formula_units_Z 52
_cell_length_a 20.596200
_cell_length_b 15.536448
_cell_length_c 11.679972
_cell_angle_alpha 90.000000
_cell_angle_beta 38.142297
_cell_angle_gamma 90.000000
_cell_volume 2308.339196
_symmetry_space_group_name_H-M "C 2/M"
_symmetry_group_IT_number 12
_symmetry_cell_setting 'monoclinic'
loop_
_space_group_symop_operation_xyz
x,y,z
-x,y,-z
-x,-y,-z
x,-y,z
1/2+x,1/2+y,z
1/2-x,1/2+y,-z
1/2-x,1/2-y,-z
1/2+x,1/2-y,z
loop_
_atom_site_type_symbol
_atom_site_label
_atom_site_fract_x
_atom_site_fract_y
_atom_site_fract_z
Si Si1 0.370357 0.145099 0.874948
Si Si2 0.854667 0.146367 0.904534
Si Si3 0.864716 0.249661 0.291844
Si Si4 0.500000 0.671088 0.500000
Si Si5 0.910801 0.684765 0.470105
Si Si6 0.882377 0.410359 0.115177
Si Si7 0.322042 0.400329 0.201411
O O1 0.358385 0.249096 0.903244
O O2 0.482387 0.130651 0.658032
O O3 0.263717 0.117321 0.961198
O O4 0.375659 0.099693 0.989686
O O5 0.935007 0.123144 0.689926
O O6 0.874019 0.112297 0.004830
O O7 0.750000 0.250000 0.500000
O O8 0.928561 0.281412 0.313848
O O9 0.852802 0.320062 0.209598
O O10 0.883424 0.158210 0.208403
O O11 0.581763 0.734078 0.454189
O O12 0.799182 0.636772 0.634435
O O13 0.827085 0.500000 0.227483
O O14 0.000000 0.417352 0.000000
O O15 0.319014 0.500000 0.236862
#
# Coordination Sequence:
#
# PCOD9188953 Si02
#       7
#     8   8   8   4   8   8   8
#     4  10  19  36  63  93 129 168 206 260 325 393
#     4  10  21  38  66  91 129 170 220 262 322 384
#     4  10  22  38  62  90 132 174 207 254 322 377
#     4  10  22  40  68  98 116 168 228 268 322 390
#     4  10  20  37  63  97 128 167 209 266 327 385
#     4  11  22  37  62  98 131 160 205 263 328 391
#     4  11  23  40  64  96 134 174 218 265 318 383
#
# _framework density 22.527018000000002
#
# number of rings (size 3 to 8) (size 9 to 14) (size 15 to 20)
#    0.000    1.692    3.077    2.769    2.154    3.692 
#    0.000    3.077    0.000   11.538    0.000    0.000 
#    0.000    0.000    0.000    0.000    0.000    0.000 
#
# Total GULP energy -145046.753972 kJ/mol
# GULP energy per Si atom -5578.721307 kJ/mol
# Density = 2.247575 g / cm^3
# Si number density = 22.527018 Si / 1000 Ang^3
#
#
#
# Elastic Constant Matrix: (Units=GPa)
#
#
# Indices 1 2 3 4 5 6 
#
# 1 87.3400 21.2185 36.1183 0.0000 20.4913 0.0000
# 2 21.2185 100.1717 36.3092 0.0000 13.4214 0.0000
# 3 36.1183 36.3092 112.8135 0.0000 12.5811 0.0000
# 4 0.0000 0.0000 0.0000 -3.7433 0.0000 13.5657
# 5 20.4913 13.4214 12.5811 0.0000 43.7702 0.0000
# 6 0.0000 0.0000 0.0000 13.5657 0.0000 75.2622
#
#
#
# Elastic Compliance Matrix: (Units=1/GPa)
#
#
# Indices 1 2 3 4 5 6 
#
# 1 0.014499 -0.000999 -0.003717 0.000000 -0.005413 0.000000
# 2 -0.000999 0.011641 -0.003183 0.000000 -0.002187 0.000000
# 3 -0.003717 -0.003183 0.011133 0.000000 -0.000484 0.000000
# 4 0.000000 0.000000 0.000000 -0.161591 0.000000 0.029126
# 5 -0.005413 -0.002187 -0.000484 0.000000 0.026191 0.000000
# 6 0.000000 0.000000 0.000000 0.029126 0.000000 0.008037
#
#
# Mechanical properties :
#
#
# Convention : Reuss Voigt Hill
#
# Bulk Modulus (GPa) = 46.56430 54.17968 50.37199
# Shear Modulus (GPa) = -74.47719 36.83643 -18.82038
#
# Velocity S-wave (km/s) = -5.75613 4.04816 -2.89356
# Velocity P-wave (km/s) = 4.84377 6.77889 3.35345
#
# Compressibility (1/GPa) = 0.02147568
#
# Stress axis : x y z
#
# Youngs Moduli (GPa) = 68.96899 85.90163 89.82591
#
# Poissons Ratio (x) = 0.08579 0.33388
# Poissons Ratio (y) = 0.06888 0.28593
# Poissons Ratio (z) = 0.25635 0.27343
#
# Static dielectric constant tensor:
#      x y z
#    x 1.919990 0.000000 -0.022600 
#    y 0.000000 1.838330 0.000000 
#    z -0.022600 0.000000 1.847580 
# 
# From -- ./inp_files/168724.got.cif
#   From: 2010.05.17/outbox.cif.g08.bks.cpg/sg12_85_cif.got.tgz:168724.got - 2010.06.03 13:09:07.
