data_PCOD9188552
_publ_section_title
;
Structure prediction by ZEFSAII (Michael W. Deem and Ramdas Pophale) SiO2 
 PCOD9188552
Probable space group: C 2/M
;
_chemical_formula_sum "Si O2"
_cell_formula_units_Z 64
_cell_length_a 14.762784
_cell_length_b 23.827401
_cell_length_c 18.251760
_cell_angle_alpha 90.000000
_cell_angle_beta 149.076854
_cell_angle_gamma 90.000000
_cell_volume 3299.271344
_symmetry_space_group_name_H-M "C 2/M"
_symmetry_group_IT_number 12
_symmetry_cell_setting 'monoclinic'
loop_
_space_group_symop_operation_xyz
x,y,z
-x,y,-z
-x,-y,-z
x,-y,z
1/2+x,1/2+y,z
1/2-x,1/2+y,-z
1/2-x,1/2-y,-z
1/2+x,1/2-y,z
loop_
_atom_site_type_symbol
_atom_site_label
_atom_site_fract_x
_atom_site_fract_y
_atom_site_fract_z
Si Si1 0.076534 0.933209 0.699422
Si Si2 0.773828 0.434671 0.977877
Si Si3 0.902304 0.634217 0.859794
Si Si4 0.204539 0.648543 0.616837
Si Si5 0.795111 0.778911 0.379385
Si Si6 0.093701 0.563508 0.780909
Si Si7 0.263019 0.138924 0.535748
Si Si8 0.359968 0.434906 0.839172
O O1 0.245424 0.907852 0.774780
O O2 0.901069 0.900515 0.556108
O O3 0.061032 0.000000 0.678059
O O4 0.117167 0.920682 0.813702
O O5 0.810517 0.500000 0.988622
O O6 0.945544 0.400026 0.075221
O O7 0.756517 0.428094 0.052842
O O8 0.820308 0.682508 0.753837
O O9 0.000000 0.657028 0.000000
O O10 0.249243 0.713772 0.661781
O O11 0.225111 0.641632 0.543825
O O12 0.327004 0.606637 0.748875
O O13 0.000000 0.640003 0.500000
O O14 0.763240 0.802862 0.439168
O O15 0.000000 0.786008 0.500000
O O16 0.023977 0.500000 0.743413
O O17 0.942035 0.608653 0.684563
O O18 0.178258 0.565900 0.759773
O O19 0.394677 0.500000 0.840863
O O20 0.500000 0.419314 0.000000
#
# Coordination Sequence:
#
# PCOD9188552 Si02
#       8
#     8   8   8   8   8   8   8   8
#     4  10  21  34  55  90 124 158 198 241 293 356
#     4   9  18  33  55  83 122 162 197 238 293 353
#     4  10  19  36  60  84 119 160 201 243 293 350
#     4  11  25  43  64  86 118 160 202 248 296 352
#     4  11  23  42  61  85 119 161 205 248 294 346
#     4  10  20  35  58  89 120 155 193 239 301 358
#     4  12  22  39  61  88 120 159 200 251 293 355
#     4  10  23  43  67  93 121 152 192 245 304 364
#
# _framework density 19.398222000000001
#
# number of rings (size 3 to 8) (size 9 to 14) (size 15 to 20)
#    0.000    1.625    3.750    1.125    1.750    3.250 
#    0.000    0.625    0.000    2.250    0.000    0.000 
#    0.000    0.000    0.000    0.000    0.000    0.000 
#
# Total GULP energy -178575.612483 kJ/mol
# GULP energy per Si atom -5580.487890 kJ/mol
# Density = 1.935407 g / cm^3
# Si number density = 19.398222 Si / 1000 Ang^3
#
#
#
# Elastic Constant Matrix: (Units=GPa)
#
#
# Indices 1 2 3 4 5 6 
#
# 1 76.9335 34.6541 20.6007 0.0001 -18.0191 0.0001
# 2 34.6541 88.6702 50.4277 0.0001 -12.2231 0.0001
# 3 20.6007 50.4277 80.4421 0.0005 -12.9765 0.0005
# 4 0.0001 0.0001 0.0005 26.3326 0.0002 -6.4753
# 5 -18.0191 -12.2231 -12.9765 0.0002 35.2667 0.0001
# 6 0.0001 0.0001 0.0005 -6.4753 0.0001 24.3142
#
#
#
# Elastic Compliance Matrix: (Units=1/GPa)
#
#
# Indices 1 2 3 4 5 6 
#
# 1 0.017204 -0.006063 0.000504 0.000000 0.006874 0.000000
# 2 -0.006063 0.019818 -0.010911 0.000000 -0.000243 0.000000
# 3 0.000504 -0.010911 0.019745 0.000000 0.003741 0.000000
# 4 0.000000 0.000000 0.000000 0.040637 0.000000 0.010822
# 5 0.006874 -0.000243 0.003741 0.000000 0.033160 0.000000
# 6 0.000000 0.000000 0.000000 0.010822 0.000000 0.044011
#
#
# Mechanical properties :
#
#
# Convention : Reuss Voigt Hill
#
# Bulk Modulus (GPa) = 41.96524 50.82342 46.39433
# Shear Modulus (GPa) = 23.20637 26.54023 24.87330
#
# Velocity S-wave (km/s) = 3.46253 3.70290 3.58473
# Velocity P-wave (km/s) = 6.13726 6.67375 6.41112
#
# Compressibility (1/GPa) = 0.02382924
#
# Stress axis : x y z
#
# Youngs Moduli (GPa) = 58.12489 50.45793 50.64454
#
# Poissons Ratio (x) = 0.30590 -0.02550
# Poissons Ratio (y) = 0.35238 0.55256
# Poissons Ratio (z) = -0.02927 0.55052
#
# Static dielectric constant tensor:
#      x y z
#    x 1.716320 0.000000 -0.014990 
#    y 0.000000 1.634530 0.000000 
#    z -0.014990 0.000000 1.681960 
# 
# From -- ./inp_files/272850.got.cif
#   From: 2010.05.17/outbox.cif.g08.bks.cpg/sg12_137_cif.got.tgz:272850.got - 2010.06.03 13:09:07.
