data_PCOD9188227
_publ_section_title
;
Structure prediction by ZEFSAII (Michael W. Deem and Ramdas Pophale) SiO2 
 PCOD9188227
Probable space group: C 2/M
;
_chemical_formula_sum "Si O2"
_cell_formula_units_Z 56
_cell_length_a 31.026945
_cell_length_b 8.449024
_cell_length_c 17.209476
_cell_angle_alpha 90.000000
_cell_angle_beta 134.287705
_cell_angle_gamma 90.000000
_cell_volume 3229.466171
_symmetry_space_group_name_H-M "C 2/M"
_symmetry_group_IT_number 12
_symmetry_cell_setting 'monoclinic'
loop_
_space_group_symop_operation_xyz
x,y,z
-x,y,-z
-x,-y,-z
x,-y,z
1/2+x,1/2+y,z
1/2-x,1/2+y,-z
1/2-x,1/2-y,-z
1/2+x,1/2-y,z
loop_
_atom_site_type_symbol
_atom_site_label
_atom_site_fract_x
_atom_site_fract_y
_atom_site_fract_z
Si Si1 0.587391 0.815240 0.074852
Si Si2 0.443769 0.808583 0.484450
Si Si3 0.807988 0.188610 0.892845
Si Si4 0.826281 0.307142 0.241829
Si Si5 0.630856 0.810758 0.873870
Si Si6 0.468590 0.312982 0.846200
Si Si7 0.005053 0.189291 0.293172
O O1 0.651993 0.767080 0.123644
O O2 0.575391 0.774943 0.149572
O O3 0.576683 0.000000 0.047851
O O4 0.536179 0.721134 0.962385
O O5 0.500000 0.764680 0.500000
O O6 0.381944 0.757028 0.365702
O O7 0.455122 0.737798 0.583316
O O8 0.443560 0.000000 0.489946
O O9 0.738947 0.244194 0.810598
O O10 0.808821 0.000000 0.882979
O O11 0.839334 0.229623 0.014290
O O12 0.826591 0.500000 0.241658
O O13 0.838518 0.258303 0.168312
O O14 0.560322 0.769318 0.781126
O O15 0.637459 0.000000 0.889874
O O16 0.457202 0.500000 0.837426
O O17 0.466689 0.263205 0.754151
O O18 0.996492 0.000000 0.280670
#
# Coordination Sequence:
#
# PCOD9188227 Si02
#       7
#     8   8   8   8   8   8   8
#     4  11  21  33  53  80 108 137 179 219 265 321
#     4  10  19  36  58  77 104 143 185 226 265 309
#     4  11  21  35  53  77 112 146 180 218 269 325
#     4   9  20  36  54  77 106 147 186 220 265 320
#     4  11  20  34  54  78 109 144 183 220 263 317
#     4  10  20  35  54  77 109 141 173 216 275 323
#     4  11  22  34  53  82 112 141 174 219 272 320
#
# _framework density 17.340326999999998
#
# number of rings (size 3 to 8) (size 9 to 14) (size 15 to 20)
#    0.000    1.571    2.857    4.286    0.000    2.000 
#    0.000    3.571    0.000    0.857    0.000    0.000 
#    0.000    0.000    0.000    0.000    0.000    0.000 
#
# Total GULP energy -156392.445827 kJ/mol
# GULP energy per Si atom -5585.444494 kJ/mol
# Density = 1.730086 g / cm^3
# Si number density = 17.340327 Si / 1000 Ang^3
#
#
#
# Elastic Constant Matrix: (Units=GPa)
#
#
# Indices 1 2 3 4 5 6 
#
# 1 140.6823 6.1080 53.5371 0.0000 -2.6693 0.0000
# 2 6.1080 11.7967 0.5877 0.0000 -1.8825 0.0000
# 3 53.5371 0.5877 59.7600 0.0000 4.3115 0.0000
# 4 0.0000 0.0000 0.0000 20.4527 0.0000 -5.7287
# 5 -2.6693 -1.8825 4.3115 0.0000 30.4163 0.0000
# 6 0.0000 0.0000 0.0000 -5.7287 0.0000 27.7237
#
#
#
# Elastic Compliance Matrix: (Units=1/GPa)
#
#
# Indices 1 2 3 4 5 6 
#
# 1 0.011234 -0.004972 -0.010168 0.000000 0.002119 0.000000
# 2 -0.004972 0.087906 0.003262 0.000000 0.004542 0.000000
# 3 -0.010168 0.003262 0.026128 0.000000 -0.004394 0.000000
# 4 0.000000 0.000000 0.000000 0.051897 0.000000 0.010724
# 5 0.002119 0.004542 -0.004394 0.000000 0.033967 0.000000
# 6 0.000000 0.000000 0.000000 0.010724 0.000000 0.038286
#
#
# Mechanical properties :
#
#
# Convention : Reuss Voigt Hill
#
# Bulk Modulus (GPa) = 9.85106 36.96716 23.40911
# Shear Modulus (GPa) = 16.28608 25.85229 21.06918
#
# Velocity S-wave (km/s) = 3.06797 3.86538 3.48952
# Velocity P-wave (km/s) = 4.27121 6.42545 5.45571
#
# Compressibility (1/GPa) = 0.10151190
#
# Stress axis : x y z
#
# Youngs Moduli (GPa) = 89.01755 11.37577 38.27356
#
# Poissons Ratio (x) = 0.05656 0.38916
# Poissons Ratio (y) = 0.44257 -0.12484
# Poissons Ratio (z) = 0.90513 -0.03711
#
# Static dielectric constant tensor:
#      x y z
#    x 1.592960 0.000000 -0.002790 
#    y 0.000000 1.594820 0.000000 
#    z -0.002790 0.000000 1.560210 
# 
# From -- ./inp_files/295179.got.cif
#   From: 2010.05.17/outbox.cif.g08.bks.cpg/sg12_148_cif.got.tgz:295179.got - 2010.06.03 13:09:07.
