data_PCOD9188917
_publ_section_title
;
Structure prediction by ZEFSAII (Michael W. Deem and Ramdas Pophale) SiO2 
 PCOD9188917
Probable space group: C 2/M
;
_chemical_formula_sum "Si O2"
_cell_formula_units_Z 56
_cell_length_a 31.120484
_cell_length_b 22.238688
_cell_length_c 9.615617
_cell_angle_alpha 90.000000
_cell_angle_beta 154.117591
_cell_angle_gamma 90.000000
_cell_volume 2904.974764
_symmetry_space_group_name_H-M "C 2/M"
_symmetry_group_IT_number 12
_symmetry_cell_setting 'monoclinic'
loop_
_space_group_symop_operation_xyz
x,y,z
-x,y,-z
-x,-y,-z
x,-y,z
1/2+x,1/2+y,z
1/2-x,1/2+y,-z
1/2-x,1/2-y,-z
1/2+x,1/2-y,z
loop_
_atom_site_type_symbol
_atom_site_label
_atom_site_fract_x
_atom_site_fract_y
_atom_site_fract_z
Si Si1 0.216673 0.234531 0.746894
Si Si2 0.348324 0.234054 0.874312
Si Si3 0.113964 0.064442 0.283905
Si Si4 0.270123 0.572153 0.826626
Si Si5 0.607853 0.159934 0.256104
Si Si6 0.353574 0.386848 0.348790
Si Si7 0.924651 0.134168 0.082440
O O1 0.308491 0.219279 0.912338
O O2 0.157434 0.287236 0.495758
O O3 0.150958 0.176456 0.584294
O O4 0.250000 0.250000 0.000000
O O5 0.250000 0.250000 0.500000
O O6 0.396498 0.183841 0.915837
O O7 0.413641 0.294691 0.074354
O O8 0.168035 0.068440 0.587525
O O9 0.131478 0.000000 0.265032
O O10 0.129201 0.117353 0.219489
O O11 0.000000 0.067231 0.000000
O O12 0.267539 0.500000 0.823561
O O13 0.178473 0.602668 0.481053
O O14 0.279428 0.600505 0.008038
O O15 0.366426 0.597227 0.028389
O O16 0.500000 0.148247 0.000000
O O17 0.463968 0.388776 0.608635
#
# Coordination Sequence:
#
# PCOD9188917 Si02
#       7
#     8   8   8   8   8   8   8
#     4  11  20  38  63  91 122 154 191 250 315 368
#     4  10  19  36  63  88 122 155 196 250 308 360
#     4   9  18  31  50  78 112 153 193 222 270 355
#     4  12  25  40  59  85 122 164 205 251 297 352
#     4  11  23  42  64  88 119 161 209 255 300 352
#     4  11  22  35  59  86 123 156 191 241 312 371
#     4  11  20  37  58  89 121 156 190 241 305 378
#
# _framework density 19.277274999999999
#
# number of rings (size 3 to 8) (size 9 to 14) (size 15 to 20)
#    0.000    1.286    4.286    3.857    0.000    3.714 
#    0.000    2.143    0.000    0.000    0.000    1.000 
#    0.000    0.000    0.000    0.000    0.000    0.000 
#
# Total GULP energy -156138.112997 kJ/mol
# GULP energy per Si atom -5576.361178 kJ/mol
# Density = 1.923340 g / cm^3
# Si number density = 19.277275 Si / 1000 Ang^3
#
#
#
# Elastic Constant Matrix: (Units=GPa)
#
#
# Indices 1 2 3 4 5 6 
#
# 1 123.8097 24.3275 30.3648 0.0000 -17.1321 0.0000
# 2 24.3275 81.4158 18.9251 0.0000 -4.3040 0.0000
# 3 30.3648 18.9251 32.9547 0.0000 -6.6767 0.0000
# 4 0.0000 0.0000 0.0000 5.1879 0.0000 -2.0575
# 5 -17.1321 -4.3040 -6.6767 0.0000 30.3208 0.0000
# 6 0.0000 0.0000 0.0000 -2.0575 0.0000 21.8557
#
#
#
# Elastic Compliance Matrix: (Units=1/GPa)
#
#
# Indices 1 2 3 4 5 6 
#
# 1 0.010985 -0.001045 -0.008682 0.000000 0.004147 0.000000
# 2 -0.001045 0.014276 -0.007269 0.000000 -0.000165 0.000000
# 3 -0.008682 -0.007269 0.043244 0.000000 0.003585 0.000000
# 4 0.000000 0.000000 0.000000 0.200231 0.000000 0.018849
# 5 0.004147 -0.000165 0.003585 0.000000 0.036090 0.000000
# 6 0.000000 0.000000 0.000000 0.018849 0.000000 0.047529
#
#
# Mechanical properties :
#
#
# Convention : Reuss Voigt Hill
#
# Bulk Modulus (GPa) = 28.97296 42.82391 35.89844
# Shear Modulus (GPa) = 12.56753 22.44376 17.50564
#
# Velocity S-wave (km/s) = 2.55607 3.41583 3.01673
# Velocity P-wave (km/s) = 4.87581 6.14981 5.54949
#
# Compressibility (1/GPa) = 0.03451494
#
# Stress axis : x y z
#
# Youngs Moduli (GPa) = 91.03077 70.04856 23.12435
#
# Poissons Ratio (x) = 0.07322 0.20075
# Poissons Ratio (y) = 0.09515 0.16808
# Poissons Ratio (z) = 0.79029 0.50915
#
# Static dielectric constant tensor:
#      x y z
#    x 1.701800 0.000000 -0.054180 
#    y 0.000000 1.757750 0.000000 
#    z -0.054180 0.000000 1.740600 
# 
# From -- ./inp_files/113385.got.cif
#   From: 2010.05.17/outbox.cif.g08.bks.cpg/sg12_57_cif.got.tgz:113385.got - 2010.06.03 13:09:07.
