data_PCOD9188513
_publ_section_title
;
Structure prediction by ZEFSAII (Michael W. Deem and Ramdas Pophale) SiO2 
 PCOD9188513
Probable space group: C 2/M
;
_chemical_formula_sum "Si O2"
_cell_formula_units_Z 56
_cell_length_a 24.444493
_cell_length_b 9.229037
_cell_length_c 17.594718
_cell_angle_alpha 90.000000
_cell_angle_beta 131.021528
_cell_angle_gamma 90.000000
_cell_volume 2994.730123
_symmetry_space_group_name_H-M "C 2/M"
_symmetry_group_IT_number 12
_symmetry_cell_setting 'monoclinic'
loop_
_space_group_symop_operation_xyz
x,y,z
-x,y,-z
-x,-y,-z
x,-y,z
1/2+x,1/2+y,z
1/2-x,1/2+y,-z
1/2-x,1/2-y,-z
1/2+x,1/2-y,z
loop_
_atom_site_type_symbol
_atom_site_label
_atom_site_fract_x
_atom_site_fract_y
_atom_site_fract_z
Si Si1 0.898331 0.830355 0.181569
Si Si2 0.338175 0.672250 0.834235
Si Si3 0.686097 0.172409 0.770136
Si Si4 0.433035 0.673209 0.632285
Si Si5 0.047117 0.829590 0.932764
Si Si6 0.084420 0.171360 0.556897
Si Si7 0.099876 0.327528 0.246224
O O1 0.840234 0.738977 0.174484
O O2 0.900969 0.811001 0.093275
O O3 0.980433 0.794449 0.284170
O O4 0.886759 0.000000 0.187487
O O5 0.336612 0.500000 0.816026
O O6 0.267707 0.708515 0.819562
O O7 0.343151 0.762137 0.761502
O O8 0.408649 0.699583 0.950745
O O9 0.633734 0.236976 0.657779
O O10 0.679491 0.000000 0.767254
O O11 0.426399 0.500000 0.639331
O O12 0.405633 0.706629 0.522916
O O13 0.394591 0.759566 0.664693
O O14 0.977873 0.730088 0.855551
O O15 0.024254 0.000000 0.911789
O O16 0.000000 0.193699 0.500000
O O17 0.099284 0.000000 0.581317
O O18 0.102355 0.500000 0.250784
#
# Coordination Sequence:
#
# PCOD9188513 Si02
#       7
#     8   8   8   8   8   8   8
#     4   9  17  33  55  80 108 142 183 222 266 324
#     4  10  22  40  56  74 108 153 191 219 263 328
#     4  11  23  35  52  82 116 145 178 226 276 319
#     4   9  18  35  59  82 107 143 182 219 265 325
#     4   9  19  37  60  79 103 147 191 222 262 324
#     4  10  19  36  60  83 107 142 185 220 261 327
#     4  11  22  35  56  86 113 136 177 234 279 314
#
# _framework density 18.699514000000001
#
# number of rings (size 3 to 8) (size 9 to 14) (size 15 to 20)
#    0.000    2.143    1.429    3.000    0.000    7.143 
#    0.000    0.714    0.000    0.000    0.000    0.000 
#    0.000    0.000    0.000    0.000    0.000    0.000 
#
# Total GULP energy -156356.615441 kJ/mol
# GULP energy per Si atom -5584.164837 kJ/mol
# Density = 1.865695 g / cm^3
# Si number density = 18.699514 Si / 1000 Ang^3
#
#
#
# Elastic Constant Matrix: (Units=GPa)
#
#
# Indices 1 2 3 4 5 6 
#
# 1 85.2807 36.7442 5.7452 0.0000 -22.3364 0.0000
# 2 36.7442 39.4394 5.8026 0.0000 -10.9682 0.0000
# 3 5.7452 5.8026 18.0358 0.0000 -16.1505 0.0000
# 4 0.0000 0.0000 0.0000 14.5739 0.0000 -1.2504
# 5 -22.3364 -10.9682 -16.1505 0.0000 25.5760 0.0000
# 6 0.0000 0.0000 0.0000 -1.2504 0.0000 31.9204
#
#
#
# Elastic Compliance Matrix: (Units=1/GPa)
#
#
# Indices 1 2 3 4 5 6 
#
# 1 0.026771 -0.020106 0.025673 0.000000 0.030969 0.000000
# 2 -0.020106 0.044023 -0.015135 0.000000 -0.008237 0.000000
# 3 0.025673 -0.015135 0.152812 0.000000 0.112426 0.000000
# 4 0.000000 0.000000 0.000000 0.068847 0.000000 0.002697
# 5 0.030969 -0.008237 0.112426 0.000000 0.133607 0.000000
# 6 0.000000 0.000000 0.000000 0.002697 0.000000 0.031434
#
#
# Mechanical properties :
#
#
# Convention : Reuss Voigt Hill
#
# Bulk Modulus (GPa) = 4.89072 26.59333 15.74202
# Shear Modulus (GPa) = 9.17792 20.71164 14.94478
#
# Velocity S-wave (km/s) = 2.21783 3.33168 2.83009
# Velocity P-wave (km/s) = 3.02976 5.39003 4.37218
#
# Compressibility (1/GPa) = 0.20446904
#
# Stress axis : x y z
#
# Youngs Moduli (GPa) = 37.35451 22.71538 6.54401
#
# Poissons Ratio (x) = 0.45671 -0.16800
# Poissons Ratio (y) = 0.75104 0.09904
# Poissons Ratio (z) = -0.95900 0.34380
#
# Static dielectric constant tensor:
#      x y z
#    x 1.666200 0.000000 -0.011710 
#    y 0.000000 1.616800 0.000000 
#    z -0.011710 0.000000 1.634710 
# 
# From -- ./inp_files/288191.got.cif
#   From: 2010.05.17/outbox.cif.g08.bks.cpg/sg12_145_cif.got.tgz:288191.got - 2010.06.03 13:09:07.
