data_PCOD9188726
_publ_section_title
;
Structure prediction by ZEFSAII (Michael W. Deem and Ramdas Pophale) SiO2 
 PCOD9188726
Probable space group: C 2/M
;
_chemical_formula_sum "Si O2"
_cell_formula_units_Z 48
_cell_length_a 20.838890
_cell_length_b 8.562613
_cell_length_c 19.894545
_cell_angle_alpha 90.000000
_cell_angle_beta 130.691409
_cell_angle_gamma 90.000000
_cell_volume 2691.640646
_symmetry_space_group_name_H-M "C 2/M"
_symmetry_group_IT_number 12
_symmetry_cell_setting 'monoclinic'
loop_
_space_group_symop_operation_xyz
x,y,z
-x,y,-z
-x,-y,-z
x,-y,z
1/2+x,1/2+y,z
1/2-x,1/2+y,-z
1/2-x,1/2-y,-z
1/2+x,1/2-y,z
loop_
_atom_site_type_symbol
_atom_site_label
_atom_site_fract_x
_atom_site_fract_y
_atom_site_fract_z
Si Si1 0.279353 0.189169 0.730761
Si Si2 0.529685 0.812986 0.445302
Si Si3 0.132636 0.187483 0.734036
Si Si4 0.783532 0.186927 0.452869
Si Si5 0.257939 0.313480 0.930039
Si Si6 0.902101 0.310452 0.930862
O O1 0.194821 0.231651 0.714496
O O2 0.270625 0.244729 0.648607
O O3 0.357738 0.239808 0.830515
O O4 0.282318 0.000000 0.731059
O O5 0.500000 0.766065 0.500000
O O6 0.458875 0.755641 0.344695
O O7 0.620353 0.739794 0.492547
O O8 0.535752 0.000000 0.447200
O O9 0.179223 0.252198 0.831666
O O10 0.129202 0.000000 0.735232
O O11 0.750000 0.250000 0.500000
O O12 0.779844 0.000000 0.450993
O O13 0.258187 0.500000 0.930575
O O14 0.342613 0.253181 0.949862
O O15 0.250000 0.250000 0.000000
O O16 0.898777 0.500000 0.932036
O O17 0.000000 0.262675 0.000000
#
# Coordination Sequence:
#
# PCOD9188726 Si02
#       6
#     8   8   8   8   8   8
#     4   8  16  32  56  81 107 145 187 230 283 340
#     4  11  22  36  58  88 117 147 192 238 280 340
#     4  10  19  36  61  87 112 147 194 236 286 343
#     4  11  22  38  56  79 115 155 193 236 290 342
#     4  11  22  38  59  85 119 154 189 236 290 339
#     4   9  18  36  61  86 111 146 191 236 286 346
#
# _framework density 17.832991
#
# number of rings (size 3 to 8) (size 9 to 14) (size 15 to 20)
#    0.000    2.000    1.667    4.000    0.000    1.000 
#    3.000    0.833    0.000    0.000    0.000    0.000 
#    0.000    0.000    0.000    0.000    0.000    0.000 
#
# Total GULP energy -133956.167107 kJ/mol
# GULP energy per Si atom -5581.506963 kJ/mol
# Density = 1.779240 g / cm^3
# Si number density = 17.832991 Si / 1000 Ang^3
#
#
#
# Elastic Constant Matrix: (Units=GPa)
#
#
# Indices 1 2 3 4 5 6 
#
# 1 122.6944 37.5274 100.8185 0.0000 -7.1036 0.0000
# 2 37.5274 57.4030 36.5505 0.0000 -4.8658 0.0000
# 3 100.8185 36.5505 168.7023 0.0000 -11.0033 0.0000
# 4 0.0000 0.0000 0.0000 24.4789 0.0000 -1.6459
# 5 -7.1036 -4.8658 -11.0033 0.0000 36.5620 0.0000
# 6 0.0000 0.0000 0.0000 -1.6459 0.0000 28.0672
#
#
#
# Elastic Compliance Matrix: (Units=1/GPa)
#
#
# Indices 1 2 3 4 5 6 
#
# 1 0.017400 -0.005521 -0.009210 0.000000 -0.000126 0.000000
# 2 -0.005521 0.022031 -0.001379 0.000000 0.001444 0.000000
# 3 -0.009210 -0.001379 0.011834 0.000000 0.001588 0.000000
# 4 0.000000 0.000000 0.000000 0.041013 0.000000 0.002405
# 5 -0.000126 0.001444 0.001588 0.000000 0.027997 0.000000
# 6 0.000000 0.000000 0.000000 0.002405 0.000000 0.035770
#
#
# Mechanical properties :
#
#
# Convention : Reuss Voigt Hill
#
# Bulk Modulus (GPa) = 52.51264 77.62138 65.06701
# Shear Modulus (GPa) = 25.69172 29.41516 27.55344
#
# Velocity S-wave (km/s) = 3.79975 4.06579 3.93502
# Velocity P-wave (km/s) = 6.98296 8.10322 7.56386
#
# Compressibility (1/GPa) = 0.01904303
#
# Stress axis : x y z
#
# Youngs Moduli (GPa) = 57.47089 45.39054 84.49986
#
# Poissons Ratio (x) = 0.25062 0.77828
# Poissons Ratio (y) = 0.31732 0.11655
# Poissons Ratio (z) = 0.52933 0.06261
#
# Static dielectric constant tensor:
#      x y z
#    x 1.577130 0.000000 0.004570 
#    y 0.000000 1.601320 0.000000 
#    z 0.004570 0.000000 1.656600 
# 
# From -- ./inp_files/281809.got.cif
#   From: 2010.05.17/outbox.cif.g08.bks.cpg/sg12_141_cif.got.tgz:281809.got - 2010.06.03 13:09:07.
