data_PCOD9188133
_publ_section_title
;
Structure prediction by ZEFSAII (Michael W. Deem and Ramdas Pophale) SiO2 
 PCOD9188133
Probable space group: C 2/M
;
_chemical_formula_sum "Si O2"
_cell_formula_units_Z 58
_cell_length_a 31.090376
_cell_length_b 7.678626
_cell_length_c 12.212128
_cell_angle_alpha 90.000000
_cell_angle_beta 88.777302
_cell_angle_gamma 90.000000
_cell_volume 2914.754226
_symmetry_space_group_name_H-M "C 2/M"
_symmetry_group_IT_number 12
_symmetry_cell_setting 'monoclinic'
loop_
_space_group_symop_operation_xyz
x,y,z
-x,y,-z
-x,-y,-z
x,-y,z
1/2+x,1/2+y,z
1/2-x,1/2+y,-z
1/2-x,1/2-y,-z
1/2+x,1/2-y,z
loop_
_atom_site_type_symbol
_atom_site_label
_atom_site_fract_x
_atom_site_fract_y
_atom_site_fract_z
Si Si1 0.905563 0.790728 0.321776
Si Si2 0.931352 0.295523 0.777545
Si Si3 0.952493 0.708335 0.538146
Si Si4 0.671721 0.291683 0.818612
Si Si5 0.737552 0.208525 0.125585
Si Si6 0.854213 0.288752 0.930675
Si Si7 0.972357 0.307708 0.134188
Si Si8 0.000000 0.000000 0.000000
O O1 0.918812 0.739866 0.443092
O O2 0.860279 0.728460 0.274113
O O3 0.941544 0.715510 0.238790
O O4 0.907041 0.000000 0.314447
O O5 0.920325 0.500000 0.765911
O O6 0.935735 0.219937 0.655064
O O7 0.896058 0.223539 0.863450
O O8 0.979112 0.287768 0.824050
O O9 0.957740 0.500000 0.552245
O O10 0.000000 0.775472 0.500000
O O11 0.674471 0.500000 0.807521
O O12 0.720813 0.222792 0.811582
O O13 0.651656 0.259967 0.941067
O O14 0.688419 0.270769 0.134221
O O15 0.736166 0.000000 0.141083
O O16 0.750000 0.250000 0.000000
O O17 0.854780 0.500000 0.932005
O O18 0.965194 0.500000 0.086949
O O19 0.967965 0.152568 0.050227
#
# Coordination Sequence:
#
# PCOD9188133 Si02
#       8
#     8   8   8   8   8   8   8   2
#     4  11  22  36  52  78 106 140 186 227 268 326
#     4   9  19  35  54  77 101 136 179 226 277 325
#     4  10  19  36  57  72  96 134 181 232 278 323
#     4   9  19  32  49  73 108 140 169 212 265 321
#     4   8  14  28  48  72  99 134 169 209 261 315
#     4   9  17  30  52  78 103 130 173 217 262 326
#     4  11  23  39  56  77 113 151 184 224 275 324
#     4  12  26  40  52  80 116 152 190 220 266 346
#
# _framework density 19.898762999999999
#
# number of rings (size 3 to 8) (size 9 to 14) (size 15 to 20)
#    0.000    2.345    2.069    0.621    1.931    1.379 
#    1.241    0.000    0.000    0.828    0.000    0.000 
#    0.000    0.000    0.000    0.000    0.000    0.138 
#
# Total GULP energy -161468.163925 kJ/mol
# GULP energy per Si atom -5567.867722 kJ/mol
# Density = 1.985347 g / cm^3
# Si number density = 19.898763 Si / 1000 Ang^3
#
#
#
# Elastic Constant Matrix: (Units=GPa)
#
#
# Indices 1 2 3 4 5 6 
#
# 1 92.1120 4.5959 16.8296 0.0000 16.0309 0.0000
# 2 4.5959 65.8818 13.8393 0.0000 0.0770 0.0000
# 3 16.8296 13.8393 71.7428 0.0000 17.4136 0.0000
# 4 0.0000 0.0000 0.0000 15.9490 0.0000 1.9569
# 5 16.0309 0.0770 17.4136 0.0000 19.3100 0.0000
# 6 0.0000 0.0000 0.0000 1.9569 0.0000 8.6329
#
#
#
# Elastic Compliance Matrix: (Units=1/GPa)
#
#
# Indices 1 2 3 4 5 6 
#
# 1 0.012746 -0.000805 -0.000342 0.000000 -0.010270 0.000000
# 2 -0.000805 0.016051 -0.003910 0.000000 0.004131 0.000000
# 3 -0.000342 -0.003910 0.018820 0.000000 -0.016672 0.000000
# 4 0.000000 0.000000 0.000000 0.064494 0.000000 -0.014619
# 5 -0.010270 0.004131 -0.016672 0.000000 0.075332 0.000000
# 6 0.000000 0.000000 0.000000 -0.014619 0.000000 0.119149
#
#
# Mechanical properties :
#
#
# Convention : Reuss Voigt Hill
#
# Bulk Modulus (GPa) = 26.66439 33.36293 30.01366
# Shear Modulus (GPa) = 15.18798 21.74316 18.46557
#
# Velocity S-wave (km/s) = 2.76572 3.30917 3.04957
# Velocity P-wave (km/s) = 4.86087 5.60389 5.24555
#
# Compressibility (1/GPa) = 0.03750320
#
# Stress axis : x y z
#
# Youngs Moduli (GPa) = 78.45329 62.29984 53.13534
#
# Poissons Ratio (x) = 0.05017 0.01817
# Poissons Ratio (y) = 0.06318 0.20776
# Poissons Ratio (z) = 0.02682 0.24359
#
# Static dielectric constant tensor:
#      x y z
#    x 1.768670 0.000000 0.023750 
#    y 0.000000 1.747510 0.000000 
#    z 0.023750 0.000000 1.705340 
# 
# From -- ./inp_files/186622.got.cif
#   From: 2010.05.17/outbox.cif.g08.bks.cpg/sg12_94_cif.got.tgz:186622.got - 2010.06.03 13:09:07.
