data_PCOD9188551
_publ_section_title
;
Structure prediction by ZEFSAII (Michael W. Deem and Ramdas Pophale) SiO2 
 PCOD9188551
Probable space group: C 2/M
;
_chemical_formula_sum "Si O2"
_cell_formula_units_Z 64
_cell_length_a 23.878712
_cell_length_b 14.726932
_cell_length_c 9.918074
_cell_angle_alpha 90.000000
_cell_angle_beta 102.506945
_cell_angle_gamma 90.000000
_cell_volume 3405.025453
_symmetry_space_group_name_H-M "C 2/M"
_symmetry_group_IT_number 12
_symmetry_cell_setting 'monoclinic'
loop_
_space_group_symop_operation_xyz
x,y,z
-x,y,-z
-x,-y,-z
x,-y,z
1/2+x,1/2+y,z
1/2-x,1/2+y,-z
1/2-x,1/2-y,-z
1/2+x,1/2-y,z
loop_
_atom_site_type_symbol
_atom_site_label
_atom_site_fract_x
_atom_site_fract_y
_atom_site_fract_z
Si Si1 0.258890 0.658115 0.920279
Si Si2 0.565968 0.283994 0.371288
Si Si3 0.243323 0.890045 0.601890
Si Si4 0.566690 0.721394 0.694856
Si Si5 0.670057 0.610256 0.299169
Si Si6 0.132831 0.604886 0.404338
Si Si7 0.137840 0.397669 0.728335
Si Si8 0.832013 0.898892 0.195640
O O1 0.302294 0.657143 0.816884
O O2 0.197298 0.625398 0.833838
O O3 0.250000 0.750000 0.000000
O O4 0.290387 0.596649 0.047290
O O5 0.499162 0.294652 0.303421
O O6 0.572890 0.298776 0.536914
O O7 0.608775 0.349474 0.312334
O O8 0.584470 0.179518 0.355923
O O9 0.212844 0.869131 0.445796
O O10 0.309323 0.862543 0.639173
O O11 0.204534 0.853832 0.702502
O O12 0.244742 0.000000 0.614252
O O13 0.588834 0.823716 0.729840
O O14 0.611212 0.658588 0.797153
O O15 0.668283 0.500000 0.280475
O O16 0.119054 0.500000 0.361541
O O17 0.147586 0.604931 0.571725
O O18 0.120354 0.500000 0.754485
O O19 0.849200 0.000000 0.247159
#
# Coordination Sequence:
#
# PCOD9188551 Si02
#       8
#     8   8   8   8   8   8   8   8
#     4  12  24  38  60  90 121 154 193 243 307 365
#     4  10  22  35  60  85 122 161 205 248 290 345
#     4   9  18  33  57  87 116 147 188 238 301 359
#     4  10  21  38  54  91 120 158 208 248 291 345
#     4  11  22  39  61  89 120 159 202 242 296 362
#     4   9  18  33  57  89 121 151 191 246 301 355
#     4  10  19  36  60  84 117 158 195 241 300 360
#     4  11  22  37  58  87 123 155 191 247 302 353
#
# _framework density 18.795748
#
# number of rings (size 3 to 8) (size 9 to 14) (size 15 to 20)
#    0.000    1.750    3.750    1.125    1.750    1.500 
#    0.000    4.375    0.000    1.500    0.000    0.875 
#    0.000    0.000    0.000    0.000    0.000    0.000 
#
# Total GULP energy -178573.584020 kJ/mol
# GULP energy per Si atom -5580.424501 kJ/mol
# Density = 1.875297 g / cm^3
# Si number density = 18.795748 Si / 1000 Ang^3
#
#
#
# Elastic Constant Matrix: (Units=GPa)
#
#
# Indices 1 2 3 4 5 6 
#
# 1 86.7449 21.1970 26.3797 0.0000 -13.7207 0.0000
# 2 21.1970 77.5630 23.8042 0.0000 -5.5092 0.0000
# 3 26.3797 23.8042 61.8842 0.0000 -10.0560 0.0000
# 4 0.0000 0.0000 0.0000 20.3368 0.0000 -1.2931
# 5 -13.7207 -5.5092 -10.0560 0.0000 21.9911 0.0000
# 6 0.0000 0.0000 0.0000 -1.2931 0.0000 4.7378
#
#
#
# Elastic Compliance Matrix: (Units=1/GPa)
#
#
# Indices 1 2 3 4 5 6 
#
# 1 0.014373 -0.002166 -0.004240 0.000000 0.006486 0.000000
# 2 -0.002166 0.014973 -0.004803 0.000000 0.000203 0.000000
# 3 -0.004240 -0.004803 0.020729 0.000000 0.005630 0.000000
# 4 0.000000 0.000000 0.000000 0.050040 0.000000 0.013657
# 5 0.006486 0.000203 0.005630 0.000000 0.052145 0.000000
# 6 0.000000 0.000000 0.000000 0.013657 0.000000 0.214795
#
#
# Mechanical properties :
#
#
# Convention : Reuss Voigt Hill
#
# Bulk Modulus (GPa) = 36.15694 40.99487 38.57591
# Shear Modulus (GPa) = 12.54100 19.73388 16.13744
#
# Velocity S-wave (km/s) = 2.58587 3.24375 2.93331
# Velocity P-wave (km/s) = 5.30982 5.99060 5.66045
#
# Compressibility (1/GPa) = 0.02765721
#
# Stress axis : x y z
#
# Youngs Moduli (GPa) = 69.57714 66.78585 48.24176
#
# Poissons Ratio (x) = 0.14466 0.20452
# Poissons Ratio (y) = 0.15071 0.23171
# Poissons Ratio (z) = 0.29497 0.32079
#
# Static dielectric constant tensor:
#      x y z
#    x 1.628200 0.000000 -0.012720 
#    y 0.000000 1.696220 0.000000 
#    z -0.012720 0.000000 1.655530 
# 
# From -- ./inp_files/96860.got.cif
#   From: 2010.05.17/outbox.cif.g08.bks.cpg/sg12_49_cif.got.tgz:96860.got - 2010.06.03 13:09:07.
