data_PCOD9188177
_publ_section_title
;
Structure prediction by ZEFSAII (Michael W. Deem and Ramdas Pophale) SiO2 
 PCOD9188177
Probable space group: C 2/M
;
_chemical_formula_sum "Si O2"
_cell_formula_units_Z 64
_cell_length_a 17.568260
_cell_length_b 14.220449
_cell_length_c 26.644267
_cell_angle_alpha 90.000000
_cell_angle_beta 148.976690
_cell_angle_gamma 90.000000
_cell_volume 3430.671171
_symmetry_space_group_name_H-M "C 2/M"
_symmetry_group_IT_number 12
_symmetry_cell_setting 'monoclinic'
loop_
_space_group_symop_operation_xyz
x,y,z
-x,y,-z
-x,-y,-z
x,-y,z
1/2+x,1/2+y,z
1/2-x,1/2+y,-z
1/2-x,1/2-y,-z
1/2+x,1/2-y,z
loop_
_atom_site_type_symbol
_atom_site_label
_atom_site_fract_x
_atom_site_fract_y
_atom_site_fract_z
Si Si1 0.350980 0.280154 0.943917
Si Si2 0.075223 0.704564 0.207683
Si Si3 0.026654 0.715967 0.737124
Si Si4 0.642820 0.897410 0.984292
Si Si5 0.548806 0.110043 0.404892
Si Si6 0.864254 0.292357 0.388077
Si Si7 0.326441 0.607975 0.634018
Si Si8 0.435975 0.395818 0.084331
O O1 0.202104 0.296459 0.829094
O O2 0.500000 0.256487 0.000000
O O3 0.317003 0.188373 0.957439
O O4 0.395984 0.366244 0.005244
O O5 0.251565 0.710406 0.309162
O O6 0.013593 0.684271 0.228757
O O7 0.003222 0.631857 0.128604
O O8 0.022901 0.808542 0.158553
O O9 0.951857 0.660108 0.649329
O O10 0.962088 0.821970 0.700990
O O11 0.627940 0.000000 0.999792
O O12 0.778845 0.900160 0.022907
O O13 0.432775 0.157044 0.378226
O O14 0.708018 0.116965 0.522061
O O15 0.513258 0.000000 0.379339
O O16 0.765220 0.359921 0.368200
O O17 0.000000 0.261093 0.500000
O O18 0.372746 0.500000 0.665472
O O19 0.505623 0.500000 0.127169
#
# Coordination Sequence:
#
# PCOD9188177 Si02
#       8
#     8   8   8   8   8   8   8   8
#     4  11  23  38  53  80 117 143 178 229 272 320
#     4  10  19  36  57  81 110 141 187 223 260 325
#     4  11  21  34  54  82 110 147 181 217 273 325
#     4  10  20  38  60  77 104 146 190 228 260 311
#     4  10  21  35  54  85 116 140 171 221 283 332
#     4   9  19  35  58  84 110 139 174 224 280 324
#     4   9  19  37  59  81 108 142 183 224 263 324
#     4  10  20  37  60  82 108 141 182 226 270 323
#
# _framework density 18.655242000000001
#
# number of rings (size 3 to 8) (size 9 to 14) (size 15 to 20)
#    0.000    2.000    2.500    1.500    3.500    6.000 
#    0.000    0.000    0.000    0.375    0.000    0.000 
#    0.000    0.000    0.000    0.000    0.000    0.000 
#
# Total GULP energy -178422.621882 kJ/mol
# GULP energy per Si atom -5575.706934 kJ/mol
# Density = 1.861278 g / cm^3
# Si number density = 18.655242 Si / 1000 Ang^3
#
#
#
# Elastic Constant Matrix: (Units=GPa)
#
#
# Indices 1 2 3 4 5 6 
#
# 1 43.2572 3.8747 -6.5627 0.0001 10.2256 0.0002
# 2 3.8747 25.3052 -4.7088 0.0002 -4.5546 0.0000
# 3 -6.5627 -4.7088 64.3690 0.0007 2.9309 0.0003
# 4 0.0001 0.0002 0.0007 -6.0475 0.0002 21.8577
# 5 10.2256 -4.5546 2.9309 0.0002 31.5679 0.0000
# 6 0.0002 0.0000 0.0003 21.8577 0.0000 -12.9073
#
#
#
# Elastic Compliance Matrix: (Units=1/GPa)
#
#
# Indices 1 2 3 4 5 6 
#
# 1 0.026247 -0.005223 0.002727 0.000000 -0.009509 0.000000
# 2 -0.005223 0.042088 0.002202 0.000000 0.007560 -0.000001
# 3 0.002727 0.002202 0.016068 -0.000001 -0.002057 -0.000001
# 4 0.000000 0.000000 -0.000001 0.032292 0.000000 0.054685
# 5 -0.009509 0.007560 -0.002057 0.000000 0.036040 0.000000
# 6 0.000000 -0.000001 -0.000001 0.054685 0.000000 0.015130
#
#
# Mechanical properties :
#
#
# Convention : Reuss Voigt Hill
#
# Bulk Modulus (GPa) = 11.93103 13.12641 12.52872
# Shear Modulus (GPa) = 25.45944 11.87783 18.66864
#
# Velocity S-wave (km/s) = 3.69824 2.52603 3.16684
# Velocity P-wave (km/s) = 4.96441 3.94454 4.48357
#
# Compressibility (1/GPa) = 0.08381509
#
# Stress axis : x y z
#
# Youngs Moduli (GPa) = 38.09979 23.75986 62.23467
#
# Poissons Ratio (x) = 0.12409 -0.16971
# Poissons Ratio (y) = 0.19899 -0.13705
# Poissons Ratio (z) = -0.10389 -0.05232
#
# Static dielectric constant tensor:
#      x y z
#    x 1.626590 0.000000 -0.013780 
#    y 0.000000 1.646900 0.000000 
#    z -0.013780 0.000000 1.665150 
# 
# From -- ./inp_files/340197.got.cif
#   From: 2010.05.17/outbox.cif.g08.bks.cpg/sg12_171_cif.got.tgz:340197.got - 2010.06.03 13:09:07.
