data_PCOD9188028
_publ_section_title
;
Structure prediction by ZEFSAII (Michael W. Deem and Ramdas Pophale) SiO2 
 PCOD9188028
Probable space group: C 2/M
;
_chemical_formula_sum "Si O2"
_cell_formula_units_Z 44
_cell_length_a 10.779808
_cell_length_b 17.909348
_cell_length_c 21.190097
_cell_angle_alpha 90.000000
_cell_angle_beta 154.133594
_cell_angle_gamma 90.000000
_cell_volume 1784.774513
_symmetry_space_group_name_H-M "C 2/M"
_symmetry_group_IT_number 12
_symmetry_cell_setting 'monoclinic'
loop_
_space_group_symop_operation_xyz
x,y,z
-x,y,-z
-x,-y,-z
x,-y,z
1/2+x,1/2+y,z
1/2-x,1/2+y,-z
1/2-x,1/2-y,-z
1/2+x,1/2-y,z
loop_
_atom_site_type_symbol
_atom_site_label
_atom_site_fract_x
_atom_site_fract_y
_atom_site_fract_z
Si Si1 0.271463 0.833271 0.034098
Si Si2 0.276161 0.584740 0.194690
Si Si3 0.644683 0.588291 0.242601
Si Si4 0.500000 0.812521 0.500000
Si Si5 0.612032 0.827731 0.311185
Si Si6 0.617295 0.412943 0.468028
O O1 0.541204 0.864723 0.118757
O O2 0.346050 0.829259 0.142681
O O3 0.250000 0.750000 0.000000
O O4 0.997487 0.879635 0.886065
O O5 0.173247 0.500000 0.155776
O O6 0.378195 0.594167 0.170477
O O7 0.557951 0.592632 0.366931
O O8 0.724339 0.500000 0.275273
O O9 0.879610 0.637804 0.387174
O O10 0.765394 0.753383 0.612675
O O11 0.610362 0.877708 0.373278
O O12 0.855415 0.867913 0.379627
O O13 0.602242 0.500000 0.477003
#
# Coordination Sequence:
#
# PCOD9188028 Si02
#       6
#     8   8   8   4   8   8
#     4  11  20  34  54  76 114 142 179 227 275 330
#     4   9  19  35  56  85 110 137 182 232 276 316
#     4  11  22  36  58  82 111 147 184 230 276 327
#     4  10  19  36  53  78 110 148 184 220 275 336
#     4   9  17  30  50  75 110 142 174 222 269 328
#     4   8  14  27  50  77 105 135 172 219 269 321
#
# _framework density 24.652972999999999
#
# number of rings (size 3 to 8) (size 9 to 14) (size 15 to 20)
#    0.000    2.545    1.818    2.455    0.000    3.636 
#    0.000    8.182    0.000    0.000    0.000    0.000 
#    0.000   17.455    0.000    0.000    0.000    0.000 
#
# Total GULP energy -122880.821371 kJ/mol
# GULP energy per Si atom -5585.491881 kJ/mol
# Density = 2.459686 g / cm^3
# Si number density = 24.652973 Si / 1000 Ang^3
#
#
#
# Elastic Constant Matrix: (Units=GPa)
#
#
# Indices 1 2 3 4 5 6 
#
# 1 58.5868 18.9831 38.1495 -0.0062 -23.5518 -0.0042
# 2 18.9831 178.7305 86.2145 -0.0081 -17.4100 -0.0191
# 3 38.1495 86.2145 210.1546 0.0067 -46.6825 -0.0061
# 4 -0.0062 -0.0081 0.0067 49.1361 0.0107 -29.4273
# 5 -23.5518 -17.4100 -46.6825 0.0107 68.1710 -0.0105
# 6 -0.0042 -0.0191 -0.0061 -29.4273 -0.0105 29.4895
#
#
#
# Elastic Compliance Matrix: (Units=1/GPa)
#
#
# Indices 1 2 3 4 5 6 
#
# 1 0.020996 -0.000555 -0.002363 0.000010 0.005494 0.000014
# 2 -0.000555 0.006993 -0.002847 0.000009 -0.000355 0.000013
# 3 -0.002363 -0.002847 0.007091 -0.000005 0.003312 -0.000005
# 4 0.000010 0.000009 -0.000005 0.050579 0.000002 0.050473
# 5 0.005494 -0.000355 0.003312 0.000002 0.018744 0.000010
# 6 0.000014 0.000013 -0.000005 0.050473 0.000010 0.084277
#
#
# Mechanical properties :
#
#
# Convention : Reuss Voigt Hill
#
# Bulk Modulus (GPa) = 42.46419 81.57399 62.01909
# Shear Modulus (GPa) = 24.03152 49.63430 36.83291
#
# Velocity S-wave (km/s) = 3.12555 4.49187 3.86949
# Velocity P-wave (km/s) = 5.50342 7.75005 6.72127
#
# Compressibility (1/GPa) = 0.02354926
#
# Stress axis : x y z
#
# Youngs Moduli (GPa) = 47.62844 143.00873 141.02104
#
# Poissons Ratio (x) = 0.07934 0.33330
# Poissons Ratio (y) = 0.02642 0.40147
# Poissons Ratio (z) = 0.11257 0.40713
#
# Static dielectric constant tensor:
#      x y z
#    x 2.011310 0.000000 0.029630 
#    y 0.000000 1.890780 -0.000010 
#    z 0.029630 -0.000010 2.051240 
# 
# From -- ./inp_files/361810.got.cif
#   From: 2010.05.17/outbox.cif.g08.bks.cpg/sg12_181_cif.got.tgz:361810.got - 2010.06.03 13:09:07.
