data_PCOD9188250
_publ_section_title
;
Structure prediction by ZEFSAII (Michael W. Deem and Ramdas Pophale) SiO2 
 PCOD9188250
Probable space group: C 2/M
;
_chemical_formula_sum "Si O2"
_cell_formula_units_Z 56
_cell_length_a 23.889808
_cell_length_b 15.103068
_cell_length_c 22.578075
_cell_angle_alpha 90.000000
_cell_angle_beta 21.690876
_cell_angle_gamma 90.000000
_cell_volume 3010.892805
_symmetry_space_group_name_H-M "C 2/M"
_symmetry_group_IT_number 12
_symmetry_cell_setting 'monoclinic'
loop_
_space_group_symop_operation_xyz
x,y,z
-x,y,-z
-x,-y,-z
x,-y,z
1/2+x,1/2+y,z
1/2-x,1/2+y,-z
1/2-x,1/2-y,-z
1/2+x,1/2-y,z
loop_
_atom_site_type_symbol
_atom_site_label
_atom_site_fract_x
_atom_site_fract_y
_atom_site_fract_z
Si Si1 0.119169 0.895821 0.936019
Si Si2 0.359075 0.754387 0.711396
Si Si3 0.262428 0.800985 0.049134
Si Si4 0.982826 0.898396 0.300285
Si Si5 0.956533 0.794316 0.203018
Si Si6 0.675066 0.694244 0.432625
Si Si7 0.179368 0.603486 0.820073
O O1 0.271275 0.839754 0.773485
O O2 0.149257 0.000000 0.913130
O O3 0.000000 0.882710 0.000000
O O4 0.040554 0.856136 0.072307
O O5 0.326412 0.754441 0.813800
O O6 0.538071 0.740368 0.530865
O O7 0.271493 0.667918 0.773079
O O8 0.162438 0.888274 0.139032
O O9 0.250000 0.750000 0.000000
O O10 0.437845 0.793989 0.894547
O O11 0.950566 0.842905 0.272252
O O12 0.893878 0.857528 0.443529
O O13 0.942911 0.000000 0.330648
O O14 0.794208 0.765794 0.338853
O O15 0.759593 0.628201 0.304847
O O16 0.203987 0.500000 0.809129
O O17 0.000000 0.622417 0.000000
#
# Coordination Sequence:
#
# PCOD9188250 Si02
#       7
#     8   8   8   8   8   8   8
#     4  10  20  36  59  84 110 146 193 238 280 332
#     4  10  20  35  56  81 112 147 179 227 286 335
#     4   8  17  33  55  77 101 138 182 223 269 326
#     4  10  20  35  55  81 111 145 188 236 284 335
#     4  10  19  36  58  80 110 150 191 230 280 338
#     4  11  22  36  56  81 115 151 185 227 287 347
#     4  11  23  38  58  84 112 147 192 236 281 340
#
# _framework density 18.599135
#
# number of rings (size 3 to 8) (size 9 to 14) (size 15 to 20)
#    0.000    2.000    0.000    4.714    0.000    3.429 
#    0.000    2.857    0.000    3.429    0.000    0.000 
#    0.000    0.000    0.000    0.000    0.000    0.000 
#
# Total GULP energy -156123.337594 kJ/mol
# GULP energy per Si atom -5575.833485 kJ/mol
# Density = 1.855680 g / cm^3
# Si number density = 18.599135 Si / 1000 Ang^3
#
#
#
# Elastic Constant Matrix: (Units=GPa)
#
#
# Indices 1 2 3 4 5 6 
#
# 1 84.2060 34.4054 47.8227 0.0040 -1.3771 -0.0031
# 2 34.4054 97.7008 62.7493 -0.0132 -18.1974 0.0046
# 3 47.8227 62.7493 127.9949 -0.0110 -17.1946 0.0043
# 4 0.0040 -0.0132 -0.0110 14.2776 0.0046 4.8850
# 5 -1.3771 -18.1974 -17.1946 0.0046 45.8437 -0.0015
# 6 -0.0031 0.0046 0.0043 4.8850 -0.0015 17.8451
#
#
#
# Elastic Compliance Matrix: (Units=1/GPa)
#
#
# Indices 1 2 3 4 5 6 
#
# 1 0.015749 -0.002942 -0.004776 -0.000013 -0.002486 0.000008
# 2 -0.002942 0.015994 -0.006214 0.000012 0.003930 -0.000006
# 3 -0.004776 -0.006214 0.012946 0.000006 0.002245 -0.000004
# 4 -0.000013 0.000012 0.000006 0.077278 -0.000002 -0.021154
# 5 -0.002486 0.003930 0.002245 -0.000002 0.024141 0.000001
# 6 0.000008 -0.000006 -0.000004 -0.021154 0.000001 0.061829
#
#
# Mechanical properties :
#
#
# Convention : Reuss Voigt Hill
#
# Bulk Modulus (GPa) = 59.43518 66.65072 63.04295
# Shear Modulus (GPa) = 20.71176 26.58825 23.65001
#
# Velocity S-wave (km/s) = 3.34067 3.78503 3.56977
# Velocity P-wave (km/s) = 6.84875 7.41722 7.13864
#
# Compressibility (1/GPa) = 0.01682505
#
# Stress axis : x y z
#
# Youngs Moduli (GPa) = 63.49424 62.52238 77.24687
#
# Poissons Ratio (x) = 0.18392 0.36896
# Poissons Ratio (y) = 0.18677 0.48003
# Poissons Ratio (z) = 0.30327 0.38853
#
# Static dielectric constant tensor:
#      x y z
#    x 1.664870 0.000000 -0.002490 
#    y 0.000000 1.614280 0.000000 
#    z -0.002490 0.000000 1.671170 
# 
# From -- ./inp_files/96272.got.cif
#   From: 2010.05.17/outbox.cif.g08.bks.cpg/sg12_49_cif.got.tgz:96272.got - 2010.06.03 13:09:07.
