data_PCOD9188119
_publ_section_title
;
Structure prediction by ZEFSAII (Michael W. Deem and Ramdas Pophale) SiO2 
 PCOD9188119
Probable space group: C 2/M
;
_chemical_formula_sum "Si O2"
_cell_formula_units_Z 48
_cell_length_a 18.731045
_cell_length_b 14.177451
_cell_length_c 8.194026
_cell_angle_alpha 90.000000
_cell_angle_beta 76.982532
_cell_angle_gamma 90.000000
_cell_volume 2120.073137
_symmetry_space_group_name_H-M "C 2/M"
_symmetry_group_IT_number 12
_symmetry_cell_setting 'monoclinic'
loop_
_space_group_symop_operation_xyz
x,y,z
-x,y,-z
-x,-y,-z
x,-y,z
1/2+x,1/2+y,z
1/2-x,1/2+y,-z
1/2-x,1/2-y,-z
1/2+x,1/2-y,z
loop_
_atom_site_type_symbol
_atom_site_label
_atom_site_fract_x
_atom_site_fract_y
_atom_site_fract_z
Si Si1 0.122837 0.397422 0.230934
Si Si2 0.125179 0.605027 0.624808
Si Si3 0.000964 0.256292 0.303658
Si Si4 0.784460 0.104340 0.122766
Si Si5 0.110935 0.893460 0.237255
Si Si6 0.747456 0.293576 0.322956
O O1 0.088651 0.500000 0.228800
O O2 0.137656 0.387103 0.420337
O O3 0.067352 0.319183 0.202101
O O4 0.200586 0.396010 0.101706
O O5 0.093976 0.500000 0.665311
O O6 0.199736 0.616824 0.686666
O O7 0.073251 0.691328 0.707003
O O8 0.029906 0.150978 0.259419
O O9 0.000000 0.266921 0.500000
O O10 0.782761 0.207582 0.203706
O O11 0.789861 0.000000 0.208220
O O12 0.846846 0.103628 0.956049
O O13 0.166088 0.826990 0.314217
O O14 0.107454 0.000000 0.304752
O O15 0.750000 0.250000 0.500000
#
# Coordination Sequence:
#
# PCOD9188119 Si02
#       6
#     8   8   8   8   8   8
#     4   9  16  31  57  86 115 147 191 239 287 350
#     4  10  20  34  57  90 123 152 188 244 304 355
#     4  10  19  36  56  85 115 159 201 239 290 352
#     4  10  21  38  61  89 116 155 204 244 295 354
#     4  11  24  40  62  87 117 160 205 249 293 350
#     4  12  21  37  61  94 126 151 190 249 311 354
#
# _framework density 22.640727999999999
#
# number of rings (size 3 to 8) (size 9 to 14) (size 15 to 20)
#    0.000    1.667    3.333    2.500    0.000    3.000 
#    0.000    1.667    0.000    3.000    0.000    0.000 
#    0.000    0.000    0.000    0.000    0.000    0.000 
#
# Total GULP energy -133694.178084 kJ/mol
# GULP energy per Si atom -5570.590753 kJ/mol
# Density = 2.258920 g / cm^3
# Si number density = 22.640728 Si / 1000 Ang^3
#
#
#
# Elastic Constant Matrix: (Units=GPa)
#
#
# Indices 1 2 3 4 5 6 
#
# 1 58.1138 21.9464 -1.5383 0.0000 -15.7385 0.0000
# 2 21.9464 134.5963 9.6263 0.0000 7.4170 0.0000
# 3 -1.5383 9.6263 16.7157 0.0000 -1.8763 0.0000
# 4 0.0000 0.0000 0.0000 25.0284 0.0000 -10.3068
# 5 -15.7385 7.4170 -1.8763 0.0000 15.5401 0.0000
# 6 0.0000 0.0000 0.0000 -10.3068 0.0000 26.5969
#
#
#
# Elastic Compliance Matrix: (Units=1/GPa)
#
#
# Indices 1 2 3 4 5 6 
#
# 1 0.029940 -0.007622 0.011107 0.000000 0.035301 0.000000
# 2 -0.007622 0.009982 -0.007959 0.000000 -0.013444 0.000000
# 3 0.011107 -0.007959 0.068041 0.000000 0.023263 0.000000
# 4 0.000000 0.000000 0.000000 0.047542 0.000000 0.018423
# 5 0.035301 -0.013444 0.023263 0.000000 0.109327 0.000000
# 6 0.000000 0.000000 0.000000 0.018423 0.000000 0.044738
#
#
# Mechanical properties :
#
#
# Convention : Reuss Voigt Hill
#
# Bulk Modulus (GPa) = 10.09937 29.94386 20.02162
# Shear Modulus (GPa) = 14.22382 25.39249 19.80816
#
# Velocity S-wave (km/s) = 2.50919 3.35257 2.96106
# Velocity P-wave (km/s) = 3.58680 5.31420 4.53353
#
# Compressibility (1/GPa) = 0.09901603
#
# Stress axis : x y z
#
# Youngs Moduli (GPa) = 33.39990 100.17591 14.69701
#
# Poissons Ratio (x) = 0.76349 -0.16324
# Poissons Ratio (y) = 0.25456 0.11698
# Poissons Ratio (z) = -0.37097 0.79732
#
# Static dielectric constant tensor:
#      x y z
#    x 1.868140 0.000000 -0.025250 
#    y 0.000000 1.934620 0.000000 
#    z -0.025250 0.000000 1.869840 
# 
# From -- ./inp_files/85673.got.cif
#   From: 2010.05.17/outbox.cif.g08.bks.cpg/sg12_43_cif.got.tgz:85673.got - 2010.06.03 13:09:07.
