data_PCOD9188770
_publ_section_title
;
Structure prediction by ZEFSAII (Michael W. Deem and Ramdas Pophale) SiO2 
 PCOD9188770
Probable space group: C 2/M
;
_chemical_formula_sum "Si O2"
_cell_formula_units_Z 56
_cell_length_a 24.712099
_cell_length_b 17.760506
_cell_length_c 21.099755
_cell_angle_alpha 90.000000
_cell_angle_beta 163.199165
_cell_angle_gamma 90.000000
_cell_volume 2676.757130
_symmetry_space_group_name_H-M "C 2/M"
_symmetry_group_IT_number 12
_symmetry_cell_setting 'monoclinic'
loop_
_space_group_symop_operation_xyz
x,y,z
-x,y,-z
-x,-y,-z
x,-y,z
1/2+x,1/2+y,z
1/2-x,1/2+y,-z
1/2-x,1/2-y,-z
1/2+x,1/2-y,z
loop_
_atom_site_type_symbol
_atom_site_label
_atom_site_fract_x
_atom_site_fract_y
_atom_site_fract_z
Si Si1 0.336397 0.416588 0.179848
Si Si2 0.708116 0.413974 0.206135
Si Si3 0.582168 0.783661 0.483418
Si Si4 0.546597 0.713554 0.779432
Si Si5 0.951974 0.365891 0.044986
Si Si6 0.647033 0.704664 0.030686
Si Si7 0.207388 0.121255 0.653449
O O1 0.303078 0.500000 0.119206
O O2 0.424378 0.364485 0.224578
O O3 0.145594 0.386738 0.998082
O O4 0.504395 0.414446 0.419377
O O5 0.780263 0.500000 0.281407
O O6 0.832689 0.359647 0.391498
O O7 0.674971 0.370205 0.102983
O O8 0.500000 0.418033 0.000000
O O9 0.589303 0.766445 0.415483
O O10 0.362448 0.776573 0.254127
O O11 0.676687 0.711379 0.621473
O O12 0.750000 0.750000 0.000000
O O13 0.524411 0.699944 0.829034
O O14 0.939754 0.274949 0.028532
O O15 0.820935 0.399665 0.843063
O O16 0.159069 0.392316 0.258013
#
# Coordination Sequence:
#
# PCOD9188770 Si02
#       7
#     8   8   8   8   8   8   8
#     4  11  23  39  60  86 121 159 199 250 308 361
#     4  11  24  39  57  92 134 166 207 265 323 374
#     4  10  19  36  61  89 118 154 209 256 297 372
#     4   9  19  39  63  88 118 156 209 260 306 373
#     4  11  20  35  61  88 121 158 198 246 299 362
#     4  11  20  36  67  89 119 160 210 256 310 372
#     4  10  21  35  57  92 120 155 199 247 297 360
#
# _framework density 20.920838
#
# number of rings (size 3 to 8) (size 9 to 14) (size 15 to 20)
#    0.000    1.571    5.714    1.714    0.000    3.429 
#    0.000   10.000    0.000    0.000    0.000    0.000 
#    0.000    0.000    0.000    0.000    0.000    0.000 
#
# Total GULP energy -156103.480865 kJ/mol
# GULP energy per Si atom -5575.124317 kJ/mol
# Density = 2.087322 g / cm^3
# Si number density = 20.920838 Si / 1000 Ang^3
#
#
#
# Elastic Constant Matrix: (Units=GPa)
#
#
# Indices 1 2 3 4 5 6 
#
# 1 92.9183 22.2523 25.1488 0.0119 -9.9498 0.0005
# 2 22.2523 110.7490 3.4853 0.0242 -14.2689 0.0054
# 3 25.1488 3.4853 33.7479 0.0220 6.4037 0.0038
# 4 0.0119 0.0242 0.0220 9.5564 0.0075 -1.9163
# 5 -9.9498 -14.2689 6.4037 0.0075 45.7988 0.0010
# 6 0.0005 0.0054 0.0038 -1.9163 0.0010 11.9166
#
#
#
# Elastic Compliance Matrix: (Units=1/GPa)
#
#
# Indices 1 2 3 4 5 6 
#
# 1 0.014868 -0.002077 -0.011665 0.000011 0.004214 0.000005
# 2 -0.002077 0.009779 0.000047 -0.000026 0.002589 -0.000009
# 3 -0.011665 0.000047 0.039855 -0.000076 -0.008092 -0.000024
# 4 0.000011 -0.000026 -0.000076 0.108129 -0.000013 0.017389
# 5 0.004214 0.002589 -0.008092 -0.000013 0.024688 -0.000003
# 6 0.000005 -0.000009 -0.000024 0.017389 -0.000003 0.086713
#
#
# Mechanical properties :
#
#
# Convention : Reuss Voigt Hill
#
# Bulk Modulus (GPa) = 26.94592 37.68756 32.31674
# Shear Modulus (GPa) = 15.44201 25.88960 20.66580
#
# Velocity S-wave (km/s) = 2.71978 3.52163 3.14635
# Velocity P-wave (km/s) = 4.77188 5.88127 5.35538
#
# Compressibility (1/GPa) = 0.03711136
#
# Stress axis : x y z
#
# Youngs Moduli (GPa) = 67.25887 102.26100 25.09120
#
# Poissons Ratio (x) = 0.21243 0.29268
# Poissons Ratio (y) = 0.13972 -0.00118
# Poissons Ratio (z) = 0.78455 -0.00480
#
# Static dielectric constant tensor:
#      x y z
#    x 1.867910 0.000000 -0.025550 
#    y 0.000000 1.802620 -0.000010 
#    z -0.025550 -0.000010 1.765140 
# 
# From -- ./inp_files/326020.got.cif
#   From: 2010.05.17/outbox.cif.g08.bks.cpg/sg12_164_cif.got.tgz:326020.got - 2010.06.03 13:09:07.
