data_PCOD9188355
_publ_section_title
;
Structure prediction by ZEFSAII (Michael W. Deem and Ramdas Pophale) SiO2 
 PCOD9188355
Probable space group: C 2/M
;
_chemical_formula_sum "Si O2"
_cell_formula_units_Z 56
_cell_length_a 23.032499
_cell_length_b 7.748622
_cell_length_c 14.369666
_cell_angle_alpha 90.000000
_cell_angle_beta 121.461508
_cell_angle_gamma 90.000000
_cell_volume 2187.543285
_symmetry_space_group_name_H-M "C 2/M"
_symmetry_group_IT_number 12
_symmetry_cell_setting 'monoclinic'
loop_
_space_group_symop_operation_xyz
x,y,z
-x,y,-z
-x,-y,-z
x,-y,z
1/2+x,1/2+y,z
1/2-x,1/2+y,-z
1/2-x,1/2-y,-z
1/2+x,1/2-y,z
loop_
_atom_site_type_symbol
_atom_site_label
_atom_site_fract_x
_atom_site_fract_y
_atom_site_fract_z
Si Si1 0.187259 0.210560 0.268163
Si Si2 0.085423 0.800821 0.036858
Si Si3 0.863580 0.195829 0.589204
Si Si4 0.373455 0.708384 0.202454
Si Si5 0.271130 0.797499 0.889210
Si Si6 0.422122 0.709535 0.448226
Si Si7 0.006187 0.692523 0.200690
O O1 0.115985 0.270027 0.159026
O O2 0.186722 0.271663 0.373800
O O3 0.238419 0.275514 0.231985
O O4 0.188824 0.000000 0.269165
O O5 0.155644 0.789685 0.034536
O O6 0.070763 0.000000 0.038370
O O7 0.023963 0.723437 0.927623
O O8 0.882075 0.277623 0.505518
O O9 0.936184 0.189657 0.705064
O O10 0.840299 0.000000 0.552700
O O11 0.375103 0.500000 0.191556
O O12 0.296613 0.771257 0.118913
O O13 0.386256 0.745323 0.321512
O O14 0.437097 0.785499 0.202300
O O15 0.278442 0.000000 0.912868
O O16 0.500000 0.770183 0.500000
O O17 0.425902 0.500000 0.463818
O O18 0.032335 0.500000 0.232583
#
# Coordination Sequence:
#
# PCOD9188355 Si02
#       7
#     8   8   8   8   8   8   8
#     4   8  18  35  56  78 105 144 182 219 263 315
#     4   9  19  37  56  76 106 143 184 219 261 321
#     4  10  19  36  59  80 107 142 184 224 260 316
#     4  10  20  36  57  81 108 144 183 218 264 319
#     4   9  18  34  56  79 109 141 177 224 267 311
#     4   9  16  31  58  83 104 138 182 222 257 310
#     4  12  24  34  51  83 112 141 177 222 277 321
#
# _framework density 25.599492999999999
#
# number of rings (size 3 to 8) (size 9 to 14) (size 15 to 20)
#    0.857    1.571    1.429    1.714    0.000    2.857 
#    0.000    5.000    0.000    0.000    0.000    0.000 
#    0.000    0.000    0.000    0.000    0.000    0.000 
#
# Total GULP energy -156319.101762 kJ/mol
# GULP energy per Si atom -5582.825063 kJ/mol
# Density = 2.554123 g / cm^3
# Si number density = 25.599493 Si / 1000 Ang^3
#
#
#
# Elastic Constant Matrix: (Units=GPa)
#
#
# Indices 1 2 3 4 5 6 
#
# 1 80.1970 -6.0406 12.1642 0.0000 -10.5530 0.0000
# 2 -6.0406 61.9346 12.0712 0.0000 5.7439 0.0000
# 3 12.1642 12.0712 84.6580 0.0000 -28.0440 0.0000
# 4 0.0000 0.0000 0.0000 9.9982 0.0000 -5.0702
# 5 -10.5530 5.7439 -28.0440 0.0000 57.6769 0.0000
# 6 0.0000 0.0000 0.0000 -5.0702 0.0000 14.4860
#
#
#
# Elastic Compliance Matrix: (Units=1/GPa)
#
#
# Indices 1 2 3 4 5 6 
#
# 1 0.013012 0.001443 -0.001591 0.000000 0.001464 0.000000
# 2 0.001443 0.017327 -0.003769 0.000000 -0.003294 0.000000
# 3 -0.001591 -0.003769 0.015026 0.000000 0.007391 0.000000
# 4 0.000000 0.000000 0.000000 0.121601 0.000000 0.042561
# 5 0.001464 -0.003294 0.007391 0.000000 0.021527 0.000000
# 6 0.000000 0.000000 0.000000 0.042561 0.000000 0.083929
#
#
# Mechanical properties :
#
#
# Convention : Reuss Voigt Hill
#
# Bulk Modulus (GPa) = 26.64369 29.24212 27.94290
# Shear Modulus (GPa) = 17.07844 30.33853 23.70849
#
# Velocity S-wave (km/s) = 2.58571 3.44630 3.04654
# Velocity P-wave (km/s) = 4.39830 5.22338 4.82849
#
# Compressibility (1/GPa) = 0.03753234
#
# Stress axis : x y z
#
# Youngs Moduli (GPa) = 76.85291 57.71343 66.54937
#
# Poissons Ratio (x) = -0.08330 0.10585
# Poissons Ratio (y) = -0.11093 0.25084
# Poissons Ratio (z) = 0.12224 0.21754
#
# Static dielectric constant tensor:
#      x y z
#    x 2.132630 0.000000 -0.066190 
#    y 0.000000 1.926490 0.000000 
#    z -0.066190 0.000000 2.079940 
# 
# From -- ./inp_files/244286.got.cif
#   From: 2010.05.17/outbox.cif.g08.bks.cpg/sg12_123_cif.got.tgz:244286.got - 2010.06.03 13:09:07.
