data_PCOD9188293
_publ_section_title
;
Structure prediction by ZEFSAII (Michael W. Deem and Ramdas Pophale) SiO2 
 PCOD9188293
Probable space group: C 2/M
;
_chemical_formula_sum "Si O2"
_cell_formula_units_Z 56
_cell_length_a 30.466652
_cell_length_b 17.792143
_cell_length_c 8.670827
_cell_angle_alpha 90.000000
_cell_angle_beta 141.258408
_cell_angle_gamma 90.000000
_cell_volume 2941.408424
_symmetry_space_group_name_H-M "C 2/M"
_symmetry_group_IT_number 12
_symmetry_cell_setting 'monoclinic'
loop_
_space_group_symop_operation_xyz
x,y,z
-x,y,-z
-x,-y,-z
x,-y,z
1/2+x,1/2+y,z
1/2-x,1/2+y,-z
1/2-x,1/2-y,-z
1/2+x,1/2-y,z
loop_
_atom_site_type_symbol
_atom_site_label
_atom_site_fract_x
_atom_site_fract_y
_atom_site_fract_z
Si Si1 0.962867 0.773754 0.745429
Si Si2 0.932193 0.658162 0.395844
Si Si3 0.671142 0.236491 0.465828
Si Si4 0.975246 0.915967 0.607968
Si Si5 0.330872 0.584066 0.066955
Si Si6 0.669496 0.914806 0.642814
Si Si7 0.165120 0.759915 0.088859
O O1 0.963710 0.717494 0.605123
O O2 0.881861 0.782584 0.572843
O O3 0.996962 0.851303 0.783637
O O4 0.000000 0.743424 0.000000
O O5 0.881538 0.604503 0.355446
O O6 0.000000 0.622444 0.500000
O O7 0.884569 0.706289 0.147340
O O8 0.659996 0.149724 0.487754
O O9 0.752389 0.256718 0.714950
O O10 0.653784 0.248537 0.239324
O O11 0.000000 0.901822 0.500000
O O12 0.997458 0.000000 0.711832
O O13 0.890965 0.912998 0.359959
O O14 0.336544 0.500000 0.010861
O O15 0.251803 0.591178 0.912542
O O16 0.344292 0.653365 0.988776
O O17 0.657120 0.000000 0.554621
#
# Coordination Sequence:
#
# PCOD9188293 Si02
#       7
#     8   8   8   8   8   8   8
#     4  11  22  34  54  80 114 146 189 236 278 327
#     4  11  22  35  59  83 111 148 187 239 280 335
#     4   9  21  35  57  85 110 147 181 237 282 336
#     4  10  21  35  52  78 112 154 191 222 274 331
#     4   9  18  33  58  82 111 150 189 224 268 330
#     4   9  20  38  58  82 112 146 185 231 288 342
#     4  10  19  36  58  83 115 143 193 227 280 333
#
# _framework density 19.038498000000001
#
# number of rings (size 3 to 8) (size 9 to 14) (size 15 to 20)
#    0.000    2.143    1.429    1.286    4.000    2.286 
#    0.000    1.429    0.000   16.286    0.000    0.000 
#    0.000    0.000    0.000    0.000    0.000    0.000 
#
# Total GULP energy -156169.433630 kJ/mol
# GULP energy per Si atom -5577.479773 kJ/mol
# Density = 1.899517 g / cm^3
# Si number density = 19.038498 Si / 1000 Ang^3
#
#
#
# Elastic Constant Matrix: (Units=GPa)
#
#
# Indices 1 2 3 4 5 6 
#
# 1 89.1044 29.6268 8.4601 0.0000 17.8839 0.0000
# 2 29.6268 65.4089 17.3156 0.0000 6.7575 0.0000
# 3 8.4601 17.3156 62.6579 0.0000 -1.0821 0.0000
# 4 0.0000 0.0000 0.0000 14.6169 0.0000 0.3621
# 5 17.8839 6.7575 -1.0821 0.0000 21.5416 0.0000
# 6 0.0000 0.0000 0.0000 0.3621 0.0000 11.5489
#
#
#
# Elastic Compliance Matrix: (Units=1/GPa)
#
#
# Indices 1 2 3 4 5 6 
#
# 1 0.015380 -0.005638 -0.000709 0.000000 -0.011035 0.000000
# 2 -0.005638 0.019217 -0.004577 0.000000 -0.001577 0.000000
# 3 -0.000709 -0.004577 0.017370 0.000000 0.002897 0.000000
# 4 0.000000 0.000000 0.000000 0.068467 0.000000 -0.002147
# 5 -0.011035 -0.001577 0.002897 0.000000 0.056223 0.000000
# 6 0.000000 0.000000 0.000000 -0.002147 0.000000 0.086656
#
#
# Mechanical properties :
#
#
# Convention : Reuss Voigt Hill
#
# Bulk Modulus (GPa) = 33.20186 36.44180 34.82183
# Shear Modulus (GPa) = 16.93764 20.32606 18.63185
#
# Velocity S-wave (km/s) = 2.98594 3.27100 3.13172
# Velocity P-wave (km/s) = 5.41894 5.78348 5.60418
#
# Compressibility (1/GPa) = 0.03011879
#
# Stress axis : x y z
#
# Youngs Moduli (GPa) = 65.02078 52.03776 57.56996
#
# Poissons Ratio (x) = 0.29341 0.04082
# Poissons Ratio (y) = 0.36662 0.26347
# Poissons Ratio (z) = 0.04610 0.23815
#
# Static dielectric constant tensor:
#      x y z
#    x 1.678220 0.000000 0.052620 
#    y 0.000000 1.664110 0.000000 
#    z 0.052620 0.000000 1.670500 
# 
# From -- ./inp_files/112652.got.cif
#   From: 2010.05.17/outbox.cif.g08.bks.cpg/sg12_57_cif.got.tgz:112652.got - 2010.06.03 13:09:07.
