data_PCOD9188652
_publ_section_title
;
Structure prediction by ZEFSAII (Michael W. Deem and Ramdas Pophale) SiO2 
 PCOD9188652
Probable space group: C 2/M
;
_chemical_formula_sum "Si O2"
_cell_formula_units_Z 44
_cell_length_a 11.961046
_cell_length_b 24.555013
_cell_length_c 13.119006
_cell_angle_alpha 90.000000
_cell_angle_beta 36.877710
_cell_angle_gamma 90.000000
_cell_volume 2312.280168
_symmetry_space_group_name_H-M "C 2/M"
_symmetry_group_IT_number 12
_symmetry_cell_setting 'monoclinic'
loop_
_space_group_symop_operation_xyz
x,y,z
-x,y,-z
-x,-y,-z
x,-y,z
1/2+x,1/2+y,z
1/2-x,1/2+y,-z
1/2-x,1/2-y,-z
1/2+x,1/2-y,z
loop_
_atom_site_type_symbol
_atom_site_label
_atom_site_fract_x
_atom_site_fract_y
_atom_site_fract_z
Si Si1 0.000000 0.367764 0.000000
Si Si2 0.540705 0.613722 0.862067
Si Si3 0.171749 0.562849 0.502975
Si Si4 0.807763 0.687769 0.950115
Si Si5 0.286313 0.564235 0.655564
Si Si6 0.592221 0.836247 0.337032
O O1 0.908826 0.331786 0.977886
O O2 0.844627 0.404349 0.170011
O O3 0.649678 0.579441 0.696637
O O4 0.360958 0.644770 0.948855
O O5 0.692749 0.657806 0.789439
O O6 0.500000 0.583459 0.000000
O O7 0.123751 0.500000 0.519028
O O8 0.215546 0.569222 0.590914
O O9 0.004849 0.604260 0.599847
O O10 0.750000 0.750000 0.000000
O O11 0.931846 0.686610 0.757342
O O12 0.500000 0.583656 0.500000
O O13 0.286004 0.500000 0.682422
O O14 0.500000 0.806408 0.500000
#
# Coordination Sequence:
#
# PCOD9188652 Si02
#       6
#     4   8   8   8   8   8
#     4  12  23  40  68  92 128 164 213 264 314 386
#     4   9  20  37  59  84 123 156 201 255 302 366
#     4  10  19  36  60  90 124 159 198 247 308 377
#     4  11  24  41  62  88 118 160 211 259 316 360
#     4  10  21  38  62  92 130 167 205 256 316 380
#     4   9  19  39  62  84 121 157 195 250 303 369
#
# _framework density 19.028836999999999
#
# number of rings (size 3 to 8) (size 9 to 14) (size 15 to 20)
#    0.000    2.000    1.818    1.364    3.818    3.636 
#    0.000   10.000    0.000    0.000    0.000    0.000 
#    0.000    0.000    0.000    0.000    0.000    0.000 
#
# Total GULP energy -122614.629376 kJ/mol
# GULP energy per Si atom -5573.392244 kJ/mol
# Density = 1.898553 g / cm^3
# Si number density = 19.028837 Si / 1000 Ang^3
#
#
#
# Elastic Constant Matrix: (Units=GPa)
#
#
# Indices 1 2 3 4 5 6 
#
# 1 131.3778 37.4776 55.3944 0.0001 17.7373 0.0000
# 2 37.4776 84.4983 50.9848 0.0000 16.4965 0.0000
# 3 55.3944 50.9848 146.3917 0.0000 32.5163 -0.0001
# 4 0.0001 0.0000 0.0000 6.3889 -0.0001 -6.2956
# 5 17.7373 16.4965 32.5163 -0.0001 41.8150 0.0000
# 6 0.0000 0.0000 -0.0001 -6.2956 0.0000 -5.1850
#
#
#
# Elastic Compliance Matrix: (Units=1/GPa)
#
#
# Indices 1 2 3 4 5 6 
#
# 1 0.009525 -0.002508 -0.002482 0.000000 -0.001121 0.000000
# 2 -0.002508 0.015819 -0.004123 0.000000 -0.001971 0.000000
# 3 -0.002482 -0.004123 0.010409 0.000000 -0.005415 0.000000
# 4 0.000000 0.000000 0.000000 0.071262 0.000000 -0.086524
# 5 -0.001121 -0.001971 -0.005415 0.000000 0.029379 0.000000
# 6 0.000000 0.000000 0.000000 -0.086524 0.000000 -0.087806
#
#
# Mechanical properties :
#
#
# Convention : Reuss Voigt Hill
#
# Bulk Modulus (GPa) = 57.05222 72.22016 64.63619
# Shear Modulus (GPa) = 68.81906 23.16451 45.99178
#
# Velocity S-wave (km/s) = 6.02031 3.49282 4.92158
# Velocity P-wave (km/s) = 8.85283 7.36898 8.14477
#
# Compressibility (1/GPa) = 0.01752780
#
# Stress axis : x y z
#
# Youngs Moduli (GPa) = 104.98824 63.21357 96.07490
#
# Poissons Ratio (x) = 0.15856 0.23842
# Poissons Ratio (y) = 0.26335 0.39607
# Poissons Ratio (z) = 0.26054 0.26060
#
# Static dielectric constant tensor:
#      x y z
#    x 1.692230 0.000000 0.036440 
#    y 0.000000 1.634940 0.000000 
#    z 0.036440 0.000000 1.754910 
# 
# From -- ./inp_files/135731.got.cif
#   From: 2010.05.17/outbox.cif.g08.bks.cpg/sg12_68_cif.got.tgz:135731.got - 2010.06.03 13:09:07.
