data_PCOD9188979
_publ_section_title
;
Structure prediction by ZEFSAII (Michael W. Deem and Ramdas Pophale) SiO2 
 PCOD9188979
Probable space group: C 2/M
;
_chemical_formula_sum "Si O2"
_cell_formula_units_Z 32
_cell_length_a 17.860698
_cell_length_b 14.082174
_cell_length_c 5.394261
_cell_angle_alpha 90.000000
_cell_angle_beta 71.818792
_cell_angle_gamma 90.000000
_cell_volume 1289.014266
_symmetry_space_group_name_H-M "C 2/M"
_symmetry_group_IT_number 12
_symmetry_cell_setting 'monoclinic'
loop_
_space_group_symop_operation_xyz
x,y,z
-x,y,-z
-x,-y,-z
x,-y,z
1/2+x,1/2+y,z
1/2-x,1/2+y,-z
1/2-x,1/2-y,-z
1/2+x,1/2-y,z
loop_
_atom_site_type_symbol
_atom_site_label
_atom_site_fract_x
_atom_site_fract_y
_atom_site_fract_z
Si Si1 0.753784 0.390570 0.843195
Si Si2 0.889656 0.110073 0.708302
Si Si3 0.082268 0.389865 0.548946
Si Si4 0.611945 0.710222 0.796406
O O1 0.739851 0.500000 0.771188
O O2 0.845534 0.372074 0.717496
O O3 0.704085 0.316383 0.734631
O O4 0.706314 0.385276 0.151366
O O5 0.912480 0.154825 0.426252
O O6 0.911555 0.000000 0.701699
O O7 0.921091 0.167484 0.914169
O O8 0.085175 0.500000 0.622238
O O9 0.094783 0.319191 0.763360
O O10 0.000000 0.372221 0.500000
#
# Coordination Sequence:
#
# PCOD9188979 Si02
#       4
#     8   8   8   8
#     4   8  17  34  61  92 118 150 195 248 301 352
#     4   9  18  34  64  97 120 144 192 255 305 351
#     4  10  21  39  59  86 125 165 203 242 290 354
#     4  10  19  36  64  89 120 156 197 245 298 350
#
# _framework density 24.82517
#
# number of rings (size 3 to 8) (size 9 to 14) (size 15 to 20)
#    1.500    1.250    0.000    2.250    0.000    1.000 
#    0.000    2.500    0.000   11.250    0.000    0.000 
#    0.000    0.000    0.000    0.000    0.000    0.000 
#
# Total GULP energy -89429.646518 kJ/mol
# GULP energy per Si atom -5589.352907 kJ/mol
# Density = 2.476867 g / cm^3
# Si number density = 24.825170 Si / 1000 Ang^3
#
#
#
# Elastic Constant Matrix: (Units=GPa)
#
#
# Indices 1 2 3 4 5 6 
#
# 1 160.2295 79.8958 64.5065 0.0000 -27.0047 0.0000
# 2 79.8958 146.9439 54.2980 0.0000 15.3821 0.0000
# 3 64.5065 54.2980 95.2832 0.0000 -1.3169 0.0000
# 4 0.0000 0.0000 0.0000 -11.4433 0.0000 36.5136
# 5 -27.0047 15.3821 -1.3169 0.0000 31.2865 0.0000
# 6 0.0000 0.0000 0.0000 36.5136 0.0000 6.3613
#
#
#
# Elastic Compliance Matrix: (Units=1/GPa)
#
#
# Indices 1 2 3 4 5 6 
#
# 1 0.015387 -0.008089 -0.005572 0.000000 0.017024 0.000000
# 2 -0.008089 0.013540 -0.002429 0.000000 -0.013741 0.000000
# 3 -0.005572 -0.002429 0.015611 0.000000 -0.002958 0.000000
# 4 0.000000 0.000000 0.000000 -0.004524 0.000000 0.025969
# 5 0.017024 -0.013741 -0.002958 0.000000 0.053288 0.000000
# 6 0.000000 0.000000 0.000000 0.025969 0.000000 0.008139
#
#
# Mechanical properties :
#
#
# Convention : Reuss Voigt Hill
#
# Bulk Modulus (GPa) = 80.92920 88.87302 84.90111
# Shear Modulus (GPa) = 36.30046 18.82464 27.56255
#
# Velocity S-wave (km/s) = 3.82808 2.75669 3.33568
# Velocity P-wave (km/s) = 7.22560 6.78305 7.00782
#
# Compressibility (1/GPa) = 0.01235648
#
# Stress axis : x y z
#
# Youngs Moduli (GPa) = 64.99011 73.85716 64.05896
#
# Poissons Ratio (x) = 0.59745 0.35693
# Poissons Ratio (y) = 0.52572 0.15561
# Poissons Ratio (z) = 0.36212 0.17941
#
# Static dielectric constant tensor:
#      x y z
#    x 1.997310 0.000000 -0.026770 
#    y 0.000000 1.937900 0.000000 
#    z -0.026770 0.000000 1.934580 
# 
# From -- ./inp_files/14498.got.cif
#   From: 2010.05.17/outbox.cif.g08.bks.cpg/sg12_8_cif.got.tgz:14498.got - 2010.06.03 13:09:07.
