data_PCOD9188299
_publ_section_title
;
Structure prediction by ZEFSAII (Michael W. Deem and Ramdas Pophale) SiO2 
 PCOD9188299
Probable space group: C 2/M
;
_chemical_formula_sum "Si O2"
_cell_formula_units_Z 52
_cell_length_a 20.059443
_cell_length_b 13.066769
_cell_length_c 11.692626
_cell_angle_alpha 90.000000
_cell_angle_beta 116.773321
_cell_angle_gamma 90.000000
_cell_volume 2736.221275
_symmetry_space_group_name_H-M "C 2/M"
_symmetry_group_IT_number 12
_symmetry_cell_setting 'monoclinic'
loop_
_space_group_symop_operation_xyz
x,y,z
-x,y,-z
-x,-y,-z
x,-y,z
1/2+x,1/2+y,z
1/2-x,1/2+y,-z
1/2-x,1/2-y,-z
1/2+x,1/2-y,z
loop_
_atom_site_type_symbol
_atom_site_label
_atom_site_fract_x
_atom_site_fract_y
_atom_site_fract_z
Si Si1 0.460817 0.817471 0.137749
Si Si2 0.003925 0.881164 0.273753
Si Si3 0.885598 0.379960 0.841326
Si Si4 0.123137 0.379974 0.696693
Si Si5 0.000000 0.251324 0.500000
Si Si6 0.676757 0.616604 0.442692
Si Si7 0.239983 0.746438 0.677209
O O1 0.464473 0.694111 0.153124
O O2 0.546904 0.853991 0.194081
O O3 0.419577 0.862947 0.216474
O O4 0.419282 0.853954 0.991949
O O5 0.992613 0.823287 0.385747
O O6 0.093413 0.878767 0.327831
O O7 0.980114 0.000000 0.255569
O O8 0.868438 0.500000 0.820505
O O9 0.812490 0.312152 0.765394
O O10 0.135689 0.500000 0.687599
O O11 0.198545 0.313289 0.746310
O O12 0.069886 0.328866 0.559463
O O13 0.695530 0.500000 0.480817
O O14 0.733324 0.663743 0.395349
O O15 0.684125 0.678746 0.565856
#
# Coordination Sequence:
#
# PCOD9188299 Si02
#       7
#     8   8   8   8   4   8   8
#     4  10  22  41  61  88 115 152 206 250 291 348
#     4  10  19  36  58  84 116 151 189 239 294 345
#     4  11  22  41  65  86 114 157 203 251 292 344
#     4  11  22  37  59  88 122 158 192 246 301 347
#     4  10  20  36  56  88 118 154 198 236 290 354
#     4  10  20  36  55  81 118 153 188 236 290 350
#     4  11  22  37  57  91 119 154 196 240 296 360
#
# _framework density 19.004311999999999
#
# number of rings (size 3 to 8) (size 9 to 14) (size 15 to 20)
#    0.000    1.538    3.077    3.231    0.000    0.615 
#    0.000    8.462    0.000    0.000    0.000    0.000 
#    0.000    0.000    0.000    0.000    0.000    0.000 
#
# Total GULP energy -145080.528922 kJ/mol
# GULP energy per Si atom -5580.020343 kJ/mol
# Density = 1.896106 g / cm^3
# Si number density = 19.004312 Si / 1000 Ang^3
#
#
#
# Elastic Constant Matrix: (Units=GPa)
#
#
# Indices 1 2 3 4 5 6 
#
# 1 96.0634 65.3404 31.9787 0.0000 0.4647 0.0000
# 2 65.3404 171.4013 25.2674 0.0000 -8.5896 0.0000
# 3 31.9787 25.2674 25.1513 0.0000 -4.0950 0.0000
# 4 0.0000 0.0000 0.0000 27.6008 0.0000 3.1073
# 5 0.4647 -8.5896 -4.0950 0.0000 17.0286 0.0000
# 6 0.0000 0.0000 0.0000 3.1073 0.0000 23.5901
#
#
#
# Elastic Compliance Matrix: (Units=1/GPa)
#
#
# Indices 1 2 3 4 5 6 
#
# 1 0.022177 -0.005325 -0.024337 0.000000 -0.009144 0.000000
# 2 -0.005325 0.008185 -0.000787 0.000000 0.004085 0.000000
# 3 -0.024337 -0.000787 0.074452 0.000000 0.018171 0.000000
# 4 0.000000 0.000000 0.000000 0.036776 0.000000 -0.004844
# 5 -0.009144 0.004085 0.018171 0.000000 0.065404 0.000000
# 6 0.000000 0.000000 0.000000 -0.004844 0.000000 0.043029
#
#
# Mechanical properties :
#
#
# Convention : Reuss Voigt Hill
#
# Bulk Modulus (GPa) = 22.77056 59.75432 41.26244
# Shear Modulus (GPa) = 15.35812 24.97919 20.16866
#
# Velocity S-wave (km/s) = 2.84586 3.62939 3.26124
# Velocity P-wave (km/s) = 4.77560 7.00529 5.99502
#
# Compressibility (1/GPa) = 0.04391636
#
# Stress axis : x y z
#
# Youngs Moduli (GPa) = 45.09084 122.17552 13.43145
#
# Poissons Ratio (x) = 0.65057 0.32688
# Poissons Ratio (y) = 0.24010 0.01057
# Poissons Ratio (z) = 1.09737 0.09619
#
# Static dielectric constant tensor:
#      x y z
#    x 1.689110 0.000000 0.004620 
#    y 0.000000 1.655680 0.000000 
#    z 0.004620 0.000000 1.653340 
# 
# From -- ./inp_files/165759.got.cif
#   From: 2010.05.17/outbox.cif.g08.bks.cpg/sg12_83_cif.got.tgz:165759.got - 2010.06.03 13:09:07.
