data_PCOD9188189
_publ_section_title
;
Structure prediction by ZEFSAII (Michael W. Deem and Ramdas Pophale) SiO2 
 PCOD9188189
Probable space group: C 2/M
;
_chemical_formula_sum "Si O2"
_cell_formula_units_Z 64
_cell_length_a 20.390678
_cell_length_b 34.679608
_cell_length_c 15.029059
_cell_angle_alpha 90.000000
_cell_angle_beta 19.734516
_cell_angle_gamma 90.000000
_cell_volume 3588.560578
_symmetry_space_group_name_H-M "C 2/M"
_symmetry_group_IT_number 12
_symmetry_cell_setting 'monoclinic'
loop_
_space_group_symop_operation_xyz
x,y,z
-x,y,-z
-x,-y,-z
x,-y,z
1/2+x,1/2+y,z
1/2-x,1/2+y,-z
1/2-x,1/2-y,-z
1/2+x,1/2-y,z
loop_
_atom_site_type_symbol
_atom_site_label
_atom_site_fract_x
_atom_site_fract_y
_atom_site_fract_z
Si Si1 0.621685 0.676873 0.599432
Si Si2 0.890021 0.783056 0.050358
Si Si3 0.529238 0.861817 0.066505
Si Si4 0.180623 0.796052 0.329104
Si Si5 0.369064 0.044890 0.756997
Si Si6 0.660113 0.144296 0.367815
Si Si7 0.596653 0.094277 0.611447
Si Si8 0.024620 0.900439 0.136526
O O1 0.524861 0.703984 0.796705
O O2 0.847250 0.665921 0.323454
O O3 0.610445 0.697279 0.519149
O O4 0.518349 0.634948 0.740473
O O5 0.832564 0.738640 0.126299
O O6 0.704989 0.811242 0.291644
O O7 0.000000 0.792636 0.000000
O O8 0.520828 0.895737 0.148973
O O9 0.500000 0.873361 0.000000
O O10 0.719970 0.835880 0.827479
O O11 0.000000 0.785987 0.500000
O O12 0.500000 0.046931 0.500000
O O13 0.492934 0.063438 0.679771
O O14 0.329263 0.000000 0.825273
O O15 0.168724 0.068119 0.994851
O O16 0.500000 0.132130 0.500000
O O17 0.603026 0.132416 0.539974
O O18 0.852889 0.120082 0.098123
O O19 0.817528 0.085513 0.361956
#
# Coordination Sequence:
#
# PCOD9188189 Si02
#       8
#     8   8   8   8   8   8   8   8
#     4   9  21  38  57  78 106 149 195 236 286 337
#     4  11  22  35  54  77 111 152 192 239 288 342
#     4   9  20  38  57  80 106 142 200 246 280 336
#     4  11  24  37  52  81 112 145 191 246 298 332
#     4  11  23  37  56  92 128 152 180 223 279 344
#     4  11  19  32  53  84 114 146 198 236 276 341
#     4  11  20  35  62  82 112 158 193 228 285 334
#     4  10  19  36  57  82 117 153 194 227 270 341
#
# _framework density 17.834448999999999
#
# number of rings (size 3 to 8) (size 9 to 14) (size 15 to 20)
#    0.000    1.625    2.500    4.125    1.750    4.000 
#    0.000    1.250    0.000    0.375    0.000   10.500 
#    0.000    0.000    0.000    0.000    0.000    0.000 
#
# Total GULP energy -178466.908700 kJ/mol
# GULP energy per Si atom -5577.090897 kJ/mol
# Density = 1.779386 g / cm^3
# Si number density = 17.834449 Si / 1000 Ang^3
#
#
#
# Elastic Constant Matrix: (Units=GPa)
#
#
# Indices 1 2 3 4 5 6 
#
# 1 111.3558 56.2829 54.4977 -0.0163 -0.0129 0.0647
# 2 56.2829 79.6319 36.6004 -0.0113 7.0461 -0.0010
# 3 54.4977 36.6004 76.8426 -0.0574 10.0857 0.0209
# 4 -0.0163 -0.0113 -0.0574 20.6262 0.0178 11.7400
# 5 -0.0129 7.0461 10.0857 0.0178 29.2145 0.0009
# 6 0.0647 -0.0010 0.0209 11.7400 0.0009 1.1661
#
#
#
# Elastic Compliance Matrix: (Units=1/GPa)
#
#
# Indices 1 2 3 4 5 6 
#
# 1 0.018029 -0.008983 -0.009210 -0.000097 0.005354 0.000135
# 2 -0.008983 0.020600 -0.002921 0.000069 -0.003964 -0.000122
# 3 -0.009210 -0.002921 0.021834 0.000002 -0.006837 0.000097
# 4 -0.000097 0.000069 0.000002 -0.010248 -0.000014 0.103185
# 5 0.005354 -0.003964 -0.006837 -0.000014 0.037548 -0.000062
# 6 0.000135 -0.000122 0.000097 0.103185 -0.000062 -0.181286
#
#
# Mechanical properties :
#
#
# Convention : Reuss Voigt Hill
#
# Bulk Modulus (GPa) = 54.83985 62.51023 58.67504
# Shear Modulus (GPa) = -110.57788 18.23131 -46.17329
#
# Velocity S-wave (km/s) = -7.88270 3.20074 -5.09374
# Velocity P-wave (km/s) = 7.21340 6.98470 1.27421
#
# Compressibility (1/GPa) = 0.01823491
#
# Stress axis : x y z
#
# Youngs Moduli (GPa) = 55.46753 48.54379 45.79961
#
# Poissons Ratio (x) = 0.43606 0.42183
# Poissons Ratio (y) = 0.49826 0.13377
# Poissons Ratio (z) = 0.51088 0.14178
#
# Static dielectric constant tensor:
#      x y z
#    x 1.602040 0.000000 0.004720 
#    y 0.000000 1.616830 0.000010 
#    z 0.004720 0.000010 1.641280 
# 
# From -- ./inp_files/235957.got.cif
#   From: 2010.05.17/outbox.cif.g08.bks.cpg/sg12_118_cif.got.tgz:235957.got - 2010.06.03 13:09:07.
