data_PCOD9188714
_publ_section_title
;
Structure prediction by ZEFSAII (Michael W. Deem and Ramdas Pophale) SiO2 
 PCOD9188714
Probable space group: C 2/M
;
_chemical_formula_sum "Si O2"
_cell_formula_units_Z 44
_cell_length_a 14.612939
_cell_length_b 14.520722
_cell_length_c 22.196568
_cell_angle_alpha 90.000000
_cell_angle_beta 30.846402
_cell_angle_gamma 90.000000
_cell_volume 2414.945897
_symmetry_space_group_name_H-M "C 2/M"
_symmetry_group_IT_number 12
_symmetry_cell_setting 'monoclinic'
loop_
_space_group_symop_operation_xyz
x,y,z
-x,y,-z
-x,-y,-z
x,-y,z
1/2+x,1/2+y,z
1/2-x,1/2+y,-z
1/2-x,1/2-y,-z
1/2+x,1/2-y,z
loop_
_atom_site_type_symbol
_atom_site_label
_atom_site_fract_x
_atom_site_fract_y
_atom_site_fract_z
Si Si1 0.378541 0.307679 0.884421
Si Si2 0.009781 0.735826 0.304441
Si Si3 0.706030 0.747870 0.754437
Si Si4 0.279095 0.890677 0.513695
Si Si5 0.032238 0.605104 0.049203
Si Si6 0.500000 0.193997 0.500000
O O1 0.435516 0.245382 0.795457
O O2 0.561660 0.328876 0.815652
O O3 0.250000 0.250000 0.000000
O O4 0.245003 0.387425 0.939350
O O5 0.182805 0.727555 0.248549
O O6 0.901732 0.830612 0.379343
O O7 0.882172 0.652702 0.397838
O O8 0.586122 0.836562 0.837331
O O9 0.851446 0.753357 0.619099
O O10 0.398052 0.864625 0.505827
O O11 0.253330 0.000000 0.524733
O O12 0.974081 0.500000 0.083854
O O13 0.000000 0.642651 0.000000
#
# Coordination Sequence:
#
# PCOD9188714 Si02
#       6
#     8   8   8   8   8   4
#     4  10  20  36  58  79 113 155 190 233 289 345
#     4  10  20  37  57  85 117 155 195 238 296 350
#     4  10  20  36  58  82 116 155 191 236 294 345
#     4  10  21  36  58  86 119 156 195 243 290 347
#     4  10  20  35  57  87 115 148 196 242 288 346
#     4  10  19  36  61  86 116 150 201 232 290 352
#
# _framework density 18.21987
#
# number of rings (size 3 to 8) (size 9 to 14) (size 15 to 20)
#    0.000    2.000    3.636    0.273    0.000    1.455 
#    0.000    5.000    0.000    0.000    0.000   10.182 
#    0.000    0.000    0.000    0.000    0.000    0.000 
#
# Total GULP energy -122484.249252 kJ/mol
# GULP energy per Si atom -5567.465875 kJ/mol
# Density = 1.817840 g / cm^3
# Si number density = 18.219870 Si / 1000 Ang^3
#
#
#
# Elastic Constant Matrix: (Units=GPa)
#
#
# Indices 1 2 3 4 5 6 
#
# 1 82.5660 26.2782 44.5063 -0.0003 -10.8829 -0.0004
# 2 26.2782 76.3322 36.8065 -0.0021 11.3308 0.0001
# 3 44.5063 36.8065 123.6625 -0.0053 8.9655 0.0014
# 4 -0.0003 -0.0021 -0.0053 10.6584 0.0006 -10.0874
# 5 -10.8829 11.3308 8.9655 0.0006 45.3811 -0.0001
# 6 -0.0004 0.0001 0.0014 -10.0874 -0.0001 -47.2894
#
#
#
# Elastic Compliance Matrix: (Units=1/GPa)
#
#
# Indices 1 2 3 4 5 6 
#
# 1 0.017183 -0.004252 -0.005371 -0.000003 0.006244 0.000000
# 2 -0.004252 0.016751 -0.003123 0.000002 -0.004585 0.000000
# 3 -0.005371 -0.003123 0.011146 0.000004 -0.002710 -0.000001
# 4 -0.000003 0.000002 0.000004 0.078063 -0.000003 -0.016652
# 5 0.006244 -0.004585 -0.002710 -0.000003 0.025213 0.000000
# 6 0.000000 0.000000 -0.000001 -0.016652 0.000000 -0.017594
#
#
# Mechanical properties :
#
#
# Convention : Reuss Voigt Hill
#
# Bulk Modulus (GPa) = 51.05459 55.30474 53.17967
# Shear Modulus (GPa) = 30.71566 13.41465 22.06515
#
# Velocity S-wave (km/s) = 4.11034 2.71636 3.48379
# Velocity P-wave (km/s) = 7.11398 6.34493 6.74044
#
# Compressibility (1/GPa) = 0.01958688
#
# Stress axis : x y z
#
# Youngs Moduli (GPa) = 58.19634 59.69796 89.72125
#
# Poissons Ratio (x) = 0.25386 0.48192
# Poissons Ratio (y) = 0.24747 0.28019
# Poissons Ratio (z) = 0.31259 0.18643
#
# Static dielectric constant tensor:
#      x y z
#    x 1.702150 0.000000 -0.023430 
#    y 0.000000 1.590670 0.000000 
#    z -0.023430 0.000000 1.654050 
# 
# From -- ./inp_files/176256.got.cif
#   From: 2010.05.17/outbox.cif.g08.bks.cpg/sg12_89_cif.got.tgz:176256.got - 2010.06.03 13:09:07.
