data_PCOD9188060
_publ_section_title
;
Structure prediction by ZEFSAII (Michael W. Deem and Ramdas Pophale) SiO2 
 PCOD9188060
Probable space group: C 2/M
;
_chemical_formula_sum "Si O2"
_cell_formula_units_Z 56
_cell_length_a 17.682320
_cell_length_b 12.315558
_cell_length_c 17.682434
_cell_angle_alpha 90.000000
_cell_angle_beta 56.693144
_cell_angle_gamma 90.000000
_cell_volume 3218.158548
_symmetry_space_group_name_H-M "C 2/M"
_symmetry_group_IT_number 12
_symmetry_cell_setting 'monoclinic'
loop_
_space_group_symop_operation_xyz
x,y,z
-x,y,-z
-x,-y,-z
x,-y,z
1/2+x,1/2+y,z
1/2-x,1/2+y,-z
1/2-x,1/2-y,-z
1/2+x,1/2-y,z
loop_
_atom_site_type_symbol
_atom_site_label
_atom_site_fract_x
_atom_site_fract_y
_atom_site_fract_z
Si Si1 0.078602 0.370902 0.777096
Si Si2 0.605316 0.749993 0.605315
Si Si3 0.250002 0.249993 0.749999
Si Si4 0.394685 0.249990 0.894688
Si Si5 0.578601 0.370902 0.277093
Si Si6 0.777106 0.629097 0.578594
Si Si7 0.222896 0.129097 0.921405
O O1 0.073660 0.500000 0.784869
O O2 0.089466 0.332597 0.683859
O O3 0.164903 0.323994 0.773854
O O4 0.987147 0.314570 0.856987
O O5 0.512854 0.685431 0.643016
O O6 0.683866 0.667395 0.589460
O O7 0.643007 0.814554 0.512854
O O8 0.335099 0.323997 0.726147
O O9 0.273860 0.175994 0.664900
O O10 0.226146 0.175991 0.835097
O O11 0.410534 0.332595 0.816144
O O12 0.316135 0.167391 0.910542
O O13 0.356992 0.314550 0.987149
O O14 0.426343 0.500000 0.715135
O O15 0.784890 0.500000 0.573639
O O16 0.215108 0.000000 0.926364
#
# Coordination Sequence:
#
# PCOD9188060 Si02
#       7
#     8   8   8   8   8   8   8
#     4  10  19  36  55  77 106 137 169 216 259 300
#     4   9  20  34  56  81 100 132 182 211 250 314
#     4  10  22  34  52  80 108 136 174 206 256 320
#     4   9  20  34  56  81 100 132 182 211 250 314
#     4  10  19  36  55  77 106 137 169 216 259 300
#     4  10  19  36  55  77 106 137 169 216 259 300
#     4  10  19  36  55  77 106 137 169 216 259 300
#
# _framework density 17.401257000000001
#
# number of rings (size 3 to 8) (size 9 to 14) (size 15 to 20)
#    0.000    2.286    0.000    2.571    0.000    1.143 
#    0.000   11.429    0.000    0.000    0.000    0.000 
#    0.000    0.000    0.000    0.000    0.000    0.000 
#
# Total GULP energy -156320.939949 kJ/mol
# GULP energy per Si atom -5582.890712 kJ/mol
# Density = 1.736165 g / cm^3
# Si number density = 17.401257 Si / 1000 Ang^3
#
#
#
# Elastic Constant Matrix: (Units=GPa)
#
#
# Indices 1 2 3 4 5 6 
#
# 1 106.1148 91.2575 90.0409 0.0000 -10.3706 0.0000
# 2 91.2575 201.8806 98.4445 0.0000 -7.9792 0.0000
# 3 90.0409 98.4445 134.5933 0.0000 -21.8559 0.0000
# 4 0.0000 0.0000 0.0000 11.8387 0.0000 -2.4357
# 5 -10.3706 -7.9792 -21.8559 0.0000 25.7574 0.0000
# 6 0.0000 0.0000 0.0000 -2.4357 0.0000 9.7129
#
#
#
# Elastic Compliance Matrix: (Units=1/GPa)
#
#
# Indices 1 2 3 4 5 6 
#
# 1 0.024643 -0.004632 -0.013593 0.000000 -0.003047 0.000000
# 2 -0.004632 0.008745 -0.003666 0.000000 -0.002266 0.000000
# 3 -0.013593 -0.003666 0.021029 0.000000 0.011235 0.000000
# 4 0.000000 0.000000 0.000000 0.089064 0.000000 0.022335
# 5 -0.003047 -0.002266 0.011235 0.000000 0.046429 0.000000
# 6 0.000000 0.000000 0.000000 0.022335 0.000000 0.108556
#
#
# Mechanical properties :
#
#
# Convention : Reuss Voigt Hill
#
# Bulk Modulus (GPa) = 94.01790 111.34163 102.67977
# Shear Modulus (GPa) = 14.45952 20.31818 17.38885
#
# Velocity S-wave (km/s) = 2.88574 3.42076 3.16458
# Velocity P-wave (km/s) = 8.07775 8.92894 8.51399
#
# Compressibility (1/GPa) = 0.01063627
#
# Stress axis : x y z
#
# Youngs Moduli (GPa) = 40.57945 114.34918 47.55301
#
# Poissons Ratio (x) = 0.52961 0.64639
# Poissons Ratio (y) = 0.18794 0.17433
# Poissons Ratio (z) = 0.55160 0.41920
#
# Static dielectric constant tensor:
#      x y z
#    x 1.575200 0.000000 -0.006250 
#    y 0.000000 1.543070 0.000000 
#    z -0.006250 0.000000 1.580660 
# 
# From -- ./inp_files/223726.got.cif
#   From: 2010.05.17/outbox.cif.g08.bks.cpg/sg12_112_cif.got.tgz:223726.got - 2010.06.03 13:09:07.
