data_PCOD9188308
_publ_section_title
;
Structure prediction by ZEFSAII (Michael W. Deem and Ramdas Pophale) SiO2 
 PCOD9188308
Probable space group: C 2/M
;
_chemical_formula_sum "Si O2"
_cell_formula_units_Z 52
_cell_length_a 16.141832
_cell_length_b 18.522070
_cell_length_c 9.233678
_cell_angle_alpha 90.000000
_cell_angle_beta 92.639338
_cell_angle_gamma 90.000000
_cell_volume 2757.757796
_symmetry_space_group_name_H-M "C 2/M"
_symmetry_group_IT_number 12
_symmetry_cell_setting 'monoclinic'
loop_
_space_group_symop_operation_xyz
x,y,z
-x,y,-z
-x,-y,-z
x,-y,z
1/2+x,1/2+y,z
1/2-x,1/2+y,-z
1/2-x,1/2-y,-z
1/2+x,1/2-y,z
loop_
_atom_site_type_symbol
_atom_site_label
_atom_site_fract_x
_atom_site_fract_y
_atom_site_fract_z
Si Si1 0.751624 0.083285 0.131616
Si Si2 0.364958 0.414132 0.671176
Si Si3 0.000000 0.829192 0.500000
Si Si4 0.733611 0.144331 0.435661
Si Si5 0.861009 0.269205 0.366636
Si Si6 0.164820 0.293867 0.963137
Si Si7 0.595729 0.648085 0.017738
O O1 0.731120 0.091618 0.299563
O O2 0.752282 0.000000 0.087891
O O3 0.682873 0.130926 0.042692
O O4 0.843042 0.117076 0.102376
O O5 0.371091 0.500000 0.678438
O O6 0.442640 0.378967 0.594592
O O7 0.286447 0.389833 0.570180
O O8 0.364436 0.381064 0.831039
O O9 0.942370 0.778423 0.396769
O O10 0.784011 0.213553 0.377723
O O11 0.650580 0.174500 0.502864
O O12 0.853391 0.302926 0.207850
O O13 0.250000 0.250000 0.000000
O O14 0.099361 0.235266 0.016612
O O15 0.500000 0.624185 0.000000
#
# Coordination Sequence:
#
# PCOD9188308 Si02
#       7
#     8   8   4   8   8   8   8
#     4  11  23  38  58  87 119 151 189 237 291 345
#     4  11  23  36  54  84 123 160 188 227 287 351
#     4  10  23  36  58  86 121 148 196 236 293 342
#     4  10  20  35  58  80 113 149 198 238 277 331
#     4  10  19  36  58  85 109 150 196 244 279 330
#     4  10  19  37  59  84 112 150 197 240 278 333
#     4  11  23  38  57  86 118 155 194 235 282 344
#
# _framework density 18.855898
#
# number of rings (size 3 to 8) (size 9 to 14) (size 15 to 20)
#    0.000    1.538    3.077    3.923    6.462    1.231 
#    0.000    0.769    0.000    0.462    0.000    2.692 
#    0.000    0.000    0.000    0.000    0.000    0.000 
#
# Total GULP energy -145097.465105 kJ/mol
# GULP energy per Si atom -5580.671735 kJ/mol
# Density = 1.881298 g / cm^3
# Si number density = 18.855898 Si / 1000 Ang^3
#
#
#
# Elastic Constant Matrix: (Units=GPa)
#
#
# Indices 1 2 3 4 5 6 
#
# 1 20.5423 33.7593 8.8273 0.0000 -0.9147 0.0000
# 2 33.7593 112.1209 36.2437 0.0000 -1.3905 0.0000
# 3 8.8273 36.2437 101.0471 0.0000 9.2554 0.0000
# 4 0.0000 0.0000 0.0000 22.4456 0.0000 -5.4753
# 5 -0.9147 -1.3905 9.2554 0.0000 15.0621 0.0000
# 6 0.0000 0.0000 0.0000 -5.4753 0.0000 11.2066
#
#
#
# Elastic Compliance Matrix: (Units=1/GPa)
#
#
# Indices 1 2 3 4 5 6 
#
# 1 0.096866 -0.029808 0.002059 0.000000 0.001866 0.000000
# 2 -0.029808 0.019423 -0.004621 0.000000 0.002822 0.000000
# 3 0.002059 -0.004621 0.012082 0.000000 -0.007726 0.000000
# 4 0.000000 0.000000 0.000000 0.050580 0.000000 0.024712
# 5 0.001866 0.002822 -0.007726 0.000000 0.071513 0.000000
# 6 0.000000 0.000000 0.000000 0.024712 0.000000 0.101307
#
#
# Mechanical properties :
#
#
# Convention : Reuss Voigt Hill
#
# Bulk Modulus (GPa) = 15.71615 43.48564 29.60090
# Shear Modulus (GPa) = 11.42277 20.06819 15.74548
#
# Velocity S-wave (km/s) = 2.46396 3.26589 2.89285
# Velocity P-wave (km/s) = 4.05558 6.11012 5.18562
#
# Compressibility (1/GPa) = 0.06362883
#
# Stress axis : x y z
#
# Youngs Moduli (GPa) = 10.32357 51.48534 82.76996
#
# Poissons Ratio (x) = 1.53470 -0.17041
# Poissons Ratio (y) = 0.30773 0.38249
# Poissons Ratio (z) = -0.02125 0.23792
#
# Static dielectric constant tensor:
#      x y z
#    x 1.670540 0.000000 -0.021810 
#    y 0.000000 1.663760 0.000000 
#    z -0.021810 0.000000 1.689820 
# 
# From -- ./inp_files/75290.got.cif
#   From: 2010.05.17/outbox.cif.g08.bks.cpg/sg12_38_cif.got.tgz:75290.got - 2010.06.03 13:09:07.
