data_PCOD9188817
_publ_section_title
;
Structure prediction by ZEFSAII (Michael W. Deem and Ramdas Pophale) SiO2 
 PCOD9188817
Probable space group: C 2/M
;
_chemical_formula_sum "Si O2"
_cell_formula_units_Z 64
_cell_length_a 12.152466
_cell_length_b 15.912199
_cell_length_c 28.396540
_cell_angle_alpha 90.000000
_cell_angle_beta 28.675825
_cell_angle_gamma 90.000000
_cell_volume 2634.926955
_symmetry_space_group_name_H-M "C 2/M"
_symmetry_group_IT_number 12
_symmetry_cell_setting 'monoclinic'
loop_
_space_group_symop_operation_xyz
x,y,z
-x,y,-z
-x,-y,-z
x,-y,z
1/2+x,1/2+y,z
1/2-x,1/2+y,-z
1/2-x,1/2-y,-z
1/2+x,1/2-y,z
loop_
_atom_site_type_symbol
_atom_site_label
_atom_site_fract_x
_atom_site_fract_y
_atom_site_fract_z
Si Si1 0.910427 0.683119 0.977508
Si Si2 0.758992 0.908739 0.616337
Si Si3 0.562688 0.658288 0.868121
Si Si4 0.241664 0.131852 0.274917
Si Si5 0.549865 0.180589 0.338641
Si Si6 0.610548 0.897973 0.408519
Si Si7 0.126824 0.093618 0.212611
Si Si8 0.739831 0.655649 0.902487
O O1 0.145878 0.632218 0.897284
O O2 0.232474 0.851305 0.848831
O O3 0.999365 0.744121 0.902257
O O4 0.697384 0.625822 0.040486
O O5 0.806012 0.899292 0.654242
O O6 0.622327 0.836798 0.639470
O O7 0.000000 0.911565 0.500000
O O8 0.640356 0.000000 0.653610
O O9 0.711338 0.637263 0.767496
O O10 0.191253 0.753240 0.946622
O O11 0.126372 0.223782 0.316155
O O12 0.163987 0.090640 0.255275
O O13 0.518552 0.126756 0.170366
O O14 0.471726 0.140159 0.416834
O O15 0.500000 0.873685 0.500000
O O16 0.873807 0.865624 0.303701
O O17 0.610041 0.000000 0.406925
O O18 0.106504 0.000000 0.201364
O O19 0.500000 0.607481 0.000000
#
# Coordination Sequence:
#
# PCOD9188817 Si02
#       8
#     8   8   8   8   8   8   8   8
#     4  10  19  36  62  95 129 184 225 275 343 423
#     4  11  28  51  73 101 143 192 235 292 371 436
#     4  10  19  36  61  99 129 174 218 290 348 403
#     4  12  24  42  72 107 140 178 238 300 357 416
#     4  12  24  42  77 106 135 173 240 299 341 420
#     4  10  26  48  69  95 137 187 227 282 361 430
#     4  11  24  42  66  97 141 189 234 285 355 432
#     4  10  20  34  65  94 133 179 222 276 352 406
#
# _framework density 24.289097999999999
#
# number of rings (size 3 to 8) (size 9 to 14) (size 15 to 20)
#    0.000    1.250    3.750    2.250    7.000    1.000 
#    0.000    1.250    0.000    6.375    0.000    0.000 
#    0.000    0.000    0.000    0.000    0.000    0.000 
#
# Total GULP energy -178151.996687 kJ/mol
# GULP energy per Si atom -5567.249896 kJ/mol
# Density = 2.423382 g / cm^3
# Si number density = 24.289098 Si / 1000 Ang^3
#
#
#
# Elastic Constant Matrix: (Units=GPa)
#
#
# Indices 1 2 3 4 5 6 
#
# 1 103.3091 5.7172 10.3816 -0.0356 12.0222 0.0106
# 2 5.7172 39.0121 12.5801 -0.0052 -1.1338 -0.0006
# 3 10.3816 12.5801 86.6127 -0.0723 16.9400 0.0138
# 4 -0.0356 -0.0052 -0.0723 3.0648 0.0304 -10.2796
# 5 12.0222 -1.1338 16.9400 0.0304 52.0272 -0.0002
# 6 0.0106 -0.0006 0.0138 -10.2796 -0.0002 21.1959
#
#
#
# Elastic Compliance Matrix: (Units=1/GPa)
#
#
# Indices 1 2 3 4 5 6 
#
# 1 0.010065 -0.001349 -0.000587 -0.000170 -0.002164 -0.000087
# 2 -0.001349 0.027266 -0.004246 0.000124 0.002288 0.000064
# 3 -0.000587 -0.004246 0.013055 -0.000491 -0.004207 -0.000246
# 4 -0.000170 0.000124 -0.000491 -0.520654 0.000505 -0.252506
# 5 -0.002164 0.002288 -0.004207 0.000505 0.021140 0.000249
# 6 -0.000087 0.000064 -0.000246 -0.252506 0.000249 -0.075281
#
#
# Mechanical properties :
#
#
# Convention : Reuss Voigt Hill
#
# Bulk Modulus (GPa) = 26.30017 31.81019 29.05518
# Shear Modulus (GPa) = -10.01262 28.60792 9.29765
#
# Velocity S-wave (km/s) = -2.03254 3.43565 1.95863
# Velocity P-wave (km/s) = 2.31153 5.37244 4.13560
#
# Compressibility (1/GPa) = 0.03802257
#
# Stress axis : x y z
#
# Youngs Moduli (GPa) = 99.35312 36.67510 76.59715
#
# Poissons Ratio (x) = 0.04946 0.04500
# Poissons Ratio (y) = 0.13398 0.32524
# Poissons Ratio (z) = 0.05837 0.15573
#
# Static dielectric constant tensor:
#      x y z
#    x 2.115330 0.000030 0.007600 
#    y 0.000030 2.013240 -0.000010 
#    z 0.007600 -0.000010 2.034130 
# 
# From -- ./inp_files/374413.got.cif
#   From: 2010.05.17/outbox.cif.g08.bks.cpg/sg12_188_cif.got.tgz:374413.got - 2010.06.03 13:09:07.
