data_PCOD9188178
_publ_section_title
;
Structure prediction by ZEFSAII (Michael W. Deem and Ramdas Pophale) SiO2 
 PCOD9188178
Probable space group: C 2/M
;
_chemical_formula_sum "Si O2"
_cell_formula_units_Z 64
_cell_length_a 18.083096
_cell_length_b 14.370445
_cell_length_c 25.840167
_cell_angle_alpha 90.000000
_cell_angle_beta 32.181499
_cell_angle_gamma 90.000000
_cell_volume 3576.365832
_symmetry_space_group_name_H-M "C 2/M"
_symmetry_group_IT_number 12
_symmetry_cell_setting 'monoclinic'
loop_
_space_group_symop_operation_xyz
x,y,z
-x,y,-z
-x,-y,-z
x,-y,z
1/2+x,1/2+y,z
1/2-x,1/2+y,-z
1/2-x,1/2-y,-z
1/2+x,1/2-y,z
loop_
_atom_site_type_symbol
_atom_site_label
_atom_site_fract_x
_atom_site_fract_y
_atom_site_fract_z
Si Si1 0.778644 0.225157 0.541862
Si Si2 0.466268 0.102514 0.459427
Si Si3 0.553007 0.893461 0.095560
Si Si4 0.816990 0.109364 0.866577
Si Si5 0.628451 0.815316 0.887632
Si Si6 0.275345 0.216789 0.716479
Si Si7 0.059254 0.247006 0.756417
Si Si8 0.031038 0.894207 0.420327
O O1 0.750000 0.250000 0.500000
O O2 0.854478 0.317161 0.518633
O O3 0.646504 0.210043 0.657050
O O4 0.888045 0.140873 0.479602
O O5 0.500000 0.098517 0.500000
O O6 0.607461 0.138883 0.349772
O O7 0.423787 0.000000 0.466561
O O8 0.438559 0.879055 0.117831
O O9 0.518492 0.824273 0.162697
O O10 0.549892 0.000000 0.114721
O O11 0.700366 0.874795 0.980265
O O12 0.742189 0.136197 0.856782
O O13 0.949624 0.172825 0.799636
O O14 0.851163 0.000000 0.845856
O O15 0.694143 0.729819 0.817843
O O16 0.500000 0.788120 0.000000
O O17 0.169709 0.202621 0.731552
O O18 0.353934 0.315922 0.659810
O O19 0.000000 0.891675 0.500000
O O20 0.069027 0.000000 0.383355
#
# Coordination Sequence:
#
# PCOD9188178 Si02
#       8
#     8   8   8   8   8   8   8   8
#     4  11  23  38  53  80 117 143 178 229 275 327
#     4  10  20  38  61  78 103 144 189 229 263 314
#     4   9  19  37  59  81 110 146 184 226 272 332
#     4  10  21  35  54  85 116 143 180 227 279 329
#     4   9  19  35  58  84 111 142 179 229 282 326
#     4  10  19  36  57  81 110 141 188 226 262 326
#     4  11  21  34  54  82 110 146 183 222 276 327
#     4  10  20  37  59  81 109 143 183 226 272 330
#
# _framework density 17.895261000000001
#
# number of rings (size 3 to 8) (size 9 to 14) (size 15 to 20)
#    0.000    2.000    2.500    1.500    3.500    6.000 
#    0.000    0.000    0.000    0.375    0.000    0.000 
#    0.000    0.000    0.000    0.000    0.000    0.000 
#
# Total GULP energy -178495.441068 kJ/mol
# GULP energy per Si atom -5577.982533 kJ/mol
# Density = 1.785453 g / cm^3
# Si number density = 17.895261 Si / 1000 Ang^3
#
#
#
# Elastic Constant Matrix: (Units=GPa)
#
#
# Indices 1 2 3 4 5 6 
#
# 1 84.5312 20.8225 32.1805 -0.0001 -0.6945 0.0000
# 2 20.8225 55.5293 14.3837 -0.0001 -6.8633 0.0000
# 3 32.1805 14.3837 62.7911 -0.0005 -4.4244 0.0002
# 4 -0.0001 -0.0001 -0.0005 10.7961 0.0001 1.0131
# 5 -0.6945 -6.8633 -4.4244 0.0001 28.6339 0.0000
# 6 0.0000 0.0000 0.0002 1.0131 0.0000 15.6013
#
#
#
# Elastic Compliance Matrix: (Units=1/GPa)
#
#
# Indices 1 2 3 4 5 6 
#
# 1 0.015569 -0.004203 -0.007138 0.000000 -0.001733 0.000000
# 2 -0.004203 0.020733 -0.002277 0.000000 0.004516 0.000000
# 3 -0.007138 -0.002277 0.020276 0.000001 0.002414 0.000000
# 4 0.000000 0.000000 0.000001 0.093194 0.000000 -0.006052
# 5 -0.001733 0.004516 0.002414 0.000000 0.036337 0.000000
# 6 0.000000 0.000000 0.000000 -0.006052 0.000000 0.064490
#
#
# Mechanical properties :
#
#
# Convention : Reuss Voigt Hill
#
# Bulk Modulus (GPa) = 34.08270 37.51388 35.79829
# Shear Modulus (GPa) = 17.38440 20.03727 18.71084
#
# Velocity S-wave (km/s) = 3.12020 3.34982 3.23704
# Velocity P-wave (km/s) = 5.66285 5.99752 5.83258
#
# Compressibility (1/GPa) = 0.02934040
#
# Stress axis : x y z
#
# Youngs Moduli (GPa) = 64.23226 48.23339 49.31982
#
# Poissons Ratio (x) = 0.20273 0.35205
# Poissons Ratio (y) = 0.26997 0.11230
# Poissons Ratio (z) = 0.45850 0.10983
#
# Static dielectric constant tensor:
#      x y z
#    x 1.636300 0.000000 -0.018280 
#    y 0.000000 1.602870 0.000000 
#    z -0.018280 0.000000 1.639900 
# 
# From -- ./inp_files/340166.got.cif
#   From: 2010.05.17/outbox.cif.g08.bks.cpg/sg12_171_cif.got.tgz:340166.got - 2010.06.03 13:09:07.
