data_PCOD9188630
_publ_section_title
;
Structure prediction by ZEFSAII (Michael W. Deem and Ramdas Pophale) SiO2 
 PCOD9188630
Probable space group: C 2/M
;
_chemical_formula_sum "Si O2"
_cell_formula_units_Z 64
_cell_length_a 15.482441
_cell_length_b 15.312389
_cell_length_c 22.592748
_cell_angle_alpha 90.000000
_cell_angle_beta 145.615229
_cell_angle_gamma 90.000000
_cell_volume 3024.864286
_symmetry_space_group_name_H-M "C 2/M"
_symmetry_group_IT_number 12
_symmetry_cell_setting 'monoclinic'
loop_
_space_group_symop_operation_xyz
x,y,z
-x,y,-z
-x,-y,-z
x,-y,z
1/2+x,1/2+y,z
1/2-x,1/2+y,-z
1/2-x,1/2-y,-z
1/2+x,1/2-y,z
loop_
_atom_site_type_symbol
_atom_site_label
_atom_site_fract_x
_atom_site_fract_y
_atom_site_fract_z
Si Si1 0.112531 0.900217 0.736703
Si Si2 0.487785 0.903038 0.703937
Si Si3 0.709897 0.602595 0.205368
Si Si4 0.891901 0.753542 0.165634
Si Si5 0.431825 0.283567 0.057992
Si Si6 0.175205 0.605225 0.599612
Si Si7 0.541627 0.904738 0.093608
Si Si8 0.784240 0.149434 0.531659
O O1 0.120928 0.825606 0.790935
O O2 0.275231 0.896693 0.795786
O O3 0.956666 0.879042 0.613679
O O4 0.099940 0.000000 0.753001
O O5 0.638180 0.888579 0.748139
O O6 0.487511 0.821424 0.748452
O O7 0.342811 0.900336 0.578355
O O8 0.498076 0.000000 0.736821
O O9 0.666933 0.500000 0.180478
O O10 0.569894 0.663435 0.107464
O O11 0.752288 0.629342 0.296584
O O12 0.921906 0.804371 0.121758
O O13 0.730506 0.704367 0.064693
O O14 0.463461 0.180001 0.075296
O O15 0.171602 0.500000 0.596186
O O16 0.260610 0.633636 0.588429
O O17 0.000000 0.637072 0.500000
O O18 0.492254 0.000000 0.088412
O O19 0.500000 0.903393 0.000000
O O20 0.750000 0.250000 0.500000
#
# Coordination Sequence:
#
# PCOD9188630 Si02
#       8
#     8   8   8   8   8   8   8   8
#     4  11  22  39  64  90 118 153 203 256 293 345
#     4  11  23  41  61  86 126 163 194 239 302 369
#     4  10  22  38  62  92 121 160 201 243 302 363
#     4  11  24  41  58  93 120 161 200 241 311 361
#     4  11  24  39  63  85 126 156 198 258 297 357
#     4  10  19  36  60  88 120 158 201 244 293 352
#     4  10  21  39  64  87 110 154 206 253 300 344
#     4  12  23  36  60  90 126 156 198 245 298 364
#
# _framework density 21.157973999999999
#
# number of rings (size 3 to 8) (size 9 to 14) (size 15 to 20)
#    0.000    1.250    3.750    2.625    0.000    2.500 
#    0.000    3.750    0.000    0.000    0.000    2.625 
#    0.000    0.000    0.000    0.000    0.000    0.000 
#
# Total GULP energy -178820.764654 kJ/mol
# GULP energy per Si atom -5588.148895 kJ/mol
# Density = 2.110982 g / cm^3
# Si number density = 21.157974 Si / 1000 Ang^3
#
#
#
# Elastic Constant Matrix: (Units=GPa)
#
#
# Indices 1 2 3 4 5 6 
#
# 1 15.5160 -13.7967 19.3833 0.0008 6.1390 0.0000
# 2 -13.7967 61.6076 11.7701 0.0011 -4.6939 0.0001
# 3 19.3833 11.7701 85.7535 0.0034 13.3259 0.0002
# 4 0.0008 0.0011 0.0034 -451.5261 0.0012 -18.7107
# 5 6.1390 -4.6939 13.3259 0.0012 33.2403 0.0001
# 6 0.0000 0.0001 0.0002 -18.7107 0.0001 22.8720
#
#
#
# Elastic Compliance Matrix: (Units=1/GPa)
#
#
# Indices 1 2 3 4 5 6 
#
# 1 0.152408 0.041081 -0.039048 0.000000 -0.006692 0.000000
# 2 0.041081 0.028130 -0.013421 0.000000 0.001766 0.000000
# 3 -0.039048 -0.013421 0.022932 0.000000 -0.003877 0.000000
# 4 0.000000 0.000000 0.000000 -0.002142 0.000000 -0.001752
# 5 -0.006692 0.001766 -0.003877 0.000000 0.033124 0.000000
# 6 0.000000 0.000000 0.000000 -0.001752 0.000000 0.042288
#
#
# Mechanical properties :
#
#
# Convention : Reuss Voigt Hill
#
# Bulk Modulus (GPa) = 5.53422 21.95448 13.74435
# Shear Modulus (GPa) = 13.89865 -69.38140 -27.74138
#
# Velocity S-wave (km/s) = 2.56578 -5.73265 -3.62492
# Velocity P-wave (km/s) = 3.37624 5.78089 3.31811
#
# Compressibility (1/GPa) = 0.18069393
#
# Stress axis : x y z
#
# Youngs Moduli (GPa) = 6.56135 35.54880 43.60685
#
# Poissons Ratio (x) = -1.46039 1.70277
# Poissons Ratio (y) = -0.26955 0.58526
# Poissons Ratio (z) = 0.25621 0.47711
#
# Static dielectric constant tensor:
#      x y z
#    x 1.770920 0.000000 0.001970 
#    y 0.000000 1.753860 0.000000 
#    z 0.001970 0.000000 1.785450 
# 
# From -- ./inp_files/183804.got.cif
#   From: 2010.05.17/outbox.cif.g08.bks.cpg/sg12_92_cif.got.tgz:183804.got - 2010.06.03 13:09:07.
