data_PCOD9188068
_publ_section_title
;
Structure prediction by ZEFSAII (Michael W. Deem and Ramdas Pophale) SiO2 
 PCOD9188068
Probable space group: C 2/M
;
_chemical_formula_sum "Si O2"
_cell_formula_units_Z 56
_cell_length_a 14.056020
_cell_length_b 17.394832
_cell_length_c 14.660521
_cell_angle_alpha 90.000000
_cell_angle_beta 118.071904
_cell_angle_gamma 90.000000
_cell_volume 3162.836221
_symmetry_space_group_name_H-M "C 2/M"
_symmetry_group_IT_number 12
_symmetry_cell_setting 'monoclinic'
loop_
_space_group_symop_operation_xyz
x,y,z
-x,y,-z
-x,-y,-z
x,-y,z
1/2+x,1/2+y,z
1/2-x,1/2+y,-z
1/2-x,1/2-y,-z
1/2+x,1/2-y,z
loop_
_atom_site_type_symbol
_atom_site_label
_atom_site_fract_x
_atom_site_fract_y
_atom_site_fract_z
Si Si1 0.532975 0.161196 0.261374
Si Si2 0.320898 0.000000 0.910153
Si Si3 0.097023 0.772923 0.681616
Si Si4 0.228356 0.814346 0.564912
Si Si5 0.766066 0.162959 0.102971
Si Si6 0.013301 0.500000 0.849756
Si Si7 0.068062 0.759482 0.943749
Si Si8 0.952185 0.915015 0.580775
O O1 0.469640 0.197898 0.319139
O O2 0.659979 0.160907 0.338569
O O3 0.492331 0.077348 0.212634
O O4 0.506184 0.219774 0.166333
O O5 0.250399 0.076494 0.872706
O O6 0.409417 0.000000 0.870006
O O7 0.384952 0.000000 0.035573
O O8 0.146218 0.779472 0.603169
O O9 0.194737 0.783955 0.796269
O O10 0.019012 0.847193 0.659138
O O11 0.250000 0.750000 0.500000
O O12 0.168745 0.885255 0.489118
O O13 0.857703 0.175235 0.068036
O O14 0.652884 0.194334 0.014429
O O15 0.000000 0.784644 0.000000
O O16 0.000000 0.919852 0.500000
O O17 0.959750 0.000000 0.625574
#
# Coordination Sequence:
#
# PCOD9188068 Si02
#       8
#     8   4   8   8   8   4   8   8
#     4  11  22  36  56  83 112 146 188 229 287 333
#     4  11  20  36  53  85 117 143 186 239 282 332
#     4  10  21  37  57  81 113 145 183 232 280 337
#     4  11  21  36  59  82 106 148 189 231 279 332
#     4  10  21  33  56  84 111 147 177 228 283 334
#     4  11  22  34  58  82 115 149 185 241 284 331
#     4  10  19  36  55  80 112 146 184 222 274 346
#     4   9  19  35  54  79 108 138 178 232 281 321
#
# _framework density 17.705627
#
# number of rings (size 3 to 8) (size 9 to 14) (size 15 to 20)
#    0.000    1.714    2.857    2.571    2.000    0.000 
#    0.000    0.357    1.571    0.857    0.000    0.000 
#    0.000    0.000    0.000    0.000    0.000    0.000 
#
# Total GULP energy -156234.891836 kJ/mol
# GULP energy per Si atom -5579.817566 kJ/mol
# Density = 1.766533 g / cm^3
# Si number density = 17.705627 Si / 1000 Ang^3
#
#
#
# Elastic Constant Matrix: (Units=GPa)
#
#
# Indices 1 2 3 4 5 6 
#
# 1 80.8240 30.3782 10.6205 0.0000 -8.4124 0.0000
# 2 30.3782 86.5586 0.7254 0.0000 -3.2130 0.0000
# 3 10.6205 0.7254 52.9447 0.0000 12.6270 0.0000
# 4 0.0000 0.0000 0.0000 26.8067 0.0000 -1.0754
# 5 -8.4124 -3.2130 12.6270 0.0000 33.5473 0.0000
# 6 0.0000 0.0000 0.0000 -1.0754 0.0000 13.4242
#
#
#
# Elastic Compliance Matrix: (Units=1/GPa)
#
#
# Indices 1 2 3 4 5 6 
#
# 1 0.015385 -0.005181 -0.004193 0.000000 0.004940 0.000000
# 2 -0.005181 0.013349 0.000946 0.000000 -0.000377 0.000000
# 3 -0.004193 0.000946 0.021912 0.000000 -0.009208 0.000000
# 4 0.000000 0.000000 0.000000 0.037424 0.000000 0.002998
# 5 0.004940 -0.000377 -0.009208 0.000000 0.034477 0.000000
# 6 0.000000 0.000000 0.000000 0.002998 0.000000 0.074733
#
#
# Mechanical properties :
#
#
# Convention : Reuss Voigt Hill
#
# Bulk Modulus (GPa) = 29.59445 33.75282 31.67364
# Shear Modulus (GPa) = 22.18276 26.66252 24.42264
#
# Velocity S-wave (km/s) = 3.54342 3.88477 3.71802
# Velocity P-wave (km/s) = 5.78724 6.26312 6.02988
#
# Compressibility (1/GPa) = 0.03379012
#
# Stress axis : x y z
#
# Youngs Moduli (GPa) = 64.99816 74.91069 45.63709
#
# Poissons Ratio (x) = 0.38811 0.19137
# Poissons Ratio (y) = 0.33675 -0.04318
# Poissons Ratio (z) = 0.27256 -0.07089
#
# Static dielectric constant tensor:
#      x y z
#    x 1.610940 0.000000 0.008290 
#    y 0.000000 1.587800 0.000000 
#    z 0.008290 0.000000 1.633990 
# 
# From -- ./inp_files/215872.got.cif
#   From: 2010.05.17/outbox.cif.g08.bks.cpg/sg12_108_cif.got.tgz:215872.got - 2010.06.03 13:09:07.
