data_PCOD9188622
_publ_section_title
;
Structure prediction by ZEFSAII (Michael W. Deem and Ramdas Pophale) SiO2 
 PCOD9188622
Probable space group: C 2/M
;
_chemical_formula_sum "Si O2"
_cell_formula_units_Z 48
_cell_length_a 15.966353
_cell_length_b 7.375093
_cell_length_c 16.822482
_cell_angle_alpha 90.000000
_cell_angle_beta 107.432930
_cell_angle_gamma 90.000000
_cell_volume 1889.917154
_symmetry_space_group_name_H-M "C 2/M"
_symmetry_group_IT_number 12
_symmetry_cell_setting 'monoclinic'
loop_
_space_group_symop_operation_xyz
x,y,z
-x,y,-z
-x,-y,-z
x,-y,z
1/2+x,1/2+y,z
1/2-x,1/2+y,-z
1/2-x,1/2-y,-z
1/2+x,1/2-y,z
loop_
_atom_site_type_symbol
_atom_site_label
_atom_site_fract_x
_atom_site_fract_y
_atom_site_fract_z
Si Si1 0.148208 0.216628 0.947727
Si Si2 0.587195 0.712316 0.094001
Si Si3 0.643643 0.000000 0.531309
Si Si4 0.005650 0.500000 0.636172
Si Si5 0.210560 0.218510 0.804480
Si Si6 0.752882 0.284002 0.643345
Si Si7 0.044271 0.788299 0.255329
O O1 0.146398 0.283254 0.856370
O O2 0.135411 0.000000 0.943116
O O3 0.250000 0.250000 0.000000
O O4 0.087726 0.285979 0.003119
O O5 0.564415 0.500000 0.084202
O O6 0.690898 0.723763 0.144102
O O7 0.542844 0.780533 0.162985
O O8 0.705221 0.826421 0.561248
O O9 0.573411 0.000000 0.583349
O O10 0.589075 0.000000 0.435137
O O11 0.007612 0.672428 0.694945
O O12 0.202358 0.269866 0.710808
O O13 0.209314 0.000000 0.806604
O O14 0.747279 0.500000 0.632137
O O15 0.853599 0.228785 0.688125
O O16 0.018916 0.000000 0.249042
#
# Coordination Sequence:
#
# PCOD9188622 Si02
#       7
#     8   8   4   4   8   8   8
#     4   8  12  20  32  60 102 141 171 210 262 314
#     4   8  14  22  40  68 104 140 176 217 267 315
#     4  11  26  44  60  83 114 146 184 235 295 352
#     4  11  26  44  60  83 114 146 184 235 295 352
#     4   8  14  22  40  68 104 140 176 217 267 315
#     4  10  19  36  60  88 115 148 188 234 279 332
#     4  10  19  36  60  88 115 148 188 234 279 332
#
# _framework density 25.397938
#
# number of rings (size 3 to 8) (size 9 to 14) (size 15 to 20)
#    0.000    2.833    1.667    0.000    2.333    2.000 
#    0.000    1.667    0.000    0.000    0.000    2.333 
#    0.000    6.667    0.000    0.000    0.000    0.000 
#
# Total GULP energy -134217.971017 kJ/mol
# GULP energy per Si atom -5592.415459 kJ/mol
# Density = 2.534013 g / cm^3
# Si number density = 25.397938 Si / 1000 Ang^3
#
#
#
# Elastic Constant Matrix: (Units=GPa)
#
#
# Indices 1 2 3 4 5 6 
#
# 1 126.9572 7.4715 54.3386 0.0000 -30.1077 0.0000
# 2 7.4715 115.9242 48.2888 0.0000 -5.8589 0.0000
# 3 54.3386 48.2888 170.8988 0.0000 -15.9149 0.0000
# 4 0.0000 0.0000 0.0000 -6.4330 0.0000 -28.4006
# 5 -30.1077 -5.8589 -15.9149 0.0000 68.2493 0.0000
# 6 0.0000 0.0000 0.0000 -28.4006 0.0000 -4.8777
#
#
#
# Elastic Compliance Matrix: (Units=1/GPa)
#
#
# Indices 1 2 3 4 5 6 
#
# 1 0.010041 0.000824 -0.003073 0.000000 0.003784 0.000000
# 2 0.000824 0.009847 -0.002997 0.000000 0.000510 0.000000
# 3 -0.003073 -0.002997 0.007692 0.000000 0.000181 0.000000
# 4 0.000000 0.000000 0.000000 0.006292 0.000000 -0.036636
# 5 0.003784 0.000510 0.000181 0.000000 0.016407 0.000000
# 6 0.000000 0.000000 0.000000 -0.036636 0.000000 0.008298
#
#
# Mechanical properties :
#
#
# Convention : Reuss Voigt Hill
#
# Bulk Modulus (GPa) = 58.51881 70.44200 64.48040
# Shear Modulus (GPa) = 66.87544 31.63313 49.25429
#
# Velocity S-wave (km/s) = 5.13695 3.53299 4.40853
# Velocity P-wave (km/s) = 7.63381 6.66620 7.16636
#
# Compressibility (1/GPa) = 0.01708852
#
# Stress axis : x y z
#
# Youngs Moduli (GPa) = 99.59452 101.54950 130.00205
#
# Poissons Ratio (x) = -0.08370 0.39950
# Poissons Ratio (y) = -0.08208 0.38962
# Poissons Ratio (z) = 0.30606 0.30435
#
# Static dielectric constant tensor:
#      x y z
#    x 2.035120 0.000000 -0.009250 
#    y 0.000000 1.973640 0.000000 
#    z -0.009250 0.000000 2.002190 
# 
# From -- ./inp_files/267755.got.cif
#   From: 2010.05.17/outbox.cif.g08.bks.cpg/sg12_134_cif.got.tgz:267755.got - 2010.06.03 13:09:07.
