data_PCOD9188458
_publ_section_title
;
Structure prediction by ZEFSAII (Michael W. Deem and Ramdas Pophale) SiO2 
 PCOD9188458
Probable space group: C 2/M
;
_chemical_formula_sum "Si O2"
_cell_formula_units_Z 56
_cell_length_a 15.795671
_cell_length_b 18.286661
_cell_length_c 11.135798
_cell_angle_alpha 90.000000
_cell_angle_beta 59.987064
_cell_angle_gamma 90.000000
_cell_volume 2785.273478
_symmetry_space_group_name_H-M "C 2/M"
_symmetry_group_IT_number 12
_symmetry_cell_setting 'monoclinic'
loop_
_space_group_symop_operation_xyz
x,y,z
-x,y,-z
-x,-y,-z
x,-y,z
1/2+x,1/2+y,z
1/2-x,1/2+y,-z
1/2-x,1/2-y,-z
1/2+x,1/2-y,z
loop_
_atom_site_type_symbol
_atom_site_label
_atom_site_fract_x
_atom_site_fract_y
_atom_site_fract_z
Si Si1 0.988197 0.139735 0.651340
Si Si2 0.893541 0.582814 0.067270
Si Si3 0.972487 0.313150 0.658674
Si Si4 0.176010 0.913340 0.663984
Si Si5 0.287648 0.341736 0.880440
Si Si6 0.363002 0.917219 0.363254
Si Si7 0.252312 0.686811 0.170793
O O1 0.984557 0.227260 0.680776
O O2 0.880308 0.113920 0.767125
O O3 0.000000 0.129546 0.500000
O O4 0.075993 0.104614 0.664309
O O5 0.910602 0.500000 0.014257
O O6 0.813956 0.616905 0.039290
O O7 0.846062 0.583116 0.233032
O O8 0.000000 0.619287 0.000000
O O9 0.860916 0.338592 0.753715
O O10 0.000000 0.320294 0.500000
O O11 0.049911 0.361658 0.673790
O O12 0.266525 0.899945 0.508245
O O13 0.193614 0.858826 0.764159
O O14 0.177551 0.000000 0.696348
O O15 0.264638 0.274361 0.805842
O O16 0.307181 0.317996 0.003845
O O17 0.393444 0.000000 0.374680
#
# Coordination Sequence:
#
# PCOD9188458 Si02
#       7
#     8   8   8   8   8   8   8
#     4  10  23  40  60  89 118 160 210 250 302 361
#     4  10  21  37  59  90 120 155 201 246 304 365
#     4  10  19  36  59  87 119 156 197 245 303 361
#     4  11  24  40  61  91 124 161 206 257 309 365
#     4  10  22  41  61  85 121 161 198 248 304 360
#     4  10  21  35  57  91 123 157 200 250 311 365
#     4  10  22  40  58  89 120 153 207 247 303 367
#
# _framework density 20.105746
#
# number of rings (size 3 to 8) (size 9 to 14) (size 15 to 20)
#    0.000    1.857    1.429    1.714    2.000    3.429 
#    0.000    0.714    0.000    0.000    0.000    0.000 
#    0.000    0.000    0.000    0.000    0.000    0.000 
#
# Total GULP energy -156146.201191 kJ/mol
# GULP energy per Si atom -5576.650043 kJ/mol
# Density = 2.005998 g / cm^3
# Si number density = 20.105746 Si / 1000 Ang^3
#
#
#
# Elastic Constant Matrix: (Units=GPa)
#
#
# Indices 1 2 3 4 5 6 
#
# 1 114.5300 39.2963 26.6365 0.0000 -10.8049 0.0000
# 2 39.2963 43.3033 14.5524 0.0000 7.2727 0.0000
# 3 26.6365 14.5524 85.7604 0.0000 -7.5859 0.0000
# 4 0.0000 0.0000 0.0000 28.4093 0.0000 11.0389
# 5 -10.8049 7.2727 -7.5859 0.0000 29.0373 0.0000
# 6 0.0000 0.0000 0.0000 11.0389 0.0000 44.6253
#
#
#
# Elastic Compliance Matrix: (Units=1/GPa)
#
#
# Indices 1 2 3 4 5 6 
#
# 1 0.014855 -0.014496 -0.001376 0.000000 0.008799 0.000000
# 2 -0.014496 0.040289 -0.003791 0.000000 -0.016475 0.000000
# 3 -0.001376 -0.003791 0.013072 0.000000 0.003853 0.000000
# 4 0.000000 0.000000 0.000000 0.038943 0.000000 -0.009633
# 5 0.008799 -0.016475 0.003853 0.000000 0.042845 0.000000
# 6 0.000000 0.000000 0.000000 -0.009633 0.000000 0.024792
#
#
# Mechanical properties :
#
#
# Convention : Reuss Voigt Hill
#
# Bulk Modulus (GPa) = 34.61496 44.95157 39.78326
# Shear Modulus (GPa) = 22.34622 31.28829 26.81725
#
# Velocity S-wave (km/s) = 3.33744 3.94913 3.65610
# Velocity P-wave (km/s) = 5.66614 6.57269 6.13618
#
# Compressibility (1/GPa) = 0.02888925
#
# Stress axis : x y z
#
# Youngs Moduli (GPa) = 67.31711 24.82094 76.50026
#
# Poissons Ratio (x) = 0.35980 0.10525
# Poissons Ratio (y) = 0.97582 0.29005
# Poissons Ratio (z) = 0.09262 0.09411
#
# Static dielectric constant tensor:
#      x y z
#    x 1.716050 0.000000 -0.013940 
#    y 0.000000 1.747660 0.000000 
#    z -0.013940 0.000000 1.725420 
# 
# From -- ./inp_files/145457.got.cif
#   From: 2010.05.17/outbox.cif.g08.bks.cpg/sg12_73_cif.got.tgz:145457.got - 2010.06.03 13:09:07.
