data_PCOD9188907
_publ_section_title
;
Structure prediction by ZEFSAII (Michael W. Deem and Ramdas Pophale) SiO2 
 PCOD9188907
Probable space group: C 2/M
;
_chemical_formula_sum "Si O2"
_cell_formula_units_Z 30
_cell_length_a 8.965578
_cell_length_b 17.720329
_cell_length_c 6.815850
_cell_angle_alpha 90.000000
_cell_angle_beta 89.025174
_cell_angle_gamma 90.000000
_cell_volume 1082.697756
_symmetry_space_group_name_H-M "C 2/M"
_symmetry_group_IT_number 12
_symmetry_cell_setting 'monoclinic'
loop_
_space_group_symop_operation_xyz
x,y,z
-x,y,-z
-x,-y,-z
x,-y,z
1/2+x,1/2+y,z
1/2-x,1/2+y,-z
1/2-x,1/2-y,-z
1/2+x,1/2-y,z
loop_
_atom_site_type_symbol
_atom_site_label
_atom_site_fract_x
_atom_site_fract_y
_atom_site_fract_z
Si Si1 0.500000 0.000000 0.500000
Si Si2 0.226005 0.611733 0.682853
Si Si3 0.500000 0.859552 0.000000
Si Si4 0.945510 0.916795 0.225105
Si Si5 0.772668 0.721209 0.775601
O O1 0.374753 0.934192 0.461972
O O2 0.395449 0.584033 0.671103
O O3 0.244132 0.701850 0.660477
O O4 0.139338 0.597228 0.896337
O O5 0.436952 0.813267 0.813007
O O6 0.839514 0.846316 0.269903
O O7 0.876153 0.000000 0.240398
O O8 0.000000 0.905376 0.000000
O O9 0.750000 0.750000 0.000000
#
# Coordination Sequence:
#
# PCOD9188907 Si02
#       5
#     2   8   4   8   8
#     4  12  28  46  54  94 138 190 210 240 340 404
#     4  11  22  41  66  90 135 169 215 265 320 391
#     4  10  20  37  68 107 116 150 224 288 307 354
#     4  11  20  36  63 100 129 168 204 271 335 381
#     4  10  19  36  63 101 131 156 210 273 333 369
#
# _framework density 27.708565
#
# number of rings (size 3 to 8) (size 9 to 14) (size 15 to 20)
#    0.000    1.333    6.667    3.200    1.867    0.533 
#    2.400    5.333    0.000    1.600    0.000    0.000 
#    0.000    0.000    0.000    0.000    0.000    0.000 
#
# Total GULP energy -83717.976777 kJ/mol
# GULP energy per Si atom -5581.198452 kJ/mol
# Density = 2.764550 g / cm^3
# Si number density = 27.708565 Si / 1000 Ang^3
#
#
#
# Elastic Constant Matrix: (Units=GPa)
#
#
# Indices 1 2 3 4 5 6 
#
# 1 166.1177 85.4500 71.3868 0.0000 34.0856 0.0000
# 2 85.4500 284.9583 79.6566 0.0000 32.2601 0.0000
# 3 71.3868 79.6566 75.6920 0.0000 15.4415 0.0000
# 4 0.0000 0.0000 0.0000 -25.3891 0.0000 7.9227
# 5 34.0856 32.2601 15.4415 0.0000 78.7908 0.0000
# 6 0.0000 0.0000 0.0000 7.9227 0.0000 47.8660
#
#
#
# Elastic Compliance Matrix: (Units=1/GPa)
#
#
# Indices 1 2 3 4 5 6 
#
# 1 0.010688 -0.000335 -0.009180 0.000000 -0.002688 0.000000
# 2 -0.000335 0.005068 -0.004816 0.000000 -0.000986 0.000000
# 3 -0.009180 -0.004816 0.026797 0.000000 0.000692 0.000000
# 4 0.000000 0.000000 0.000000 -0.037453 0.000000 0.006199
# 5 -0.002688 -0.000986 0.000692 0.000000 0.014123 0.000000
# 6 0.000000 0.000000 0.000000 0.006199 0.000000 0.019866
#
#
# Mechanical properties :
#
#
# Convention : Reuss Voigt Hill
#
# Bulk Modulus (GPa) = 71.98924 111.08386 91.53655
# Shear Modulus (GPa) = 69.07936 39.60520 54.34228
#
# Velocity S-wave (km/s) = 4.99848 3.78477 4.43336
# Velocity P-wave (km/s) = 7.70392 7.69912 7.70152
#
# Compressibility (1/GPa) = 0.01389096
#
# Stress axis : x y z
#
# Youngs Moduli (GPa) = 93.55874 197.33196 37.31815
#
# Poissons Ratio (x) = 0.06605 0.34258
# Poissons Ratio (y) = 0.03131 0.17973
# Poissons Ratio (z) = 0.85887 0.95039
#
# Static dielectric constant tensor:
#      x y z
#    x 2.233280 0.000000 0.008440 
#    y 0.000000 2.063530 0.000000 
#    z 0.008440 0.000000 2.393170 
# 
# From -- ./inp_files/118320.got.cif
#   From: 2010.05.17/outbox.cif.g08.bks.cpg/sg12_60_cif.got.tgz:118320.got - 2010.06.03 13:09:07.
