data_PCOD9188316
_publ_section_title
;
Structure prediction by ZEFSAII (Michael W. Deem and Ramdas Pophale) SiO2 
 PCOD9188316
Probable space group: C 2/M
;
_chemical_formula_sum "Si O2"
_cell_formula_units_Z 48
_cell_length_a 27.593476
_cell_length_b 17.837104
_cell_length_c 8.107407
_cell_angle_alpha 90.000000
_cell_angle_beta 35.576246
_cell_angle_gamma 90.000000
_cell_volume 2321.538365
_symmetry_space_group_name_H-M "C 2/M"
_symmetry_group_IT_number 12
_symmetry_cell_setting 'monoclinic'
loop_
_space_group_symop_operation_xyz
x,y,z
-x,y,-z
-x,-y,-z
x,-y,z
1/2+x,1/2+y,z
1/2-x,1/2+y,-z
1/2-x,1/2-y,-z
1/2+x,1/2-y,z
loop_
_atom_site_type_symbol
_atom_site_label
_atom_site_fract_x
_atom_site_fract_y
_atom_site_fract_z
Si Si1 0.870690 0.147820 0.455417
Si Si2 0.232589 0.854365 0.721833
Si Si3 0.787901 0.667068 0.925594
Si Si4 0.941397 0.000000 0.399156
Si Si5 0.042213 0.266375 0.547711
Si Si6 0.130510 0.264042 0.841646
Si Si7 0.125710 0.000000 0.037461
O O1 0.912878 0.201501 0.475394
O O2 0.875813 0.197249 0.276617
O O3 0.918425 0.071048 0.350841
O O4 0.773628 0.133742 0.767849
O O5 0.271628 0.869206 0.792854
O O6 0.172973 0.780387 0.876963
O O7 0.307331 0.827833 0.395796
O O8 0.176937 0.926586 0.840954
O O9 0.885884 0.673269 0.687993
O O10 0.750000 0.750000 0.000000
O O11 0.890457 0.000000 0.717245
O O12 0.036433 0.000000 0.196209
O O13 0.000000 0.235280 0.500000
O O14 0.961639 0.293945 0.871117
#
# Coordination Sequence:
#
# PCOD9188316 Si02
#       7
#     8   8   8   4   8   8   4
#     4  11  22  38  59  93 124 165 203 255 308 373
#     4  11  22  39  61  88 127 164 209 248 314 367
#     4  10  19  36  58  86 121 159 209 251 304 366
#     4  11  24  37  63  90 136 165 204 237 318 375
#     4  11  23  36  61  90 121 157 210 266 308 359
#     4  11  23  38  63  92 125 160 210 267 302 357
#     4  11  24  39  61  95 127 172 198 248 306 391
#
# _framework density 20.675944000000001
#
# number of rings (size 3 to 8) (size 9 to 14) (size 15 to 20)
#    0.000    1.167    5.000    3.500    4.667    0.667 
#    0.000    2.500    0.000    3.000    0.000    2.917 
#    0.000    0.000    0.000    0.000    0.000    0.000 
#
# Total GULP energy -133987.180403 kJ/mol
# GULP energy per Si atom -5582.799183 kJ/mol
# Density = 2.062888 g / cm^3
# Si number density = 20.675944 Si / 1000 Ang^3
#
#
#
# Elastic Constant Matrix: (Units=GPa)
#
#
# Indices 1 2 3 4 5 6 
#
# 1 99.5390 9.5891 28.7712 0.0000 -3.8066 0.0000
# 2 9.5891 69.3097 39.8655 0.0000 -8.5582 0.0000
# 3 28.7712 39.8655 170.5718 0.0000 -36.9009 0.0000
# 4 0.0000 0.0000 0.0000 10.5513 0.0000 -15.2337
# 5 -3.8066 -8.5582 -36.9009 0.0000 35.4094 0.0000
# 6 0.0000 0.0000 0.0000 -15.2337 0.0000 23.5713
#
#
#
# Elastic Compliance Matrix: (Units=1/GPa)
#
#
# Indices 1 2 3 4 5 6 
#
# 1 0.010600 -0.000505 -0.001872 0.000000 -0.000933 0.000000
# 2 -0.000505 0.016693 -0.003815 0.000000 0.000004 0.000000
# 3 -0.001872 -0.003815 0.008814 0.000000 0.008062 0.000000
# 4 0.000000 0.000000 0.000000 1.416319 0.000000 0.915339
# 5 -0.000933 0.000004 0.008062 0.000000 0.036543 0.000000
# 6 0.000000 0.000000 0.000000 0.915339 0.000000 0.633990
#
#
# Mechanical properties :
#
#
# Convention : Reuss Voigt Hill
#
# Bulk Modulus (GPa) = 42.15349 55.09691 48.62520
# Shear Modulus (GPa) = 2.33290 31.31938 16.82614
#
# Velocity S-wave (km/s) = 1.06338 3.89623 2.85582
# Velocity P-wave (km/s) = 4.68398 6.85175 5.86882
#
# Compressibility (1/GPa) = 0.02372283
#
# Stress axis : x y z
#
# Youngs Moduli (GPa) = 94.33669 59.90583 113.45345
#
# Poissons Ratio (x) = 0.03026 0.21237
# Poissons Ratio (y) = 0.04766 0.43286
# Poissons Ratio (z) = 0.17658 0.22856
#
# Static dielectric constant tensor:
#      x y z
#    x 1.811070 0.000000 0.055590 
#    y 0.000000 1.721780 0.000000 
#    z 0.055590 0.000000 1.865280 
# 
# From -- ./inp_files/112779.got.cif
#   From: 2010.05.17/outbox.cif.g08.bks.cpg/sg12_57_cif.got.tgz:112779.got - 2010.06.03 13:09:07.
