data_PCOD9188824
_publ_section_title
;
Structure prediction by ZEFSAII (Michael W. Deem and Ramdas Pophale) SiO2 
 PCOD9188824
Probable space group: C 2/M
;
_chemical_formula_sum "Si O2"
_cell_formula_units_Z 64
_cell_length_a 19.232948
_cell_length_b 15.242738
_cell_length_c 15.698543
_cell_angle_alpha 90.000000
_cell_angle_beta 141.834775
_cell_angle_gamma 90.000000
_cell_volume 2843.861184
_symmetry_space_group_name_H-M "C 2/M"
_symmetry_group_IT_number 12
_symmetry_cell_setting 'monoclinic'
loop_
_space_group_symop_operation_xyz
x,y,z
-x,y,-z
-x,-y,-z
x,-y,z
1/2+x,1/2+y,z
1/2-x,1/2+y,-z
1/2-x,1/2-y,-z
1/2+x,1/2-y,z
loop_
_atom_site_type_symbol
_atom_site_label
_atom_site_fract_x
_atom_site_fract_y
_atom_site_fract_z
Si Si1 0.336353 0.099621 0.783650
Si Si2 0.041716 0.393646 0.749483
Si Si3 0.833156 0.400725 0.294972
Si Si4 0.413516 0.362059 0.992464
Si Si5 0.803905 0.392793 0.456407
Si Si6 0.417843 0.607770 0.495909
Si Si7 0.066691 0.104593 0.299888
Si Si8 0.421807 0.837348 0.033265
O O1 0.212482 0.133411 0.643214
O O2 0.444041 0.150262 0.851142
O O3 0.344680 0.000000 0.758462
O O4 0.357332 0.099740 0.905656
O O5 0.053634 0.500000 0.765057
O O6 0.095280 0.360878 0.712699
O O7 0.099359 0.354448 0.888414
O O8 0.909186 0.373076 0.617811
O O9 0.877335 0.500000 0.348041
O O10 0.830022 0.360336 0.385954
O O11 0.705192 0.405353 0.139768
O O12 0.470664 0.381532 0.137796
O O13 0.391274 0.258675 0.972353
O O14 0.500000 0.384913 0.000000
O O15 0.796263 0.500000 0.443364
O O16 0.684877 0.360092 0.376786
O O17 0.500000 0.638188 0.500000
O O18 0.418968 0.500000 0.494187
O O19 0.455574 0.637493 0.626265
O O20 0.081263 0.000000 0.322138
#
# Coordination Sequence:
#
# PCOD9188824 Si02
#       8
#     8   8   8   8   8   8   8   8
#     4  10  19  36  62  85 110 148 194 240 287 340
#     4  10  20  36  58  86 116 144 187 241 292 344
#     4  10  21  36  59  86 113 151 190 234 289 343
#     4  12  23  39  57  80 118 157 196 241 283 336
#     4   9  17  32  57  87 115 142 183 237 288 340
#     4   9  19  36  59  89 119 145 185 244 297 340
#     4  10  20  35  61  88 111 150 196 237 288 343
#     4  11  22  37  57  84 114 153 195 238 288 337
#
# _framework density 22.504615000000001
#
# number of rings (size 3 to 8) (size 9 to 14) (size 15 to 20)
#    0.000    1.875    2.500    3.000    0.000    5.500 
#    0.000    6.250    0.000    0.000    0.000    0.000 
#    0.000    0.000    0.000    0.000    0.000    0.000 
#
# Total GULP energy -178844.879494 kJ/mol
# GULP energy per Si atom -5588.902484 kJ/mol
# Density = 2.245339 g / cm^3
# Si number density = 22.504615 Si / 1000 Ang^3
#
#
#
# Elastic Constant Matrix: (Units=GPa)
#
#
# Indices 1 2 3 4 5 6 
#
# 1 75.2557 6.8251 34.1817 0.0000 -31.3518 0.0000
# 2 6.8251 42.9778 -4.2310 0.0000 4.1618 0.0000
# 3 34.1817 -4.2310 119.1336 0.0000 -17.5279 0.0000
# 4 0.0000 0.0000 0.0000 24.8096 0.0000 -11.3858
# 5 -31.3518 4.1618 -17.5279 0.0000 41.8508 0.0000
# 6 0.0000 0.0000 0.0000 -11.3858 0.0000 12.0622
#
#
#
# Elastic Compliance Matrix: (Units=1/GPa)
#
#
# Indices 1 2 3 4 5 6 
#
# 1 0.022097 -0.005412 -0.004281 0.000000 0.015299 0.000000
# 2 -0.005412 0.024850 0.001572 0.000000 -0.005867 0.000000
# 3 -0.004281 0.001572 0.009786 0.000000 0.000735 0.000000
# 4 0.000000 0.000000 0.000000 0.071112 0.000000 0.067124
# 5 0.015299 -0.005867 0.000735 0.000000 0.036246 0.000000
# 6 0.000000 0.000000 0.000000 0.067124 0.000000 0.146263
#
#
# Mechanical properties :
#
#
# Convention : Reuss Voigt Hill
#
# Bulk Modulus (GPa) = 24.69689 34.54651 29.62170
# Shear Modulus (GPa) = 14.70179 29.11729 21.90954
#
# Velocity S-wave (km/s) = 2.55871 3.60090 3.12357
# Velocity P-wave (km/s) = 4.44154 5.71601 5.11860
#
# Compressibility (1/GPa) = 0.04049092
#
# Stress axis : x y z
#
# Youngs Moduli (GPa) = 45.25514 40.24107 102.18334
#
# Poissons Ratio (x) = 0.21779 0.43749
# Poissons Ratio (y) = 0.24492 -0.16065
# Poissons Ratio (z) = 0.19376 -0.06327
#
# Static dielectric constant tensor:
#      x y z
#    x 1.844190 0.000000 -0.029010 
#    y 0.000000 1.884890 0.000000 
#    z -0.029010 0.000000 1.798610 
# 
# From -- ./inp_files/226852.got.cif
#   From: 2010.05.17/outbox.cif.g08.bks.cpg/sg12_114_cif.got.tgz:226852.got - 2010.06.03 13:09:07.
