data_PCOD9188446
_publ_section_title
;
Structure prediction by ZEFSAII (Michael W. Deem and Ramdas Pophale) SiO2 
 PCOD9188446
Probable space group: C 2/M
;
_chemical_formula_sum "Si O2"
_cell_formula_units_Z 52
_cell_length_a 22.018069
_cell_length_b 13.478299
_cell_length_c 14.247650
_cell_angle_alpha 90.000000
_cell_angle_beta 35.796211
_cell_angle_gamma 90.000000
_cell_volume 2473.102817
_symmetry_space_group_name_H-M "C 2/M"
_symmetry_group_IT_number 12
_symmetry_cell_setting 'monoclinic'
loop_
_space_group_symop_operation_xyz
x,y,z
-x,y,-z
-x,-y,-z
x,-y,z
1/2+x,1/2+y,z
1/2-x,1/2+y,-z
1/2-x,1/2-y,-z
1/2+x,1/2-y,z
loop_
_atom_site_type_symbol
_atom_site_label
_atom_site_fract_x
_atom_site_fract_y
_atom_site_fract_z
Si Si1 0.779490 0.109347 0.470077
Si Si2 0.465137 0.896471 0.253877
Si Si3 0.713856 0.262244 0.704202
Si Si4 0.324962 0.500000 0.717129
Si Si5 0.000000 0.657628 0.000000
Si Si6 0.274272 0.722724 0.819236
Si Si7 0.580301 0.289254 0.189677
Si Si8 0.000193 0.000000 0.339618
O O1 0.658824 0.103502 0.591049
O O2 0.776252 0.183470 0.561541
O O3 0.826215 0.154961 0.317834
O O4 0.818291 0.000000 0.443691
O O5 0.491848 0.895378 0.110030
O O6 0.505056 0.799541 0.255017
O O7 0.505243 0.000000 0.245389
O O8 0.606754 0.216781 0.874816
O O9 0.781193 0.281324 0.712275
O O10 0.262635 0.604439 0.806352
O O11 0.395288 0.500000 0.534550
O O12 0.406911 0.500000 0.699423
O O13 0.373520 0.724962 0.763386
O O14 0.179274 0.771151 0.996746
O O15 0.523451 0.396413 0.255685
#
# Coordination Sequence:
#
# PCOD9188446 Si02
#       8
#     8   8   8   4   4   8   8   4
#     4   9  21  39  58  83 116 152 192 248 302 347
#     4  10  20  36  61  87 117 153 197 249 295 353
#     4  10  20  37  59  82 116 148 198 243 297 359
#     4   9  20  36  62  89 113 153 223 256 290 348
#     4  10  19  36  59  86 114 149 196 252 297 338
#     4  10  21  36  58  91 118 161 198 255 299 361
#     4  10  21  38  58  87 130 158 199 247 310 368
#     4   9  20  40  58  85 123 165 197 256 307 354
#
# _framework density 21.026218
#
# number of rings (size 3 to 8) (size 9 to 14) (size 15 to 20)
#    0.000    2.308    1.538    0.231    4.308    0.615 
#    2.769    0.385    0.000    1.846    0.000    0.000 
#    0.000    0.000    0.000    0.000    0.000    0.000 
#
# Total GULP energy -144964.546987 kJ/mol
# GULP energy per Si atom -5575.559499 kJ/mol
# Density = 2.097836 g / cm^3
# Si number density = 21.026218 Si / 1000 Ang^3
#
#
#
# Elastic Constant Matrix: (Units=GPa)
#
#
# Indices 1 2 3 4 5 6 
#
# 1 78.1424 28.0687 7.8287 0.0000 21.5542 0.0000
# 2 28.0687 125.9229 20.5883 0.0000 2.3508 0.0000
# 3 7.8287 20.5883 27.7764 0.0000 -1.3543 0.0000
# 4 0.0000 0.0000 0.0000 18.7738 0.0000 4.0323
# 5 21.5542 2.3508 -1.3543 0.0000 30.1949 0.0000
# 6 0.0000 0.0000 0.0000 4.0323 0.0000 23.4339
#
#
#
# Elastic Compliance Matrix: (Units=1/GPa)
#
#
# Indices 1 2 3 4 5 6 
#
# 1 0.017730 -0.003187 -0.003247 0.000000 -0.012554 0.000000
# 2 -0.003187 0.009640 -0.006186 0.000000 0.001247 0.000000
# 3 -0.003247 -0.006186 0.041730 0.000000 0.004671 0.000000
# 4 0.000000 0.000000 0.000000 0.055310 0.000000 -0.009517
# 5 -0.012554 0.001247 0.004671 0.000000 0.042192 0.000000
# 6 0.000000 0.000000 0.000000 -0.009517 0.000000 0.044311
#
#
# Mechanical properties :
#
#
# Convention : Reuss Voigt Hill
#
# Bulk Modulus (GPa) = 22.80007 38.31257 30.55632
# Shear Modulus (GPa) = 19.93839 26.17094 23.05467
#
# Velocity S-wave (km/s) = 3.08273 3.53183 3.31489
# Velocity P-wave (km/s) = 4.85161 5.90700 5.40513
#
# Compressibility (1/GPa) = 0.04385952
#
# Stress axis : x y z
#
# Youngs Moduli (GPa) = 56.40199 103.73569 23.96354
#
# Poissons Ratio (x) = 0.33058 0.07781
# Poissons Ratio (y) = 0.17974 0.14824
# Poissons Ratio (z) = 0.18314 0.64174
#
# Static dielectric constant tensor:
#      x y z
#    x 1.801850 0.000000 -0.004640 
#    y 0.000000 1.861080 0.000000 
#    z -0.004640 0.000000 1.747900 
# 
# From -- ./inp_files/167162.got.cif
#   From: 2010.05.17/outbox.cif.g08.bks.cpg/sg12_84_cif.got.tgz:167162.got - 2010.06.03 13:09:07.
