data_PCOD9188022
_publ_section_title
;
Structure prediction by ZEFSAII (Michael W. Deem and Ramdas Pophale) SiO2 
 PCOD9188022
Probable space group: C 2/M
;
_chemical_formula_sum "Si O2"
_cell_formula_units_Z 48
_cell_length_a 11.274266
_cell_length_b 20.532564
_cell_length_c 9.309820
_cell_angle_alpha 90.000000
_cell_angle_beta 65.935552
_cell_angle_gamma 90.000000
_cell_volume 1967.818695
_symmetry_space_group_name_H-M "C 2/M"
_symmetry_group_IT_number 12
_symmetry_cell_setting 'monoclinic'
loop_
_space_group_symop_operation_xyz
x,y,z
-x,y,-z
-x,-y,-z
x,-y,z
1/2+x,1/2+y,z
1/2-x,1/2+y,-z
1/2-x,1/2-y,-z
1/2+x,1/2-y,z
loop_
_atom_site_type_symbol
_atom_site_label
_atom_site_fract_x
_atom_site_fract_y
_atom_site_fract_z
Si Si1 0.938459 0.394964 0.671810
Si Si2 0.581931 0.675243 0.103107
Si Si3 0.708096 0.863892 0.656851
Si Si4 0.568698 0.573447 0.621444
Si Si5 0.123567 0.741389 0.339041
Si Si6 0.142639 0.614501 0.990851
O O1 0.845958 0.334984 0.670639
O O2 0.000000 0.429131 0.500000
O O3 0.065185 0.357642 0.667888
O O4 0.886401 0.425593 0.847072
O O5 0.509446 0.619483 0.232289
O O6 0.583109 0.739198 0.198893
O O7 0.734576 0.657514 0.016159
O O8 0.500000 0.683269 0.000000
O O9 0.793364 0.898428 0.494007
O O10 0.767194 0.793393 0.667918
O O11 0.701414 0.907703 0.806615
O O12 0.500000 0.572633 0.500000
O O13 0.578202 0.500000 0.673677
O O14 0.000000 0.755421 0.500000
O O15 0.000000 0.637981 0.000000
#
# Coordination Sequence:
#
# PCOD9188022 Si02
#       6
#     8   8   8   8   8   8
#     4  10  23  33  57  87 118 169 201 238 293 355
#     4  11  22  35  62  91 123 150 197 258 303 344
#     4  10  19  39  60  80 124 156 200 248 291 360
#     4  11  21  40  68  90 112 153 201 251 313 358
#     4  10  19  36  52  84 120 160 199 237 285 355
#     4   9  20  38  54  82 122 163 199 235 288 360
#
# _framework density 24.392491
#
# number of rings (size 3 to 8) (size 9 to 14) (size 15 to 20)
#    0.000    1.833    5.000    0.000    2.333    9.000 
#    0.000    0.000    0.000    9.500    0.000    0.000 
#    0.000    0.000    0.000    0.000    0.000    0.000 
#
# Total GULP energy -133669.773491 kJ/mol
# GULP energy per Si atom -5569.573895 kJ/mol
# Density = 2.433697 g / cm^3
# Si number density = 24.392491 Si / 1000 Ang^3
#
#
#
# Elastic Constant Matrix: (Units=GPa)
#
#
# Indices 1 2 3 4 5 6 
#
# 1 111.0181 19.6608 36.9487 0.0000 1.3685 0.0000
# 2 19.6608 111.0256 44.6836 0.0000 -3.2266 0.0000
# 3 36.9487 44.6836 202.7514 0.0000 2.7562 0.0000
# 4 0.0000 0.0000 0.0000 -35.3873 0.0000 14.1796
# 5 1.3685 -3.2266 2.7562 0.0000 45.6643 0.0000
# 6 0.0000 0.0000 0.0000 14.1796 0.0000 -17.7812
#
#
#
# Elastic Compliance Matrix: (Units=1/GPa)
#
#
# Indices 1 2 3 4 5 6 
#
# 1 0.009715 -0.001116 -0.001521 0.000000 -0.000278 0.000000
# 2 -0.001116 0.010043 -0.002022 0.000000 0.000865 0.000000
# 3 -0.001521 -0.002022 0.005661 0.000000 -0.000439 0.000000
# 4 0.000000 0.000000 0.000000 -0.041528 0.000000 -0.033117
# 5 -0.000278 0.000865 -0.000439 0.000000 0.021995 0.000000
# 6 0.000000 0.000000 0.000000 -0.033117 0.000000 -0.082648
#
#
# Mechanical properties :
#
#
# Convention : Reuss Voigt Hill
#
# Bulk Modulus (GPa) = 62.10598 69.70904 65.90751
# Shear Modulus (GPa) = -80.54382 20.06594 -30.23894
#
# Velocity S-wave (km/s) = -5.75253 2.87126 -3.52473
# Velocity P-wave (km/s) = 4.31344 6.29542 3.24242
#
# Compressibility (1/GPa) = 0.01610151
#
# Stress axis : x y z
#
# Youngs Moduli (GPa) = 102.93625 99.56736 176.65410
#
# Poissons Ratio (x) = 0.11116 0.26861
# Poissons Ratio (y) = 0.11492 0.35715
# Poissons Ratio (z) = 0.15652 0.20130
#
# Static dielectric constant tensor:
#      x y z
#    x 1.978120 0.000000 0.003380 
#    y 0.000000 1.916940 0.000000 
#    z 0.003380 0.000000 2.029460 
# 
# From -- ./inp_files/51353.got.cif
#   From: 2010.05.17/outbox.cif.g08.bks.cpg/sg12_26_cif.got.tgz:51353.got - 2010.06.03 13:09:07.
