data_PCOD9188079
_publ_section_title
;
Structure prediction by ZEFSAII (Michael W. Deem and Ramdas Pophale) SiO2 
 PCOD9188079
Probable space group: C 2/M
;
_chemical_formula_sum "Si O2"
_cell_formula_units_Z 64
_cell_length_a 19.071486
_cell_length_b 26.089989
_cell_length_c 7.373453
_cell_angle_alpha 90.000000
_cell_angle_beta 113.138832
_cell_angle_gamma 90.000000
_cell_volume 3373.706018
_symmetry_space_group_name_H-M "C 2/M"
_symmetry_group_IT_number 12
_symmetry_cell_setting 'monoclinic'
loop_
_space_group_symop_operation_xyz
x,y,z
-x,y,-z
-x,-y,-z
x,-y,z
1/2+x,1/2+y,z
1/2-x,1/2+y,-z
1/2-x,1/2-y,-z
1/2+x,1/2-y,z
loop_
_atom_site_type_symbol
_atom_site_label
_atom_site_fract_x
_atom_site_fract_y
_atom_site_fract_z
Si Si1 0.821374 0.645691 0.402785
Si Si2 0.638059 0.805467 0.941153
Si Si3 0.038734 0.794107 0.240347
Si Si4 0.089918 0.888117 0.118145
Si Si5 0.760499 0.844163 0.343334
Si Si6 0.624232 0.310814 0.837714
Si Si7 0.274618 0.440943 0.577019
Si Si8 0.468891 0.186277 0.671855
O O1 0.832774 0.673004 0.223084
O O2 0.761989 0.674525 0.476737
O O3 0.786494 0.588809 0.357969
O O4 0.903077 0.644497 0.588065
O O5 0.648569 0.743742 0.949416
O O6 0.547424 0.818004 0.863931
O O7 0.687172 0.832000 0.145099
O O8 0.089636 0.843959 0.273240
O O9 0.965278 0.803295 0.289716
O O10 0.072578 0.739317 0.317206
O O11 0.000000 0.790374 0.000000
O O12 0.143882 0.932696 0.242453
O O13 0.125333 0.858652 0.979149
O O14 0.000000 0.901281 0.000000
O O15 0.828398 0.820854 0.294266
O O16 0.772762 0.904853 0.395678
O O17 0.258656 0.500000 0.529331
O O18 0.500000 0.192670 0.500000
#
# Coordination Sequence:
#
# PCOD9188079 Si02
#       8
#     8   8   8   8   8   8   8   8
#     4   9  22  35  56  84 109 155 192 226 285 326
#     4  10  19  36  55  86 127 150 184 224 265 345
#     4   8  17  29  52  79 116 155 180 214 267 339
#     4   9  19  36  60  85 113 149 186 227 280 336
#     4  10  22  34  56  80 114 155 187 241 273 332
#     4   9  18  34  53  87 125 151 182 216 269 349
#     4  10  23  41  57  78 108 144 197 249 290 334
#     4   9  18  32  52  83 117 153 190 216 263 340
#
# _framework density 18.970237000000001
#
# number of rings (size 3 to 8) (size 9 to 14) (size 15 to 20)
#    0.750    2.250    0.000    1.125    5.250    3.750 
#    0.000    4.375    0.000    8.625    0.000    0.000 
#    0.000    0.000    0.000    0.000    0.000    0.000 
#
# Total GULP energy -178144.342355 kJ/mol
# GULP energy per Si atom -5567.010699 kJ/mol
# Density = 1.892706 g / cm^3
# Si number density = 18.970237 Si / 1000 Ang^3
#
#
#
# Elastic Constant Matrix: (Units=GPa)
#
#
# Indices 1 2 3 4 5 6 
#
# 1 87.4759 19.0042 15.9673 0.0000 -14.1200 0.0000
# 2 19.0042 73.8368 16.0317 0.0000 -4.3560 0.0000
# 3 15.9673 16.0317 59.0792 0.0000 -5.7401 0.0000
# 4 0.0000 0.0000 0.0000 21.5585 0.0000 5.1827
# 5 -14.1200 -4.3560 -5.7401 0.0000 17.9550 0.0000
# 6 0.0000 0.0000 0.0000 5.1827 0.0000 7.1753
#
#
#
# Elastic Compliance Matrix: (Units=1/GPa)
#
#
# Indices 1 2 3 4 5 6 
#
# 1 0.013935 -0.002553 -0.002135 0.000000 0.009656 0.000000
# 2 -0.002553 0.014953 -0.003313 0.000000 0.000561 0.000000
# 3 -0.002135 -0.003313 0.018743 0.000000 0.003509 0.000000
# 4 0.000000 0.000000 0.000000 0.056132 0.000000 -0.040544
# 5 0.009656 0.000561 0.003509 0.000000 0.064547 0.000000
# 6 0.000000 0.000000 0.000000 -0.040544 0.000000 0.168651
#
#
# Mechanical properties :
#
#
# Convention : Reuss Voigt Hill
#
# Bulk Modulus (GPa) = 31.61720 35.82204 33.71962
# Shear Modulus (GPa) = 13.75489 20.63034 17.19261
#
# Velocity S-wave (km/s) = 2.69565 3.30132 3.01374
# Velocity P-wave (km/s) = 5.13728 5.78411 5.47026
#
# Compressibility (1/GPa) = 0.03162835
#
# Stress axis : x y z
#
# Youngs Moduli (GPa) = 71.76246 66.87628 53.35184
#
# Poissons Ratio (x) = 0.17076 0.11391
# Poissons Ratio (y) = 0.18323 0.17676
# Poissons Ratio (z) = 0.15322 0.22157
#
# Static dielectric constant tensor:
#      x y z
#    x 1.745240 0.000000 0.023610 
#    y 0.000000 1.619850 0.000000 
#    z 0.023610 0.000000 1.742560 
# 
# From -- ./inp_files/90404.got.cif
#   From: 2010.05.17/outbox.cif.g08.bks.cpg/sg12_46_cif.got.tgz:90404.got - 2010.06.03 13:09:07.
