data_PCOD9188861
_publ_section_title
;
Structure prediction by ZEFSAII (Michael W. Deem and Ramdas Pophale) SiO2 
 PCOD9188861
Probable space group: C 2/M
;
_chemical_formula_sum "Si O2"
_cell_formula_units_Z 56
_cell_length_a 26.658514
_cell_length_b 13.345840
_cell_length_c 9.336726
_cell_angle_alpha 90.000000
_cell_angle_beta 64.524252
_cell_angle_gamma 90.000000
_cell_volume 2998.833453
_symmetry_space_group_name_H-M "C 2/M"
_symmetry_group_IT_number 12
_symmetry_cell_setting 'monoclinic'
loop_
_space_group_symop_operation_xyz
x,y,z
-x,y,-z
-x,-y,-z
x,-y,z
1/2+x,1/2+y,z
1/2-x,1/2+y,-z
1/2-x,1/2-y,-z
1/2+x,1/2-y,z
loop_
_atom_site_type_symbol
_atom_site_label
_atom_site_fract_x
_atom_site_fract_y
_atom_site_fract_z
Si Si1 0.664073 0.386377 0.765403
Si Si2 0.377005 0.113157 0.532259
Si Si3 0.990766 0.713669 0.341907
Si Si4 0.217962 0.278727 0.894967
Si Si5 0.546535 0.615303 0.822613
Si Si6 0.205548 0.204573 0.445351
Si Si7 0.607456 0.884626 0.143567
O O1 0.666066 0.500000 0.812875
O O2 0.700775 0.319403 0.825119
O O3 0.601364 0.347096 0.837021
O O4 0.679324 0.379396 0.578450
O O5 0.439291 0.135556 0.398996
O O6 0.337394 0.205075 0.535263
O O7 0.379504 0.115677 0.701927
O O8 0.359014 0.000000 0.511530
O O9 0.970931 0.812625 0.284127
O O10 0.000000 0.732570 0.500000
O O11 0.048370 0.672430 0.204860
O O12 0.262445 0.331765 0.735116
O O13 0.250000 0.250000 0.000000
O O14 0.160913 0.336592 0.000228
O O15 0.556244 0.500000 0.763595
O O16 0.500000 0.614208 0.000000
O O17 0.250000 0.250000 0.500000
O O18 0.600643 0.000000 0.106602
#
# Coordination Sequence:
#
# PCOD9188861 Si02
#       7
#     8   8   8   8   8   8   8
#     4  10  22  40  60  83 114 157 202 244 298 364
#     4  10  19  36  62  89 118 157 200 244 301 361
#     4  10  20  36  62  89 121 157 200 250 299 356
#     4  11  22  38  62  88 121 156 202 254 307 355
#     4  10  20  36  60  85 116 157 196 241 302 360
#     4  10  21  37  59  86 118 159 199 244 296 357
#     4  10  21  37  59  90 122 155 196 249 305 361
#
# _framework density 18.673926999999999
#
# number of rings (size 3 to 8) (size 9 to 14) (size 15 to 20)
#    0.000    1.857    2.857    1.286    0.000    5.429 
#    0.000    2.143    0.000    2.571    0.000    0.000 
#    0.000    0.000    0.000    0.000    0.000    0.000 
#
# Total GULP energy -156020.248697 kJ/mol
# GULP energy per Si atom -5572.151739 kJ/mol
# Density = 1.863142 g / cm^3
# Si number density = 18.673927 Si / 1000 Ang^3
#
#
#
# Elastic Constant Matrix: (Units=GPa)
#
#
# Indices 1 2 3 4 5 6 
#
# 1 94.4396 34.1347 36.5428 0.0000 -7.8493 0.0000
# 2 34.1347 77.1046 21.2879 0.0000 8.3229 0.0000
# 3 36.5428 21.2879 94.2984 0.0000 -15.6047 0.0000
# 4 0.0000 0.0000 0.0000 28.6295 0.0000 -4.1571
# 5 -7.8493 8.3229 -15.6047 0.0000 31.7372 0.0000
# 6 0.0000 0.0000 0.0000 -4.1571 0.0000 30.9795
#
#
#
# Elastic Compliance Matrix: (Units=1/GPa)
#
#
# Indices 1 2 3 4 5 6 
#
# 1 0.014354 -0.005661 -0.003757 0.000000 0.003187 0.000000
# 2 -0.005661 0.017051 -0.002860 0.000000 -0.007278 0.000000
# 3 -0.003757 -0.002860 0.013799 0.000000 0.006606 0.000000
# 4 0.000000 0.000000 0.000000 0.035623 0.000000 0.004780
# 5 0.003187 -0.007278 0.006606 0.000000 0.037454 0.000000
# 6 0.000000 0.000000 0.000000 0.004780 0.000000 0.032921
#
#
# Mechanical properties :
#
#
# Convention : Reuss Voigt Hill
#
# Bulk Modulus (GPa) = 48.43089 49.97483 49.20286
# Shear Modulus (GPa) = 27.37634 29.86105 28.61869
#
# Velocity S-wave (km/s) = 3.83302 4.00318 3.91902
# Velocity P-wave (km/s) = 6.75135 6.94170 6.84719
#
# Compressibility (1/GPa) = 0.02064798
#
# Stress axis : x y z
#
# Youngs Moduli (GPa) = 69.66877 58.64832 72.46796
#
# Poissons Ratio (x) = 0.33202 0.27225
# Poissons Ratio (y) = 0.39441 0.20724
# Poissons Ratio (z) = 0.26174 0.16772
#
# Static dielectric constant tensor:
#      x y z
#    x 1.670690 0.000000 -0.058380 
#    y 0.000000 1.652760 0.000000 
#    z -0.058380 0.000000 1.689830 
# 
# From -- ./inp_files/103120.got.cif
#   From: 2010.05.17/outbox.cif.g08.bks.cpg/sg12_52_cif.got.tgz:103120.got - 2010.06.03 13:09:07.
