data_PCOD9188700
_publ_section_title
;
Structure prediction by ZEFSAII (Michael W. Deem and Ramdas Pophale) SiO2 
 PCOD9188700
Probable space group: C 2/M
;
_chemical_formula_sum "Si O2"
_cell_formula_units_Z 56
_cell_length_a 18.941670
_cell_length_b 8.782668
_cell_length_c 20.240759
_cell_angle_alpha 90.000000
_cell_angle_beta 66.170372
_cell_angle_gamma 90.000000
_cell_volume 3080.167663
_symmetry_space_group_name_H-M "C 2/M"
_symmetry_group_IT_number 12
_symmetry_cell_setting 'monoclinic'
loop_
_space_group_symop_operation_xyz
x,y,z
-x,y,-z
-x,-y,-z
x,-y,z
1/2+x,1/2+y,z
1/2-x,1/2+y,-z
1/2-x,1/2-y,-z
1/2+x,1/2-y,z
loop_
_atom_site_type_symbol
_atom_site_label
_atom_site_fract_x
_atom_site_fract_y
_atom_site_fract_z
Si Si1 0.871586 0.181084 0.735322
Si Si2 0.703502 0.672005 0.819009
Si Si3 0.021185 0.678689 0.197805
Si Si4 0.230202 0.316911 0.437416
Si Si5 0.451347 0.816525 0.082576
Si Si6 0.572676 0.184627 0.425158
Si Si7 0.626830 0.327564 0.704353
O O1 0.784090 0.243021 0.776008
O O2 0.914134 0.230836 0.786799
O O3 0.915303 0.250101 0.653786
O O4 0.871068 0.000000 0.728739
O O5 0.719138 0.500000 0.836812
O O6 0.635832 0.752166 0.886592
O O7 0.662061 0.662398 0.763819
O O8 0.039700 0.500000 0.189726
O O9 0.997832 0.728725 0.132068
O O10 0.943639 0.712817 0.268420
O O11 0.227558 0.500000 0.441133
O O12 0.250000 0.250000 0.500000
O O13 0.149767 0.267955 0.435706
O O14 0.302568 0.273253 0.365651
O O15 0.554237 0.000000 0.912893
O O16 0.500000 0.771351 0.000000
O O17 0.500000 0.227848 0.500000
O O18 0.570760 0.000000 0.419597
O O19 0.602238 0.500000 0.694069
#
# Coordination Sequence:
#
# PCOD9188700 Si02
#       7
#     8   8   8   8   8   8   8
#     4  12  24  38  58  84 117 153 195 243 289 340
#     4  10  19  36  61  85 113 150 193 233 280 340
#     4  10  21  36  58  85 114 150 190 229 282 343
#     4  10  21  36  53  78 110 144 185 235 287 338
#     4   9  19  38  63  92 123 151 186 234 285 340
#     4  10  22  41  60  80 111 153 196 240 294 346
#     4   9  18  35  55  77 108 143 184 236 283 331
#
# _framework density 18.180828000000002
#
# number of rings (size 3 to 8) (size 9 to 14) (size 15 to 20)
#    0.000    2.000    1.429    2.143    2.000    2.857 
#    0.000    0.714    0.000    0.000    0.000    0.000 
#    0.000    0.000    0.000    0.000    0.000    0.000 
#
# Total GULP energy -156037.815934 kJ/mol
# GULP energy per Si atom -5572.779140 kJ/mol
# Density = 1.813945 g / cm^3
# Si number density = 18.180828 Si / 1000 Ang^3
#
#
#
# Elastic Constant Matrix: (Units=GPa)
#
#
# Indices 1 2 3 4 5 6 
#
# 1 74.6690 33.5393 41.6383 0.0000 -0.6109 -0.0001
# 2 33.5393 52.3663 37.3099 0.0000 -5.8271 -0.0001
# 3 41.6383 37.3099 133.9297 0.0000 -17.1584 0.0000
# 4 0.0000 0.0000 0.0000 23.2229 0.0000 -1.7451
# 5 -0.6109 -5.8271 -17.1584 0.0000 21.8838 0.0000
# 6 -0.0001 -0.0001 0.0000 -1.7451 0.0000 30.3490
#
#
#
# Elastic Compliance Matrix: (Units=1/GPa)
#
#
# Indices 1 2 3 4 5 6 
#
# 1 0.020474 -0.010839 -0.004049 0.000000 -0.005489 0.000000
# 2 -0.010839 0.029595 -0.004340 0.000000 0.004175 0.000000
# 3 -0.004049 -0.004340 0.010863 0.000000 0.007249 0.000000
# 4 0.000000 0.000000 0.000000 0.043248 0.000000 0.002487
# 5 -0.005489 0.004175 0.007249 0.000000 0.052338 0.000000
# 6 0.000000 0.000000 0.000000 0.002487 0.000000 0.033093
#
#
# Mechanical properties :
#
#
# Convention : Reuss Voigt Hill
#
# Bulk Modulus (GPa) = 44.49126 53.99333 49.24230
# Shear Modulus (GPa) = 21.22611 24.98964 23.10788
#
# Velocity S-wave (km/s) = 3.42058 3.71145 3.56898
# Velocity P-wave (km/s) = 6.33444 6.93750 6.64282
#
# Compressibility (1/GPa) = 0.02247632
#
# Stress axis : x y z
#
# Youngs Moduli (GPa) = 48.84231 33.78945 92.05477
#
# Poissons Ratio (x) = 0.36625 0.37274
# Poissons Ratio (y) = 0.52941 0.39950
# Poissons Ratio (z) = 0.19777 0.14664
#
# Static dielectric constant tensor:
#      x y z
#    x 1.614000 0.000000 -0.011900 
#    y 0.000000 1.644520 0.000000 
#    z -0.011900 0.000000 1.564470 
# 
# From -- ./inp_files/313809.got.cif
#   From: 2010.05.17/outbox.cif.g08.bks.cpg/sg12_157_cif.got.tgz:313809.got - 2010.06.03 13:09:07.
