data_PCOD9188937
_publ_section_title
;
Structure prediction by ZEFSAII (Michael W. Deem and Ramdas Pophale) SiO2 
 PCOD9188937
Probable space group: C 2/M
;
_chemical_formula_sum "Si O2"
_cell_formula_units_Z 56
_cell_length_a 27.460049
_cell_length_b 11.533935
_cell_length_c 10.098499
_cell_angle_alpha 90.000000
_cell_angle_beta 116.487801
_cell_angle_gamma 90.000000
_cell_volume 2862.680684
_symmetry_space_group_name_H-M "C 2/M"
_symmetry_group_IT_number 12
_symmetry_cell_setting 'monoclinic'
loop_
_space_group_symop_operation_xyz
x,y,z
-x,y,-z
-x,-y,-z
x,-y,z
1/2+x,1/2+y,z
1/2-x,1/2+y,-z
1/2-x,1/2-y,-z
1/2+x,1/2-y,z
loop_
_atom_site_type_symbol
_atom_site_label
_atom_site_fract_x
_atom_site_fract_y
_atom_site_fract_z
Si Si1 0.804895 0.699892 0.631074
Si Si2 0.168983 0.296553 0.820760
Si Si3 0.602217 0.633172 0.152516
Si Si4 0.737622 0.875999 0.146381
Si Si5 0.576136 0.363122 0.825448
Si Si6 0.547767 0.364208 0.365722
Si Si7 0.613626 0.126943 0.498229
O O1 0.750000 0.750000 0.500000
O O2 0.844590 0.797969 0.738692
O O3 0.787304 0.628019 0.737951
O O4 0.841497 0.638671 0.563857
O O5 0.219306 0.226124 0.819245
O O6 0.122709 0.207540 0.810044
O O7 0.143812 0.373192 0.675205
O O8 0.192046 0.359333 0.978646
O O9 0.618205 0.500000 0.155143
O O10 0.559995 0.637846 0.222589
O O11 0.577886 0.672296 0.982880
O O12 0.765261 0.000000 0.158289
O O13 0.587099 0.500000 0.831274
O O14 0.516335 0.346280 0.692218
O O15 0.561902 0.500000 0.425428
O O16 0.579705 0.249168 0.454747
O O17 0.585475 0.000000 0.446998
#
# Coordination Sequence:
#
# PCOD9188937 Si02
#       7
#     8   8   8   8   8   8   8
#     4  11  21  40  60  91 119 159 204 249 297 359
#     4  11  23  40  58  88 123 159 205 245 303 365
#     4   9  18  34  60  90 120 153 199 252 302 356
#     4  11  23  40  60  84 120 162 203 248 299 359
#     4  10  19  36  63  91 119 158 206 256 305 360
#     4   9  20  38  64  93 122 156 204 259 307 358
#     4  11  24  42  63  90 127 164 202 251 309 366
#
# _framework density 19.562083000000001
#
# number of rings (size 3 to 8) (size 9 to 14) (size 15 to 20)
#    0.000    1.714    2.857    1.714    0.000    4.571 
#    0.000    3.571    0.000    1.714    0.000    0.000 
#    0.000    0.000    0.000    0.000    0.000    0.000 
#
# Total GULP energy -156134.985682 kJ/mol
# GULP energy per Si atom -5576.249489 kJ/mol
# Density = 1.951756 g / cm^3
# Si number density = 19.562083 Si / 1000 Ang^3
#
#
#
# Elastic Constant Matrix: (Units=GPa)
#
#
# Indices 1 2 3 4 5 6 
#
# 1 60.0134 32.1919 17.9669 0.0000 8.8708 0.0000
# 2 32.1919 100.2311 43.1440 0.0000 11.1340 0.0000
# 3 17.9669 43.1440 101.1518 0.0000 -2.2343 0.0000
# 4 0.0000 0.0000 0.0000 -2.3050 0.0000 9.3845
# 5 8.8708 11.1340 -2.2343 0.0000 19.7931 0.0000
# 6 0.0000 0.0000 0.0000 9.3845 0.0000 16.6148
#
#
#
# Elastic Compliance Matrix: (Units=1/GPa)
#
#
# Indices 1 2 3 4 5 6 
#
# 1 0.020966 -0.005311 -0.001604 0.000000 -0.006590 0.000000
# 2 -0.005311 0.014781 -0.005506 0.000000 -0.006556 0.000000
# 3 -0.001604 -0.005506 0.012635 0.000000 0.005242 0.000000
# 4 0.000000 0.000000 0.000000 -0.131482 0.000000 0.074265
# 5 -0.006590 -0.006556 0.005242 0.000000 0.057756 0.000000
# 6 0.000000 0.000000 0.000000 0.074265 0.000000 0.018241
#
#
# Mechanical properties :
#
#
# Convention : Reuss Voigt Hill
#
# Bulk Modulus (GPa) = 42.48135 49.77799 46.12967
# Shear Modulus (GPa) = 195.41768 18.02682 106.72225
#
# Velocity S-wave (km/s) = 10.00565 3.03895 7.39419
# Velocity P-wave (km/s) = 12.45983 6.14939 9.82503
#
# Compressibility (1/GPa) = 0.02353974
#
# Stress axis : x y z
#
# Youngs Moduli (GPa) = 47.69537 67.65417 79.14333
#
# Poissons Ratio (x) = 0.35933 0.12697
# Poissons Ratio (y) = 0.25333 0.43576
# Poissons Ratio (z) = 0.07652 0.37250
#
# Static dielectric constant tensor:
#      x y z
#    x 1.658830 0.000000 -0.015660 
#    y 0.000000 1.715840 0.000000 
#    z -0.015660 0.000000 1.692650 
# 
# From -- ./inp_files/103154.got.cif
#   From: 2010.05.17/outbox.cif.g08.bks.cpg/sg12_52_cif.got.tgz:103154.got - 2010.06.03 13:09:07.
