data_PCOD9188718
_publ_section_title
;
Structure prediction by ZEFSAII (Michael W. Deem and Ramdas Pophale) SiO2 
 PCOD9188718
Probable space group: C 2/M
;
_chemical_formula_sum "Si O2"
_cell_formula_units_Z 64
_cell_length_a 13.343416
_cell_length_b 23.360048
_cell_length_c 12.370153
_cell_angle_alpha 90.000000
_cell_angle_beta 114.712930
_cell_angle_gamma 90.000000
_cell_volume 3502.672857
_symmetry_space_group_name_H-M "C 2/M"
_symmetry_group_IT_number 12
_symmetry_cell_setting 'monoclinic'
loop_
_space_group_symop_operation_xyz
x,y,z
-x,y,-z
-x,-y,-z
x,-y,z
1/2+x,1/2+y,z
1/2-x,1/2+y,-z
1/2-x,1/2-y,-z
1/2+x,1/2-y,z
loop_
_atom_site_type_symbol
_atom_site_label
_atom_site_fract_x
_atom_site_fract_y
_atom_site_fract_z
Si Si1 0.179216 0.199535 0.417237
Si Si2 0.383489 0.344429 0.008449
Si Si3 0.275588 0.934072 0.964766
Si Si4 0.697717 0.829201 0.742449
Si Si5 0.381996 0.381889 0.412737
Si Si6 0.059793 0.566664 0.758982
Si Si7 0.337063 0.933223 0.761781
Si Si8 0.570112 0.714465 0.747379
O O1 0.250000 0.250000 0.500000
O O2 0.244440 0.172887 0.346967
O O3 0.155328 0.155338 0.501890
O O4 0.061314 0.220911 0.320763
O O5 0.331036 0.400528 0.041286
O O6 0.397763 0.300317 0.114537
O O7 0.500000 0.352905 0.000000
O O8 0.292087 0.328561 0.877733
O O9 0.326748 0.908358 0.877992
O O10 0.244860 0.000000 0.929810
O O11 0.369765 0.933607 0.098138
O O12 0.623502 0.886345 0.717242
O O13 0.627027 0.771991 0.730578
O O14 0.500000 0.407675 0.500000
O O15 0.283356 0.424617 0.342009
O O16 0.398239 0.338341 0.318558
O O17 0.058229 0.500000 0.718615
O O18 0.936984 0.588477 0.732979
O O19 0.365004 0.000000 0.786929
#
# Coordination Sequence:
#
# PCOD9188718 Si02
#       8
#     8   8   8   8   8   8   8   8
#     4  11  23  40  60  84 114 158 202 240 280 344
#     4  11  21  38  59  85 128 152 185 248 301 350
#     4   9  18  34  59  87 116 155 197 236 291 354
#     4  11  23  38  62  88 118 160 192 237 303 352
#     4  10  22  38  59  83 118 153 198 248 279 333
#     4   9  20  37  58  90 121 148 191 242 294 354
#     4  10  19  36  61  86 117 155 194 243 289 338
#     4  11  22  40  59  87 119 151 196 242 292 347
#
# _framework density 18.271761000000001
#
# number of rings (size 3 to 8) (size 9 to 14) (size 15 to 20)
#    0.000    1.750    3.750    0.750    1.750    2.000 
#    0.000    0.625    0.000    2.250    0.000    0.000 
#    0.000    0.000    0.000    0.000    0.000    0.000 
#
# Total GULP energy -178432.936980 kJ/mol
# GULP energy per Si atom -5576.029281 kJ/mol
# Density = 1.823017 g / cm^3
# Si number density = 18.271761 Si / 1000 Ang^3
#
#
#
# Elastic Constant Matrix: (Units=GPa)
#
#
# Indices 1 2 3 4 5 6 
#
# 1 142.3250 29.4740 30.6260 0.0000 -8.2517 0.0000
# 2 29.4740 19.8794 5.6559 0.0000 4.9851 0.0000
# 3 30.6260 5.6559 52.5375 0.0000 -20.6837 0.0000
# 4 0.0000 0.0000 0.0000 24.2839 0.0000 2.3188
# 5 -8.2517 4.9851 -20.6837 0.0000 20.1404 0.0000
# 6 0.0000 0.0000 0.0000 2.3188 0.0000 28.0982
#
#
#
# Elastic Compliance Matrix: (Units=1/GPa)
#
#
# Indices 1 2 3 4 5 6 
#
# 1 0.011757 -0.018806 -0.001847 0.000000 0.007575 0.000000
# 2 -0.018806 0.097036 -0.020099 0.000000 -0.052365 0.000000
# 3 -0.001847 -0.020099 0.040181 0.000000 0.045483 0.000000
# 4 0.000000 0.000000 0.000000 0.041507 0.000000 -0.003425
# 5 0.007575 -0.052365 0.045483 0.000000 0.112426 0.000000
# 6 0.000000 0.000000 0.000000 -0.003425 0.000000 0.035872
#
#
# Mechanical properties :
#
#
# Convention : Reuss Voigt Hill
#
# Bulk Modulus (GPa) = 14.82149 38.47264 26.64707
# Shear Modulus (GPa) = 11.29245 24.43691 17.86468
#
# Velocity S-wave (km/s) = 2.48871 3.66103 3.13025
# Velocity P-wave (km/s) = 4.04816 6.24279 5.26118
#
# Compressibility (1/GPa) = 0.06746958
#
# Stress axis : x y z
#
# Youngs Moduli (GPa) = 85.05324 10.30546 24.88750
#
# Poissons Ratio (x) = 0.19381 0.04596
# Poissons Ratio (y) = 1.59952 0.50022
# Poissons Ratio (z) = 0.15708 0.20713
#
# Static dielectric constant tensor:
#      x y z
#    x 1.626450 0.000000 0.002410 
#    y 0.000000 1.683170 0.000000 
#    z 0.002410 0.000000 1.628690 
# 
# From -- ./inp_files/135978.got.cif
#   From: 2010.05.17/outbox.cif.g08.bks.cpg/sg12_68_cif.got.tgz:135978.got - 2010.06.03 13:09:07.
