data_PCOD9188732
_publ_section_title
;
Structure prediction by ZEFSAII (Michael W. Deem and Ramdas Pophale) SiO2 
 PCOD9188732
Probable space group: C 2/M
;
_chemical_formula_sum "Si O2"
_cell_formula_units_Z 64
_cell_length_a 20.846544
_cell_length_b 8.451712
_cell_length_c 23.196050
_cell_angle_alpha 90.000000
_cell_angle_beta 124.934174
_cell_angle_gamma 90.000000
_cell_volume 3350.474025
_symmetry_space_group_name_H-M "C 2/M"
_symmetry_group_IT_number 12
_symmetry_cell_setting 'monoclinic'
loop_
_space_group_symop_operation_xyz
x,y,z
-x,y,-z
-x,-y,-z
x,-y,z
1/2+x,1/2+y,z
1/2-x,1/2+y,-z
1/2-x,1/2-y,-z
1/2+x,1/2-y,z
loop_
_atom_site_type_symbol
_atom_site_label
_atom_site_fract_x
_atom_site_fract_y
_atom_site_fract_z
Si Si1 0.963163 0.689519 0.163422
Si Si2 0.287604 0.689402 0.077784
Si Si3 0.409340 0.189468 0.452201
Si Si4 0.978644 0.808696 0.687984
Si Si5 0.163021 0.189208 0.466804
Si Si6 0.463180 0.193420 0.919701
Si Si7 0.713961 0.807236 0.158879
Si Si8 0.632330 0.691404 0.694098
O O1 0.963574 0.500000 0.163302
O O2 0.875519 0.749202 0.129302
O O3 0.015491 0.747975 0.243754
O O4 0.991538 0.744422 0.114722
O O5 0.289630 0.500000 0.078769
O O6 0.235302 0.740826 0.104980
O O7 0.250000 0.750000 0.000000
O O8 0.500000 0.241253 0.500000
O O9 0.365852 0.256970 0.485342
O O10 0.374637 0.247732 0.374172
O O11 0.406796 0.000000 0.453330
O O12 0.056724 0.757700 0.692878
O O13 0.901615 0.755606 0.613447
O O14 0.979251 0.000000 0.689582
O O15 0.250000 0.250000 0.500000
O O16 0.163610 0.000000 0.465023
O O17 0.372804 0.244730 0.869324
O O18 0.464963 0.000000 0.921086
O O19 0.500000 0.243948 0.000000
O O20 0.786239 0.755326 0.235613
O O21 0.713352 0.000000 0.160149
O O22 0.631412 0.500000 0.693420
#
# Coordination Sequence:
#
# PCOD9188732 Si02
#       8
#     8   8   8   8   8   8   8   8
#     4  11  22  35  58  89 118 153 196 242 298 359
#     4  11  21  36  58  85 115 150 195 246 296 352
#     4  11  23  38  60  91 123 157 200 252 305 358
#     4  10  21  39  61  86 120 159 194 242 305 366
#     4  11  24  42  64  89 123 163 207 252 306 369
#     4   9  18  34  55  81 114 150 192 237 282 339
#     4   9  18  34  57  82 110 147 194 242 285 340
#     4  10  19  36  61  87 115 155 203 245 300 362
#
# _framework density 19.101775
#
# number of rings (size 3 to 8) (size 9 to 14) (size 15 to 20)
#    0.000    1.750    2.500    2.250    0.000    5.000 
#    0.000    1.250    0.000    9.000    0.000    0.000 
#    0.000    0.000    0.000    0.000    0.000    0.000 
#
# Total GULP energy -178745.209093 kJ/mol
# GULP energy per Si atom -5585.787784 kJ/mol
# Density = 1.905830 g / cm^3
# Si number density = 19.101775 Si / 1000 Ang^3
#
#
#
# Elastic Constant Matrix: (Units=GPa)
#
#
# Indices 1 2 3 4 5 6 
#
# 1 90.6892 13.3121 11.5765 0.0000 -3.4442 0.0000
# 2 13.3121 18.0659 13.4213 0.0000 -0.8066 0.0000
# 3 11.5765 13.4213 101.8374 0.0000 -8.9739 0.0000
# 4 0.0000 0.0000 0.0000 29.3182 0.0000 -4.0793
# 5 -3.4442 -0.8066 -8.9739 0.0000 38.3489 0.0000
# 6 0.0000 0.0000 0.0000 -4.0793 0.0000 24.7322
#
#
#
# Elastic Compliance Matrix: (Units=1/GPa)
#
#
# Indices 1 2 3 4 5 6 
#
# 1 0.012398 -0.008987 -0.000147 0.000000 0.000890 0.000000
# 2 -0.008987 0.067890 -0.008037 0.000000 -0.001260 0.000000
# 3 -0.000147 -0.008037 0.011108 0.000000 0.002417 0.000000
# 4 0.000000 0.000000 0.000000 0.034910 0.000000 0.005758
# 5 0.000890 -0.001260 0.002417 0.000000 0.026695 0.000000
# 6 0.000000 0.000000 0.000000 0.005758 0.000000 0.041383
#
#
# Mechanical properties :
#
#
# Convention : Reuss Voigt Hill
#
# Bulk Modulus (GPa) = 17.52683 31.91248 24.71966
# Shear Modulus (GPa) = 20.18214 29.96536 25.07375
#
# Velocity S-wave (km/s) = 3.25400 3.96501 3.62697
# Velocity P-wave (km/s) = 4.82840 6.14040 5.52349
#
# Compressibility (1/GPa) = 0.05705537
#
# Stress axis : x y z
#
# Youngs Moduli (GPa) = 80.65540 14.72981 90.02193
#
# Poissons Ratio (x) = 0.13238 0.01319
# Poissons Ratio (y) = 0.72488 0.72347
# Poissons Ratio (z) = 0.01182 0.11838
#
# Static dielectric constant tensor:
#      x y z
#    x 1.614380 0.000000 0.017360 
#    y 0.000000 1.658860 0.000000 
#    z 0.017360 0.000000 1.653180 
# 
# From -- ./inp_files/320120.got.cif
#   From: 2010.05.17/outbox.cif.g08.bks.cpg/sg12_161_cif.got.tgz:320120.got - 2010.06.03 13:09:07.
