data_PCOD9188229
_publ_section_title
;
Structure prediction by ZEFSAII (Michael W. Deem and Ramdas Pophale) SiO2 
 PCOD9188229
Probable space group: C 2/M
;
_chemical_formula_sum "Si O2"
_cell_formula_units_Z 64
_cell_length_a 14.754037
_cell_length_b 8.980935
_cell_length_c 25.867407
_cell_angle_alpha 90.000000
_cell_angle_beta 104.038946
_cell_angle_gamma 90.000000
_cell_volume 3325.184341
_symmetry_space_group_name_H-M "C 2/M"
_symmetry_group_IT_number 12
_symmetry_cell_setting 'monoclinic'
loop_
_space_group_symop_operation_xyz
x,y,z
-x,y,-z
-x,-y,-z
x,-y,z
1/2+x,1/2+y,z
1/2-x,1/2+y,-z
1/2-x,1/2-y,-z
1/2+x,1/2-y,z
loop_
_atom_site_type_symbol
_atom_site_label
_atom_site_fract_x
_atom_site_fract_y
_atom_site_fract_z
Si Si1 0.982268 0.671816 0.129168
Si Si2 0.956786 0.321453 0.301145
Si Si3 0.651832 0.678972 0.502138
Si Si4 0.908788 0.672398 0.959554
Si Si5 0.964428 0.820531 0.413997
Si Si6 0.775109 0.322392 0.091921
Si Si7 0.273441 0.819422 0.212060
Si Si8 0.579610 0.677470 0.236083
O O1 0.974083 0.500000 0.146961
O O2 0.881672 0.710176 0.090744
O O3 0.060961 0.677130 0.096388
O O4 0.009685 0.775080 0.180377
O O5 0.960311 0.500000 0.302419
O O6 0.949765 0.257998 0.357596
O O7 0.866480 0.273609 0.254985
O O8 0.045803 0.256260 0.283338
O O9 0.661059 0.500000 0.502714
O O10 0.750000 0.750000 0.500000
O O11 0.613055 0.721125 0.553671
O O12 0.566530 0.717391 0.451590
O O13 0.901009 0.500000 0.975330
O O14 0.808909 0.748031 0.950561
O O15 0.000000 0.739097 0.000000
O O16 0.961348 0.000000 0.407718
O O17 0.761645 0.500000 0.087898
O O18 0.770972 0.273392 0.151776
O O19 0.181322 0.772385 0.230281
O O20 0.272912 0.000000 0.210985
O O21 0.579472 0.500000 0.242644
#
# Coordination Sequence:
#
# PCOD9188229 Si02
#       8
#     8   8   8   8   8   8   8   8
#     4  10  20  36  57  78 107 144 179 222 275 330
#     4  11  22  38  57  82 116 151 186 231 279 330
#     4   9  19  37  62  85 115 153 193 235 282 331
#     4  10  22  38  55  81 114 142 176 229 283 328
#     4   9  20  39  57  82 118 155 188 232 283 330
#     4  10  19  36  58  78 104 142 183 222 268 331
#     4   9  19  35  54  77 108 143 180 222 274 328
#     4  11  21  35  56  81 108 143 184 227 274 331
#
# _framework density 19.247053999999999
#
# number of rings (size 3 to 8) (size 9 to 14) (size 15 to 20)
#    0.000    2.125    2.500    1.500    0.000    3.250 
#    0.000    7.500    0.000    0.000    0.000    0.000 
#    0.000    0.000    0.000    0.000    0.000    0.000 
#
# Total GULP energy -178622.038188 kJ/mol
# GULP energy per Si atom -5581.938693 kJ/mol
# Density = 1.920325 g / cm^3
# Si number density = 19.247054 Si / 1000 Ang^3
#
#
#
# Elastic Constant Matrix: (Units=GPa)
#
#
# Indices 1 2 3 4 5 6 
#
# 1 119.4453 22.9069 9.2425 0.0000 1.4218 0.0000
# 2 22.9069 28.2101 11.9322 0.0000 -0.2554 0.0000
# 3 9.2425 11.9322 53.5428 0.0000 -4.1112 0.0000
# 4 0.0000 0.0000 0.0000 28.8126 0.0000 5.4671
# 5 1.4218 -0.2554 -4.1112 0.0000 17.2845 0.0000
# 6 0.0000 0.0000 0.0000 5.4671 0.0000 28.2714
#
#
#
# Elastic Compliance Matrix: (Units=1/GPa)
#
#
# Indices 1 2 3 4 5 6 
#
# 1 0.009931 -0.008079 0.000014 0.000000 -0.000933 0.000000
# 2 -0.008079 0.045749 -0.008860 0.000000 -0.000767 0.000000
# 3 0.000014 -0.008860 0.021022 0.000000 0.004868 0.000000
# 4 0.000000 0.000000 0.000000 0.036029 0.000000 -0.006967
# 5 -0.000933 -0.000767 0.004868 0.000000 0.059079 0.000000
# 6 0.000000 0.000000 0.000000 -0.006967 0.000000 0.036719
#
#
# Mechanical properties :
#
#
# Convention : Reuss Voigt Hill
#
# Bulk Modulus (GPa) = 23.33481 32.15127 27.74304
# Shear Modulus (GPa) = 19.48087 25.34816 22.41452
#
# Velocity S-wave (km/s) = 3.18488 3.63297 3.41628
# Velocity P-wave (km/s) = 5.06703 5.85993 5.47784
#
# Compressibility (1/GPa) = 0.04285443
#
# Stress axis : x y z
#
# Youngs Moduli (GPa) = 100.69092 21.85844 47.56845
#
# Poissons Ratio (x) = 0.17659 -0.00069
# Poissons Ratio (y) = 0.81348 0.42144
# Poissons Ratio (z) = -0.00146 0.19366
#
# Static dielectric constant tensor:
#      x y z
#    x 1.679780 0.000000 -0.003190 
#    y 0.000000 1.651170 0.000000 
#    z -0.003190 0.000000 1.670260 
# 
# From -- ./inp_files/359984.got.cif
#   From: 2010.05.17/outbox.cif.g08.bks.cpg/sg12_180_cif.got.tgz:359984.got - 2010.06.03 13:09:07.
