data_PCOD9188827
_publ_section_title
;
Structure prediction by ZEFSAII (Michael W. Deem and Ramdas Pophale) SiO2 
 PCOD9188827
Probable space group: C 2/M
;
_chemical_formula_sum "Si O2"
_cell_formula_units_Z 48
_cell_length_a 17.728250
_cell_length_b 13.951935
_cell_length_c 17.930337
_cell_angle_alpha 90.000000
_cell_angle_beta 35.281176
_cell_angle_gamma 90.000000
_cell_volume 2561.580582
_symmetry_space_group_name_H-M "C 2/M"
_symmetry_group_IT_number 12
_symmetry_cell_setting 'monoclinic'
loop_
_space_group_symop_operation_xyz
x,y,z
-x,y,-z
-x,-y,-z
x,-y,z
1/2+x,1/2+y,z
1/2-x,1/2+y,-z
1/2-x,1/2-y,-z
1/2+x,1/2-y,z
loop_
_atom_site_type_symbol
_atom_site_label
_atom_site_fract_x
_atom_site_fract_y
_atom_site_fract_z
Si Si1 0.353663 0.000000 0.210227
Si Si2 0.065423 0.604783 0.629937
Si Si3 0.331406 0.000000 0.058159
Si Si4 0.770267 0.392722 0.824519
Si Si5 0.833076 0.715607 0.004176
Si Si6 0.858146 0.334770 0.592402
Si Si7 0.363970 0.194222 0.283120
O O1 0.295955 0.000000 0.173887
O O2 0.320326 0.905178 0.281432
O O3 0.511258 0.000000 0.075059
O O4 0.095726 0.500000 0.636877
O O5 0.109469 0.607807 0.508963
O O6 0.127806 0.681887 0.634347
O O7 0.908791 0.614481 0.755805
O O8 0.292820 0.895117 0.056155
O O9 0.714730 0.500000 0.885444
O O10 0.807637 0.387943 0.707013
O O11 0.692537 0.297354 0.911977
O O12 0.987806 0.715091 0.862596
O O13 0.750000 0.750000 0.000000
O O14 0.741074 0.267920 0.661320
O O15 0.000000 0.289917 0.500000
#
# Coordination Sequence:
#
# PCOD9188827 Si02
#       7
#     4   8   4   8   8   8   8
#     4   9  18  34  57  84 106 152 201 242 278 346
#     4  10  19  36  62  85 111 156 205 244 282 346
#     4   9  20  34  56  84 119 154 199 232 281 358
#     4  10  21  38  62  89 121 154 195 242 295 357
#     4  11  22  36  61  90 121 157 193 241 300 352
#     4  10  22  38  58  84 115 154 196 242 296 350
#     4  11  20  36  61  85 117 152 199 244 294 350
#
# _framework density 18.738430000000001
#
# number of rings (size 3 to 8) (size 9 to 14) (size 15 to 20)
#    0.000    1.833    2.500    2.000    1.167    4.000 
#    0.000    2.917    0.000    3.000    0.000    0.000 
#    0.000    0.000    0.000    0.000    0.000    0.000 
#
# Total GULP energy -133666.999447 kJ/mol
# GULP energy per Si atom -5569.458310 kJ/mol
# Density = 1.869578 g / cm^3
# Si number density = 18.738430 Si / 1000 Ang^3
#
#
#
# Elastic Constant Matrix: (Units=GPa)
#
#
# Indices 1 2 3 4 5 6 
#
# 1 107.6156 52.9391 25.5576 0.0000 2.4568 0.0000
# 2 52.9391 132.9357 45.5705 0.0000 -4.3301 0.0000
# 3 25.5576 45.5705 62.6283 -0.0001 4.3150 -0.0001
# 4 0.0000 0.0000 -0.0001 14.1846 0.0000 -8.9161
# 5 2.4568 -4.3301 4.3150 0.0000 29.9652 0.0001
# 6 0.0000 0.0000 -0.0001 -8.9161 0.0001 -48.8897
#
#
#
# Elastic Compliance Matrix: (Units=1/GPa)
#
#
# Indices 1 2 3 4 5 6 
#
# 1 0.011765 -0.004148 -0.001692 0.000000 -0.001320 0.000000
# 2 -0.004148 0.011678 -0.007013 0.000000 0.003037 0.000000
# 3 -0.001692 -0.007013 0.022040 0.000000 -0.004049 0.000000
# 4 0.000000 0.000000 0.000000 0.063248 0.000000 -0.011535
# 5 -0.001320 0.003037 -0.004049 0.000000 0.034502 0.000000
# 6 0.000000 0.000000 0.000000 -0.011535 0.000000 -0.018351
#
#
# Mechanical properties :
#
#
# Convention : Reuss Voigt Hill
#
# Bulk Modulus (GPa) = 50.56775 61.25711 55.91243
# Shear Modulus (GPa) = 31.81053 10.99286 21.40169
#
# Velocity S-wave (km/s) = 4.12468 2.42471 3.38321
# Velocity P-wave (km/s) = 7.05185 6.37186 6.72046
#
# Compressibility (1/GPa) = 0.01977545
#
# Stress axis : x y z
#
# Youngs Moduli (GPa) = 84.99883 85.63446 45.37258
#
# Poissons Ratio (x) = 0.35523 0.07676
# Poissons Ratio (y) = 0.35260 0.31822
# Poissons Ratio (z) = 0.14379 0.60059
#
# Static dielectric constant tensor:
#      x y z
#    x 1.648770 0.000000 0.033760 
#    y 0.000000 1.665280 0.000000 
#    z 0.033760 0.000000 1.647700 
# 
# From -- ./inp_files/278074.got.cif
#   From: 2010.05.17/outbox.cif.g08.bks.cpg/sg12_140_cif.got.tgz:278074.got - 2010.06.03 13:09:07.
