data_PCOD9188352
_publ_section_title
;
Structure prediction by ZEFSAII (Michael W. Deem and Ramdas Pophale) SiO2 
 PCOD9188352
Probable space group: C 2/M
;
_chemical_formula_sum "Si O2"
_cell_formula_units_Z 56
_cell_length_a 20.518616
_cell_length_b 7.529090
_cell_length_c 16.653728
_cell_angle_alpha 90.000000
_cell_angle_beta 87.179826
_cell_angle_gamma 90.000000
_cell_volume 2569.660307
_symmetry_space_group_name_H-M "C 2/M"
_symmetry_group_IT_number 12
_symmetry_cell_setting 'monoclinic'
loop_
_space_group_symop_operation_xyz
x,y,z
-x,y,-z
-x,-y,-z
x,-y,z
1/2+x,1/2+y,z
1/2-x,1/2+y,-z
1/2-x,1/2-y,-z
1/2+x,1/2-y,z
loop_
_atom_site_type_symbol
_atom_site_label
_atom_site_fract_x
_atom_site_fract_y
_atom_site_fract_z
Si Si1 0.527579 0.216645 0.758349
Si Si2 0.889495 0.711001 0.702735
Si Si3 0.447932 0.793055 0.064747
Si Si4 0.753840 0.218451 0.242680
Si Si5 0.302873 0.710736 0.064837
Si Si6 0.356467 0.295111 0.366814
Si Si7 0.574614 0.714243 0.482147
O O1 0.454202 0.276348 0.743698
O O2 0.548693 0.279243 0.845223
O O3 0.577544 0.287793 0.689529
O O4 0.530796 0.000000 0.753307
O O5 0.887991 0.500000 0.716336
O O6 0.820095 0.778693 0.737779
O O7 0.900338 0.742298 0.607762
O O8 0.374150 0.782479 0.038896
O O9 0.465909 0.000000 0.073069
O O10 0.500000 0.713685 0.000000
O O11 0.780586 0.276684 0.154226
O O12 0.800341 0.280628 0.312608
O O13 0.755236 0.000000 0.242484
O O14 0.309628 0.500000 0.070717
O O15 0.250000 0.750000 0.000000
O O16 0.337689 0.500000 0.382231
O O17 0.376819 0.216856 0.451474
O O18 0.500000 0.778092 0.500000
O O19 0.572458 0.500000 0.490044
#
# Coordination Sequence:
#
# PCOD9188352 Si02
#       7
#     8   8   8   8   8   8   8
#     4  10  20  34  56  84 111 144 188 235 278 330
#     4  10  21  36  56  82 112 146 189 231 278 339
#     4  10  22  39  61  88 119 152 191 241 294 344
#     4   9  20  38  59  81 110 150 188 228 282 342
#     4  11  23  40  63  87 118 156 194 236 288 347
#     4  10  19  36  59  79 108 150 189 227 281 339
#     4  10  20  34  54  81 113 146 184 232 285 335
#
# _framework density 21.792762
#
# number of rings (size 3 to 8) (size 9 to 14) (size 15 to 20)
#    0.000    2.000    2.857    0.429    2.000    1.714 
#    0.000    2.143    0.000    0.000    0.000    0.000 
#    0.000    0.000    0.000    0.000    0.000    0.000 
#
# Total GULP energy -156429.935607 kJ/mol
# GULP energy per Si atom -5586.783415 kJ/mol
# Density = 2.174316 g / cm^3
# Si number density = 21.792762 Si / 1000 Ang^3
#
#
#
# Elastic Constant Matrix: (Units=GPa)
#
#
# Indices 1 2 3 4 5 6 
#
# 1 122.1833 -19.5422 33.0293 0.0000 8.4350 0.0000
# 2 -19.5422 52.6620 -14.1401 0.0000 0.6769 0.0000
# 3 33.0293 -14.1401 69.4634 0.0000 15.5090 0.0000
# 4 0.0000 0.0000 0.0000 5768.9168 0.0000-1568.7786
# 5 8.4350 0.6769 15.5090 0.0000 45.8010 0.0000
# 6 0.0000 0.0000 0.0000-1568.7786 0.0000 440.9115
#
#
#
# Elastic Compliance Matrix: (Units=1/GPa)
#
#
# Indices 1 2 3 4 5 6 
#
# 1 0.009701 0.002534 -0.003992 0.000000 -0.000473 0.000000
# 2 0.002534 0.020890 0.003484 0.000000 -0.001955 0.000000
# 3 -0.003992 0.003484 0.018229 0.000000 -0.005489 0.000000
# 4 0.000000 0.000000 0.000000 0.005343 0.000000 0.019012
# 5 -0.000473 -0.001955 -0.005489 0.000000 0.023808 0.000000
# 6 0.000000 0.000000 0.000000 0.019012 0.000000 0.069913
#
#
# Mechanical properties :
#
#
# Convention : Reuss Voigt Hill
#
# Bulk Modulus (GPa) = 18.91299 27.00029 22.95664
# Shear Modulus (GPa) = 30.96821 1267.45665 649.21243
#
# Velocity S-wave (km/s) = 3.77375 24.14245 17.27858
# Velocity P-wave (km/s) = 5.26171 28.09911 20.21442
#
# Compressibility (1/GPa) = 0.05287372
#
# Stress axis : x y z
#
# Youngs Moduli (GPa) = 103.07770 47.86957 54.85850
#
# Poissons Ratio (x) = -0.12132 0.21897
# Poissons Ratio (y) = -0.26124 -0.19112
# Poissons Ratio (z) = 0.41144 -0.16677
#
# Static dielectric constant tensor:
#      x y z
#    x 1.875480 0.000000 0.001330 
#    y 0.000000 1.841640 0.000000 
#    z 0.001330 0.000000 1.784280 
# 
# From -- ./inp_files/231016.got.cif
#   From: 2010.05.17/outbox.cif.g08.bks.cpg/sg12_116_cif.got.tgz:231016.got - 2010.06.03 13:09:07.
