data_PCOD9188627
_publ_section_title
;
Structure prediction by ZEFSAII (Michael W. Deem and Ramdas Pophale) SiO2 
 PCOD9188627
Probable space group: C 2/M
;
_chemical_formula_sum "Si O2"
_cell_formula_units_Z 48
_cell_length_a 28.663532
_cell_length_b 8.723658
_cell_length_c 10.348191
_cell_angle_alpha 90.000000
_cell_angle_beta 89.650934
_cell_angle_gamma 90.000000
_cell_volume 2587.525937
_symmetry_space_group_name_H-M "C 2/M"
_symmetry_group_IT_number 12
_symmetry_cell_setting 'monoclinic'
loop_
_space_group_symop_operation_xyz
x,y,z
-x,y,-z
-x,-y,-z
x,-y,z
1/2+x,1/2+y,z
1/2-x,1/2+y,-z
1/2-x,1/2-y,-z
1/2+x,1/2-y,z
loop_
_atom_site_type_symbol
_atom_site_label
_atom_site_fract_x
_atom_site_fract_y
_atom_site_fract_z
Si Si1 0.976269 0.186726 0.633607
Si Si2 0.276874 0.816288 0.622678
Si Si3 0.279790 0.683247 0.117060
Si Si4 0.127052 0.815437 0.278940
Si Si5 0.535964 0.678000 0.880740
Si Si6 0.627951 0.819364 0.988856
O O1 0.922743 0.234298 0.659458
O O2 0.000000 0.238410 0.500000
O O3 0.008547 0.231077 0.754114
O O4 0.975534 0.000000 0.632382
O O5 0.250000 0.750000 0.500000
O O6 0.246208 0.777861 0.749815
O O7 0.328437 0.748454 0.644810
O O8 0.280158 0.000000 0.613016
O O9 0.282242 0.500000 0.106581
O O10 0.330736 0.753487 0.099702
O O11 0.250000 0.750000 0.000000
O O12 0.128634 0.000000 0.278765
O O13 0.129319 0.758338 0.130561
O O14 0.550977 0.500000 0.861686
O O15 0.579632 0.778649 0.920750
O O16 0.500000 0.679077 0.000000
O O17 0.633938 0.000000 0.006520
#
# Coordination Sequence:
#
# PCOD9188627 Si02
#       6
#     8   8   8   8   8   8
#     4   9  19  36  60  89 120 155 199 249 304 367
#     4  11  25  43  64  93 127 164 205 254 312 377
#     4  11  23  40  64  92 122 160 207 256 307 364
#     4  11  21  38  64  90 120 162 207 256 313 369
#     4  10  19  36  60  88 118 155 203 251 303 364
#     4  12  24  37  59  92 126 162 207 257 311 369
#
# _framework density 18.550540999999999
#
# number of rings (size 3 to 8) (size 9 to 14) (size 15 to 20)
#    0.000    1.333    3.333    3.000    0.000    3.667 
#    0.000    3.333    0.000    3.500    0.000    0.000 
#    0.000    0.000    0.000    0.000    0.000    0.000 
#
# Total GULP energy -134118.483505 kJ/mol
# GULP energy per Si atom -5588.270146 kJ/mol
# Density = 1.850832 g / cm^3
# Si number density = 18.550541 Si / 1000 Ang^3
#
#
#
# Elastic Constant Matrix: (Units=GPa)
#
#
# Indices 1 2 3 4 5 6 
#
# 1 151.3160 44.7227 76.9761 0.0000 10.3413 0.0000
# 2 44.7227 55.6935 48.1495 0.0000 -1.9549 0.0000
# 3 76.9761 48.1495 153.2235 0.0000 14.7538 0.0000
# 4 0.0000 0.0000 0.0000 22.6522 0.0000 6.3777
# 5 10.3413 -1.9549 14.7538 0.0000 29.9060 0.0000
# 6 0.0000 0.0000 0.0000 6.3777 0.0000 32.8538
#
#
#
# Elastic Compliance Matrix: (Units=1/GPa)
#
#
# Indices 1 2 3 4 5 6 
#
# 1 0.009919 -0.005389 -0.003071 0.000000 -0.002267 0.000000
# 2 -0.005389 0.028545 -0.006952 0.000000 0.007159 0.000000
# 3 -0.003071 -0.006952 0.010704 0.000000 -0.004673 0.000000
# 4 0.000000 0.000000 0.000000 0.046698 0.000000 -0.009065
# 5 -0.002267 0.007159 -0.004673 0.000000 0.036995 0.000000
# 6 0.000000 0.000000 0.000000 -0.009065 0.000000 0.032198
#
#
# Mechanical properties :
#
#
# Convention : Reuss Voigt Hill
#
# Bulk Modulus (GPa) = 54.51793 77.76997 66.14395
# Shear Modulus (GPa) = 24.75282 29.77472 27.26377
#
# Velocity S-wave (km/s) = 3.65683 4.01067 3.83783
# Velocity P-wave (km/s) = 6.87623 7.96628 7.44124
#
# Compressibility (1/GPa) = 0.01834259
#
# Stress axis : x y z
#
# Youngs Moduli (GPa) = 100.81845 35.03288 93.42487
#
# Poissons Ratio (x) = 0.18881 0.28692
# Poissons Ratio (y) = 0.54335 0.64947
# Poissons Ratio (z) = 0.30962 0.24354
#
# Static dielectric constant tensor:
#      x y z
#    x 1.572090 0.000000 -0.012650 
#    y 0.000000 1.630950 0.000000 
#    z -0.012650 0.000000 1.610000 
# 
# From -- ./inp_files/108631.got.cif
#   From: 2010.05.17/outbox.cif.g08.bks.cpg/sg12_55_cif.got.tgz:108631.got - 2010.06.03 13:09:07.
