data_PCOD9188719
_publ_section_title
;
Structure prediction by ZEFSAII (Michael W. Deem and Ramdas Pophale) SiO2 
 PCOD9188719
Probable space group: C 2/M
;
_chemical_formula_sum "Si O2"
_cell_formula_units_Z 56
_cell_length_a 25.448217
_cell_length_b 18.553119
_cell_length_c 17.436005
_cell_angle_alpha 90.000000
_cell_angle_beta 19.668985
_cell_angle_gamma 90.000000
_cell_volume 2770.874002
_symmetry_space_group_name_H-M "C 2/M"
_symmetry_group_IT_number 12
_symmetry_cell_setting 'monoclinic'
loop_
_space_group_symop_operation_xyz
x,y,z
-x,y,-z
-x,-y,-z
x,-y,z
1/2+x,1/2+y,z
1/2-x,1/2+y,-z
1/2-x,1/2-y,-z
1/2+x,1/2-y,z
loop_
_atom_site_type_symbol
_atom_site_label
_atom_site_fract_x
_atom_site_fract_y
_atom_site_fract_z
Si Si1 0.524294 0.216947 0.358619
Si Si2 0.058675 0.586143 0.999653
Si Si3 0.177824 0.419062 0.374157
Si Si4 0.984160 0.829661 0.932823
Si Si5 0.855960 0.141696 0.659785
Si Si6 0.150570 0.742540 0.024548
Si Si7 0.204816 0.583292 0.518341
O O1 0.433704 0.144111 0.501753
O O2 0.432332 0.285551 0.519766
O O3 0.532617 0.232380 0.256327
O O4 0.701488 0.211682 0.146503
O O5 0.047829 0.500000 0.013665
O O6 0.937595 0.608675 0.232576
O O7 0.000000 0.616476 0.000000
O O8 0.240226 0.604256 0.760741
O O9 0.150126 0.500000 0.383529
O O10 0.157234 0.419248 0.494615
O O11 0.354450 0.392948 0.115940
O O12 0.921120 0.773994 0.955328
O O13 0.146924 0.864033 0.681813
O O14 0.000000 0.802735 0.000000
O O15 0.000000 0.100184 0.500000
O O16 0.736459 0.167275 0.889562
O O17 0.246479 0.500000 0.482327
#
# Coordination Sequence:
#
# PCOD9188719 Si02
#       7
#     8   8   8   8   8   8   8
#     4  10  21  38  60  86 118 160 200 243 308 353
#     4  10  22  39  59  86 119 155 200 254 305 349
#     4  10  19  36  61  86 118 154 199 249 303 365
#     4  10  20  35  58  89 116 153 198 242 301 366
#     4  10  21  39  61  84 117 157 198 247 298 362
#     4  10  21  38  59  82 122 155 196 249 297 358
#     4   9  19  36  57  81 119 158 189 241 306 361
#
# _framework density 20.210229999999999
#
# number of rings (size 3 to 8) (size 9 to 14) (size 15 to 20)
#    0.000    2.143    1.429    1.286    2.000    2.571 
#    0.000    5.714    0.000    5.143    0.000    0.000 
#    0.000    0.000    0.000    0.000    0.000    0.000 
#
# Total GULP energy -156141.344578 kJ/mol
# GULP energy per Si atom -5576.476592 kJ/mol
# Density = 2.016423 g / cm^3
# Si number density = 20.210230 Si / 1000 Ang^3
#
#
#
# Elastic Constant Matrix: (Units=GPa)
#
#
# Indices 1 2 3 4 5 6 
#
# 1 109.8386 21.9580 47.7798 0.0015 -9.2276 -0.0016
# 2 21.9580 48.2710 33.1015 0.0018 -9.0567 -0.0013
# 3 47.7798 33.1015 110.4245 0.0017 -3.8705 -0.0024
# 4 0.0015 0.0018 0.0017 25.2749 -0.0009 -10.1829
# 5 -9.2276 -9.0567 -3.8705 -0.0009 41.5636 0.0013
# 6 -0.0016 -0.0013 -0.0024 -10.1829 0.0013 35.7766
#
#
#
# Elastic Compliance Matrix: (Units=1/GPa)
#
#
# Indices 1 2 3 4 5 6 
#
# 1 0.011528 -0.001939 -0.004346 0.000000 0.001732 0.000000
# 2 -0.001939 0.027468 -0.007224 -0.000001 0.004882 0.000000
# 3 -0.004346 -0.007224 0.013056 0.000000 -0.001323 0.000000
# 4 0.000000 -0.000001 0.000000 0.044690 0.000000 0.012720
# 5 0.001732 0.004882 -0.001323 0.000000 0.025385 -0.000001
# 6 0.000000 0.000000 0.000000 0.012720 -0.000001 0.031572
#
#
# Mechanical properties :
#
#
# Convention : Reuss Voigt Hill
#
# Bulk Modulus (GPa) = 39.94568 52.69029 46.31798
# Shear Modulus (GPa) = 26.44666 31.56933 29.00800
#
# Velocity S-wave (km/s) = 3.62135 3.95656 3.79266
# Velocity P-wave (km/s) = 6.10685 6.85567 6.49206
#
# Compressibility (1/GPa) = 0.02503400
#
# Stress axis : x y z
#
# Youngs Moduli (GPa) = 86.74581 36.40595 76.59508
#
# Poissons Ratio (x) = 0.07058 0.33290
# Poissons Ratio (y) = 0.16816 0.55333
# Poissons Ratio (z) = 0.37702 0.26300
#
# Static dielectric constant tensor:
#      x y z
#    x 1.783000 0.000000 -0.014130 
#    y 0.000000 1.727500 0.000000 
#    z -0.014130 0.000000 1.705280 
# 
# From -- ./inp_files/293859.got.cif
#   From: 2010.05.17/outbox.cif.g08.bks.cpg/sg12_147_cif.got.tgz:293859.got - 2010.06.03 13:09:07.
