data_PCOD9188122
_publ_section_title
;
Structure prediction by ZEFSAII (Michael W. Deem and Ramdas Pophale) SiO2 
 PCOD9188122
Probable space group: C 2/M
;
_chemical_formula_sum "Si O2"
_cell_formula_units_Z 32
_cell_length_a 32.095138
_cell_length_b 7.869384
_cell_length_c 4.878527
_cell_angle_alpha 90.000000
_cell_angle_beta 88.697661
_cell_angle_gamma 90.000000
_cell_volume 1231.846227
_symmetry_space_group_name_H-M "C 2/M"
_symmetry_group_IT_number 12
_symmetry_cell_setting 'monoclinic'
loop_
_space_group_symop_operation_xyz
x,y,z
-x,y,-z
-x,-y,-z
x,-y,z
1/2+x,1/2+y,z
1/2-x,1/2+y,-z
1/2-x,1/2-y,-z
1/2+x,1/2-y,z
loop_
_atom_site_type_symbol
_atom_site_label
_atom_site_fract_x
_atom_site_fract_y
_atom_site_fract_z
Si Si1 0.700306 0.000000 0.535190
Si Si2 0.830630 0.817508 0.764836
Si Si3 0.956308 0.706538 0.623658
Si Si4 0.743713 0.500000 0.974999
Si Si5 0.404411 0.795133 0.135281
O O1 0.674796 0.835597 0.444595
O O2 0.715054 0.000000 0.843290
O O3 0.742367 0.000000 0.341429
O O4 0.786627 0.846512 0.928316
O O5 0.865208 0.782669 0.987753
O O6 0.838494 0.000000 0.625956
O O7 0.957698 0.500000 0.606062
O O8 0.944171 0.745641 0.934973
O O9 0.000000 0.770307 0.500000
O O10 0.918143 0.760691 0.434003
O O11 0.398653 0.000000 0.135193
#
# Coordination Sequence:
#
# PCOD9188122 Si02
#       5
#     4   8   8   4   8
#     4  12  22  48  60  92 121 158 211 254 300 364
#     4  10  24  41  64  92 122 165 200 254 305 361
#     4   9  18  32  58  88 117 155 201 242 293 355
#     4  10  26  40  68  86 123 162 203 256 306 354
#     4  10  19  36  56  85 121 156 194 247 297 353
#
# _framework density 25.977266
#
# number of rings (size 3 to 8) (size 9 to 14) (size 15 to 20)
#    0.750    1.250    1.250    2.250    0.000    7.000 
#    0.000    0.000    0.000    4.500    0.000    0.000 
#    0.000    0.000    0.000    0.000    0.000    0.000 
#
# Total GULP energy -89677.575949 kJ/mol
# GULP energy per Si atom -5604.848497 kJ/mol
# Density = 2.591814 g / cm^3
# Si number density = 25.977266 Si / 1000 Ang^3
#
#
#
# Elastic Constant Matrix: (Units=GPa)
#
#
# Indices 1 2 3 4 5 6 
#
# 1 101.0933 16.2829 6.3574 0.0000 7.3649 0.0000
# 2 16.2829 112.6703 20.2324 0.0000 2.6009 0.0000
# 3 6.3574 20.2324 94.9769 0.0000 5.0405 0.0000
# 4 0.0000 0.0000 0.0000 6.3752 0.0000 1.4098
# 5 7.3649 2.6009 5.0405 0.0000 35.0296 0.0000
# 6 0.0000 0.0000 0.0000 1.4098 0.0000 13.1370
#
#
#
# Elastic Compliance Matrix: (Units=1/GPa)
#
#
# Indices 1 2 3 4 5 6 
#
# 1 0.010280 -0.001388 -0.000285 0.000000 -0.002017 0.000000
# 2 -0.001388 0.009422 -0.001907 0.000000 -0.000133 0.000000
# 3 -0.000285 -0.001907 0.011028 0.000000 -0.001385 0.000000
# 4 0.000000 0.000000 0.000000 0.160670 0.000000 -0.017243
# 5 -0.002017 -0.000133 -0.001385 0.000000 0.029181 0.000000
# 6 0.000000 0.000000 0.000000 -0.017243 0.000000 0.077972
#
#
# Mechanical properties :
#
#
# Convention : Reuss Voigt Hill
#
# Bulk Modulus (GPa) = 42.42873 43.83178 43.13026
# Shear Modulus (GPa) = 15.94544 28.63287 22.28916
#
# Velocity S-wave (km/s) = 2.48023 3.32358 2.93239
# Velocity P-wave (km/s) = 4.95687 5.62477 5.30135
#
# Compressibility (1/GPa) = 0.02356893
#
# Stress axis : x y z
#
# Youngs Moduli (GPa) = 97.27338 106.13963 90.68039
#
# Poissons Ratio (x) = 0.14731 0.02588
# Poissons Ratio (y) = 0.13500 0.17293
# Poissons Ratio (z) = 0.02776 0.20241
#
# Static dielectric constant tensor:
#      x y z
#    x 2.042590 0.000000 -0.066120 
#    y 0.000000 2.075100 0.000000 
#    z -0.066120 0.000000 1.928180 
# 
# From -- ./inp_files/30256.got.cif
#   From: 2010.05.17/outbox.cif.g08.bks.cpg/sg12_16_cif.got.tgz:30256.got - 2010.06.03 13:09:07.
