data_PCOD9188483
_publ_section_title
;
Structure prediction by ZEFSAII (Michael W. Deem and Ramdas Pophale) SiO2 
 PCOD9188483
Probable space group: C 2/M
;
_chemical_formula_sum "Si O2"
_cell_formula_units_Z 48
_cell_length_a 28.473444
_cell_length_b 19.939871
_cell_length_c 12.722814
_cell_angle_alpha 90.000000
_cell_angle_beta 159.341245
_cell_angle_gamma 90.000000
_cell_volume 2548.448000
_symmetry_space_group_name_H-M "C 2/M"
_symmetry_group_IT_number 12
_symmetry_cell_setting 'monoclinic'
loop_
_space_group_symop_operation_xyz
x,y,z
-x,y,-z
-x,-y,-z
x,-y,z
1/2+x,1/2+y,z
1/2-x,1/2+y,-z
1/2-x,1/2-y,-z
1/2+x,1/2-y,z
loop_
_atom_site_type_symbol
_atom_site_label
_atom_site_fract_x
_atom_site_fract_y
_atom_site_fract_z
Si Si1 0.097503 0.424337 0.104097
Si Si2 0.289780 0.924021 0.057498
Si Si3 0.522980 0.255092 0.287646
Si Si4 0.630465 0.299417 0.717997
Si Si5 0.503034 0.891633 0.331306
Si Si6 0.254328 0.214955 0.620296
O O1 0.152607 0.500000 0.235475
O O2 0.200073 0.362479 0.302163
O O3 0.000000 0.410260 0.000000
O O4 0.019156 0.424771 0.828645
O O5 0.368555 0.894464 0.120482
O O6 0.390276 0.923331 0.366670
O O7 0.250497 0.000000 0.952081
O O8 0.173241 0.873225 0.842007
O O9 0.583164 0.305221 0.499079
O O10 0.547685 0.183256 0.394814
O O11 0.611997 0.270633 0.373459
O O12 0.368493 0.249979 0.931966
O O13 0.500000 0.271778 0.500000
O O14 0.750000 0.250000 0.000000
O O15 0.250000 0.250000 0.500000
#
# Coordination Sequence:
#
# PCOD9188483 Si02
#       6
#     8   8   8   8   8   8
#     4  10  20  36  60  89 120 156 201 256 307 359
#     4  11  22  36  60  88 124 163 200 253 308 364
#     4  11  22  36  61  88 118 157 200 248 305 351
#     4  12  23  39  59  86 121 158 203 250 296 367
#     4  10  19  36  59  90 120 153 204 251 302 367
#     4  11  22  39  61  91 120 154 199 257 304 360
#
# _framework density 18.834993999999998
#
# number of rings (size 3 to 8) (size 9 to 14) (size 15 to 20)
#    0.000    1.167    1.667    8.500    0.000    0.333 
#    0.000    0.000    0.000    3.000    0.000    0.000 
#    0.000    0.000    0.000    0.000    0.000    0.000 
#
# Total GULP energy -133780.951693 kJ/mol
# GULP energy per Si atom -5574.206321 kJ/mol
# Density = 1.879212 g / cm^3
# Si number density = 18.834994 Si / 1000 Ang^3
#
#
#
# Elastic Constant Matrix: (Units=GPa)
#
#
# Indices 1 2 3 4 5 6 
#
# 1 79.6963 0.0415 -7.3673 0.0000 -12.2452 0.0000
# 2 0.0415 110.0158 19.2698 0.0000 6.2481 0.0000
# 3 -7.3673 19.2698 52.3666 0.0000 0.7556 0.0000
# 4 0.0000 0.0000 0.0000 13.5979 0.0000 -3.2804
# 5 -12.2452 6.2481 0.7556 0.0000 35.0973 0.0000
# 6 0.0000 0.0000 0.0000 -3.2804 0.0000 8.4388
#
#
#
# Elastic Compliance Matrix: (Units=1/GPa)
#
#
# Indices 1 2 3 4 5 6 
#
# 1 0.013471 -0.000637 0.002061 0.000000 0.004769 0.000000
# 2 -0.000637 0.009843 -0.003684 0.000000 -0.001895 0.000000
# 3 0.002061 -0.003684 0.020728 0.000000 0.000929 0.000000
# 4 0.000000 0.000000 0.000000 0.081152 0.000000 0.031546
# 5 0.004769 -0.001895 0.000929 0.000000 0.030473 0.000000
# 6 0.000000 0.000000 0.000000 0.031546 0.000000 0.130764
#
#
# Mechanical properties :
#
#
# Convention : Reuss Voigt Hill
#
# Bulk Modulus (GPa) = 25.30252 29.55186 27.42719
# Shear Modulus (GPa) = 16.44057 26.76910 21.60483
#
# Velocity S-wave (km/s) = 2.95765 3.77403 3.39050
# Velocity P-wave (km/s) = 5.01264 5.89194 5.46999
#
# Compressibility (1/GPa) = 0.03952176
#
# Stress axis : x y z
#
# Youngs Moduli (GPa) = 74.23235 101.59733 48.24307
#
# Poissons Ratio (x) = 0.06471 -0.09942
# Poissons Ratio (y) = 0.04728 0.17774
# Poissons Ratio (z) = -0.15298 0.37430
#
# Static dielectric constant tensor:
#      x y z
#    x 1.475840 0.000000 0.024270 
#    y 0.000000 1.652930 0.000000 
#    z 0.024270 0.000000 1.651890 
# 
# From -- ./inp_files/185042.got.cif
#   From: 2010.05.17/outbox.cif.g08.bks.cpg/sg12_93_cif.got.tgz:185042.got - 2010.06.03 13:09:07.
