data_PCOD9188623
_publ_section_title
;
Structure prediction by ZEFSAII (Michael W. Deem and Ramdas Pophale) SiO2 
 PCOD9188623
Probable space group: C 2/M
;
_chemical_formula_sum "Si O2"
_cell_formula_units_Z 64
_cell_length_a 12.292071
_cell_length_b 17.427603
_cell_length_c 19.349523
_cell_angle_alpha 90.000000
_cell_angle_beta 51.338953
_cell_angle_gamma 90.000000
_cell_volume 3236.708183
_symmetry_space_group_name_H-M "C 2/M"
_symmetry_group_IT_number 12
_symmetry_cell_setting 'monoclinic'
loop_
_space_group_symop_operation_xyz
x,y,z
-x,y,-z
-x,-y,-z
x,-y,z
1/2+x,1/2+y,z
1/2-x,1/2+y,-z
1/2-x,1/2-y,-z
1/2+x,1/2-y,z
loop_
_atom_site_type_symbol
_atom_site_label
_atom_site_fract_x
_atom_site_fract_y
_atom_site_fract_z
Si Si1 0.690607 0.415107 0.300046
Si Si2 0.185151 0.847619 0.672574
Si Si3 0.104117 0.910471 0.175991
Si Si4 0.354204 0.704659 0.573588
Si Si5 0.116922 0.406113 0.009796
Si Si6 0.520286 0.089788 0.196276
Si Si7 0.247513 0.588780 0.501192
Si Si8 0.066454 0.592190 0.332264
O O1 0.639680 0.500000 0.341804
O O2 0.669177 0.409127 0.227078
O O3 0.621793 0.345822 0.367676
O O4 0.853533 0.409883 0.254162
O O5 0.226504 0.762000 0.634101
O O6 0.195910 0.897486 0.598178
O O7 0.306315 0.872847 0.676617
O O8 0.035327 0.860618 0.766062
O O9 0.228091 0.885474 0.076266
O O10 0.067651 0.000000 0.175654
O O11 0.500000 0.746204 0.500000
O O12 0.318580 0.645314 0.527188
O O13 0.110788 0.500000 0.012807
O O14 0.082922 0.377660 0.100470
O O15 0.000000 0.382028 0.000000
O O16 0.559160 0.121773 0.255984
O O17 0.562291 0.000000 0.181355
O O18 0.267138 0.500000 0.513477
O O19 0.082177 0.605600 0.571997
O O20 0.083700 0.500000 0.323928
#
# Coordination Sequence:
#
# PCOD9188623 Si02
#       8
#     8   8   8   8   8   8   8   8
#     4  10  19  36  60  88 116 144 189 250 309 349
#     4  12  25  39  53  80 124 168 201 229 280 355
#     4  10  20  35  60  92 121 150 191 248 304 350
#     4  12  25  39  57  85 119 157 198 244 296 350
#     4   9  15  28  57  94 124 144 182 250 313 353
#     4   9  16  31  57  89 116 144 189 245 298 346
#     4  11  22  39  63  87 113 148 198 256 300 344
#     4  10  20  36  58  82 114 161 205 235 277 348
#
# _framework density 19.773177
#
# number of rings (size 3 to 8) (size 9 to 14) (size 15 to 20)
#    0.000    1.625    2.500    3.750    0.000    4.000 
#    0.000    0.625    0.000    3.750    3.250    0.000 
#    0.000    0.000    0.000    0.000    0.000    0.000 
#
# Total GULP energy -178745.626498 kJ/mol
# GULP energy per Si atom -5585.800828 kJ/mol
# Density = 1.972817 g / cm^3
# Si number density = 19.773177 Si / 1000 Ang^3
#
#
#
# Elastic Constant Matrix: (Units=GPa)
#
#
# Indices 1 2 3 4 5 6 
#
# 1 25.0962 9.1588 7.8637 0.0000 0.0664 0.0000
# 2 9.1588 48.3665 18.4560 0.0000 -9.0760 0.0000
# 3 7.8637 18.4560 108.9980 0.0000 -11.7660 0.0000
# 4 0.0000 0.0000 0.0000 15.3898 0.0000 -5.6871
# 5 0.0664 -9.0760 -11.7660 0.0000 25.0336 0.0000
# 6 0.0000 0.0000 0.0000 -5.6871 0.0000 6.4668
#
#
#
# Elastic Compliance Matrix: (Units=1/GPa)
#
#
# Indices 1 2 3 4 5 6 
#
# 1 0.043531 -0.008175 -0.002200 0.000000 -0.004114 0.000000
# 2 -0.008175 0.024721 -0.002767 0.000000 0.007684 0.000000
# 3 -0.002200 -0.002767 0.010212 0.000000 0.003803 0.000000
# 4 0.000000 0.000000 0.000000 0.096261 0.000000 0.084654
# 5 -0.004114 0.007684 0.003803 0.000000 0.044530 0.000000
# 6 0.000000 0.000000 0.000000 0.084654 0.000000 0.229083
#
#
# Mechanical properties :
#
#
# Convention : Reuss Voigt Hill
#
# Bulk Modulus (GPa) = 19.16466 28.15751 23.66109
# Shear Modulus (GPa) = 10.16228 19.17686 14.66957
#
# Velocity S-wave (km/s) = 2.26949 3.11761 2.72673
# Velocity P-wave (km/s) = 4.07195 5.21828 4.68034
#
# Compressibility (1/GPa) = 0.05217938
#
# Stress axis : x y z
#
# Youngs Moduli (GPa) = 22.97239 40.45107 97.92256
#
# Poissons Ratio (x) = 0.33070 0.21546
# Poissons Ratio (y) = 0.18781 0.27091
# Poissons Ratio (z) = 0.05055 0.11191
#
# Static dielectric constant tensor:
#      x y z
#    x 1.678580 0.000000 0.000140 
#    y 0.000000 1.721990 0.000000 
#    z 0.000140 0.000000 1.708330 
# 
# From -- ./inp_files/306183.got.cif
#   From: 2010.05.17/outbox.cif.g08.bks.cpg/sg12_154_cif.got.tgz:306183.got - 2010.06.03 13:09:07.
