data_PCOD9188883
_publ_section_title
;
Structure prediction by ZEFSAII (Michael W. Deem and Ramdas Pophale) SiO2 
 PCOD9188883
Probable space group: C 2/M
;
_chemical_formula_sum "Si O2"
_cell_formula_units_Z 44
_cell_length_a 12.617953
_cell_length_b 20.092557
_cell_length_c 13.446918
_cell_angle_alpha 90.000000
_cell_angle_beta 138.930248
_cell_angle_gamma 90.000000
_cell_volume 2239.738179
_symmetry_space_group_name_H-M "C 2/M"
_symmetry_group_IT_number 12
_symmetry_cell_setting 'monoclinic'
loop_
_space_group_symop_operation_xyz
x,y,z
-x,y,-z
-x,-y,-z
x,-y,z
1/2+x,1/2+y,z
1/2-x,1/2+y,-z
1/2-x,1/2-y,-z
1/2+x,1/2-y,z
loop_
_atom_site_type_symbol
_atom_site_label
_atom_site_fract_x
_atom_site_fract_y
_atom_site_fract_z
Si Si1 0.404026 0.922894 0.112412
Si Si2 0.000000 0.122898 0.500000
Si Si3 0.400956 0.424767 0.222502
Si Si4 0.310219 0.423046 0.839709
Si Si5 0.681100 0.667932 0.336196
Si Si6 0.174871 0.319277 0.351113
O O1 0.295777 0.915887 0.135787
O O2 0.551844 0.873167 0.222582
O O3 0.456734 0.000000 0.142734
O O4 0.281279 0.907868 0.935892
O O5 0.066220 0.079893 0.637770
O O6 0.146714 0.167143 0.564280
O O7 0.429149 0.500000 0.205508
O O8 0.527667 0.375466 0.261868
O O9 0.290999 0.500000 0.791261
O O10 0.260176 0.369447 0.721152
O O11 0.500000 0.413619 0.000000
O O12 0.808221 0.670777 0.517492
O O13 0.629001 0.744539 0.288560
#
# Coordination Sequence:
#
# PCOD9188883 Si02
#       6
#     8   4   8   8   8   8
#     4  10  22  39  61  91 124 150 195 256 301 356
#     4  10  23  42  60  80 115 164 208 248 291 350
#     4  10  20  38  62  87 117 157 198 245 298 356
#     4  10  19  36  62  92 119 152 193 242 304 361
#     4  10  21  39  62  86 120 163 193 244 294 367
#     4  10  24  41  58  87 121 160 203 247 294 349
#
# _framework density 19.645153000000001
#
# number of rings (size 3 to 8) (size 9 to 14) (size 15 to 20)
#    0.000    2.000    1.818    0.818    0.000   10.909 
#    3.273    3.636    0.000    0.000    0.000    0.000 
#    0.000    0.000    0.000    0.000    0.000    0.000 
#
# Total GULP energy -122853.404625 kJ/mol
# GULP energy per Si atom -5584.245665 kJ/mol
# Density = 1.960044 g / cm^3
# Si number density = 19.645153 Si / 1000 Ang^3
#
#
#
# Elastic Constant Matrix: (Units=GPa)
#
#
# Indices 1 2 3 4 5 6 
#
# 1 46.4488 19.9976 35.2204 0.0000 -6.5921 0.0000
# 2 19.9976 113.8374 70.9391 0.0000 -0.3573 0.0000
# 3 35.2204 70.9391 105.1255 0.0000 -7.7541 0.0000
# 4 0.0000 0.0000 0.0000 83.7199 0.0000 -21.6455
# 5 -6.5921 -0.3573 -7.7541 0.0000 24.7219 0.0000
# 6 0.0000 0.0000 0.0000 -21.6455 0.0000 13.2032
#
#
#
# Elastic Compliance Matrix: (Units=1/GPa)
#
#
# Indices 1 2 3 4 5 6 
#
# 1 0.029539 0.001347 -0.010465 0.000000 0.004614 0.000000
# 2 0.001347 0.015450 -0.011091 0.000000 -0.002896 0.000000
# 3 -0.010465 -0.011091 0.020765 0.000000 0.003562 0.000000
# 4 0.000000 0.000000 0.000000 0.020732 0.000000 0.033989
# 5 0.004614 -0.002896 0.003562 0.000000 0.042756 0.000000
# 6 0.000000 0.000000 0.000000 0.033989 0.000000 0.131461
#
#
# Mechanical properties :
#
#
# Convention : Reuss Voigt Hill
#
# Bulk Modulus (GPa) = 39.46817 57.52510 48.49663
# Shear Modulus (GPa) = 16.15157 33.61264 24.88211
#
# Velocity S-wave (km/s) = 2.87045 4.14090 3.56276
# Velocity P-wave (km/s) = 5.57854 7.22554 6.45479
#
# Compressibility (1/GPa) = 0.02533688
#
# Stress axis : x y z
#
# Youngs Moduli (GPa) = 33.85312 64.72496 48.15717
#
# Poissons Ratio (x) = -0.08718 0.50397
# Poissons Ratio (y) = -0.04560 0.53409
# Poissons Ratio (z) = 0.35428 0.71784
#
# Static dielectric constant tensor:
#      x y z
#    x 1.712630 0.000000 -0.033610 
#    y 0.000000 1.674650 0.000000 
#    z -0.033610 0.000000 1.683800 
# 
# From -- ./inp_files/217785.got.cif
#   From: 2010.05.17/outbox.cif.g08.bks.cpg/sg12_109_cif.got.tgz:217785.got - 2010.06.03 13:09:07.
