data_PCOD9188209
_publ_section_title
;
Structure prediction by ZEFSAII (Michael W. Deem and Ramdas Pophale) SiO2 
 PCOD9188209
Probable space group: C 2/M
;
_chemical_formula_sum "Si O2"
_cell_formula_units_Z 52
_cell_length_a 9.640471
_cell_length_b 29.376173
_cell_length_c 12.376461
_cell_angle_alpha 90.000000
_cell_angle_beta 56.021662
_cell_angle_gamma 90.000000
_cell_volume 2906.530380
_symmetry_space_group_name_H-M "C 2/M"
_symmetry_group_IT_number 12
_symmetry_cell_setting 'monoclinic'
loop_
_space_group_symop_operation_xyz
x,y,z
-x,y,-z
-x,-y,-z
x,-y,z
1/2+x,1/2+y,z
1/2-x,1/2+y,-z
1/2-x,1/2-y,-z
1/2+x,1/2-y,z
loop_
_atom_site_type_symbol
_atom_site_label
_atom_site_fract_x
_atom_site_fract_y
_atom_site_fract_z
Si Si1 0.555541 0.445595 0.096940
Si Si2 0.741834 0.054677 0.377755
Si Si3 0.393390 0.212168 0.937228
Si Si4 0.500000 0.734634 0.500000
Si Si5 0.889401 0.391834 0.941827
Si Si6 0.366907 0.201772 0.364193
Si Si7 0.450736 0.096719 0.355926
O O1 0.569215 0.500000 0.090810
O O2 0.421345 0.433699 0.248062
O O3 0.500000 0.431719 0.000000
O O4 0.733059 0.423110 0.034971
O O5 0.609359 0.080543 0.358161
O O6 0.700727 0.070128 0.518133
O O7 0.717498 0.000000 0.379448
O O8 0.329293 0.160268 0.948574
O O9 0.524443 0.218143 0.784093
O O10 0.500000 0.214649 0.000000
O O11 0.250000 0.250000 0.000000
O O12 0.563357 0.766922 0.569495
O O13 0.671510 0.705670 0.413750
O O14 0.994517 0.409905 0.792649
O O15 0.000000 0.390249 0.000000
O O16 0.408055 0.150077 0.379389
#
# Coordination Sequence:
#
# PCOD9188209 Si02
#       7
#     8   8   8   4   8   8   8
#     4  10  20  37  59  88 115 146 195 241 287 349
#     4  10  20  36  62  89 115 148 194 248 290 336
#     4  10  21  39  57  84 115 150 196 239 283 339
#     4  10  20  38  56  80 114 152 188 232 284 338
#     4  10  22  39  57  84 121 157 189 236 296 354
#     4  10  21  37  58  83 115 150 193 235 286 341
#     4  10  19  36  57  86 115 147 196 236 287 346
#
# _framework density 17.890747000000001
#
# number of rings (size 3 to 8) (size 9 to 14) (size 15 to 20)
#    0.000    2.000    1.538    2.769    0.000    1.538 
#   16.615    0.000    0.000    1.846    0.000    0.000 
#    0.000    0.000    0.000    0.000    0.000    0.000 
#
# Total GULP energy -144786.963773 kJ/mol
# GULP energy per Si atom -5568.729376 kJ/mol
# Density = 1.785003 g / cm^3
# Si number density = 17.890747 Si / 1000 Ang^3
#
#
#
# Elastic Constant Matrix: (Units=GPa)
#
#
# Indices 1 2 3 4 5 6 
#
# 1 67.1748 37.4338 45.7683 0.0000 -7.6132 0.0000
# 2 37.4338 52.3394 57.3962 0.0000 -10.1722 0.0000
# 3 45.7683 57.3962 157.9830 0.0000 -12.7840 0.0000
# 4 0.0000 0.0000 0.0000 22.9863 0.0000 -0.4195
# 5 -7.6132 -10.1722 -12.7840 0.0000 28.3725 0.0000
# 6 0.0000 0.0000 0.0000 -0.4195 0.0000 31.9661
#
#
#
# Elastic Compliance Matrix: (Units=1/GPa)
#
#
# Indices 1 2 3 4 5 6 
#
# 1 0.024897 -0.016409 -0.001232 0.000000 0.000243 0.000000
# 2 -0.016409 0.043742 -0.010612 0.000000 0.006498 0.000000
# 3 -0.001232 -0.010612 0.010594 0.000000 0.000638 0.000000
# 4 0.000000 0.000000 0.000000 0.043515 0.000000 0.000571
# 5 0.000243 0.006498 0.000638 0.000000 0.037928 0.000000
# 6 0.000000 0.000000 0.000000 0.000571 0.000000 0.031291
#
#
# Mechanical properties :
#
#
# Convention : Reuss Voigt Hill
#
# Bulk Modulus (GPa) = 43.99953 62.07708 53.03831
# Shear Modulus (GPa) = 19.52758 25.79159 22.65958
#
# Velocity S-wave (km/s) = 3.30735 3.80098 3.56273
# Velocity P-wave (km/s) = 6.26352 7.35095 6.82891
#
# Compressibility (1/GPa) = 0.02272751
#
# Stress axis : x y z
#
# Youngs Moduli (GPa) = 40.16507 22.86109 94.39490
#
# Poissons Ratio (x) = 0.37513 0.11627
# Poissons Ratio (y) = 0.65906 1.00175
# Poissons Ratio (z) = 0.04947 0.24261
#
# Static dielectric constant tensor:
#      x y z
#    x 1.555660 0.000000 -0.017890 
#    y 0.000000 1.612270 0.000000 
#    z -0.017890 0.000000 1.637210 
# 
# From -- ./inp_files/125122.got.cif
#   From: 2010.05.17/outbox.cif.g08.bks.cpg/sg12_63_cif.got.tgz:125122.got - 2010.06.03 13:09:07.
