data_PCOD9188530
_publ_section_title
;
Structure prediction by ZEFSAII (Michael W. Deem and Ramdas Pophale) SiO2 
 PCOD9188530
Probable space group: C 2/M
;
_chemical_formula_sum "Si O2"
_cell_formula_units_Z 56
_cell_length_a 14.945895
_cell_length_b 8.562870
_cell_length_c 24.573557
_cell_angle_alpha 90.000000
_cell_angle_beta 99.276597
_cell_angle_gamma 90.000000
_cell_volume 3103.787468
_symmetry_space_group_name_H-M "C 2/M"
_symmetry_group_IT_number 12
_symmetry_cell_setting 'monoclinic'
loop_
_space_group_symop_operation_xyz
x,y,z
-x,y,-z
-x,-y,-z
x,-y,z
1/2+x,1/2+y,z
1/2-x,1/2+y,-z
1/2-x,1/2-y,-z
1/2+x,1/2-y,z
loop_
_atom_site_type_symbol
_atom_site_label
_atom_site_fract_x
_atom_site_fract_y
_atom_site_fract_z
Si Si1 0.139641 0.810377 0.147957
Si Si2 0.004564 0.687499 0.436528
Si Si3 0.932930 0.187644 0.147492
Si Si4 0.289781 0.187356 0.560326
Si Si5 0.186103 0.686712 0.767378
Si Si6 0.663070 0.685719 0.644822
Si Si7 0.732928 0.187506 0.938212
O O1 0.214659 0.763023 0.200295
O O2 0.186026 0.763807 0.095221
O O3 0.036608 0.756859 0.148023
O O4 0.136373 0.000000 0.148159
O O5 0.989457 0.500000 0.431319
O O6 0.104863 0.725348 0.426391
O O7 0.000000 0.729171 0.500000
O O8 0.931494 0.774723 0.393256
O O9 0.890560 0.241132 0.200880
O O10 0.861650 0.251424 0.096044
O O11 0.932599 0.000000 0.145153
O O12 0.250000 0.250000 0.500000
O O13 0.236622 0.244198 0.608034
O O14 0.280878 0.000000 0.557608
O O15 0.181100 0.500000 0.772498
O O16 0.172733 0.735413 0.704098
O O17 0.672971 0.500000 0.652650
O O18 0.730432 0.000000 0.938216
O O19 0.750000 0.250000 0.000000
#
# Coordination Sequence:
#
# PCOD9188530 Si02
#       7
#     8   8   8   8   8   8   8
#     4   8  18  36  58  80 109 148 187 225 275 331
#     4  10  20  36  57  79 106 140 175 213 268 330
#     4  10  19  36  60  84 110 145 188 234 279 324
#     4  10  21  36  55  79 107 138 175 217 266 323
#     4  10  21  39  58  79 109 145 183 226 277 333
#     4  11  23  37  55  82 111 140 180 228 273 324
#     4  10  20  36  55  83 119 155 192 229 274 325
#
# _framework density 18.042472
#
# number of rings (size 3 to 8) (size 9 to 14) (size 15 to 20)
#    0.000    2.143    1.429    2.571    0.000    3.143 
#    0.000   14.286    0.000    0.000    0.000    0.000 
#    0.000    0.000    0.000    0.000    0.000    0.000 
#
# Total GULP energy -156252.029106 kJ/mol
# GULP energy per Si atom -5580.429611 kJ/mol
# Density = 1.800141 g / cm^3
# Si number density = 18.042472 Si / 1000 Ang^3
#
#
#
# Elastic Constant Matrix: (Units=GPa)
#
#
# Indices 1 2 3 4 5 6 
#
# 1 165.6784 34.1479 81.4187 0.0000 -2.4424 0.0000
# 2 34.1479 37.9217 28.6539 0.0000 -1.2108 0.0000
# 3 81.4187 28.6539 152.9134 0.0000 -11.2253 0.0000
# 4 0.0000 0.0000 0.0000 31.4212 0.0000 1.6813
# 5 -2.4424 -1.2108 -11.2253 0.0000 13.5099 0.0000
# 6 0.0000 0.0000 0.0000 1.6813 0.0000 24.6820
#
#
#
# Elastic Compliance Matrix: (Units=1/GPa)
#
#
# Indices 1 2 3 4 5 6 
#
# 1 0.009038 -0.005186 -0.003999 0.000000 -0.002153 0.000000
# 2 -0.005186 0.033755 -0.003632 0.000000 -0.000930 0.000000
# 3 -0.003999 -0.003632 0.009875 0.000000 0.007156 0.000000
# 4 0.000000 0.000000 0.000000 0.031942 0.000000 -0.002176
# 5 -0.002153 -0.000930 0.007156 0.000000 0.079493 0.000000
# 6 0.000000 0.000000 0.000000 -0.002176 0.000000 0.040664
#
#
# Mechanical properties :
#
#
# Convention : Reuss Voigt Hill
#
# Bulk Modulus (GPa) = 36.99047 71.66160 54.32603
# Shear Modulus (GPa) = 20.88458 28.07547 24.48003
#
# Velocity S-wave (km/s) = 3.40593 3.94899 3.68747
# Velocity P-wave (km/s) = 6.00113 7.78442 6.95021
#
# Compressibility (1/GPa) = 0.02703399
#
# Stress axis : x y z
#
# Youngs Moduli (GPa) = 110.64519 29.62536 101.26964
#
# Poissons Ratio (x) = 0.15364 0.40493
# Poissons Ratio (y) = 0.57380 0.36783
# Poissons Ratio (z) = 0.44242 0.10761
#
# Static dielectric constant tensor:
#      x y z
#    x 1.623830 0.000000 -0.013510 
#    y 0.000000 1.621740 0.000000 
#    z -0.013510 0.000000 1.586000 
# 
# From -- ./inp_files/338169.got.cif
#   From: 2010.05.17/outbox.cif.g08.bks.cpg/sg12_170_cif.got.tgz:338169.got - 2010.06.03 13:09:07.
