data_PCOD9188525
_publ_section_title
;
Structure prediction by ZEFSAII (Michael W. Deem and Ramdas Pophale) SiO2 
 PCOD9188525
Probable space group: C 2/M
;
_chemical_formula_sum "Si O2"
_cell_formula_units_Z 44
_cell_length_a 23.301715
_cell_length_b 18.917782
_cell_length_c 14.032981
_cell_angle_alpha 90.000000
_cell_angle_beta 22.373671
_cell_angle_gamma 90.000000
_cell_volume 2354.662779
_symmetry_space_group_name_H-M "C 2/M"
_symmetry_group_IT_number 12
_symmetry_cell_setting 'monoclinic'
loop_
_space_group_symop_operation_xyz
x,y,z
-x,y,-z
-x,-y,-z
x,-y,z
1/2+x,1/2+y,z
1/2-x,1/2+y,-z
1/2-x,1/2-y,-z
1/2+x,1/2-y,z
loop_
_atom_site_type_symbol
_atom_site_label
_atom_site_fract_x
_atom_site_fract_y
_atom_site_fract_z
Si Si1 0.737407 0.346406 0.828099
Si Si2 0.338900 0.833002 0.278319
Si Si3 0.543040 0.652340 0.616998
Si Si4 0.679929 0.000000 0.226767
Si Si5 0.664372 0.332276 0.727571
Si Si6 0.000000 0.750173 0.500000
Si Si7 0.049212 0.000000 0.315064
O O1 0.769130 0.428609 0.799140
O O2 0.750078 0.332202 0.696583
O O3 0.855363 0.299987 0.707195
O O4 0.569617 0.329332 0.123207
O O5 0.364665 0.749329 0.256777
O O6 0.263045 0.863963 0.490498
O O7 0.214200 0.838021 0.387168
O O8 0.500000 0.863503 0.000000
O O9 0.497625 0.700256 0.596732
O O10 0.515438 0.571032 0.632209
O O11 0.500000 0.000000 0.500000
O O12 0.771603 0.000000 0.985417
O O13 0.500000 0.365790 0.000000
O O14 0.000000 0.000000 0.500000
#
# Coordination Sequence:
#
# PCOD9188525 Si02
#       7
#     8   8   8   4   8   4   4
#     4  11  22  39  61  91 120 157 198 251 298 359
#     4  10  21  36  58  88 117 155 196 248 297 348
#     4  11  22  40  60  89 122 156 202 246 300 360
#     4  10  22  42  60  85 126 158 198 242 300 358
#     4  10  19  36  60  83 119 155 195 247 302 348
#     4  12  22  34  62  92 124 150 200 254 298 348
#     4  10  22  42  62  82 122 168 196 235 304 361
#
# _framework density 18.686329000000001
#
# number of rings (size 3 to 8) (size 9 to 14) (size 15 to 20)
#    0.000    1.455    5.455    0.545    0.000    0.000 
#    6.545    1.818    0.000    0.000    0.000    0.000 
#    0.000    0.000    0.000    0.000    0.000    0.000 
#
# Total GULP energy -122697.609726 kJ/mol
# GULP energy per Si atom -5577.164078 kJ/mol
# Density = 1.864380 g / cm^3
# Si number density = 18.686329 Si / 1000 Ang^3
#
#
#
# Elastic Constant Matrix: (Units=GPa)
#
#
# Indices 1 2 3 4 5 6 
#
# 1 112.8579 14.0561 55.8790 0.0006 9.1128 0.0003
# 2 14.0561 72.7007 18.4652 0.0021 1.0663 0.0011
# 3 55.8790 18.4652 153.7443 0.0022 0.1379 0.0014
# 4 0.0006 0.0021 0.0022 3.3012 -0.0008 -1.8579
# 5 9.1128 1.0663 0.1379 -0.0008 39.0674 -0.0007
# 6 0.0003 0.0011 0.0014 -1.8579 -0.0007 11.3135
#
#
#
# Elastic Compliance Matrix: (Units=1/GPa)
#
#
# Indices 1 2 3 4 5 6 
#
# 1 0.011144 -0.001123 -0.003913 0.000001 -0.002555 0.000000
# 2 -0.001123 0.014307 -0.001310 -0.000010 -0.000124 -0.000003
# 3 -0.003913 -0.001310 0.008083 -0.000004 0.000920 -0.000001
# 4 0.000001 -0.000010 -0.000004 0.333769 0.000008 0.054811
# 5 -0.002555 -0.000124 0.000920 0.000008 0.026193 0.000003
# 6 0.000000 -0.000003 -0.000001 0.054811 0.000003 0.097391
#
#
# Mechanical properties :
#
#
# Convention : Reuss Voigt Hill
#
# Bulk Modulus (GPa) = 47.98161 57.34483 52.66322
# Shear Modulus (GPa) = 9.79378 27.46325 18.62851
#
# Velocity S-wave (km/s) = 2.29184 3.83782 3.16081
# Velocity P-wave (km/s) = 5.72158 7.09882 6.44708
#
# Compressibility (1/GPa) = 0.02084132
#
# Stress axis : x y z
#
# Youngs Moduli (GPa) = 89.73036 69.89722 123.71471
#
# Poissons Ratio (x) = 0.07851 0.48413
# Poissons Ratio (y) = 0.10079 0.16206
# Poissons Ratio (z) = 0.35114 0.09156
#
# Static dielectric constant tensor:
#      x y z
#    x 1.637560 0.000000 0.020250 
#    y 0.000000 1.619910 0.000000 
#    z 0.020250 0.000000 1.696410 
# 
# From -- ./inp_files/120787.got.cif
#   From: 2010.05.17/outbox.cif.g08.bks.cpg/sg12_61_cif.got.tgz:120787.got - 2010.06.03 13:09:07.
