data_PCOD9188264
_publ_section_title
;
Structure prediction by ZEFSAII (Michael W. Deem and Ramdas Pophale) SiO2 
 PCOD9188264
Probable space group: C 2/M
;
_chemical_formula_sum "Si O2"
_cell_formula_units_Z 52
_cell_length_a 18.141204
_cell_length_b 19.098787
_cell_length_c 11.556986
_cell_angle_alpha 90.000000
_cell_angle_beta 45.032696
_cell_angle_gamma 90.000000
_cell_volume 2833.016942
_symmetry_space_group_name_H-M "C 2/M"
_symmetry_group_IT_number 12
_symmetry_cell_setting 'monoclinic'
loop_
_space_group_symop_operation_xyz
x,y,z
-x,y,-z
-x,-y,-z
x,-y,z
1/2+x,1/2+y,z
1/2-x,1/2+y,-z
1/2-x,1/2-y,-z
1/2+x,1/2-y,z
loop_
_atom_site_type_symbol
_atom_site_label
_atom_site_fract_x
_atom_site_fract_y
_atom_site_fract_z
Si Si1 0.315398 0.651026 0.366365
Si Si2 0.996923 0.745170 0.182957
Si Si3 0.174448 0.655479 0.742198
Si Si4 0.771438 0.500000 0.569145
Si Si5 0.777924 0.227531 0.165454
Si Si6 0.575292 0.153884 0.303899
Si Si7 0.111367 0.500000 0.316093
Si Si8 0.106845 0.500000 0.803842
O O1 0.424679 0.686457 0.279020
O O2 0.236968 0.669981 0.555631
O O3 0.299452 0.568054 0.372797
O O4 0.284132 0.683320 0.277519
O O5 0.012596 0.692035 0.272032
O O6 0.932471 0.697160 0.163837
O O7 0.110166 0.772849 0.020131
O O8 0.233716 0.692225 0.781477
O O9 0.158188 0.573833 0.779490
O O10 0.811698 0.500000 0.657552
O O11 0.868899 0.500000 0.366159
O O12 0.680177 0.198285 0.205900
O O13 0.500000 0.154961 0.500000
O O14 0.611945 0.073158 0.245672
O O15 0.000000 0.500000 0.500000
O O16 0.000000 0.500000 0.000000
#
# Coordination Sequence:
#
# PCOD9188264 Si02
#       8
#     8   8   8   4   8   8   4   4
#     4  10  19  36  58  81 113 148 194 232 282 347
#     4  11  22  34  54  84 110 151 185 239 287 329
#     4  10  20  34  55  80 110 149 190 229 285 342
#     4  10  20  36  60  85 115 151 193 237 283 344
#     4  11  20  36  54  80 114 143 190 238 285 342
#     4  11  22  37  58  81 112 148 191 230 290 347
#     4  10  22  36  57  87 111 148 191 234 285 345
#     4  10  20  32  52  83 115 142 180 231 285 331
#
# _framework density 18.354990999999998
#
# number of rings (size 3 to 8) (size 9 to 14) (size 15 to 20)
#    0.000    1.538    1.538    6.923    6.462    0.000 
#    0.000    2.308    0.000    0.923    0.000    4.308 
#    0.000    0.000    0.000    0.000    0.000    0.000 
#
# Total GULP energy -144812.565649 kJ/mol
# GULP energy per Si atom -5569.714063 kJ/mol
# Density = 1.831321 g / cm^3
# Si number density = 18.354991 Si / 1000 Ang^3
#
#
#
# Elastic Constant Matrix: (Units=GPa)
#
#
# Indices 1 2 3 4 5 6 
#
# 1 63.5660 40.7263 0.9981 0.0000 -10.4730 0.0000
# 2 40.7263 140.9306 33.4201 0.0000 -12.0701 0.0000
# 3 0.9981 33.4201 80.9193 0.0000 -5.7965 0.0000
# 4 0.0000 0.0000 0.0000 74.1504 0.0000 23.6614
# 5 -10.4730 -12.0701 -5.7965 0.0000 18.9120 0.0000
# 6 0.0000 0.0000 0.0000 23.6614 0.0000 36.9479
#
#
#
# Elastic Compliance Matrix: (Units=1/GPa)
#
#
# Indices 1 2 3 4 5 6 
#
# 1 0.020946 -0.005984 0.002833 0.000000 0.008648 0.000000
# 2 -0.005984 0.009902 -0.003886 0.000000 0.001815 0.000000
# 3 0.002833 -0.003886 0.014174 0.000000 0.003433 0.000000
# 4 0.000000 0.000000 0.000000 0.016950 0.000000 -0.010855
# 5 0.008648 0.001815 0.003433 0.000000 0.059876 0.000000
# 6 0.000000 0.000000 0.000000 -0.010855 0.000000 0.034016
#
#
# Mechanical properties :
#
#
# Convention : Reuss Voigt Hill
#
# Bulk Modulus (GPa) = 32.31295 48.41165 40.36230
# Shear Modulus (GPa) = 27.73858 40.02014 33.87936
#
# Velocity S-wave (km/s) = 3.89167 4.67448 4.30092
# Velocity P-wave (km/s) = 6.15111 7.45431 6.83385
#
# Compressibility (1/GPa) = 0.03094735
#
# Stress axis : x y z
#
# Youngs Moduli (GPa) = 47.74180 100.99135 70.55284
#
# Poissons Ratio (x) = 0.60433 -0.19985
# Poissons Ratio (y) = 0.28569 0.27415
# Poissons Ratio (z) = -0.13523 0.39242
#
# Static dielectric constant tensor:
#      x y z
#    x 1.672050 0.000000 0.029930 
#    y 0.000000 1.667250 0.000000 
#    z 0.029930 0.000000 1.665670 
# 
# From -- ./inp_files/159507.got.cif
#   From: 2010.05.17/outbox.cif.g08.bks.cpg/sg12_80_cif.got.tgz:159507.got - 2010.06.03 13:09:07.
