data_PCOD9188816
_publ_section_title
;
Structure prediction by ZEFSAII (Michael W. Deem and Ramdas Pophale) SiO2 
 PCOD9188816
Probable space group: C 2/M
;
_chemical_formula_sum "Si O2"
_cell_formula_units_Z 60
_cell_length_a 20.937393
_cell_length_b 7.422084
_cell_length_c 17.972696
_cell_angle_alpha 90.000000
_cell_angle_beta 71.644942
_cell_angle_gamma 90.000000
_cell_volume 2650.845024
_symmetry_space_group_name_H-M "C 2/M"
_symmetry_group_IT_number 12
_symmetry_cell_setting 'monoclinic'
loop_
_space_group_symop_operation_xyz
x,y,z
-x,y,-z
-x,-y,-z
x,-y,z
1/2+x,1/2+y,z
1/2-x,1/2+y,-z
1/2-x,1/2-y,-z
1/2+x,1/2-y,z
loop_
_atom_site_type_symbol
_atom_site_label
_atom_site_fract_x
_atom_site_fract_y
_atom_site_fract_z
Si Si1 0.310359 0.284515 0.768947
Si Si2 0.285584 0.786258 0.064919
Si Si3 0.006570 0.500000 0.854454
Si Si4 0.322375 0.284418 0.439716
Si Si5 0.460083 0.718628 0.443152
Si Si6 0.187829 0.212625 0.721470
Si Si7 0.909700 0.208364 0.108497
Si Si8 0.535341 0.280565 0.261308
O O1 0.311043 0.500000 0.773690
O O2 0.265132 0.213080 0.853569
O O3 0.265998 0.239815 0.713149
O O4 0.387272 0.230603 0.747997
O O5 0.360485 0.716619 0.054730
O O6 0.290759 0.000000 0.071290
O O7 0.250000 0.750000 0.000000
O O8 0.028890 0.341837 0.906537
O O9 0.988850 0.660042 0.798482
O O10 0.329658 0.500000 0.431309
O O11 0.250000 0.250000 0.500000
O O12 0.383229 0.218638 0.468046
O O13 0.328057 0.212021 0.353588
O O14 0.500000 0.786574 0.500000
O O15 0.460514 0.500000 0.448302
O O16 0.493092 0.759043 0.351362
O O17 0.139832 0.279493 0.805538
O O18 0.175527 0.000000 0.724881
O O19 0.927864 0.000000 0.113374
O O20 0.530923 0.500000 0.249066
#
# Coordination Sequence:
#
# PCOD9188816 Si02
#       8
#     8   8   4   8   8   8   8   8
#     4   9  20  36  59  88 119 156 202 248 302 361
#     4  10  19  36  61  98 131 160 198 247 306 368
#     4  12  22  36  61  89 122 156 212 250 293 379
#     4  10  21  36  52  81 111 148 195 250 312 367
#     4   9  19  38  61  79 112 160 208 252 315 383
#     4   9  19  34  56  79 115 151 194 253 310 361
#     4  10  20  37  60  90 121 158 199 252 303 353
#     4  10  22  40  60  86 119 163 207 260 310 357
#
# _framework density 22.634293
#
# number of rings (size 3 to 8) (size 9 to 14) (size 15 to 20)
#    0.000    2.267    0.667    1.600    3.733    3.200 
#    3.600    0.333    0.000    1.600    0.000    3.733 
#    0.000    0.000    0.000    0.000    0.000    0.000 
#
# Total GULP energy -167045.133867 kJ/mol
# GULP energy per Si atom -5568.171129 kJ/mol
# Density = 2.258278 g / cm^3
# Si number density = 22.634293 Si / 1000 Ang^3
#
#
#
# Elastic Constant Matrix: (Units=GPa)
#
#
# Indices 1 2 3 4 5 6 
#
# 1 119.1034 14.3613 51.0736 0.0000 34.1547 0.0000
# 2 14.3613 123.1360 6.0086 0.0000 10.8999 0.0000
# 3 51.0736 6.0086 57.4829 0.0000 33.4338 0.0000
# 4 0.0000 0.0000 0.0000 24.6205 0.0000 18.8915
# 5 34.1547 10.8999 33.4338 0.0000 37.0408 0.0000
# 6 0.0000 0.0000 0.0000 18.8915 0.0000 23.6352
#
#
#
# Elastic Compliance Matrix: (Units=1/GPa)
#
#
# Indices 1 2 3 4 5 6 
#
# 1 0.013856 -0.000830 -0.010390 0.000000 -0.003154 0.000000
# 2 -0.000830 0.008426 0.001797 0.000000 -0.003336 0.000000
# 3 -0.010390 0.001797 0.044579 0.000000 -0.031187 0.000000
# 4 0.000000 0.000000 0.000000 0.105035 0.000000 -0.083954
# 5 -0.003154 -0.003336 -0.031187 0.000000 0.059037 0.000000
# 6 0.000000 0.000000 0.000000 -0.083954 0.000000 0.109414
#
#
# Mechanical properties :
#
#
# Convention : Reuss Voigt Hill
#
# Bulk Modulus (GPa) = 20.82662 49.17879 35.00271
# Shear Modulus (GPa) = 13.32635 32.27788 22.80212
#
# Velocity S-wave (km/s) = 2.42909 3.78042 3.17742
# Velocity P-wave (km/s) = 4.13384 6.38985 5.38139
#
# Compressibility (1/GPa) = 0.04801546
#
# Stress axis : x y z
#
# Youngs Moduli (GPa) = 72.17138 118.68704 22.43216
#
# Poissons Ratio (x) = 0.09849 0.23306
# Poissons Ratio (y) = 0.05989 -0.04031
# Poissons Ratio (z) = 0.74984 -0.21329
#
# Static dielectric constant tensor:
#      x y z
#    x 1.905740 0.000000 -0.097560 
#    y 0.000000 1.909690 0.000000 
#    z -0.097560 0.000000 2.070430 
# 
# From -- ./inp_files/281213.got.cif
#   From: 2010.05.17/outbox.cif.g08.bks.cpg/sg12_141_cif.got.tgz:281213.got - 2010.06.03 13:09:07.
