data_PCOD9188491
_publ_section_title
;
Structure prediction by ZEFSAII (Michael W. Deem and Ramdas Pophale) SiO2 
 PCOD9188491
Probable space group: C 2/M
;
_chemical_formula_sum "Si O2"
_cell_formula_units_Z 56
_cell_length_a 8.823956
_cell_length_b 16.899267
_cell_length_c 30.878177
_cell_angle_alpha 90.000000
_cell_angle_beta 140.430288
_cell_angle_gamma 90.000000
_cell_volume 2933.145422
_symmetry_space_group_name_H-M "C 2/M"
_symmetry_group_IT_number 12
_symmetry_cell_setting 'monoclinic'
loop_
_space_group_symop_operation_xyz
x,y,z
-x,y,-z
-x,-y,-z
x,-y,z
1/2+x,1/2+y,z
1/2-x,1/2+y,-z
1/2-x,1/2-y,-z
1/2+x,1/2-y,z
loop_
_atom_site_type_symbol
_atom_site_label
_atom_site_fract_x
_atom_site_fract_y
_atom_site_fract_z
Si Si1 0.799290 0.795242 0.732744
Si Si2 0.744717 0.726922 0.948849
Si Si3 0.226361 0.314040 0.856633
Si Si4 0.320619 0.406371 0.500434
Si Si5 0.556663 0.088151 0.747899
Si Si6 0.035797 0.146410 0.632720
Si Si7 0.278455 0.909150 0.359439
O O1 0.677215 0.845199 0.744219
O O2 0.625439 0.727205 0.675313
O O3 0.841425 0.854908 0.702844
O O4 0.046404 0.755300 0.801575
O O5 0.484578 0.688029 0.890390
O O6 0.749100 0.796447 0.913147
O O7 0.750000 0.750000 0.000000
O O8 0.000000 0.682731 0.000000
O O9 0.106482 0.391394 0.809389
O O10 0.500000 0.399121 0.500000
O O11 0.321649 0.500000 0.514489
O O12 0.406201 0.350441 0.558117
O O13 0.054465 0.387367 0.426561
O O14 0.276000 0.096534 0.678673
O O15 0.638608 0.000000 0.755130
O O16 0.858071 0.103405 0.626063
O O17 0.270131 0.000000 0.343967
#
# Coordination Sequence:
#
# PCOD9188491 Si02
#       7
#     8   8   8   8   8   8   8
#     4  11  23  38  58  84 122 153 194 245 290 349
#     4   9  18  34  62  94 119 153 196 236 277 336
#     4  10  19  36  59  93 118 154 198 242 280 338
#     4  10  21  38  59  81 114 155 197 244 304 367
#     4  11  22  37  59  86 122 160 193 237 299 353
#     4  11  22  38  59  85 112 149 200 253 294 338
#     4  11  23  38  58  84 113 152 198 245 298 355
#
# _framework density 19.092131999999999
#
# number of rings (size 3 to 8) (size 9 to 14) (size 15 to 20)
#    0.000    1.571    1.429    4.714    2.000    2.857 
#    0.000    1.429    0.000    4.286    0.000    0.000 
#    0.000    0.000    0.000    0.000    0.000    0.000 
#
# Total GULP energy -156072.327311 kJ/mol
# GULP energy per Si atom -5574.011690 kJ/mol
# Density = 1.904868 g / cm^3
# Si number density = 19.092132 Si / 1000 Ang^3
#
#
#
# Elastic Constant Matrix: (Units=GPa)
#
#
# Indices 1 2 3 4 5 6 
#
# 1 88.3808 9.5015 31.1396 0.0000 6.7015 0.0000
# 2 9.5015 71.6251 40.3645 0.0000 -4.6236 0.0000
# 3 31.1396 40.3645 79.9036 -0.0001 -6.5521 -0.0001
# 4 0.0000 0.0000 -0.0001 3.2308 0.0000 4.8677
# 5 6.7015 -4.6236 -6.5521 0.0000 44.8381 0.0000
# 6 0.0000 0.0000 -0.0001 4.8677 0.0000 9.3809
#
#
#
# Elastic Compliance Matrix: (Units=1/GPa)
#
#
# Indices 1 2 3 4 5 6 
#
# 1 0.013583 0.001580 -0.006321 0.000000 -0.002791 0.000000
# 2 0.001580 0.019717 -0.010555 0.000000 0.000255 0.000000
# 3 -0.006321 -0.010555 0.020545 0.000001 0.002858 0.000000
# 4 0.000000 0.000000 0.000001 1.418584 0.000000 -0.736095
# 5 -0.002791 0.000255 0.002858 0.000000 0.023164 0.000000
# 6 0.000000 0.000000 0.000000 -0.736095 0.000000 0.488555
#
#
# Mechanical properties :
#
#
# Convention : Reuss Voigt Hill
#
# Bulk Modulus (GPa) = 43.00445 44.65787 43.83116
# Shear Modulus (GPa) = 2.47220 22.08356 12.27788
#
# Velocity S-wave (km/s) = 1.13916 3.40470 2.53866
# Velocity P-wave (km/s) = 4.92989 6.23678 5.62144
#
# Compressibility (1/GPa) = 0.02325341
#
# Stress axis : x y z
#
# Youngs Moduli (GPa) = 73.61916 50.71827 48.67418
#
# Poissons Ratio (x) = -0.08013 0.30765
# Poissons Ratio (y) = -0.11631 0.51376
# Poissons Ratio (z) = 0.46532 0.53533
#
# Static dielectric constant tensor:
#      x y z
#    x 1.699040 0.000000 0.005360 
#    y 0.000000 1.677980 0.000000 
#    z 0.005360 0.000000 1.704560 
# 
# From -- ./inp_files/333311.got.cif
#   From: 2010.05.17/outbox.cif.g08.bks.cpg/sg12_167_cif.got.tgz:333311.got - 2010.06.03 13:09:07.
