data_PCOD9188529
_publ_section_title
;
Structure prediction by ZEFSAII (Michael W. Deem and Ramdas Pophale) SiO2 
 PCOD9188529
Probable space group: C 2/M
;
_chemical_formula_sum "Si O2"
_cell_formula_units_Z 64
_cell_length_a 14.636852
_cell_length_b 8.769129
_cell_length_c 30.952186
_cell_angle_alpha 90.000000
_cell_angle_beta 119.047067
_cell_angle_gamma 90.000000
_cell_volume 3473.095920
_symmetry_space_group_name_H-M "C 2/M"
_symmetry_group_IT_number 12
_symmetry_cell_setting 'monoclinic'
loop_
_space_group_symop_operation_xyz
x,y,z
-x,y,-z
-x,-y,-z
x,-y,z
1/2+x,1/2+y,z
1/2-x,1/2+y,-z
1/2-x,1/2-y,-z
1/2+x,1/2-y,z
loop_
_atom_site_type_symbol
_atom_site_label
_atom_site_fract_x
_atom_site_fract_y
_atom_site_fract_z
Si Si1 0.531746 0.182959 0.289162
Si Si2 0.263448 0.315463 0.366848
Si Si3 0.000275 0.818437 0.897984
Si Si4 0.192997 0.316305 0.445249
Si Si5 0.526874 0.684017 0.633294
Si Si6 0.433293 0.318561 0.180808
Si Si7 0.782656 0.820267 0.896239
Si Si8 0.887705 0.673478 0.999051
O O1 0.654170 0.230095 0.319444
O O2 0.477351 0.257426 0.318451
O O3 0.478965 0.235886 0.232990
O O4 0.527005 0.000000 0.292307
O O5 0.266087 0.500000 0.366570
O O6 0.253345 0.271373 0.414833
O O7 0.367625 0.263580 0.366600
O O8 0.886290 0.788552 0.891718
O O9 0.008154 0.772542 0.850035
O O10 0.018534 0.000000 0.904915
O O11 0.085497 0.737782 0.947817
O O12 0.189270 0.500000 0.446244
O O13 0.250000 0.250000 0.500000
O O14 0.076065 0.251408 0.413251
O O15 0.522108 0.500000 0.631567
O O16 0.443163 0.500000 0.188707
O O17 0.313746 0.273421 0.144435
O O18 0.811928 0.772202 0.951726
O O19 0.760097 0.000000 0.889168
O O20 0.850090 0.500000 0.992367
O O21 0.000000 0.674958 0.000000
#
# Coordination Sequence:
#
# PCOD9188529 Si02
#       8
#     8   8   8   8   8   8   8   8
#     4  10  21  39  57  78 108 141 177 223 273 323
#     4   8  18  36  58  80 108 146 186 222 267 322
#     4   9  20  37  55  76 105 138 174 216 263 316
#     4  10  20  36  55  83 120 155 187 226 270 315
#     4  10  19  36  60  84 108 144 188 228 269 317
#     4  11  23  38  55  79 107 137 176 222 269 320
#     4  10  20  36  56  78 105 138 173 214 265 319
#     4   9  17  31  53  79 105 135 172 213 259 316
#
# _framework density 18.427361999999999
#
# number of rings (size 3 to 8) (size 9 to 14) (size 15 to 20)
#    0.000    2.375    0.000    3.000    0.000    5.000 
#    0.000   12.500    0.000    0.000    0.000    0.000 
#    0.000    0.000    0.000    0.000    0.000    0.000 
#
# Total GULP energy -178642.883206 kJ/mol
# GULP energy per Si atom -5582.590100 kJ/mol
# Density = 1.838542 g / cm^3
# Si number density = 18.427362 Si / 1000 Ang^3
#
#
#
# Elastic Constant Matrix: (Units=GPa)
#
#
# Indices 1 2 3 4 5 6 
#
# 1 122.4950 36.6823 61.8280 0.0000 -8.0614 0.0000
# 2 36.6823 52.3246 39.9402 0.0000 -4.0655 0.0000
# 3 61.8280 39.9402 156.4819 0.0000 -8.4594 0.0000
# 4 0.0000 0.0000 0.0000 34.4185 0.0000 4.8691
# 5 -8.0614 -4.0655 -8.4594 0.0000 10.2891 0.0000
# 6 0.0000 0.0000 0.0000 4.8691 0.0000 20.4731
#
#
#
# Elastic Compliance Matrix: (Units=1/GPa)
#
#
# Indices 1 2 3 4 5 6 
#
# 1 0.011596 -0.005550 -0.002923 0.000000 0.004490 0.000000
# 2 -0.005550 0.026602 -0.004462 0.000000 0.002494 0.000000
# 3 -0.002923 -0.004462 0.008859 0.000000 0.003231 0.000000
# 4 0.000000 0.000000 0.000000 0.030066 0.000000 -0.007150
# 5 0.004490 0.002494 0.003231 0.000000 0.104349 0.000000
# 6 0.000000 0.000000 0.000000 -0.007150 0.000000 0.050545
#
#
# Mechanical properties :
#
#
# Convention : Reuss Voigt Hill
#
# Bulk Modulus (GPa) = 47.19689 67.57805 57.38747
# Shear Modulus (GPa) = 18.87155 25.89288 22.38221
#
# Velocity S-wave (km/s) = 3.20364 3.75258 3.48892
# Velocity P-wave (km/s) = 6.27315 7.45171 6.88769
#
# Compressibility (1/GPa) = 0.02118784
#
# Stress axis : x y z
#
# Youngs Moduli (GPa) = 86.23561 37.59106 112.88179
#
# Poissons Ratio (x) = 0.20862 0.32990
# Poissons Ratio (y) = 0.47859 0.50370
# Poissons Ratio (z) = 0.25203 0.16774
#
# Static dielectric constant tensor:
#      x y z
#    x 1.652290 0.000000 -0.011690 
#    y 0.000000 1.622270 0.000000 
#    z -0.011690 0.000000 1.597220 
# 
# From -- ./inp_files/375103.got.cif
#   From: 2010.05.17/outbox.cif.g08.bks.cpg/sg12_188_cif.got.tgz:375103.got - 2010.06.03 13:09:07.
