data_PCOD9188725
_publ_section_title
;
Structure prediction by ZEFSAII (Michael W. Deem and Ramdas Pophale) SiO2 
 PCOD9188725
Probable space group: C 2/M
;
_chemical_formula_sum "Si O2"
_cell_formula_units_Z 48
_cell_length_a 30.304384
_cell_length_b 17.977552
_cell_length_c 9.319519
_cell_angle_alpha 90.000000
_cell_angle_beta 153.385027
_cell_angle_gamma 90.000000
_cell_volume 2274.576189
_symmetry_space_group_name_H-M "C 2/M"
_symmetry_group_IT_number 12
_symmetry_cell_setting 'monoclinic'
loop_
_space_group_symop_operation_xyz
x,y,z
-x,y,-z
-x,-y,-z
x,-y,z
1/2+x,1/2+y,z
1/2-x,1/2+y,-z
1/2-x,1/2-y,-z
1/2+x,1/2-y,z
loop_
_atom_site_type_symbol
_atom_site_label
_atom_site_fract_x
_atom_site_fract_y
_atom_site_fract_z
Si Si1 0.306473 0.653840 0.584063
Si Si2 0.095033 0.763432 0.353168
Si Si3 0.719805 0.000000 0.709244
Si Si4 0.998207 0.835609 0.325604
Si Si5 0.369016 0.874824 0.739107
Si Si6 0.487702 0.000000 0.792175
Si Si7 0.910804 0.000000 0.445821
Si Si8 0.619844 0.500000 0.327353
O O1 0.312915 0.697381 0.452346
O O2 0.200674 0.662418 0.347179
O O3 0.336988 0.570519 0.628987
O O4 0.390922 0.677393 0.943539
O O5 0.073845 0.782230 0.456078
O O6 0.097766 0.682128 0.288911
O O7 0.000000 0.801803 0.000000
O O8 0.700652 0.069328 0.550679
O O9 0.630131 0.000000 0.566681
O O10 0.828439 0.000000 0.084460
O O11 0.000000 0.821521 0.500000
O O12 0.028715 0.922653 0.389296
O O13 0.452468 0.923906 0.064251
O O14 0.500000 0.000000 0.000000
O O15 0.851233 0.000000 0.421963
O O16 0.500000 0.500000 0.000000
#
# Coordination Sequence:
#
# PCOD9188725 Si02
#       8
#     8   8   4   8   8   4   4   4
#     4  11  20  34  57  90 118 149 196 232 283 353
#     4  10  20  36  59  85 117 154 190 238 284 340
#     4  10  21  36  56  86 108 151 198 242 289 336
#     4  11  22  36  56  88 123 152 186 234 294 352
#     4  10  19  36  61  87 111 152 200 242 278 340
#     4   8  17  34  57  85 105 146 201 244 277 327
#     4  12  21  36  59  83 121 156 186 235 298 345
#     4  12  18  36  59  86 116 157 190 234 289 343
#
# _framework density 21.102833
#
# number of rings (size 3 to 8) (size 9 to 14) (size 15 to 20)
#    0.000    1.667    3.333    4.750    0.000    0.000 
#    0.000    3.333    3.667    2.000    0.000    0.583 
#    0.000    0.000    0.000    0.000    0.000    0.000 
#
# Total GULP energy -133707.340214 kJ/mol
# GULP energy per Si atom -5571.139176 kJ/mol
# Density = 2.105480 g / cm^3
# Si number density = 21.102833 Si / 1000 Ang^3
#
#
#
# Elastic Constant Matrix: (Units=GPa)
#
#
# Indices 1 2 3 4 5 6 
#
# 1 155.2329 46.6491 11.4483 0.0000 -8.7522 0.0000
# 2 46.6491 108.1155 2.2126 0.0000 7.4270 0.0000
# 3 11.4483 2.2126 23.4913 0.0000 9.3270 0.0000
# 4 0.0000 0.0000 0.0000 44.5947 0.0000 23.2574
# 5 -8.7522 7.4270 9.3270 0.0000 27.6668 0.0000
# 6 0.0000 0.0000 0.0000 23.2574 0.0000 41.3981
#
#
#
# Elastic Compliance Matrix: (Units=1/GPa)
#
#
# Indices 1 2 3 4 5 6 
#
# 1 0.008371 -0.003881 -0.005979 0.000000 0.005706 0.000000
# 2 -0.003881 0.011223 0.002907 0.000000 -0.005221 0.000000
# 3 -0.005979 0.002907 0.053420 0.000000 -0.020681 0.000000
# 4 0.000000 0.000000 0.000000 0.031717 0.000000 -0.017819
# 5 0.005706 -0.005221 -0.020681 0.000000 0.046323 0.000000
# 6 0.000000 0.000000 0.000000 -0.017819 0.000000 0.034166
#
#
# Mechanical properties :
#
#
# Convention : Reuss Voigt Hill
#
# Bulk Modulus (GPa) = 16.91827 45.27331 31.09579
# Shear Modulus (GPa) = 22.84871 37.83389 30.34130
#
# Velocity S-wave (km/s) = 3.29406 4.23878 3.79593
# Velocity P-wave (km/s) = 4.74365 6.74215 5.82919
#
# Compressibility (1/GPa) = 0.05910768
#
# Stress axis : x y z
#
# Youngs Moduli (GPa) = 119.45939 89.10049 18.71944
#
# Poissons Ratio (x) = 0.34584 0.11193
# Poissons Ratio (y) = 0.46368 -0.05443
# Poissons Ratio (z) = 0.71430 -0.25905
#
# Static dielectric constant tensor:
#      x y z
#    x 1.842400 0.000000 0.049130 
#    y 0.000000 1.922680 0.000000 
#    z 0.049130 0.000000 1.780010 
# 
# From -- ./inp_files/63433.got.cif
#   From: 2010.05.17/outbox.cif.g08.bks.cpg/sg12_32_cif.got.tgz:63433.got - 2010.06.03 13:09:07.
