data_PCOD9188332
_publ_section_title
;
Structure prediction by ZEFSAII (Michael W. Deem and Ramdas Pophale) SiO2 
 PCOD9188332
Probable space group: C 2/M
;
_chemical_formula_sum "Si O2"
_cell_formula_units_Z 40
_cell_length_a 27.545119
_cell_length_b 18.385760
_cell_length_c 9.255852
_cell_angle_alpha 90.000000
_cell_angle_beta 25.278100
_cell_angle_gamma 90.000000
_cell_volume 2001.626274
_symmetry_space_group_name_H-M "C 2/M"
_symmetry_group_IT_number 12
_symmetry_cell_setting 'monoclinic'
loop_
_space_group_symop_operation_xyz
x,y,z
-x,y,-z
-x,-y,-z
x,-y,z
1/2+x,1/2+y,z
1/2-x,1/2+y,-z
1/2-x,1/2-y,-z
1/2+x,1/2-y,z
loop_
_atom_site_type_symbol
_atom_site_label
_atom_site_fract_x
_atom_site_fract_y
_atom_site_fract_z
Si Si1 0.702990 0.151303 0.070263
Si Si2 0.351389 0.308073 0.212807
Si Si3 0.633814 0.306503 0.145246
Si Si4 0.284021 0.083678 0.259824
Si Si5 0.490988 0.169044 0.854966
O O1 0.692927 0.227919 0.010162
O O2 0.602570 0.153381 0.459224
O O3 0.818996 0.147593 0.848610
O O4 0.694671 0.092065 0.968404
O O5 0.250000 0.250000 0.500000
O O6 0.327405 0.370276 0.393249
O O7 0.337877 0.338539 0.087306
O O8 0.460861 0.255567 0.928105
O O9 0.500000 0.294358 0.500000
O O10 0.275289 0.000000 0.324493
O O11 0.389404 0.122821 0.056782
O O12 0.500000 0.151032 0.000000
#
# Coordination Sequence:
#
# PCOD9188332 Si02
#       5
#     8   8   8   8   8
#     4  11  21  36  62  97 124 158 210 260 323 366
#     4  10  19  36  58  90 126 158 207 258 306 369
#     4  11  20  36  61  95 122 154 208 269 314 361
#     4  11  24  41  61  93 136 171 206 256 325 391
#     4  11  22  37  63 100 126 163 211 268 319 368
#
# _framework density 19.983751000000002
#
# number of rings (size 3 to 8) (size 9 to 14) (size 15 to 20)
#    0.000    1.200    6.000    3.000    2.800    2.000 
#    0.000    3.000    0.000    6.600    0.000    0.000 
#    0.000    0.000    0.000    0.000    0.000    0.000 
#
# Total GULP energy -111605.462533 kJ/mol
# GULP energy per Si atom -5580.273127 kJ/mol
# Density = 1.993827 g / cm^3
# Si number density = 19.983751 Si / 1000 Ang^3
#
#
#
# Elastic Constant Matrix: (Units=GPa)
#
#
# Indices 1 2 3 4 5 6 
#
# 1 135.0430 22.9301 36.0597 0.0000 13.1410 0.0000
# 2 22.9301 85.1852 15.4979 0.0000 4.6518 0.0000
# 3 36.0597 15.4979 50.2062 0.0000 16.4815 0.0000
# 4 0.0000 0.0000 0.0000 15.0077 0.0000 5.8208
# 5 13.1410 4.6518 16.4815 0.0000 37.9847 0.0000
# 6 0.0000 0.0000 0.0000 5.8208 0.0000 11.9215
#
#
#
# Elastic Compliance Matrix: (Units=1/GPa)
#
#
# Indices 1 2 3 4 5 6 
#
# 1 0.009315 -0.001369 -0.006139 0.000000 -0.000391 0.000000
# 2 -0.001369 0.012640 -0.002992 0.000000 0.000224 0.000000
# 3 -0.006139 -0.002992 0.028492 0.000000 -0.009872 0.000000
# 4 0.000000 0.000000 0.000000 0.082199 0.000000 -0.040134
# 5 -0.000391 0.000224 -0.009872 0.000000 0.030718 0.000000
# 6 0.000000 0.000000 0.000000 -0.040134 0.000000 0.103478
#
#
# Mechanical properties :
#
#
# Convention : Reuss Voigt Hill
#
# Bulk Modulus (GPa) = 33.96073 46.60110 40.28092
# Shear Modulus (GPa) = 16.79790 26.04589 21.42190
#
# Velocity S-wave (km/s) = 2.90242 3.61412 3.27764
# Velocity P-wave (km/s) = 5.31631 6.38638 5.87576
#
# Compressibility (1/GPa) = 0.02944577
#
# Stress axis : x y z
#
# Youngs Moduli (GPa) = 107.35485 79.11550 35.09808
#
# Poissons Ratio (x) = 0.10832 0.21548
# Poissons Ratio (y) = 0.14698 0.10501
# Poissons Ratio (z) = 0.65908 0.23670
#
# Static dielectric constant tensor:
#      x y z
#    x 1.758820 0.000000 0.001790 
#    y 0.000000 1.709970 0.000000 
#    z 0.001790 0.000000 1.773700 
# 
# From -- ./inp_files/74953.got.cif
#   From: 2010.05.17/outbox.cif.g08.bks.cpg/sg12_38_cif.got.tgz:74953.got - 2010.06.03 13:09:07.
