data_PCOD9188381
_publ_section_title
;
Structure prediction by ZEFSAII (Michael W. Deem and Ramdas Pophale) SiO2 
 PCOD9188381
Probable space group: C 2/M
;
_chemical_formula_sum "Si O2"
_cell_formula_units_Z 56
_cell_length_a 32.228699
_cell_length_b 7.909589
_cell_length_c 19.980953
_cell_angle_alpha 90.000000
_cell_angle_beta 32.656332
_cell_angle_gamma 90.000000
_cell_volume 2748.424870
_symmetry_space_group_name_H-M "C 2/M"
_symmetry_group_IT_number 12
_symmetry_cell_setting 'monoclinic'
loop_
_space_group_symop_operation_xyz
x,y,z
-x,y,-z
-x,-y,-z
x,-y,z
1/2+x,1/2+y,z
1/2-x,1/2+y,-z
1/2-x,1/2-y,-z
1/2+x,1/2-y,z
loop_
_atom_site_type_symbol
_atom_site_label
_atom_site_fract_x
_atom_site_fract_y
_atom_site_fract_z
Si Si1 0.824229 0.196162 0.307523
Si Si2 0.343698 0.699740 0.428834
Si Si3 0.774848 0.798007 0.890438
Si Si4 0.570338 0.804807 0.947484
Si Si5 0.625925 0.206890 0.015297
Si Si6 0.495934 0.795428 0.297925
Si Si7 0.048773 0.296765 0.370474
O O1 0.732877 0.213267 0.439811
O O2 0.858181 0.257743 0.332652
O O3 0.857552 0.296779 0.200195
O O4 0.844665 0.000000 0.270267
O O5 0.327228 0.500000 0.447028
O O6 0.416325 0.732575 0.376026
O O7 0.860295 0.739827 0.755104
O O8 0.774554 0.000000 0.888546
O O9 0.750000 0.750000 0.000000
O O10 0.709659 0.735702 0.926905
O O11 0.548302 0.000000 0.990936
O O12 0.500000 0.727567 0.000000
O O13 0.595436 0.730971 0.984825
O O14 0.564868 0.254989 0.155044
O O15 0.628644 0.000000 0.008603
O O16 0.513090 0.733679 0.349196
O O17 0.494052 0.000000 0.301165
O O18 0.041260 0.500000 0.380615
O O19 0.000000 0.232005 0.500000
#
# Coordination Sequence:
#
# PCOD9188381 Si02
#       7
#     8   8   8   8   8   8   8
#     4  10  21  37  55  78 111 149 186 231 286 336
#     4  10  21  36  56  81 109 144 190 234 277 340
#     4  11  21  38  62  86 118 156 199 247 297 352
#     4  10  20  35  57  83 113 149 190 234 282 340
#     4   9  19  35  57  85 114 150 192 237 287 342
#     4  10  19  36  59  82 113 148 186 233 288 346
#     4  10  22  40  61  87 120 155 194 243 300 357
#
# _framework density 20.375305999999998
#
# number of rings (size 3 to 8) (size 9 to 14) (size 15 to 20)
#    0.000    2.000    1.429    2.143    0.000    5.143 
#    0.000    5.000    0.000    0.000    0.000    0.000 
#    0.000    0.000    0.000    0.000    0.000    0.000 
#
# Total GULP energy -156350.836612 kJ/mol
# GULP energy per Si atom -5583.958450 kJ/mol
# Density = 2.032893 g / cm^3
# Si number density = 20.375306 Si / 1000 Ang^3
#
#
#
# Elastic Constant Matrix: (Units=GPa)
#
#
# Indices 1 2 3 4 5 6 
#
# 1 203.8476 7.8933 92.4281 -0.0083 -1.0421 0.0000
# 2 7.8933 22.2138 5.3239 -0.0223 4.0934 0.0060
# 3 92.4281 5.3239 119.3357 -0.0214 15.0652 0.0091
# 4 -0.0083 -0.0223 -0.0214 22.2786 0.0073 -5.4145
# 5 -1.0421 4.0934 15.0652 0.0073 34.5903 -0.0029
# 6 0.0000 0.0060 0.0091 -5.4145 -0.0029 9.7280
#
#
#
# Elastic Compliance Matrix: (Units=1/GPa)
#
#
# Indices 1 2 3 4 5 6 
#
# 1 0.007929 -0.001871 -0.006472 -0.000005 0.003279 0.000005
# 2 -0.001871 0.046699 0.000074 0.000047 -0.005615 -0.000004
# 3 -0.006472 0.000074 0.014195 0.000011 -0.006386 -0.000009
# 4 -0.000005 0.000047 0.000011 0.051908 -0.000019 0.028891
# 5 0.003279 -0.005615 -0.006386 -0.000019 0.032455 0.000008
# 6 0.000005 -0.000004 -0.000009 0.028891 0.000008 0.118876
#
#
# Mechanical properties :
#
#
# Convention : Reuss Voigt Hill
#
# Bulk Modulus (GPa) = 19.12529 61.85420 40.48974
# Shear Modulus (GPa) = 16.33841 29.30283 22.82062
#
# Velocity S-wave (km/s) = 2.83481 3.79641 3.35029
# Velocity P-wave (km/s) = 4.48573 7.04559 5.90602
#
# Compressibility (1/GPa) = 0.05228679
#
# Stress axis : x y z
#
# Youngs Moduli (GPa) = 126.11452 21.41390 70.44605
#
# Poissons Ratio (x) = 0.04006 0.45592
# Poissons Ratio (y) = 0.23592 -0.00524
# Poissons Ratio (z) = 0.81620 -0.00159
#
# Static dielectric constant tensor:
#      x y z
#    x 1.729160 0.000000 0.003350 
#    y 0.000000 1.745430 0.000010 
#    z 0.003350 0.000010 1.698890 
# 
# From -- ./inp_files/281023.got.cif
#   From: 2010.05.17/outbox.cif.g08.bks.cpg/sg12_141_cif.got.tgz:281023.got - 2010.06.03 13:09:07.
