data_PCOD9188542
_publ_section_title
;
Structure prediction by ZEFSAII (Michael W. Deem and Ramdas Pophale) SiO2 
 PCOD9188542
Probable space group: C 2/M
;
_chemical_formula_sum "Si O2"
_cell_formula_units_Z 64
_cell_length_a 31.984142
_cell_length_b 7.988010
_cell_length_c 20.243373
_cell_angle_alpha 90.000000
_cell_angle_beta 141.863877
_cell_angle_gamma 90.000000
_cell_volume 3193.857758
_symmetry_space_group_name_H-M "C 2/M"
_symmetry_group_IT_number 12
_symmetry_cell_setting 'monoclinic'
loop_
_space_group_symop_operation_xyz
x,y,z
-x,y,-z
-x,-y,-z
x,-y,z
1/2+x,1/2+y,z
1/2-x,1/2+y,-z
1/2-x,1/2-y,-z
1/2+x,1/2-y,z
loop_
_atom_site_type_symbol
_atom_site_label
_atom_site_fract_x
_atom_site_fract_y
_atom_site_fract_z
Si Si1 0.296413 0.701142 0.996952
Si Si2 0.292675 0.695868 0.738398
Si Si3 0.712795 0.203171 0.767223
Si Si4 0.059268 0.205367 0.772813
Si Si5 0.061994 0.201643 0.622959
Si Si6 0.940620 0.201317 0.722686
Si Si7 0.294586 0.299055 0.493176
Si Si8 0.058145 0.302071 0.122076
O O1 0.300077 0.500000 0.996337
O O2 0.371204 0.761782 0.106743
O O3 0.250000 0.750000 0.000000
O O4 0.259244 0.762906 0.885505
O O5 0.305230 0.500000 0.765736
O O6 0.251244 0.764373 0.749561
O O7 0.241839 0.719198 0.614442
O O8 0.366268 0.769326 0.812002
O O9 0.635300 0.255766 0.683352
O O10 0.712179 0.000000 0.765089
O O11 0.056439 0.260423 0.692549
O O12 0.999405 0.261150 0.746756
O O13 0.058787 0.000000 0.770738
O O14 0.000000 0.262923 0.500000
O O15 0.057442 0.000000 0.619424
O O16 0.869737 0.260778 0.604047
O O17 0.947270 0.241466 0.808688
O O18 0.940079 0.000000 0.718485
O O19 0.295255 0.500000 0.485293
O O20 0.250000 0.250000 0.500000
O O21 0.048497 0.500000 0.113277
O O22 0.000000 0.232986 0.000000
#
# Coordination Sequence:
#
# PCOD9188542 Si02
#       8
#     8   8   8   8   8   8   8   8
#     4  10  19  36  60  84 113 149 194 245 292 344
#     4  11  24  41  62  88 117 160 205 243 299 360
#     4  10  23  39  58  87 120 155 197 244 296 349
#     4   9  19  36  58  86 115 149 195 241 285 341
#     4  10  21  37  60  86 116 156 198 240 289 349
#     4  10  22  39  63  89 116 157 200 239 293 356
#     4  11  22  38  63  91 120 154 197 250 298 352
#     4  11  25  43  61  87 122 156 195 248 303 355
#
# _framework density 20.038461999999999
#
# number of rings (size 3 to 8) (size 9 to 14) (size 15 to 20)
#    0.000    1.750    2.500    1.125    3.500    2.750 
#    0.000    1.250    0.000    0.000    0.000    0.000 
#    0.000    0.000    0.000    0.000    0.000    0.000 
#
# Total GULP energy -178627.115725 kJ/mol
# GULP energy per Si atom -5582.097366 kJ/mol
# Density = 1.999285 g / cm^3
# Si number density = 20.038462 Si / 1000 Ang^3
#
#
#
# Elastic Constant Matrix: (Units=GPa)
#
#
# Indices 1 2 3 4 5 6 
#
# 1 198.2476 -7.9539 110.4571 0.0000 6.0059 0.0000
# 2 -7.9539 10.8881 -5.1522 0.0000 3.3633 0.0000
# 3 110.4571 -5.1522 193.2310 0.0000 9.2124 0.0000
# 4 0.0000 0.0000 0.0000 17.0132 0.0000 0.8962
# 5 6.0059 3.3633 9.2124 0.0000 43.5276 0.0000
# 6 0.0000 0.0000 0.0000 0.8962 0.0000 22.7026
#
#
#
# Elastic Compliance Matrix: (Units=1/GPa)
#
#
# Indices 1 2 3 4 5 6 
#
# 1 0.007540 0.003659 -0.004192 0.000000 -0.000436 0.000000
# 2 0.003659 0.097484 0.000900 0.000000 -0.008228 0.000000
# 3 -0.004192 0.000900 0.007648 0.000000 -0.001110 0.000000
# 4 0.000000 0.000000 0.000000 0.058900 0.000000 -0.002325
# 5 -0.000436 -0.008228 -0.001110 0.000000 0.023905 0.000000
# 6 0.000000 0.000000 0.000000 -0.002325 0.000000 0.044140
#
#
# Mechanical properties :
#
#
# Convention : Reuss Voigt Hill
#
# Bulk Modulus (GPa) = 8.81785 66.34097 37.57941
# Shear Modulus (GPa) = 18.07119 36.98306 27.52713
#
# Velocity S-wave (km/s) = 3.00630 4.30071 3.71039
# Velocity P-wave (km/s) = 4.05715 7.60527 6.09511
#
# Compressibility (1/GPa) = 0.11340635
#
# Stress axis : x y z
#
# Youngs Moduli (GPa) = 132.63321 10.25811 130.75178
#
# Poissons Ratio (x) = -0.03753 0.54805
# Poissons Ratio (y) = -0.48530 -0.11767
# Poissons Ratio (z) = 0.55594 -0.00923
#
# Static dielectric constant tensor:
#      x y z
#    x 1.697400 0.000000 0.000130 
#    y 0.000000 1.778550 0.000000 
#    z 0.000130 0.000000 1.676080 
# 
# From -- ./inp_files/295806.got.cif
#   From: 2010.05.17/outbox.cif.g08.bks.cpg/sg12_148_cif.got.tgz:295806.got - 2010.06.03 13:09:07.
