data_PCOD9188871
_publ_section_title
;
Structure prediction by ZEFSAII (Michael W. Deem and Ramdas Pophale) SiO2 
 PCOD9188871
Probable space group: C 2/M
;
_chemical_formula_sum "Si O2"
_cell_formula_units_Z 56
_cell_length_a 9.728801
_cell_length_b 28.870360
_cell_length_c 11.151211
_cell_angle_alpha 90.000000
_cell_angle_beta 122.182302
_cell_angle_gamma 90.000000
_cell_volume 2650.864417
_symmetry_space_group_name_H-M "C 2/M"
_symmetry_group_IT_number 12
_symmetry_cell_setting 'monoclinic'
loop_
_space_group_symop_operation_xyz
x,y,z
-x,y,-z
-x,-y,-z
x,-y,z
1/2+x,1/2+y,z
1/2-x,1/2+y,-z
1/2-x,1/2-y,-z
1/2+x,1/2-y,z
loop_
_atom_site_type_symbol
_atom_site_label
_atom_site_fract_x
_atom_site_fract_y
_atom_site_fract_z
Si Si1 0.574055 0.053235 0.397097
Si Si2 0.780198 0.728959 0.683202
Si Si3 0.128491 0.223353 0.855278
Si Si4 0.334633 0.828807 0.307267
Si Si5 0.212805 0.355841 0.473771
Si Si6 0.624654 0.947536 0.945883
Si Si7 0.854230 0.133295 0.003309
O O1 0.500000 0.061180 0.500000
O O2 0.713121 0.091245 0.432333
O O3 0.452383 0.057627 0.225210
O O4 0.629577 0.000000 0.423517
O O5 0.741166 0.709650 0.795885
O O6 0.681320 0.776994 0.646792
O O7 0.720211 0.689223 0.564233
O O8 0.967879 0.745341 0.756025
O O9 0.250000 0.250000 0.000000
O O10 0.073260 0.175237 0.886211
O O11 0.519906 0.844258 0.383131
O O12 0.241655 0.857277 0.366381
O O13 0.257137 0.839052 0.144069
O O14 0.749751 0.905578 0.018688
O O15 0.692355 0.000000 0.981584
O O16 0.500000 0.944276 0.000000
O O17 0.000000 0.109667 0.000000
#
# Coordination Sequence:
#
# PCOD9188871 Si02
#       7
#     8   8   8   8   8   8   8
#     4  10  19  36  62  90 118 153 204 259 305 358
#     4  12  23  39  56  84 122 159 202 244 296 360
#     4  12  23  36  57  83 116 160 204 243 288 357
#     4  11  21  38  55  85 119 157 197 248 293 354
#     4  11  21  37  61  85 117 156 200 250 305 356
#     4  10  23  40  61  93 125 155 203 262 316 365
#     4  12  22  38  61  85 124 159 198 248 301 374
#
# _framework density 21.125184000000001
#
# number of rings (size 3 to 8) (size 9 to 14) (size 15 to 20)
#    0.000    0.857    7.143    0.857    2.000    0.286 
#    0.000    0.000    0.000    0.000    0.000    0.000 
#    0.000   10.286    0.000    0.000    0.000    0.000 
#
# Total GULP energy -155954.557961 kJ/mol
# GULP energy per Si atom -5569.805641 kJ/mol
# Density = 2.107710 g / cm^3
# Si number density = 21.125184 Si / 1000 Ang^3
#
#
#
# Elastic Constant Matrix: (Units=GPa)
#
#
# Indices 1 2 3 4 5 6 
#
# 1 74.6684 20.6595 13.4969 0.0000 -9.7136 0.0000
# 2 20.6595 139.4122 -0.2478 0.0000 0.8519 0.0000
# 3 13.4969 -0.2478 50.5783 0.0000 -5.7627 0.0000
# 4 0.0000 0.0000 0.0000 21.0968 0.0000 -6.2117
# 5 -9.7136 0.8519 -5.7627 0.0000 27.9671 0.0000
# 6 0.0000 0.0000 0.0000 -6.2117 0.0000 30.1377
#
#
#
# Elastic Compliance Matrix: (Units=1/GPa)
#
#
# Indices 1 2 3 4 5 6 
#
# 1 0.015276 -0.002298 -0.003559 0.000000 0.004642 0.000000
# 2 -0.002298 0.007520 0.000546 0.000000 -0.000915 0.000000
# 3 -0.003559 0.000546 0.021076 0.000000 0.003090 0.000000
# 4 0.000000 0.000000 0.000000 0.050463 0.000000 0.010401
# 5 0.004642 -0.000915 0.003090 0.000000 0.038033 0.000000
# 6 0.000000 0.000000 0.000000 0.010401 0.000000 0.035325
#
#
# Mechanical properties :
#
#
# Convention : Reuss Voigt Hill
#
# Bulk Modulus (GPa) = 30.07587 36.94179 33.50883
# Shear Modulus (GPa) = 26.39946 31.22367 28.81156
#
# Velocity S-wave (km/s) = 3.53890 3.84869 3.69704
# Velocity P-wave (km/s) = 5.56474 6.10532 5.84128
#
# Compressibility (1/GPa) = 0.03324924
#
# Stress axis : x y z
#
# Youngs Moduli (GPa) = 65.46367 132.97636 47.44801
#
# Poissons Ratio (x) = 0.30563 0.16885
# Poissons Ratio (y) = 0.15046 -0.02590
# Poissons Ratio (z) = 0.23296 -0.07260
#
# Static dielectric constant tensor:
#      x y z
#    x 1.780660 0.000000 -0.050570 
#    y 0.000000 1.818530 0.000000 
#    z -0.050570 0.000000 1.860120 
# 
# From -- ./inp_files/125845.got.cif
#   From: 2010.05.17/outbox.cif.g08.bks.cpg/sg12_63_cif.got.tgz:125845.got - 2010.06.03 13:09:07.
