data_PCOD9188638
_publ_section_title
;
Structure prediction by ZEFSAII (Michael W. Deem and Ramdas Pophale) SiO2 
 PCOD9188638
Probable space group: C 2/M
;
_chemical_formula_sum "Si O2"
_cell_formula_units_Z 58
_cell_length_a 19.793572
_cell_length_b 7.486520
_cell_length_c 19.201408
_cell_angle_alpha 90.000000
_cell_angle_beta 81.081705
_cell_angle_gamma 90.000000
_cell_volume 2810.960897
_symmetry_space_group_name_H-M "C 2/M"
_symmetry_group_IT_number 12
_symmetry_cell_setting 'monoclinic'
loop_
_space_group_symop_operation_xyz
x,y,z
-x,y,-z
-x,-y,-z
x,-y,z
1/2+x,1/2+y,z
1/2-x,1/2+y,-z
1/2-x,1/2-y,-z
1/2+x,1/2-y,z
loop_
_atom_site_type_symbol
_atom_site_label
_atom_site_fract_x
_atom_site_fract_y
_atom_site_fract_z
Si Si1 0.259269 0.212140 0.579408
Si Si2 0.144843 0.709263 0.709850
Si Si3 0.760333 0.218406 0.788972
Si Si4 0.508709 0.217771 0.262835
Si Si5 0.040381 0.209276 0.096901
Si Si6 0.500000 0.000000 0.000000
Si Si7 0.805347 0.787309 0.932576
Si Si8 0.125657 0.295053 0.342276
O O1 0.250000 0.250000 0.500000
O O2 0.194770 0.274831 0.635486
O O3 0.330469 0.284839 0.600816
O O4 0.261725 0.000000 0.588932
O O5 0.135150 0.500000 0.724754
O O6 0.188451 0.779653 0.768219
O O7 0.068905 0.781496 0.713596
O O8 0.776581 0.279278 0.863761
O O9 0.818949 0.288613 0.728723
O O10 0.762303 0.000000 0.786025
O O11 0.532551 0.273549 0.181739
O O12 0.558393 0.283508 0.316749
O O13 0.512160 0.000000 0.263659
O O14 0.117591 0.275901 0.065657
O O15 0.031794 0.000000 0.080387
O O16 0.992402 0.341886 0.061745
O O17 0.812463 0.000000 0.924486
O O18 0.750000 0.750000 0.000000
O O19 0.108999 0.500000 0.363755
#
# Coordination Sequence:
#
# PCOD9188638 Si02
#       8
#     8   8   8   8   8   2   8   8
#     4  10  20  36  57  85 118 157 196 242 295 354
#     4   9  19  34  57  87 115 150 194 238 292 361
#     4   9  17  33  53  77 108 141 186 237 290 348
#     4  10  19  36  60  89 118 155 198 248 308 363
#     4  11  24  42  62  89 118 162 214 260 314 385
#     4  12  26  44  64  82 124 172 204 262 340 378
#     4  10  22  36  55  84 115 152 198 253 307 370
#     4   9  18  32  57  83 110 149 194 234 287 356
#
# _framework density 20.633513000000001
#
# number of rings (size 3 to 8) (size 9 to 14) (size 15 to 20)
#    0.000    2.207    2.069    0.621    0.966    2.759 
#    2.483    0.690    0.000    4.138    0.000    0.000 
#    0.000    0.000    0.000    0.000    0.000    0.000 
#
# Total GULP energy -161511.204527 kJ/mol
# GULP energy per Si atom -5569.351880 kJ/mol
# Density = 2.058655 g / cm^3
# Si number density = 20.633513 Si / 1000 Ang^3
#
#
#
# Elastic Constant Matrix: (Units=GPa)
#
#
# Indices 1 2 3 4 5 6 
#
# 1 95.6981 10.7984 -1.1438 0.0000 11.9329 0.0000
# 2 10.7984 86.4995 0.0717 0.0000 9.4340 0.0000
# 3 -1.1438 0.0717 67.4299 0.0000 21.3961 0.0000
# 4 0.0000 0.0000 0.0000 19.8550 0.0000 -6.2876
# 5 11.9329 9.4340 21.3961 0.0000 25.8746 0.0000
# 6 0.0000 0.0000 0.0000 -6.2876 0.0000 6.9533
#
#
#
# Elastic Compliance Matrix: (Units=1/GPa)
#
#
# Indices 1 2 3 4 5 6 
#
# 1 0.011431 -0.000661 0.002428 0.000000 -0.007038 0.000000
# 2 -0.000661 0.012254 0.001758 0.000000 -0.005617 0.000000
# 3 0.002428 0.001758 0.020916 0.000000 -0.019057 0.000000
# 4 0.000000 0.000000 0.000000 0.070575 0.000000 0.063818
# 5 -0.007038 -0.005617 -0.019057 0.000000 0.059700 0.000000
# 6 0.000000 0.000000 0.000000 0.063818 0.000000 0.201524
#
#
# Mechanical properties :
#
#
# Convention : Reuss Voigt Hill
#
# Bulk Modulus (GPa) = 19.36086 29.89781 24.62933
# Shear Modulus (GPa) = 12.93432 26.52998 19.73215
#
# Velocity S-wave (km/s) = 2.50643 3.58966 3.09579
# Velocity P-wave (km/s) = 4.21662 5.63047 4.97404
#
# Compressibility (1/GPa) = 0.05165060
#
# Stress axis : x y z
#
# Youngs Moduli (GPa) = 87.48309 81.60295 47.80929
#
# Poissons Ratio (x) = 0.05397 -0.11607
# Poissons Ratio (y) = 0.05786 -0.08405
# Poissons Ratio (z) = -0.21240 -0.14346
#
# Static dielectric constant tensor:
#      x y z
#    x 1.814740 0.000000 0.040330 
#    y 0.000000 1.813110 0.000000 
#    z 0.040330 0.000000 1.745640 
# 
# From -- ./inp_files/275413.got.cif
#   From: 2010.05.17/outbox.cif.g08.bks.cpg/sg12_138_cif.got.tgz:275413.got - 2010.06.03 13:09:07.
