data_PCOD9188194
_publ_section_title
;
Structure prediction by ZEFSAII (Michael W. Deem and Ramdas Pophale) SiO2 
 PCOD9188194
Probable space group: C 2/M
;
_chemical_formula_sum "Si O2"
_cell_formula_units_Z 58
_cell_length_a 21.354516
_cell_length_b 17.517836
_cell_length_c 12.974224
_cell_angle_alpha 90.000000
_cell_angle_beta 139.397454
_cell_angle_gamma 90.000000
_cell_volume 3158.671296
_symmetry_space_group_name_H-M "C 2/M"
_symmetry_group_IT_number 12
_symmetry_cell_setting 'monoclinic'
loop_
_space_group_symop_operation_xyz
x,y,z
-x,y,-z
-x,-y,-z
x,-y,z
1/2+x,1/2+y,z
1/2-x,1/2+y,-z
1/2-x,1/2-y,-z
1/2+x,1/2-y,z
loop_
_atom_site_type_symbol
_atom_site_label
_atom_site_fract_x
_atom_site_fract_y
_atom_site_fract_z
Si Si1 0.967059 0.362747 0.119765
Si Si2 0.000000 0.500000 0.000000
Si Si3 0.734555 0.197255 0.079121
Si Si4 0.390412 0.412733 0.365647
Si Si5 0.169702 0.410229 0.468140
Si Si6 0.952093 0.198732 0.841322
Si Si7 0.158869 0.136995 0.472130
Si Si8 0.252951 0.219479 0.317263
O O1 0.062220 0.385659 0.302637
O O2 0.991270 0.277070 0.109417
O O3 0.958575 0.430829 0.025240
O O4 0.865266 0.349893 0.048558
O O5 0.821155 0.138948 0.210393
O O6 0.735267 0.252092 0.180566
O O7 0.750000 0.250000 0.000000
O O8 0.500000 0.383790 0.500000
O O9 0.389578 0.500000 0.328660
O O10 0.356631 0.409892 0.442958
O O11 0.172112 0.500000 0.485341
O O12 0.246514 0.389868 0.472784
O O13 0.204758 0.363989 0.611563
O O14 0.931558 0.144334 0.718239
O O15 0.846346 0.223646 0.745103
O O16 0.000000 0.159135 0.000000
O O17 0.176815 0.222195 0.536779
#
# Coordination Sequence:
#
# PCOD9188194 Si02
#       8
#     8   2   8   8   8   8   8   8
#     4  12  22  34  59  94 131 154 194 256 330 377
#     4  12  24  32  60 104 136 160 180 266 356 384
#     4  11  26  41  63  89 120 164 213 253 303 377
#     4  10  24  42  61  84 116 162 213 262 303 357
#     4  11  21  34  58  92 127 154 187 252 327 386
#     4  11  18  32  56  87 120 155 194 250 309 366
#     4  10  20  34  59  86 120 158 205 250 307 377
#     4  10  19  36  57  84 116 160 201 245 296 369
#
# _framework density 18.362151000000001
#
# number of rings (size 3 to 8) (size 9 to 14) (size 15 to 20)
#    0.000    1.241    5.517    1.241    4.828    0.000 
#    0.000    0.690    0.000   12.828    0.000    0.000 
#    0.000    0.000    0.000    0.000    0.000    0.000 
#
# Total GULP energy -161438.567299 kJ/mol
# GULP energy per Si atom -5566.847148 kJ/mol
# Density = 1.832036 g / cm^3
# Si number density = 18.362151 Si / 1000 Ang^3
#
#
#
# Elastic Constant Matrix: (Units=GPa)
#
#
# Indices 1 2 3 4 5 6 
#
# 1 56.6888 29.9043 30.3049 0.0000 17.3675 0.0000
# 2 29.9043 92.8008 47.4452 0.0000 11.3836 0.0000
# 3 30.3049 47.4452 86.8372 0.0000 11.7016 0.0000
# 4 0.0000 0.0000 0.0000 4.2104 0.0000 7.2650
# 5 17.3675 11.3836 11.7016 0.0000 30.3118 0.0000
# 6 0.0000 0.0000 0.0000 7.2650 0.0000 17.1512
#
#
#
# Elastic Compliance Matrix: (Units=1/GPa)
#
#
# Indices 1 2 3 4 5 6 
#
# 1 0.026229 -0.004387 -0.005226 0.000000 -0.011364 0.000000
# 2 -0.004387 0.015882 -0.007048 0.000000 -0.000730 0.000000
# 3 -0.005226 -0.007048 0.017332 0.000000 -0.001050 0.000000
# 4 0.000000 0.000000 0.000000 0.882624 0.000000 -0.373869
# 5 -0.011364 -0.000730 -0.001050 0.000000 0.040181 0.000000
# 6 0.000000 0.000000 0.000000 -0.373869 0.000000 0.216672
#
#
# Mechanical properties :
#
#
# Convention : Reuss Voigt Hill
#
# Bulk Modulus (GPa) = 38.28145 50.18174 44.23160
# Shear Modulus (GPa) = 4.02918 18.91283 11.47100
#
# Velocity S-wave (km/s) = 1.48292 3.21283 2.50213
# Velocity P-wave (km/s) = 4.88112 6.41492 5.69985
#
# Compressibility (1/GPa) = 0.02612231
#
# Stress axis : x y z
#
# Youngs Moduli (GPa) = 38.12567 62.96262 57.69688
#
# Poissons Ratio (x) = 0.27619 0.30150
# Poissons Ratio (y) = 0.16724 0.40667
# Poissons Ratio (z) = 0.19923 0.44379
#
# Static dielectric constant tensor:
#      x y z
#    x 1.640290 0.000000 -0.002420 
#    y 0.000000 1.629790 0.000000 
#    z -0.002420 0.000000 1.674970 
# 
# From -- ./inp_files/169003.got.cif
#   From: 2010.05.17/outbox.cif.g08.bks.cpg/sg12_85_cif.got.tgz:169003.got - 2010.06.03 13:09:07.
