data_PCOD9188132
_publ_section_title
;
Structure prediction by ZEFSAII (Michael W. Deem and Ramdas Pophale) SiO2 
 PCOD9188132
Probable space group: C 2/M
;
_chemical_formula_sum "Si O2"
_cell_formula_units_Z 36
_cell_length_a 12.893427
_cell_length_b 18.363683
_cell_length_c 7.005719
_cell_angle_alpha 90.000000
_cell_angle_beta 99.652212
_cell_angle_gamma 90.000000
_cell_volume 1635.267904
_symmetry_space_group_name_H-M "C 2/M"
_symmetry_group_IT_number 12
_symmetry_cell_setting 'monoclinic'
loop_
_space_group_symop_operation_xyz
x,y,z
-x,y,-z
-x,-y,-z
x,-y,z
1/2+x,1/2+y,z
1/2-x,1/2+y,-z
1/2-x,1/2-y,-z
1/2+x,1/2-y,z
loop_
_atom_site_type_symbol
_atom_site_label
_atom_site_fract_x
_atom_site_fract_y
_atom_site_fract_z
Si Si1 0.442168 0.787111 0.161007
Si Si2 0.724686 0.170334 0.582316
Si Si3 0.500000 0.311991 0.500000
Si Si4 0.123922 0.860160 0.041981
Si Si5 0.690031 0.416770 0.685889
O O1 0.368102 0.826245 0.290712
O O2 0.980637 0.758410 0.673961
O O3 0.500000 0.824790 0.000000
O O4 0.375731 0.723072 0.035378
O O5 0.750000 0.250000 0.500000
O O6 0.712155 0.116889 0.398634
O O7 0.678956 0.361587 0.262144
O O8 0.593430 0.364054 0.596468
O O9 0.190715 0.907082 0.913048
O O10 0.000000 0.882409 0.000000
O O11 0.671765 0.500000 0.628841
#
# Coordination Sequence:
#
# PCOD9188132 Si02
#       5
#     8   8   4   8   8
#     4  10  21  33  58  89 124 156 209 253 313 354
#     4  12  22  37  63  89 123 167 212 260 304 361
#     4  10  19  36  56  92 129 162 200 244 315 378
#     4  10  22  36  58  89 129 161 202 250 313 373
#     4  11  23  37  57  87 129 172 205 242 307 381
#
# _framework density 22.014741000000001
#
# number of rings (size 3 to 8) (size 9 to 14) (size 15 to 20)
#    0.000    1.333    4.444    5.000    0.000    1.333 
#    0.000    0.000    0.000    1.333    0.000    2.333 
#    0.000    0.889    0.000    0.000    0.000    0.000 
#
# Total GULP energy -100397.410105 kJ/mol
# GULP energy per Si atom -5577.633895 kJ/mol
# Density = 2.196463 g / cm^3
# Si number density = 22.014741 Si / 1000 Ang^3
#
#
#
# Elastic Constant Matrix: (Units=GPa)
#
#
# Indices 1 2 3 4 5 6 
#
# 1 52.6907 24.4211 39.8620 0.0000 -25.8226 0.0000
# 2 24.4211 48.4315 44.8580 0.0000 -13.2734 0.0000
# 3 39.8620 44.8580 185.7338 0.0000 -41.1495 0.0000
# 4 0.0000 0.0000 0.0000 16.1331 0.0000 -3.0691
# 5 -25.8226 -13.2734 -41.1495 0.0000 52.2352 0.0000
# 6 0.0000 0.0000 0.0000 -3.0691 0.0000 12.4693
#
#
#
# Elastic Compliance Matrix: (Units=1/GPa)
#
#
# Indices 1 2 3 4 5 6 
#
# 1 0.030699 -0.011082 -0.001422 0.000000 0.011240 0.000000
# 2 -0.011082 0.030782 -0.005496 0.000000 -0.001986 0.000000
# 3 -0.001422 -0.005496 0.007937 0.000000 0.004153 0.000000
# 4 0.000000 0.000000 0.000000 0.065029 0.000000 0.016006
# 5 0.011240 -0.001986 0.004153 0.000000 0.027467 0.000000
# 6 0.000000 0.000000 0.000000 0.016006 0.000000 0.084136
#
#
# Mechanical properties :
#
#
# Convention : Reuss Voigt Hill
#
# Bulk Modulus (GPa) = 29.92432 56.12646 43.02539
# Shear Modulus (GPa) = 17.05378 28.01521 22.53449
#
# Velocity S-wave (km/s) = 2.78628 3.57117 3.20286
# Velocity P-wave (km/s) = 4.89627 6.52339 5.76750
#
# Compressibility (1/GPa) = 0.03341763
#
# Stress axis : x y z
#
# Youngs Moduli (GPa) = 32.57403 32.48659 125.99825
#
# Poissons Ratio (x) = 0.36003 0.17915
# Poissons Ratio (y) = 0.36100 0.69248
# Poissons Ratio (z) = 0.04631 0.17854
#
# Static dielectric constant tensor:
#      x y z
#    x 1.967390 0.000000 -0.047980 
#    y 0.000000 1.775590 0.000000 
#    z -0.047980 0.000000 1.902030 
# 
# From -- ./inp_files/16277.got.cif
#   From: 2010.05.17/outbox.cif.g08.bks.cpg/sg12_9_cif.got.tgz:16277.got - 2010.06.03 13:09:07.
