data_PCOD9188716
_publ_section_title
;
Structure prediction by ZEFSAII (Michael W. Deem and Ramdas Pophale) SiO2 
 PCOD9188716
Probable space group: C 2/M
;
_chemical_formula_sum "Si O2"
_cell_formula_units_Z 48
_cell_length_a 21.014915
_cell_length_b 8.578820
_cell_length_c 21.693827
_cell_angle_alpha 90.000000
_cell_angle_beta 41.666159
_cell_angle_gamma 90.000000
_cell_volume 2600.011996
_symmetry_space_group_name_H-M "C 2/M"
_symmetry_group_IT_number 12
_symmetry_cell_setting 'monoclinic'
loop_
_space_group_symop_operation_xyz
x,y,z
-x,y,-z
-x,-y,-z
x,-y,z
1/2+x,1/2+y,z
1/2-x,1/2+y,-z
1/2-x,1/2-y,-z
1/2+x,1/2-y,z
loop_
_atom_site_type_symbol
_atom_site_label
_atom_site_fract_x
_atom_site_fract_y
_atom_site_fract_z
Si Si1 0.955022 0.188117 0.742237
Si Si2 0.902003 0.690161 0.039515
Si Si3 0.845358 0.813085 0.462768
Si Si4 0.643262 0.813116 0.066193
Si Si5 0.296701 0.311528 0.754801
Si Si6 0.390653 0.813331 0.564786
O O1 0.924114 0.255863 0.830035
O O2 0.876455 0.234381 0.747717
O O3 0.059680 0.237214 0.643464
O O4 0.952853 0.000000 0.747715
O O5 0.902656 0.500000 0.039300
O O6 0.807318 0.737744 0.145451
O O7 0.892138 0.739059 0.975600
O O8 0.000000 0.743641 0.000000
O O9 0.750000 0.750000 0.500000
O O10 0.856846 0.754763 0.524295
O O11 0.843231 0.000000 0.464402
O O12 0.646941 0.000000 0.063667
O O13 0.750000 0.750000 0.000000
O O14 0.298033 0.500000 0.749663
O O15 0.325321 0.242584 0.668468
O O16 0.500000 0.762147 0.500000
O O17 0.389644 0.000000 0.561995
#
# Coordination Sequence:
#
# PCOD9188716 Si02
#       6
#     8   8   8   8   8   8
#     4  10  21  38  60  88 118 153 197 245 297 359
#     4   9  19  36  57  84 116 149 190 238 287 345
#     4  11  24  42  63  87 123 160 199 249 307 366
#     4  11  21  35  59  88 118 154 199 246 293 352
#     4  10  19  36  61  86 116 155 199 240 293 356
#     4  11  23  38  60  91 122 153 201 252 297 356
#
# _framework density 18.461452999999999
#
# number of rings (size 3 to 8) (size 9 to 14) (size 15 to 20)
#    0.000    1.667    3.333    1.500    0.000    4.000 
#    0.000    1.667    0.000    3.500    0.000    0.000 
#    0.000    0.000    0.000    0.000    0.000    0.000 
#
# Total GULP energy -134095.348551 kJ/mol
# GULP energy per Si atom -5587.306190 kJ/mol
# Density = 1.841943 g / cm^3
# Si number density = 18.461453 Si / 1000 Ang^3
#
#
#
# Elastic Constant Matrix: (Units=GPa)
#
#
# Indices 1 2 3 4 5 6 
#
# 1 197.8277 38.9079 128.1521 0.0000 -0.3250 0.0000
# 2 38.9079 26.6467 41.4710 0.0001 1.2204 -0.0001
# 3 128.1521 41.4710 213.2555 0.0000 9.3409 -0.0001
# 4 0.0000 0.0001 0.0000 32.6366 0.0000 5.8635
# 5 -0.3250 1.2204 9.3409 0.0000 38.7512 0.0001
# 6 0.0000 -0.0001 -0.0001 5.8635 0.0001 28.2169
#
#
#
# Elastic Compliance Matrix: (Units=1/GPa)
#
#
# Indices 1 2 3 4 5 6 
#
# 1 0.009132 -0.006832 -0.004217 0.000000 0.001308 0.000000
# 2 -0.006832 0.058953 -0.007353 0.000000 -0.000142 0.000000
# 3 -0.004217 -0.007353 0.008737 0.000000 -0.001910 0.000000
# 4 0.000000 0.000000 0.000000 0.031829 0.000000 -0.006614
# 5 0.001308 -0.000142 -0.001910 0.000000 0.026281 0.000000
# 6 0.000000 0.000000 0.000000 -0.006614 0.000000 0.036814
#
#
# Mechanical properties :
#
#
# Convention : Reuss Voigt Hill
#
# Bulk Modulus (GPa) = 24.98766 94.97689 59.98227
# Shear Modulus (GPa) = 22.53383 35.20087 28.86735
#
# Velocity S-wave (km/s) = 3.49748 4.37134 3.95860
# Velocity P-wave (km/s) = 5.46574 8.77701 7.31130
#
# Compressibility (1/GPa) = 0.04001976
#
# Stress axis : x y z
#
# Youngs Moduli (GPa) = 109.50292 16.96259 114.46103
#
# Poissons Ratio (x) = 0.11588 0.48263
# Poissons Ratio (y) = 0.74810 0.84161
# Poissons Ratio (z) = 0.46173 0.12472
#
# Static dielectric constant tensor:
#      x y z
#    x 1.608850 0.000000 -0.009550 
#    y 0.000000 1.632000 0.000000 
#    z -0.009550 0.000000 1.613400 
# 
# From -- ./inp_files/244756.got.cif
#   From: 2010.05.17/outbox.cif.g08.bks.cpg/sg12_123_cif.got.tgz:244756.got - 2010.06.03 13:09:07.
