data_PCOD9188275
_publ_section_title
;
Structure prediction by ZEFSAII (Michael W. Deem and Ramdas Pophale) SiO2 
 PCOD9188275
Probable space group: C 2/M
;
_chemical_formula_sum "Si O2"
_cell_formula_units_Z 48
_cell_length_a 33.078227
_cell_length_b 16.799339
_cell_length_c 9.721125
_cell_angle_alpha 90.000000
_cell_angle_beta 30.513890
_cell_angle_gamma 90.000000
_cell_volume 2742.827576
_symmetry_space_group_name_H-M "C 2/M"
_symmetry_group_IT_number 12
_symmetry_cell_setting 'monoclinic'
loop_
_space_group_symop_operation_xyz
x,y,z
-x,y,-z
-x,-y,-z
x,-y,z
1/2+x,1/2+y,z
1/2-x,1/2+y,-z
1/2-x,1/2-y,-z
1/2+x,1/2-y,z
loop_
_atom_site_type_symbol
_atom_site_label
_atom_site_fract_x
_atom_site_fract_y
_atom_site_fract_z
Si Si1 0.033947 0.000000 0.748818
Si Si2 0.562127 0.228561 0.047812
Si Si3 0.956509 0.409140 0.276774
Si Si4 0.409203 0.329106 0.479192
Si Si5 0.672395 0.205260 0.460385
Si Si6 0.078054 0.000000 0.174485
Si Si7 0.641560 0.326865 0.058666
O O1 0.084822 0.921815 0.568481
O O2 0.957886 0.000000 0.871832
O O3 0.000000 0.000000 0.000000
O O4 0.512522 0.146242 0.207700
O O5 0.494494 0.289834 0.193122
O O6 0.600436 0.267179 0.070657
O O7 0.627852 0.215659 0.737071
O O8 0.947448 0.500000 0.349788
O O9 0.873592 0.364204 0.489457
O O10 0.000000 0.410026 0.000000
O O11 0.343527 0.284507 0.581550
O O12 0.394461 0.315428 0.683787
O O13 0.764449 0.187839 0.210843
O O14 0.124302 0.918222 0.066270
O O15 0.000000 0.000000 0.500000
#
# Coordination Sequence:
#
# PCOD9188275 Si02
#       7
#     4   8   8   8   8   4   8
#     4  12  22  38  64  86 114 153 205 242 275 355
#     4  10  19  36  58  82 112 151 197 241 281 350
#     4   8  16  33  56  79 105 146 197 236 278 343
#     4  11  21  38  59  84 115 160 197 231 293 360
#     4  10  22  35  57  86 116 150 191 246 296 338
#     4  12  22  40  58  92 117 155 195 239 293 355
#     4  12  22  36  58  87 123 148 190 245 298 347
#
# _framework density 17.500188999999999
#
# number of rings (size 3 to 8) (size 9 to 14) (size 15 to 20)
#    0.000    1.500    3.333    4.000    1.167    0.000 
#    0.000    0.000    1.833    8.000    0.000    0.000 
#    0.000    0.000    0.000    0.000    0.000    0.000 
#
# Total GULP energy -133974.221686 kJ/mol
# GULP energy per Si atom -5582.259237 kJ/mol
# Density = 1.746036 g / cm^3
# Si number density = 17.500189 Si / 1000 Ang^3
#
#
#
# Elastic Constant Matrix: (Units=GPa)
#
#
# Indices 1 2 3 4 5 6 
#
# 1 124.0145 66.0281 62.3737 0.0000 -10.2596 0.0000
# 2 66.0281 162.3497 53.9668 0.0000 -20.3388 0.0000
# 3 62.3737 53.9668 81.7421 0.0000 -11.9998 0.0000
# 4 0.0000 0.0000 0.0000 16.6151 0.0000 -4.4505
# 5 -10.2596 -20.3388 -11.9998 0.0000 38.4820 0.0000
# 6 0.0000 0.0000 0.0000 -4.4505 0.0000 23.1752
#
#
#
# Elastic Compliance Matrix: (Units=1/GPa)
#
#
# Indices 1 2 3 4 5 6 
#
# 1 0.013987 -0.002794 -0.008905 0.000000 -0.000525 0.000000
# 2 -0.002794 0.008720 -0.003204 0.000000 0.002865 0.000000
# 3 -0.008905 -0.003204 0.021533 0.000000 0.002647 0.000000
# 4 0.000000 0.000000 0.000000 0.063450 0.000000 0.012185
# 5 -0.000525 0.002865 0.002647 0.000000 0.028186 0.000000
# 6 0.000000 0.000000 0.000000 0.012185 0.000000 0.045490
#
#
# Mechanical properties :
#
#
# Convention : Reuss Voigt Hill
#
# Bulk Modulus (GPa) = 69.28840 81.42707 75.35774
# Shear Modulus (GPa) = 23.15009 28.03696 25.59353
#
# Velocity S-wave (km/s) = 3.64104 4.00696 3.82838
# Velocity P-wave (km/s) = 7.57332 8.24851 7.91811
#
# Compressibility (1/GPa) = 0.01443243
#
# Stress axis : x y z
#
# Youngs Moduli (GPa) = 71.49747 114.67967 46.44110
#
# Poissons Ratio (x) = 0.32042 0.41355
# Poissons Ratio (y) = 0.19976 0.14882
# Poissons Ratio (z) = 0.63667 0.36749
#
# Static dielectric constant tensor:
#      x y z
#    x 1.544510 0.000000 -0.031550 
#    y 0.000000 1.612740 0.000000 
#    z -0.031550 0.000000 1.540590 
# 
# From -- ./inp_files/112757.got.cif
#   From: 2010.05.17/outbox.cif.g08.bks.cpg/sg12_57_cif.got.tgz:112757.got - 2010.06.03 13:09:07.
