data_PCOD9188740
_publ_section_title
;
Structure prediction by ZEFSAII (Michael W. Deem and Ramdas Pophale) SiO2 
 PCOD9188740
Probable space group: C 2/M
;
_chemical_formula_sum "Si O2"
_cell_formula_units_Z 34
_cell_length_a 23.650850
_cell_length_b 13.771497
_cell_length_c 5.703345
_cell_angle_alpha 90.000000
_cell_angle_beta 50.654279
_cell_angle_gamma 90.000000
_cell_volume 1436.563920
_symmetry_space_group_name_H-M "C 2/M"
_symmetry_group_IT_number 12
_symmetry_cell_setting 'monoclinic'
loop_
_space_group_symop_operation_xyz
x,y,z
-x,y,-z
-x,-y,-z
x,-y,z
1/2+x,1/2+y,z
1/2-x,1/2+y,-z
1/2-x,1/2-y,-z
1/2+x,1/2-y,z
loop_
_atom_site_type_symbol
_atom_site_label
_atom_site_fract_x
_atom_site_fract_y
_atom_site_fract_z
Si Si1 0.321692 0.209429 0.556106
Si Si2 0.690522 0.610712 0.087726
Si Si3 0.027300 0.352523 0.675276
Si Si4 0.000000 0.000000 0.000000
Si Si5 0.077954 0.823599 0.034277
O O1 0.253133 0.138105 0.732869
O O2 0.385565 0.157680 0.539707
O O3 0.362341 0.245705 0.216557
O O4 0.298964 0.310516 0.737491
O O5 0.696997 0.500000 0.144820
O O6 0.611662 0.629910 0.179113
O O7 0.000000 0.395611 0.500000
O O8 0.000000 0.392913 0.000000
O O9 0.992959 0.244023 0.760711
O O10 0.941114 0.913974 0.080028
#
# Coordination Sequence:
#
# PCOD9188740 Si02
#       5
#     8   8   8   2   8
#     4  10  22  38  54  86 121 157 201 251 312 361
#     4  11  23  36  58  83 119 163 203 248 303 378
#     4  10  19  36  61  87 117 158 198 252 313 372
#     4  12  20  32  58  96 112 152 198 258 322 384
#     4  11  21  36  57  87 122 151 196 257 317 371
#
# _framework density 23.667587000000001
#
# number of rings (size 3 to 8) (size 9 to 14) (size 15 to 20)
#    0.000    1.412    7.059    0.706    1.647    0.000 
#    0.000    2.941    0.000    7.059    0.000    0.000 
#    0.000    0.000    0.000    0.000    0.000    0.000 
#
# Total GULP energy -94635.464623 kJ/mol
# GULP energy per Si atom -5566.792037 kJ/mol
# Density = 2.361372 g / cm^3
# Si number density = 23.667587 Si / 1000 Ang^3
#
#
#
# Elastic Constant Matrix: (Units=GPa)
#
#
# Indices 1 2 3 4 5 6 
#
# 1 91.5606 19.6961 16.0773 0.0000 -4.9060 0.0000
# 2 19.6961 115.4469 9.2958 0.0000 0.0182 0.0000
# 3 16.0773 9.2958 62.4056 0.0000 6.6594 0.0000
# 4 0.0000 0.0000 0.0000 -17.7057 0.0000 -17.5225
# 5 -4.9060 0.0182 6.6594 0.0000 44.0788 0.0000
# 6 0.0000 0.0000 0.0000 -17.5225 0.0000 -6.9824
#
#
#
# Elastic Compliance Matrix: (Units=1/GPa)
#
#
# Indices 1 2 3 4 5 6 
#
# 1 0.011929 -0.001794 -0.002996 0.000000 0.001781 0.000000
# 2 -0.001794 0.009039 -0.000877 0.000000 -0.000071 0.000000
# 3 -0.002996 -0.000877 0.017240 0.000000 -0.002938 0.000000
# 4 0.000000 0.000000 0.000000 0.038070 0.000000 -0.095538
# 5 0.001781 -0.000071 -0.002938 0.000000 0.023329 0.000000
# 6 0.000000 0.000000 0.000000 -0.095538 0.000000 0.096536
#
#
# Mechanical properties :
#
#
# Convention : Reuss Voigt Hill
#
# Bulk Modulus (GPa) = 37.21032 39.95017 38.58024
# Shear Modulus (GPa) = 23.10163 18.83443 20.96803
#
# Velocity S-wave (km/s) = 3.12763 2.82404 2.97970
# Velocity P-wave (km/s) = 5.36646 5.24880 5.30796
#
# Compressibility (1/GPa) = 0.02687427
#
# Stress axis : x y z
#
# Youngs Moduli (GPa) = 83.82780 110.63550 58.00421
#
# Poissons Ratio (x) = 0.19851 0.17379
# Poissons Ratio (y) = 0.15041 0.05084
# Poissons Ratio (z) = 0.25115 0.09698
#
# Static dielectric constant tensor:
#      x y z
#    x 1.921140 0.000000 0.043730 
#    y 0.000000 1.796390 0.000000 
#    z 0.043730 0.000000 2.054770 
# 
# From -- ./inp_files/19751.got.cif
#   From: 2010.05.17/outbox.cif.g08.bks.cpg/sg12_10_cif.got.tgz:19751.got - 2010.06.03 13:09:07.
