data_PCOD9188797
_publ_section_title
;
Structure prediction by ZEFSAII (Michael W. Deem and Ramdas Pophale) SiO2 
 PCOD9188797
Probable space group: C 2/M
;
_chemical_formula_sum "Si O2"
_cell_formula_units_Z 64
_cell_length_a 28.930762
_cell_length_b 13.506027
_cell_length_c 12.063899
_cell_angle_alpha 90.000000
_cell_angle_beta 41.564835
_cell_angle_gamma 90.000000
_cell_volume 3127.480356
_symmetry_space_group_name_H-M "C 2/M"
_symmetry_group_IT_number 12
_symmetry_cell_setting 'monoclinic'
loop_
_space_group_symop_operation_xyz
x,y,z
-x,y,-z
-x,-y,-z
x,-y,z
1/2+x,1/2+y,z
1/2-x,1/2+y,-z
1/2-x,1/2-y,-z
1/2+x,1/2-y,z
loop_
_atom_site_type_symbol
_atom_site_label
_atom_site_fract_x
_atom_site_fract_y
_atom_site_fract_z
Si Si1 0.319151 0.611991 0.163013
Si Si2 0.949725 0.386181 0.798146
Si Si3 0.718505 0.381910 0.025282
Si Si4 0.585228 0.777814 0.588370
Si Si5 0.825780 0.117832 0.657713
Si Si6 0.626097 0.119312 0.285546
Si Si7 0.297808 0.841044 0.457575
Si Si8 0.823986 0.667312 0.175058
O O1 0.350658 0.500000 0.114932
O O2 0.249347 0.607289 0.364111
O O3 0.350025 0.718296 0.145519
O O4 0.306387 0.633792 0.055414
O O5 0.976163 0.500000 0.751602
O O6 0.930153 0.357295 0.707645
O O7 0.005964 0.310056 0.744584
O O8 0.878364 0.382068 0.994937
O O9 0.723867 0.500000 0.024969
O O10 0.672762 0.356108 0.214175
O O11 0.797913 0.345783 0.892885
O O12 0.607847 0.665724 0.521157
O O13 0.610032 0.836845 0.433886
O O14 0.632171 0.809477 0.607062
O O15 0.754077 0.164061 0.737085
O O16 0.822445 0.000000 0.649042
O O17 0.627679 0.000000 0.291806
O O18 0.250000 0.750000 0.500000
O O19 0.318189 0.887199 0.303378
#
# Coordination Sequence:
#
# PCOD9188797 Si02
#       8
#     8   8   8   8   8   8   8   8
#     4  10  20  35  60  94 126 158 203 260 314 360
#     4  11  25  42  63  94 129 167 204 250 315 382
#     4   9  17  31  57  91 119 150 201 254 301 367
#     4  12  23  39  61  87 125 165 206 253 315 363
#     4  11  22  38  62  90 121 161 209 259 312 368
#     4  10  19  36  61  91 124 158 201 248 306 382
#     4  10  21  40  58  92 125 157 210 262 298 363
#     4  11  22  41  62  90 127 163 211 257 307 365
#
# _framework density 20.463757000000001
#
# number of rings (size 3 to 8) (size 9 to 14) (size 15 to 20)
#    0.000    1.500    5.000    1.125    1.750    4.000 
#    0.000    1.250    0.000    1.500    0.000    2.625 
#    0.000    0.000    0.000    0.000    0.000    0.000 
#
# Total GULP energy -178400.436471 kJ/mol
# GULP energy per Si atom -5575.013640 kJ/mol
# Density = 2.041718 g / cm^3
# Si number density = 20.463757 Si / 1000 Ang^3
#
#
#
# Elastic Constant Matrix: (Units=GPa)
#
#
# Indices 1 2 3 4 5 6 
#
# 1 78.1208 14.8004 28.4496 0.0000 16.6041 0.0000
# 2 14.8004 95.4461 0.0618 0.0000 -3.4738 0.0000
# 3 28.4496 0.0618 65.2429 0.0000 14.8550 0.0000
# 4 0.0000 0.0000 0.0000 -2.8509 0.0000 -34.7072
# 5 16.6041 -3.4738 14.8550 0.0000 38.2782 0.0000
# 6 0.0000 0.0000 0.0000 -34.7072 0.0000 -20.3286
#
#
#
# Elastic Compliance Matrix: (Units=1/GPa)
#
#
# Indices 1 2 3 4 5 6 
#
# 1 0.016623 -0.002759 -0.006085 0.000000 -0.005100 0.000000
# 2 -0.002759 0.010974 0.000761 0.000000 0.001898 0.000000
# 3 -0.006085 0.000761 0.019046 0.000000 -0.004683 0.000000
# 4 0.000000 0.000000 0.000000 0.017729 0.000000 -0.030269
# 5 -0.005100 0.001898 -0.004683 0.000000 0.030326 0.000000
# 6 0.000000 0.000000 0.000000 -0.030269 0.000000 0.002486
#
#
# Mechanical properties :
#
#
# Convention : Reuss Voigt Hill
#
# Bulk Modulus (GPa) = 32.81259 36.15926 34.48592
# Shear Modulus (GPa) = 40.48244 16.05295 28.26770
#
# Velocity S-wave (km/s) = 4.45258 2.80386 3.72069
# Velocity P-wave (km/s) = 6.51945 5.30946 5.94532
#
# Compressibility (1/GPa) = 0.03047611
#
# Stress axis : x y z
#
# Youngs Moduli (GPa) = 60.15626 91.12810 52.50383
#
# Poissons Ratio (x) = 0.25146 0.31948
# Poissons Ratio (y) = 0.16599 -0.03995
# Poissons Ratio (z) = 0.36605 -0.06933
#
# Static dielectric constant tensor:
#      x y z
#    x 1.704840 0.000000 0.025510 
#    y 0.000000 1.798410 0.000000 
#    z 0.025510 0.000000 1.771000 
# 
# From -- ./inp_files/189411.got.cif
#   From: 2010.05.17/outbox.cif.g08.bks.cpg/sg12_95_cif.got.tgz:189411.got - 2010.06.03 13:09:07.
