data_PCOD9188904
_publ_section_title
;
Structure prediction by ZEFSAII (Michael W. Deem and Ramdas Pophale) SiO2 
 PCOD9188904
Probable space group: C 2/M
;
_chemical_formula_sum "Si O2"
_cell_formula_units_Z 64
_cell_length_a 20.588477
_cell_length_b 17.382449
_cell_length_c 24.010924
_cell_angle_alpha 90.000000
_cell_angle_beta 21.724210
_cell_angle_gamma 90.000000
_cell_volume 3180.601693
_symmetry_space_group_name_H-M "C 2/M"
_symmetry_group_IT_number 12
_symmetry_cell_setting 'monoclinic'
loop_
_space_group_symop_operation_xyz
x,y,z
-x,y,-z
-x,-y,-z
x,-y,z
1/2+x,1/2+y,z
1/2-x,1/2+y,-z
1/2-x,1/2-y,-z
1/2+x,1/2-y,z
loop_
_atom_site_type_symbol
_atom_site_label
_atom_site_fract_x
_atom_site_fract_y
_atom_site_fract_z
Si Si1 0.719405 0.798359 0.968793
Si Si2 0.174087 0.588558 0.176605
Si Si3 0.326070 0.816878 0.481921
Si Si4 0.479098 0.081588 0.820792
Si Si5 0.024468 0.805212 0.044993
Si Si6 0.629658 0.588066 0.479902
Si Si7 0.988754 0.910301 0.306487
Si Si8 0.178096 0.251814 0.389381
O O1 0.875348 0.855865 0.832688
O O2 0.750000 0.750000 0.000000
O O3 0.549832 0.849479 0.115141
O O4 0.675193 0.747197 0.951931
O O5 0.139702 0.500000 0.222170
O O6 0.146535 0.589383 0.131725
O O7 0.022501 0.648524 0.317564
O O8 0.374240 0.612922 0.030616
O O9 0.250000 0.750000 0.500000
O O10 0.196436 0.887424 0.572725
O O11 0.309305 0.784141 0.557646
O O12 0.679252 0.082988 0.642981
O O13 0.446065 0.000000 0.875299
O O14 0.846002 0.784752 0.221038
O O15 0.000000 0.788335 0.000000
O O16 0.594445 0.500000 0.487173
O O17 0.505613 0.606129 0.631280
O O18 0.651417 0.658631 0.419773
O O19 0.024353 0.000000 0.270808
O O20 0.000000 0.277710 0.500000
#
# Coordination Sequence:
#
# PCOD9188904 Si02
#       8
#     8   8   8   8   8   8   8   8
#     4  12  23  39  65  96 129 171 218 274 320 383
#     4  11  23  42  67  96 134 175 214 265 331 393
#     4  12  22  40  71 102 132 168 214 274 321 385
#     4  10  19  36  62  96 131 166 208 261 328 390
#     4  12  27  45  65  94 130 175 226 270 327 386
#     4  10  21  40  66  97 132 170 211 264 329 397
#     4  11  23  38  65 102 137 166 208 269 331 390
#     4  12  26  44  67  94 130 173 220 274 328 389
#
# _framework density 20.121980000000001
#
# number of rings (size 3 to 8) (size 9 to 14) (size 15 to 20)
#    0.000    0.750    5.000    3.000    1.750    0.500 
#    0.000    0.625    0.000    4.500    0.000    0.000 
#    0.000    0.000    0.000    0.000    0.000    0.000 
#
# Total GULP energy -178352.560846 kJ/mol
# GULP energy per Si atom -5573.517526 kJ/mol
# Density = 2.007618 g / cm^3
# Si number density = 20.121980 Si / 1000 Ang^3
#
#
#
# Elastic Constant Matrix: (Units=GPa)
#
#
# Indices 1 2 3 4 5 6 
#
# 1 116.3846 35.9446 43.4806 0.0027 -0.3204 -0.0069
# 2 35.9446 107.1739 65.7669 0.0096 8.9667 -0.0126
# 3 43.4806 65.7669 129.9450 0.0188 2.6019 -0.0308
# 4 0.0027 0.0096 0.0188 35.4139 -0.0107 -4.2129
# 5 -0.3204 8.9667 2.6019 -0.0107 22.8710 0.0169
# 6 -0.0069 -0.0126 -0.0308 -4.2129 0.0169 9.6407
#
#
#
# Elastic Compliance Matrix: (Units=1/GPa)
#
#
# Indices 1 2 3 4 5 6 
#
# 1 0.010112 -0.002033 -0.002379 0.000001 0.001209 -0.000005
# 2 -0.002033 0.014429 -0.006524 -0.000001 -0.004943 0.000005
# 3 -0.002379 -0.006524 0.011770 -0.000001 0.001185 0.000025
# 4 0.000001 -0.000001 -0.000001 0.029786 0.000005 0.013016
# 5 0.001209 -0.004943 0.001185 0.000005 0.045544 -0.000080
# 6 -0.000005 0.000005 0.000025 0.013016 -0.000080 0.109416
#
#
# Mechanical properties :
#
#
# Convention : Reuss Voigt Hill
#
# Bulk Modulus (GPa) = 69.25177 71.54306 70.39742
# Shear Modulus (GPa) = 20.18243 27.47255 23.82749
#
# Velocity S-wave (km/s) = 3.17046 3.69901 3.44488
# Velocity P-wave (km/s) = 6.92049 7.33999 7.13332
#
# Compressibility (1/GPa) = 0.01444006
#
# Stress axis : x y z
#
# Youngs Moduli (GPa) = 98.89122 69.30403 84.96493
#
# Poissons Ratio (x) = 0.14088 0.20213
# Poissons Ratio (y) = 0.20102 0.55428
# Poissons Ratio (z) = 0.23526 0.45211
#
# Static dielectric constant tensor:
#      x y z
#    x 1.688120 0.000000 0.010400 
#    y 0.000000 1.760460 0.000010 
#    z 0.010400 0.000010 1.803340 
# 
# From -- ./inp_files/347851.got.cif
#   From: 2010.05.17/outbox.cif.g08.bks.cpg/sg12_174_cif.got.tgz:347851.got - 2010.06.03 13:09:07.
