data_PCOD9188873
_publ_section_title
;
Structure prediction by ZEFSAII (Michael W. Deem and Ramdas Pophale) SiO2 
 PCOD9188873
Probable space group: C 2/M
;
_chemical_formula_sum "Si O2"
_cell_formula_units_Z 64
_cell_length_a 15.118850
_cell_length_b 8.215424
_cell_length_c 22.642728
_cell_angle_alpha 90.000000
_cell_angle_beta 79.008624
_cell_angle_gamma 90.000000
_cell_volume 2760.811580
_symmetry_space_group_name_H-M "C 2/M"
_symmetry_group_IT_number 12
_symmetry_cell_setting 'monoclinic'
loop_
_space_group_symop_operation_xyz
x,y,z
-x,y,-z
-x,-y,-z
x,-y,z
1/2+x,1/2+y,z
1/2-x,1/2+y,-z
1/2-x,1/2-y,-z
1/2+x,1/2-y,z
loop_
_atom_site_type_symbol
_atom_site_label
_atom_site_fract_x
_atom_site_fract_y
_atom_site_fract_z
Si Si1 0.125116 0.308314 0.149014
Si Si2 0.541606 0.188053 0.398452
Si Si3 0.872209 0.300877 0.355667
Si Si4 0.039646 0.189684 0.898266
Si Si5 0.858668 0.810579 0.728165
Si Si6 0.293786 0.696619 0.055398
Si Si7 0.796545 0.192718 0.553813
Si Si8 0.853809 0.304048 0.227830
O O1 0.130335 0.500000 0.160696
O O2 0.098761 0.221142 0.213009
O O3 0.222091 0.247910 0.114007
O O4 0.052348 0.278414 0.106914
O O5 0.444339 0.260724 0.394189
O O6 0.596624 0.209587 0.330009
O O7 0.603060 0.255139 0.442849
O O8 0.527656 0.000000 0.413304
O O9 0.873749 0.500000 0.356004
O O10 0.772230 0.248771 0.386344
O O11 0.894602 0.254708 0.286018
O O12 0.105020 0.252244 0.942138
O O13 0.101593 0.210883 0.831943
O O14 0.018863 0.000000 0.911335
O O15 0.752873 0.774284 0.751427
O O16 0.866176 0.000000 0.710179
O O17 0.296074 0.500000 0.056821
O O18 0.250000 0.750000 0.000000
O O19 0.750000 0.250000 0.500000
O O20 0.795310 0.000000 0.554194
O O21 0.867166 0.500000 0.217450
#
# Coordination Sequence:
#
# PCOD9188873 Si02
#       8
#     8   8   8   8   8   8   8   8
#     4  11  23  41  62  90 124 161 201 246 301 366
#     4  11  22  38  63  92 120 159 201 244 298 359
#     4   9  20  39  61  85 119 158 196 236 291 361
#     4  11  23  40  61  92 124 156 199 251 301 355
#     4  11  21  36  62  94 125 160 198 246 301 357
#     4  10  24  43  63  86 119 158 205 255 303 356
#     4  11  23  43  63  85 118 157 204 254 302 359
#     4  10  19  36  62  90 121 162 198 237 300 364
#
# _framework density 23.181588999999999
#
# number of rings (size 3 to 8) (size 9 to 14) (size 15 to 20)
#    0.000    1.500    2.500    2.625    0.000    4.500 
#    0.000    8.125    0.000    0.000    0.000    0.000 
#    0.000    0.000    0.000    0.000    0.000    0.000 
#
# Total GULP energy -178940.046849 kJ/mol
# GULP energy per Si atom -5591.876464 kJ/mol
# Density = 2.312883 g / cm^3
# Si number density = 23.181589 Si / 1000 Ang^3
#
#
#
# Elastic Constant Matrix: (Units=GPa)
#
#
# Indices 1 2 3 4 5 6 
#
# 1 107.6907 3.5473 3.7137 0.0000 35.4091 0.0000
# 2 3.5473 13.5123 -9.7599 0.0000 3.3127 0.0000
# 3 3.7137 -9.7599 63.3389 0.0000 32.1649 0.0000
# 4 0.0000 0.0000 0.0000 26.8769 0.0000 4.9483
# 5 35.4091 3.3127 32.1649 0.0000 43.7233 0.0000
# 6 0.0000 0.0000 0.0000 4.9483 0.0000 22.5318
#
#
#
# Elastic Compliance Matrix: (Units=1/GPa)
#
#
# Indices 1 2 3 4 5 6 
#
# 1 0.015960 0.010070 0.012080 0.000000 -0.022575 0.000000
# 2 0.010070 0.111484 0.039939 0.000000 -0.045983 0.000000
# 3 0.012080 0.039939 0.044281 0.000000 -0.045384 0.000000
# 4 0.000000 0.000000 0.000000 0.038774 0.000000 -0.008515
# 5 -0.022575 -0.045983 -0.045384 0.000000 0.078023 0.000000
# 6 0.000000 0.000000 0.000000 -0.008515 0.000000 0.046252
#
#
# Mechanical properties :
#
#
# Convention : Reuss Voigt Hill
#
# Bulk Modulus (GPa) = 3.37948 19.94934 11.66441
# Shear Modulus (GPa) = 16.16909 31.09580 23.63244
#
# Velocity S-wave (km/s) = 2.64388 3.66649 3.19634
# Velocity P-wave (km/s) = 3.28347 5.15253 4.32028
#
# Compressibility (1/GPa) = 0.29590318
#
# Stress axis : x y z
#
# Youngs Moduli (GPa) = 62.65578 8.96987 22.58303
#
# Poissons Ratio (x) = -0.09032 -0.27280
# Poissons Ratio (y) = -0.63092 -0.90195
# Poissons Ratio (z) = -0.75687 -0.35825
#
# Static dielectric constant tensor:
#      x y z
#    x 1.884120 0.000000 0.008290 
#    y 0.000000 1.798980 0.000000 
#    z 0.008290 0.000000 1.880580 
# 
# From -- ./inp_files/338666.got.cif
#   From: 2010.05.17/outbox.cif.g08.bks.cpg/sg12_170_cif.got.tgz:338666.got - 2010.06.03 13:09:07.
