data_PCOD9188678
_publ_section_title
;
Structure prediction by ZEFSAII (Michael W. Deem and Ramdas Pophale) SiO2 
 PCOD9188678
Probable space group: C 2/M
;
_chemical_formula_sum "Si O2"
_cell_formula_units_Z 56
_cell_length_a 15.027812
_cell_length_b 22.163847
_cell_length_c 8.602536
_cell_angle_alpha 90.000000
_cell_angle_beta 110.855535
_cell_angle_gamma 90.000000
_cell_volume 2677.551861
_symmetry_space_group_name_H-M "C 2/M"
_symmetry_group_IT_number 12
_symmetry_cell_setting 'monoclinic'
loop_
_space_group_symop_operation_xyz
x,y,z
-x,y,-z
-x,-y,-z
x,-y,z
1/2+x,1/2+y,z
1/2-x,1/2+y,-z
1/2-x,1/2-y,-z
1/2+x,1/2-y,z
loop_
_atom_site_type_symbol
_atom_site_label
_atom_site_fract_x
_atom_site_fract_y
_atom_site_fract_z
Si Si1 0.748032 0.658555 0.698786
Si Si2 0.307270 0.572138 0.844242
Si Si3 0.393446 0.247053 0.940433
Si Si4 0.901256 0.570564 0.751985
Si Si5 0.118280 0.159544 0.349133
Si Si6 0.111185 0.429189 0.878894
Si Si7 0.405059 0.358901 0.165668
O O1 0.810592 0.700016 0.852592
O O2 0.820649 0.616311 0.650482
O O3 0.676403 0.687153 0.528750
O O4 0.675124 0.622583 0.762132
O O5 0.307643 0.500000 0.839492
O O6 0.327900 0.602367 0.692049
O O7 0.205957 0.594775 0.854626
O O8 0.389787 0.597009 0.010296
O O9 0.387227 0.291926 0.791145
O O10 0.500000 0.219263 0.000000
O O11 0.386618 0.290815 0.086264
O O12 0.889894 0.500000 0.700779
O O13 0.006048 0.593194 0.768041
O O14 0.889569 0.573114 0.933541
O O15 0.008805 0.140872 0.306253
O O16 0.109946 0.500000 0.839101
#
# Coordination Sequence:
#
# PCOD9188678 Si02
#       7
#     8   8   8   8   8   8   8
#     4  12  21  34  61  83 111 147 186 225 281 336
#     4  10  19  36  61  82 107 152 195 223 268 333
#     4   9  21  39  59  81 106 141 188 232 276 333
#     4   9  18  31  51  84 116 137 172 230 280 319
#     4  10  23  39  52  80 120 149 176 232 283 324
#     4   8  15  31  53  78 110 141 177 226 269 313
#     4  10  21  38  57  81 112 145 191 232 272 318
#
# _framework density 20.914628
#
# number of rings (size 3 to 8) (size 9 to 14) (size 15 to 20)
#    0.000    2.286    1.429    3.429    2.000    1.714 
#    0.000    0.714    0.000    5.143    0.000    0.000 
#    0.000    0.000    0.000    0.000    0.000    0.000 
#
# Total GULP energy -156017.799037 kJ/mol
# GULP energy per Si atom -5572.064251 kJ/mol
# Density = 2.086703 g / cm^3
# Si number density = 20.914628 Si / 1000 Ang^3
#
#
#
# Elastic Constant Matrix: (Units=GPa)
#
#
# Indices 1 2 3 4 5 6 
#
# 1 117.4918 24.7719 27.5557 0.0000 36.5285 0.0000
# 2 24.7719 50.9439 4.9117 0.0000 12.5411 0.0000
# 3 27.5557 4.9117 73.3336 0.0000 27.6384 0.0000
# 4 0.0000 0.0000 0.0000 10.1257 0.0000 5.5001
# 5 36.5285 12.5411 27.6384 0.0000 28.0133 0.0000
# 6 0.0000 0.0000 0.0000 5.5001 0.0000 23.4590
#
#
#
# Elastic Compliance Matrix: (Units=1/GPa)
#
#
# Indices 1 2 3 4 5 6 
#
# 1 0.014887 -0.002377 0.002357 0.000000 -0.020673 0.000000
# 2 -0.002377 0.023045 0.003295 0.000000 -0.010468 0.000000
# 3 0.002357 0.003295 0.022676 0.000000 -0.026921 0.000000
# 4 0.000000 0.000000 0.000000 0.113172 0.000000 -0.026534
# 5 -0.020673 -0.010468 -0.026921 0.000000 0.093902 0.000000
# 6 0.000000 0.000000 0.000000 -0.026534 0.000000 0.048849
#
#
# Mechanical properties :
#
#
# Convention : Reuss Voigt Hill
#
# Bulk Modulus (GPa) = 14.89034 39.58308 27.23671
# Shear Modulus (GPa) = 15.04363 24.62159 19.83261
#
# Velocity S-wave (km/s) = 2.68486 3.43482 3.08273
# Velocity P-wave (km/s) = 4.09223 5.89048 5.07169
#
# Compressibility (1/GPa) = 0.06715764
#
# Stress axis : x y z
#
# Youngs Moduli (GPa) = 67.17236 43.39429 44.09900
#
# Poissons Ratio (x) = 0.10314 -0.10393
# Poissons Ratio (y) = 0.15966 -0.14531
# Poissons Ratio (z) = -0.15831 -0.14298
#
# Static dielectric constant tensor:
#      x y z
#    x 1.787400 0.000000 0.025020 
#    y 0.000000 1.775070 0.000000 
#    z 0.025020 0.000000 1.786560 
# 
# From -- ./inp_files/65973.got.cif
#   From: 2010.05.17/outbox.cif.g08.bks.cpg/sg12_33_cif.got.tgz:65973.got - 2010.06.03 13:09:07.
