data_PCOD9188769
_publ_section_title
;
Structure prediction by ZEFSAII (Michael W. Deem and Ramdas Pophale) SiO2 
 PCOD9188769
Probable space group: C 2/M
;
_chemical_formula_sum "Si O2"
_cell_formula_units_Z 56
_cell_length_a 22.685190
_cell_length_b 11.375437
_cell_length_c 27.553411
_cell_angle_alpha 90.000000
_cell_angle_beta 156.010822
_cell_angle_gamma 90.000000
_cell_volume 2890.779014
_symmetry_space_group_name_H-M "C 2/M"
_symmetry_group_IT_number 12
_symmetry_cell_setting 'monoclinic'
loop_
_space_group_symop_operation_xyz
x,y,z
-x,y,-z
-x,-y,-z
x,-y,z
1/2+x,1/2+y,z
1/2-x,1/2+y,-z
1/2-x,1/2-y,-z
1/2+x,1/2-y,z
loop_
_atom_site_type_symbol
_atom_site_label
_atom_site_fract_x
_atom_site_fract_y
_atom_site_fract_z
Si Si1 0.616188 0.360516 0.691590
Si Si2 0.417870 0.634997 0.157919
Si Si3 0.172368 0.133938 0.576458
Si Si4 0.647624 0.203307 0.380280
Si Si5 0.116800 0.626914 0.757637
Si Si6 0.150932 0.216725 0.999754
Si Si7 0.874957 0.362238 0.814292
O O1 0.590636 0.500000 0.687537
O O2 0.491230 0.328738 0.558202
O O3 0.607180 0.252693 0.722633
O O4 0.773069 0.357621 0.784640
O O5 0.415629 0.500000 0.168831
O O6 0.560783 0.694095 0.287348
O O7 0.408275 0.653586 0.092932
O O8 0.276564 0.696056 0.074724
O O9 0.256383 0.140915 0.588455
O O10 0.275478 0.187117 0.695170
O O11 0.156929 0.000000 0.581428
O O12 0.750000 0.250000 0.500000
O O13 0.520088 0.128594 0.308880
O O14 0.112585 0.500000 0.727658
O O15 0.264529 0.634278 0.899454
O O16 0.021353 0.288722 0.926665
O O17 0.911264 0.500000 0.832080
#
# Coordination Sequence:
#
# PCOD9188769 Si02
#       7
#     8   8   8   8   8   8   8
#     4  10  22  40  63  90 121 157 203 252 300 354
#     4  10  21  36  57  84 118 156 194 244 297 353
#     4  10  19  36  61  89 118 149 194 249 301 353
#     4  11  21  37  59  90 119 155 193 241 299 368
#     4  11  24  40  60  89 126 163 200 246 301 360
#     4  10  21  38  57  83 119 154 204 246 294 352
#     4  10  20  37  64  90 114 155 206 254 297 352
#
# _framework density 19.371939999999999
#
# number of rings (size 3 to 8) (size 9 to 14) (size 15 to 20)
#    0.000    1.714    2.857    1.714    0.000    6.286 
#    0.000    3.571    0.000    0.857    0.000    0.000 
#    0.000    0.000    0.000    0.000    0.000    0.000 
#
# Total GULP energy -156079.296832 kJ/mol
# GULP energy per Si atom -5574.260601 kJ/mol
# Density = 1.932785 g / cm^3
# Si number density = 19.371940 Si / 1000 Ang^3
#
#
#
# Elastic Constant Matrix: (Units=GPa)
#
#
# Indices 1 2 3 4 5 6 
#
# 1 29.8962 10.7991 -0.1945 0.0011 15.2952 -0.0003
# 2 10.7991 95.3666 20.7174 -0.0004 -4.6475 -0.0002
# 3 -0.1945 20.7174 99.9765 0.0004 4.3852 -0.0006
# 4 0.0011 -0.0004 0.0004 7.0662 -0.0005 -4.9878
# 5 15.2952 -4.6475 4.3852 -0.0005 35.6825 0.0002
# 6 -0.0003 -0.0002 -0.0006 -4.9878 0.0002 17.2732
#
#
#
# Elastic Compliance Matrix: (Units=1/GPa)
#
#
# Indices 1 2 3 4 5 6 
#
# 1 0.046828 -0.006871 0.002448 -0.000011 -0.021268 -0.000002
# 2 -0.006871 0.012094 -0.002733 0.000003 0.004856 0.000001
# 3 0.002448 -0.002733 0.010693 -0.000001 -0.002719 0.000000
# 4 -0.000011 0.000003 -0.000001 0.177747 0.000007 0.051326
# 5 -0.021268 0.004856 -0.002719 0.000007 0.038108 0.000001
# 6 -0.000002 0.000001 0.000000 0.051326 0.000001 0.072714
#
#
# Mechanical properties :
#
#
# Convention : Reuss Voigt Hill
#
# Bulk Modulus (GPa) = 18.08210 31.98706 25.03458
# Shear Modulus (GPa) = 12.79002 24.93220 18.86111
#
# Velocity S-wave (km/s) = 2.57229 3.59141 3.12369
# Velocity P-wave (km/s) = 4.26341 5.80909 5.09520
#
# Compressibility (1/GPa) = 0.05530331
#
# Stress axis : x y z
#
# Youngs Moduli (GPa) = 21.35477 82.68428 93.52230
#
# Poissons Ratio (x) = 0.56812 -0.22892
# Poissons Ratio (y) = 0.14673 0.25556
# Poissons Ratio (z) = -0.05227 0.22594
#
# Static dielectric constant tensor:
#      x y z
#    x 1.703050 0.000000 -0.022670 
#    y 0.000000 1.669680 0.000000 
#    z -0.022670 0.000000 1.687940 
# 
# From -- ./inp_files/174476.got.cif
#   From: 2010.05.17/outbox.cif.g08.bks.cpg/sg12_88_cif.got.tgz:174476.got - 2010.06.03 13:09:07.
