data_PCOD9188437
_publ_section_title
;
Structure prediction by ZEFSAII (Michael W. Deem and Ramdas Pophale) SiO2 
 PCOD9188437
Probable space group: C 2/M
;
_chemical_formula_sum "Si O2"
_cell_formula_units_Z 64
_cell_length_a 15.855810
_cell_length_b 7.621520
_cell_length_c 26.134896
_cell_angle_alpha 90.000000
_cell_angle_beta 107.491949
_cell_angle_gamma 90.000000
_cell_volume 3012.239790
_symmetry_space_group_name_H-M "C 2/M"
_symmetry_group_IT_number 12
_symmetry_cell_setting 'monoclinic'
loop_
_space_group_symop_operation_xyz
x,y,z
-x,y,-z
-x,-y,-z
x,-y,z
1/2+x,1/2+y,z
1/2-x,1/2+y,-z
1/2-x,1/2-y,-z
1/2+x,1/2-y,z
loop_
_atom_site_type_symbol
_atom_site_label
_atom_site_fract_x
_atom_site_fract_y
_atom_site_fract_z
Si Si1 0.995422 0.708565 0.941219
Si Si2 0.189899 0.208180 0.939663
Si Si3 0.249891 0.791893 0.743725
Si Si4 0.192963 0.715784 0.134378
Si Si5 0.548532 0.799125 0.557701
Si Si6 0.739578 0.290720 0.557676
Si Si7 0.633463 0.785952 0.329464
Si Si8 0.053335 0.712545 0.673228
O O1 0.982422 0.500000 0.943592
O O2 0.089195 0.733335 0.930524
O O3 0.907098 0.773299 0.896937
O O4 0.000000 0.780867 0.000000
O O5 0.240312 0.275145 0.898308
O O6 0.186677 0.000000 0.934472
O O7 0.250000 0.250000 0.000000
O O8 0.276503 0.723150 0.804227
O O9 0.308240 0.721280 0.707298
O O10 0.147130 0.767332 0.712417
O O11 0.266956 0.000000 0.748184
O O12 0.194416 0.500000 0.134600
O O13 0.500000 0.715738 0.500000
O O14 0.651602 0.797630 0.563138
O O15 0.539795 0.721630 0.612548
O O16 0.514095 0.000000 0.555068
O O17 0.728815 0.500000 0.561369
O O18 0.750000 0.250000 0.500000
O O19 0.821051 0.236064 0.608461
O O20 0.531699 0.731038 0.309986
O O21 0.634380 0.000000 0.328670
O O22 0.054622 0.500000 0.671264
#
# Coordination Sequence:
#
# PCOD9188437 Si02
#       8
#     8   8   8   8   8   8   8   8
#     4  10  19  36  59  85 116 152 190 234 286 341
#     4  11  21  36  57  86 118 154 194 237 288 340
#     4  10  20  39  61  81 110 152 195 232 276 336
#     4   9  20  37  58  82 115 154 189 230 287 343
#     4  10  20  35  55  80 114 149 183 230 290 342
#     4  11  21  35  55  82 112 144 186 233 284 342
#     4   9  19  36  58  80 108 147 187 226 277 339
#     4  10  20  36  58  83 112 146 185 234 287 334
#
# _framework density 21.246648
#
# number of rings (size 3 to 8) (size 9 to 14) (size 15 to 20)
#    0.000    2.000    2.500    1.500    0.000    3.500 
#    0.000    6.250    0.000    0.000    0.000    0.000 
#    0.000    0.000    0.000    0.000    0.000    0.000 
#
# Total GULP energy -178723.283942 kJ/mol
# GULP energy per Si atom -5585.102623 kJ/mol
# Density = 2.119829 g / cm^3
# Si number density = 21.246648 Si / 1000 Ang^3
#
#
#
# Elastic Constant Matrix: (Units=GPa)
#
#
# Indices 1 2 3 4 5 6 
#
# 1 186.7300 -12.3313 105.3441 0.0000 -0.1966 0.0000
# 2 -12.3313 42.8108 4.9142 0.0000 -0.2329 0.0000
# 3 105.3441 4.9142 194.6131 0.0000 3.8816 0.0000
# 4 0.0000 0.0000 0.0000 12.6790 0.0000 1.5276
# 5 -0.1966 -0.2329 3.8816 0.0000 30.4548 0.0000
# 6 0.0000 0.0000 0.0000 1.5276 0.0000 28.9075
#
#
#
# Elastic Compliance Matrix: (Units=1/GPa)
#
#
# Indices 1 2 3 4 5 6 
#
# 1 0.008048 0.002831 -0.004441 0.000000 0.000640 0.000000
# 2 0.002831 0.024425 -0.002159 0.000000 0.000480 0.000000
# 3 -0.004441 -0.002159 0.007617 0.000000 -0.001016 0.000000
# 4 0.000000 0.000000 0.000000 0.079376 0.000000 -0.004195
# 5 0.000640 0.000480 -0.001016 0.000000 0.032973 0.000000
# 6 0.000000 0.000000 0.000000 -0.004195 0.000000 0.034815
#
#
# Mechanical properties :
#
#
# Convention : Reuss Voigt Hill
#
# Bulk Modulus (GPa) = 30.71894 68.88976 49.80435
# Shear Modulus (GPa) = 24.31421 36.15671 30.23546
#
# Velocity S-wave (km/s) = 3.38654 4.12972 3.77645
# Velocity P-wave (km/s) = 5.45721 7.43193 6.51977
#
# Compressibility (1/GPa) = 0.03255320
#
# Stress axis : x y z
#
# Youngs Moduli (GPa) = 124.25053 40.94235 131.28579
#
# Poissons Ratio (x) = -0.11593 0.58301
# Poissons Ratio (y) = -0.35181 0.28345
# Poissons Ratio (z) = 0.55177 0.08839
#
# Static dielectric constant tensor:
#      x y z
#    x 1.729900 0.000000 -0.012590 
#    y 0.000000 1.818930 0.000000 
#    z -0.012590 0.000000 1.754620 
# 
# From -- ./inp_files/359894.got.cif
#   From: 2010.05.17/outbox.cif.g08.bks.cpg/sg12_180_cif.got.tgz:359894.got - 2010.06.03 13:09:07.
