data_PCOD9188457
_publ_section_title
;
Structure prediction by ZEFSAII (Michael W. Deem and Ramdas Pophale) SiO2 
 PCOD9188457
Probable space group: C 2/M
;
_chemical_formula_sum "Si O2"
_cell_formula_units_Z 52
_cell_length_a 9.051970
_cell_length_b 16.722399
_cell_length_c 18.208766
_cell_angle_alpha 90.000000
_cell_angle_beta 126.610859
_cell_angle_gamma 90.000000
_cell_volume 2212.472488
_symmetry_space_group_name_H-M "C 2/M"
_symmetry_group_IT_number 12
_symmetry_cell_setting 'monoclinic'
loop_
_space_group_symop_operation_xyz
x,y,z
-x,y,-z
-x,-y,-z
x,-y,z
1/2+x,1/2+y,z
1/2-x,1/2+y,-z
1/2-x,1/2-y,-z
1/2+x,1/2-y,z
loop_
_atom_site_type_symbol
_atom_site_label
_atom_site_fract_x
_atom_site_fract_y
_atom_site_fract_z
Si Si1 0.315961 0.909527 0.293842
Si Si2 0.064720 0.097293 0.630057
Si Si3 0.261563 0.090144 0.835958
Si Si4 0.294200 0.902513 0.553475
Si Si5 0.390515 0.880597 0.151898
Si Si6 0.500000 0.336868 0.000000
Si Si7 0.028976 0.798784 0.846415
O O1 0.493692 0.877705 0.390815
O O2 0.394128 0.917086 0.233819
O O3 0.144071 0.849683 0.235588
O O4 0.263731 0.000000 0.303408
O O5 0.144337 0.122606 0.731394
O O6 0.197317 0.121516 0.601915
O O7 0.855246 0.122254 0.551770
O O8 0.068634 0.000000 0.631338
O O9 0.465559 0.088582 0.864584
O O10 0.209540 0.148052 0.885929
O O11 0.204823 0.000000 0.837327
O O12 0.300196 0.000000 0.555016
O O13 0.184506 0.887964 0.061231
O O14 0.440331 0.787390 0.178206
O O15 0.493872 0.287833 0.073333
#
# Coordination Sequence:
#
# PCOD9188457 Si02
#       7
#     8   8   8   8   8   4   8
#     4  10  19  36  59  87 119 155 191 230 281 338
#     4   8  14  26  51  85 115 146 193 235 266 318
#     4  11  21  37  60  91 119 145 186 245 290 323
#     4   8  13  26  52  83 113 153 195 227 261 326
#     4  11  22  40  64  85 110 148 193 237 282 345
#     4  10  24  44  63  80 105 154 200 226 272 366
#     4  11  24  40  60  83 115 150 189 235 290 346
#
# _framework density 23.503115999999999
#
# number of rings (size 3 to 8) (size 9 to 14) (size 15 to 20)
#    0.000    2.154    1.538    4.154    0.000    0.615 
#    0.000   15.385    0.000    9.231    0.000    0.000 
#    0.000    0.000    0.000    0.000    0.000    0.000 
#
# Total GULP energy -145301.182609 kJ/mol
# GULP energy per Si atom -5588.507023 kJ/mol
# Density = 2.344962 g / cm^3
# Si number density = 23.503116 Si / 1000 Ang^3
#
#
#
# Elastic Constant Matrix: (Units=GPa)
#
#
# Indices 1 2 3 4 5 6 
#
# 1 95.0990 24.8362 26.2116 0.0000 24.2463 0.0000
# 2 24.8362 77.9409 7.6770 0.0000 5.7759 0.0000
# 3 26.2116 7.6770 101.3374 0.0000 38.1090 0.0000
# 4 0.0000 0.0000 0.0000 2.6900 0.0000 5.6789
# 5 24.2463 5.7759 38.1090 0.0000 40.0195 0.0000
# 6 0.0000 0.0000 0.0000 5.6789 0.0000 21.5177
#
#
#
# Elastic Compliance Matrix: (Units=1/GPa)
#
#
# Indices 1 2 3 4 5 6 
#
# 1 0.013440 -0.003704 -0.000521 0.000000 -0.007112 0.000000
# 2 -0.003704 0.014002 -0.000291 0.000000 0.000500 0.000000
# 3 -0.000521 -0.000291 0.015408 0.000000 -0.014315 0.000000
# 4 0.000000 0.000000 0.000000 0.839477 0.000000 -0.221554
# 5 -0.007112 0.000500 -0.014315 0.000000 0.042856 0.000000
# 6 0.000000 0.000000 0.000000 -0.221554 0.000000 0.104946
#
#
# Mechanical properties :
#
#
# Convention : Reuss Voigt Hill
#
# Bulk Modulus (GPa) = 29.57055 43.53631 36.55343
# Shear Modulus (GPa) = 4.75994 27.22227 15.99110
#
# Velocity S-wave (km/s) = 1.42465 3.40699 2.61124
# Velocity P-wave (km/s) = 3.91344 5.83443 4.96768
#
# Compressibility (1/GPa) = 0.03381743
#
# Stress axis : x y z
#
# Youngs Moduli (GPa) = 74.40714 71.41748 64.90093
#
# Poissons Ratio (x) = 0.26455 0.03383
# Poissons Ratio (y) = 0.27562 0.01887
# Poissons Ratio (z) = 0.03878 0.02077
#
# Static dielectric constant tensor:
#      x y z
#    x 1.910250 0.000000 0.029880 
#    y 0.000000 1.844190 0.000000 
#    z 0.029880 0.000000 1.941500 
# 
# From -- ./inp_files/301168.got.cif
#   From: 2010.05.17/outbox.cif.g08.bks.cpg/sg12_151_cif.got.tgz:301168.got - 2010.06.03 13:09:07.
