data_PCOD9188944
_publ_section_title
;
Structure prediction by ZEFSAII (Michael W. Deem and Ramdas Pophale) SiO2 
 PCOD9188944
Probable space group: C 2/M
;
_chemical_formula_sum "Si O2"
_cell_formula_units_Z 40
_cell_length_a 13.852802
_cell_length_b 11.521928
_cell_length_c 12.102308
_cell_angle_alpha 90.000000
_cell_angle_beta 68.758296
_cell_angle_gamma 90.000000
_cell_volume 1800.424910
_symmetry_space_group_name_H-M "C 2/M"
_symmetry_group_IT_number 12
_symmetry_cell_setting 'monoclinic'
loop_
_space_group_symop_operation_xyz
x,y,z
-x,y,-z
-x,-y,-z
x,-y,z
1/2+x,1/2+y,z
1/2-x,1/2+y,-z
1/2-x,1/2-y,-z
1/2+x,1/2-y,z
loop_
_atom_site_type_symbol
_atom_site_label
_atom_site_fract_x
_atom_site_fract_y
_atom_site_fract_z
Si Si1 0.118879 0.124726 0.987008
Si Si2 0.707818 0.170963 0.257287
Si Si3 0.573620 0.866945 0.110588
Si Si4 0.159312 0.364951 0.734316
Si Si5 0.900980 0.633387 0.479796
O O1 0.129054 0.252107 0.038911
O O2 0.139211 0.000000 0.039286
O O3 0.194658 0.122413 0.850544
O O4 0.000000 0.121247 0.000000
O O5 0.609212 0.139517 0.223704
O O6 0.742062 0.304149 0.253613
O O7 0.686491 0.130841 0.389957
O O8 0.449534 0.851622 0.154922
O O9 0.598344 0.000000 0.061951
O O10 0.179930 0.500000 0.716685
O O11 0.136198 0.315568 0.620879
O O12 0.930365 0.500000 0.441177
O O13 0.000000 0.689717 0.500000
#
# Coordination Sequence:
#
# PCOD9188944 Si02
#       5
#     8   8   8   8   8
#     4  11  24  41  61  94 133 167 205 259 320 375
#     4  12  22  38  65  91 123 167 210 257 315 376
#     4  11  23  42  67  94 123 168 220 259 304 375
#     4  10  22  39  61  93 127 162 210 263 315 372
#     4  10  19  36  63  92 121 158 209 264 310 370
#
# _framework density 22.216978000000001
#
# number of rings (size 3 to 8) (size 9 to 14) (size 15 to 20)
#    0.000    1.200    4.000    3.000    0.000    2.000 
#    0.000    0.000    0.000    0.600    0.000    0.000 
#    0.000    0.000    0.000    0.000    0.000    0.000 
#
# Total GULP energy -111495.110814 kJ/mol
# GULP energy per Si atom -5574.755541 kJ/mol
# Density = 2.216641 g / cm^3
# Si number density = 22.216978 Si / 1000 Ang^3
#
#
#
# Elastic Constant Matrix: (Units=GPa)
#
#
# Indices 1 2 3 4 5 6 
#
# 1 61.1567 25.8647 -4.2660 0.0000 -2.5908 0.0000
# 2 25.8647 164.2330 43.5082 0.0000 3.8052 0.0000
# 3 -4.2660 43.5082 85.1429 0.0000 -10.4568 0.0000
# 4 0.0000 0.0000 0.0000 44.1953 0.0000 -112.6020
# 5 -2.5908 3.8052 -10.4568 0.0000 24.5176 0.0000
# 6 0.0000 0.0000 0.0000 -112.6020 0.0000 741.6584
#
#
#
# Elastic Compliance Matrix: (Units=1/GPa)
#
#
# Indices 1 2 3 4 5 6 
#
# 1 0.018405 -0.003893 0.003403 0.000000 0.004000 0.000000
# 2 -0.003893 0.008049 -0.004761 0.000000 -0.003691 0.000000
# 3 0.003403 -0.004761 0.015284 0.000000 0.007617 0.000000
# 4 0.000000 0.000000 0.000000 0.036901 0.000000 0.005602
# 5 0.004000 -0.003691 0.007617 0.000000 0.045031 0.000000
# 6 0.000000 0.000000 0.000000 0.005602 0.000000 0.002199
#
#
# Mechanical properties :
#
#
# Convention : Reuss Voigt Hill
#
# Bulk Modulus (GPa) = 32.01577 48.97182 40.49379
# Shear Modulus (GPa) = 34.06391 178.43597 106.24994
#
# Velocity S-wave (km/s) = 3.91991 8.97159 6.92297
# Velocity P-wave (km/s) = 5.91010 11.37584 9.06474
#
# Compressibility (1/GPa) = 0.03123460
#
# Stress axis : x y z
#
# Youngs Moduli (GPa) = 54.33451 124.24171 65.42786
#
# Poissons Ratio (x) = 0.48362 -0.22262
# Poissons Ratio (y) = 0.21150 0.31152
# Poissons Ratio (z) = -0.18487 0.59156
#
# Static dielectric constant tensor:
#      x y z
#    x 1.832630 0.000000 0.019640 
#    y 0.000000 1.865750 0.000000 
#    z 0.019640 0.000000 1.880490 
# 
# From -- ./inp_files/140801.got.cif
#   From: 2010.05.17/outbox.cif.g08.bks.cpg/sg12_71_cif.got.tgz:140801.got - 2010.06.03 13:09:07.
