data_PCOD9188856
_publ_section_title
;
Structure prediction by ZEFSAII (Michael W. Deem and Ramdas Pophale) SiO2 
 PCOD9188856
Probable space group: C 2/M
;
_chemical_formula_sum "Si O2"
_cell_formula_units_Z 56
_cell_length_a 9.193656
_cell_length_b 17.479536
_cell_length_c 24.927921
_cell_angle_alpha 90.000000
_cell_angle_beta 40.108848
_cell_angle_gamma 90.000000
_cell_volume 2580.792409
_symmetry_space_group_name_H-M "C 2/M"
_symmetry_group_IT_number 12
_symmetry_cell_setting 'monoclinic'
loop_
_space_group_symop_operation_xyz
x,y,z
-x,y,-z
-x,-y,-z
x,-y,z
1/2+x,1/2+y,z
1/2-x,1/2+y,-z
1/2-x,1/2-y,-z
1/2+x,1/2-y,z
loop_
_atom_site_type_symbol
_atom_site_label
_atom_site_fract_x
_atom_site_fract_y
_atom_site_fract_z
Si Si1 0.514271 0.650710 0.205634
Si Si2 0.464389 0.087641 0.644804
Si Si3 0.591747 0.500000 0.914925
Si Si4 0.168251 0.654227 0.131580
Si Si5 0.368038 0.330186 0.480870
Si Si6 0.762158 0.000000 0.907797
Si Si7 0.406464 0.237556 0.136639
Si Si8 0.290386 0.907593 0.308893
O O1 0.266366 0.633072 0.296551
O O2 0.655345 0.575436 0.147942
O O3 0.471045 0.702980 0.165051
O O4 0.664665 0.695695 0.206198
O O5 0.662256 0.112282 0.549670
O O6 0.564537 0.096041 0.676764
O O7 0.404128 0.000000 0.654590
O O8 0.739893 0.574869 0.872879
O O9 0.409326 0.500000 0.920392
O O10 0.500000 0.500000 0.000000
O O11 0.359988 0.713515 0.096597
O O12 0.099373 0.673073 0.089818
O O13 0.924317 0.648037 0.230122
O O14 0.500000 0.320459 0.500000
O O15 0.250000 0.250000 0.500000
O O16 0.548187 0.369049 0.389891
O O17 0.500000 0.000000 0.000000
O O18 0.272899 0.000000 0.299900
#
# Coordination Sequence:
#
# PCOD9188856 Si02
#       8
#     8   8   4   8   8   4   8   8
#     4  11  22  43  67  94 127 171 214 260 319 377
#     4  10  19  36  62  88 122 162 217 258 307 370
#     4  12  26  46  70  97 129 168 212 263 316 381
#     4  11  22  43  67  94 127 171 214 260 319 377
#     4  10  23  35  57  89 123 162 206 263 315 363
#     4  12  26  46  70  97 129 168 212 263 316 381
#     4  10  24  38  67  97 130 162 216 262 316 381
#     4  10  19  36  62  88 122 162 217 258 307 370
#
# _framework density 21.698761999999999
#
# number of rings (size 3 to 8) (size 9 to 14) (size 15 to 20)
#    0.000    1.429    4.286    0.429    6.000    1.714 
#    0.000    4.286    0.000    0.857    0.000    0.000 
#    0.000    0.000    0.000    0.000    0.000    0.000 
#
# Total GULP energy -156080.985225 kJ/mol
# GULP energy per Si atom -5574.320901 kJ/mol
# Density = 2.164938 g / cm^3
# Si number density = 21.698762 Si / 1000 Ang^3
#
#
#
# Elastic Constant Matrix: (Units=GPa)
#
#
# Indices 1 2 3 4 5 6 
#
# 1 104.1992 39.0560 17.0503 -0.0025 -32.7677 0.0002
# 2 39.0560 79.5318 7.5602 0.0016 -18.3154 0.0008
# 3 17.0503 7.5602 93.9352 0.0046 -21.9867 0.0020
# 4 -0.0025 0.0016 0.0046 80.3283 0.0012 3.1836
# 5 -32.7677 -18.3154 -21.9867 0.0012 32.5810 0.0006
# 6 0.0002 0.0008 0.0020 3.1836 0.0006 30.1318
#
#
#
# Elastic Compliance Matrix: (Units=1/GPa)
#
#
# Indices 1 2 3 4 5 6 
#
# 1 0.015402 -0.004541 0.000710 0.000000 0.013417 0.000000
# 2 -0.004541 0.015843 0.000671 -0.000001 0.004792 0.000000
# 3 0.000710 0.000671 0.012729 -0.000001 0.009681 -0.000001
# 4 0.000000 -0.000001 -0.000001 0.012501 -0.000001 -0.001321
# 5 0.013417 0.004792 0.009681 -0.000001 0.053413 -0.000002
# 6 0.000000 0.000000 -0.000001 -0.001321 -0.000002 0.033327
#
#
# Mechanical properties :
#
#
# Convention : Reuss Voigt Hill
#
# Bulk Modulus (GPa) = 26.55798 44.99992 35.77895
# Shear Modulus (GPa) = 30.84746 42.87488 36.86117
#
# Velocity S-wave (km/s) = 3.77453 4.44995 4.12608
# Velocity P-wave (km/s) = 5.59125 6.86922 6.26292
#
# Compressibility (1/GPa) = 0.03765347
#
# Stress axis : x y z
#
# Youngs Moduli (GPa) = 64.92579 63.11763 78.56246
#
# Poissons Ratio (x) = 0.28664 -0.05580
# Poissons Ratio (y) = 0.29485 -0.05269
# Poissons Ratio (z) = -0.04611 -0.04233
#
# Static dielectric constant tensor:
#      x y z
#    x 1.764020 0.000000 -0.016640 
#    y 0.000000 1.863470 0.000010 
#    z -0.016640 0.000010 1.794560 
# 
# From -- ./inp_files/356695.got.cif
#   From: 2010.05.17/outbox.cif.g08.bks.cpg/sg12_179_cif.got.tgz:356695.got - 2010.06.03 13:09:07.
