data_PCOD9188504
_publ_section_title
;
Structure prediction by ZEFSAII (Michael W. Deem and Ramdas Pophale) SiO2 
 PCOD9188504
Probable space group: C 2/M
;
_chemical_formula_sum "Si O2"
_cell_formula_units_Z 56
_cell_length_a 21.221323
_cell_length_b 7.899629
_cell_length_c 18.313878
_cell_angle_alpha 90.000000
_cell_angle_beta 109.160831
_cell_angle_gamma 90.000000
_cell_volume 2900.065828
_symmetry_space_group_name_H-M "C 2/M"
_symmetry_group_IT_number 12
_symmetry_cell_setting 'monoclinic'
loop_
_space_group_symop_operation_xyz
x,y,z
-x,y,-z
-x,-y,-z
x,-y,z
1/2+x,1/2+y,z
1/2-x,1/2+y,-z
1/2-x,1/2-y,-z
1/2+x,1/2-y,z
loop_
_atom_site_type_symbol
_atom_site_label
_atom_site_fract_x
_atom_site_fract_y
_atom_site_fract_z
Si Si1 0.568643 0.704720 0.240977
Si Si2 0.821517 0.707574 0.266526
Si Si3 0.085112 0.703447 0.828686
Si Si4 0.825746 0.202112 0.838077
Si Si5 0.824701 0.702213 0.004172
Si Si6 0.807034 0.703558 0.423505
Si Si7 0.342197 0.296603 0.592967
O O1 0.570510 0.500000 0.241503
O O2 0.492520 0.755667 0.202319
O O3 0.616607 0.766594 0.193769
O O4 0.601434 0.763872 0.329748
O O5 0.821813 0.500000 0.266013
O O6 0.876075 0.765282 0.228761
O O7 0.747857 0.763899 0.212759
O O8 0.832022 0.762450 0.354095
O O9 0.091839 0.500000 0.831715
O O10 0.123358 0.767509 0.915416
O O11 0.838199 0.236192 0.927606
O O12 0.823484 0.000000 0.827048
O O13 0.828655 0.500000 0.004619
O O14 0.750000 0.750000 0.000000
O O15 0.803938 0.500000 0.419601
O O16 0.730997 0.765573 0.408570
O O17 0.849057 0.750836 0.510815
O O18 0.340525 0.500000 0.597089
#
# Coordination Sequence:
#
# PCOD9188504 Si02
#       7
#     8   8   8   8   8   8   8
#     4  10  21  37  57  80 110 149 183 219 271 329
#     4   9  16  33  57  79 103 141 184 220 265 319
#     4  10  22  38  56  77 109 146 178 223 274 323
#     4  10  19  36  60  81 107 143 185 226 267 319
#     4  11  22  37  58  84 111 142 181 227 275 320
#     4   9  16  29  54  81 103 134 181 225 262 316
#     4   9  17  31  51  78 110 139 171 220 276 318
#
# _framework density 19.309906000000002
#
# number of rings (size 3 to 8) (size 9 to 14) (size 15 to 20)
#    0.000    2.286    2.857    0.429    0.000    2.857 
#    0.000    5.000    0.000    4.286    0.000    0.000 
#    0.000    0.000    0.000    0.000    0.000    0.000 
#
# Total GULP energy -156242.151158 kJ/mol
# GULP energy per Si atom -5580.076827 kJ/mol
# Density = 1.926596 g / cm^3
# Si number density = 19.309906 Si / 1000 Ang^3
#
#
#
# Elastic Constant Matrix: (Units=GPa)
#
#
# Indices 1 2 3 4 5 6 
#
# 1 148.4601 3.2425 103.1399 0.0000 -3.5618 0.0000
# 2 3.2425 10.4156 -2.0455 0.0000 -1.2542 0.0000
# 3 103.1399 -2.0455 198.6964 0.0000 -9.5651 0.0000
# 4 0.0000 0.0000 0.0000 27.1094 0.0000 0.1478
# 5 -3.5618 -1.2542 -9.5651 0.0000 32.9755 0.0000
# 6 0.0000 0.0000 0.0000 0.1478 0.0000 23.2390
#
#
#
# Elastic Compliance Matrix: (Units=1/GPa)
#
#
# Indices 1 2 3 4 5 6 
#
# 1 0.010750 -0.004537 -0.005658 0.000000 -0.000653 0.000000
# 2 -0.004537 0.098642 0.003577 0.000000 0.004299 0.000000
# 3 -0.005658 0.003577 0.008097 0.000000 0.001874 0.000000
# 4 0.000000 0.000000 0.000000 0.036889 0.000000 -0.000235
# 5 -0.000653 0.004299 0.001874 0.000000 0.030962 0.000000
# 6 0.000000 0.000000 0.000000 -0.000235 0.000000 0.043033
#
#
# Mechanical properties :
#
#
# Convention : Reuss Voigt Hill
#
# Bulk Modulus (GPa) = 9.59197 62.91620 36.25408
# Shear Modulus (GPa) = 18.09238 33.54712 25.81975
#
# Velocity S-wave (km/s) = 3.06428 4.17262 3.66064
# Velocity P-wave (km/s) = 4.18305 7.47445 6.05662
#
# Compressibility (1/GPa) = 0.10425388
#
# Stress axis : x y z
#
# Youngs Moduli (GPa) = 93.02040 10.13768 123.50223
#
# Poissons Ratio (x) = 0.04599 0.69883
# Poissons Ratio (y) = 0.42199 -0.44180
# Poissons Ratio (z) = 0.52635 -0.03627
#
# Static dielectric constant tensor:
#      x y z
#    x 1.641650 0.000000 -0.008820 
#    y 0.000000 1.709430 0.000000 
#    z -0.008820 0.000000 1.676790 
# 
# From -- ./inp_files/275597.got.cif
#   From: 2010.05.17/outbox.cif.g08.bks.cpg/sg12_138_cif.got.tgz:275597.got - 2010.06.03 13:09:07.
