data_PCOD9188967
_publ_section_title
;
Structure prediction by ZEFSAII (Michael W. Deem and Ramdas Pophale) SiO2 
 PCOD9188967
Probable space group: C 2/M
;
_chemical_formula_sum "Si O2"
_cell_formula_units_Z 36
_cell_length_a 9.100415
_cell_length_b 17.272589
_cell_length_c 8.972861
_cell_angle_alpha 90.000000
_cell_angle_beta 73.130731
_cell_angle_gamma 90.000000
_cell_volume 1349.732212
_symmetry_space_group_name_H-M "C 2/M"
_symmetry_group_IT_number 12
_symmetry_cell_setting 'monoclinic'
loop_
_space_group_symop_operation_xyz
x,y,z
-x,y,-z
-x,-y,-z
x,-y,z
1/2+x,1/2+y,z
1/2-x,1/2+y,-z
1/2-x,1/2-y,-z
1/2+x,1/2-y,z
loop_
_atom_site_type_symbol
_atom_site_label
_atom_site_fract_x
_atom_site_fract_y
_atom_site_fract_z
Si Si1 0.200662 0.841245 0.819170
Si Si2 0.320475 0.088862 0.062273
Si Si3 0.364176 0.084242 0.385855
Si Si4 0.807339 0.500000 0.687455
Si Si5 0.013563 0.745680 0.651156
O O1 0.352299 0.790135 0.744570
O O2 0.787604 0.860591 0.008778
O O3 0.074727 0.790301 0.774764
O O4 0.190268 0.926121 0.746820
O O5 0.288201 0.084003 0.247121
O O6 0.317693 0.000000 0.003197
O O7 0.500000 0.114047 0.000000
O O8 0.544573 0.064883 0.328082
O O9 0.369479 0.173850 0.427578
O O10 0.310990 0.000000 0.487422
O O11 0.000000 0.792184 0.500000
#
# Coordination Sequence:
#
# PCOD9188967 Si02
#       5
#     8   8   8   4   8
#     4  12  25  41  69  97 134 168 221 266 333 381
#     4  10  19  36  63  98 124 165 221 278 304 380
#     4   9  20  36  62  93 127 162 220 265 317 366
#     4  10  22  39  67  98 117 178 219 269 310 395
#     4  12  24  40  65 100 135 168 212 277 326 385
#
# _framework density 26.671959000000001
#
# number of rings (size 3 to 8) (size 9 to 14) (size 15 to 20)
#    0.667    0.667    5.556    0.667    1.556    2.222 
#    0.000    0.556    2.444    0.000    0.000    4.667 
#    0.000    0.000    0.000    0.000    0.000    0.000 
#
# Total GULP energy -100221.665605 kJ/mol
# GULP energy per Si atom -5567.870311 kJ/mol
# Density = 2.661125 g / cm^3
# Si number density = 26.671959 Si / 1000 Ang^3
#
#
#
# Elastic Constant Matrix: (Units=GPa)
#
#
# Indices 1 2 3 4 5 6 
#
# 1 158.5318 83.2951 74.2004 0.0000 49.6168 0.0000
# 2 83.2951 124.9595 45.5208 0.0000 2.4492 0.0000
# 3 74.2004 45.5208 76.2949 0.0000 34.6554 0.0000
# 4 0.0000 0.0000 0.0000 24.0541 0.0000 16.2286
# 5 49.6168 2.4492 34.6554 0.0000 46.8753 0.0000
# 6 0.0000 0.0000 0.0000 16.2286 0.0000 51.6597
#
#
#
# Elastic Compliance Matrix: (Units=1/GPa)
#
#
# Indices 1 2 3 4 5 6 
#
# 1 0.019450 -0.010791 -0.005092 0.000000 -0.016259 0.000000
# 2 -0.010791 0.017464 -0.007075 0.000000 0.015740 0.000000
# 3 -0.005092 -0.007075 0.029607 0.000000 -0.016129 0.000000
# 4 0.000000 0.000000 0.000000 0.052754 0.000000 -0.016572
# 5 -0.016259 0.015740 -0.016129 0.000000 0.049645 0.000000
# 6 0.000000 0.000000 0.000000 -0.016572 0.000000 0.024564
#
#
# Mechanical properties :
#
#
# Convention : Reuss Voigt Hill
#
# Bulk Modulus (GPa) = 48.53246 85.09099 66.81173
# Shear Modulus (GPa) = 20.30317 34.96913 27.63615
#
# Velocity S-wave (km/s) = 2.76201 3.62482 3.22242
# Velocity P-wave (km/s) = 5.32984 7.03499 6.24092
#
# Compressibility (1/GPa) = 0.02060477
#
# Stress axis : x y z
#
# Youngs Moduli (GPa) = 51.41502 57.25947 33.77602
#
# Poissons Ratio (x) = 0.61789 0.17199
# Poissons Ratio (y) = 0.55482 0.23896
# Poissons Ratio (z) = 0.26181 0.40510
#
# Static dielectric constant tensor:
#      x y z
#    x 2.033440 0.000000 0.078370 
#    y 0.000000 2.239640 0.000000 
#    z 0.078370 0.000000 2.294350 
# 
# From -- ./inp_files/119755.got.cif
#   From: 2010.05.17/outbox.cif.g08.bks.cpg/sg12_60_cif.got.tgz:119755.got - 2010.06.03 13:09:07.
