data_PCOD9188838
_publ_section_title
;
Structure prediction by ZEFSAII (Michael W. Deem and Ramdas Pophale) SiO2 
 PCOD9188838
Probable space group: C 2/M
;
_chemical_formula_sum "Si O2"
_cell_formula_units_Z 40
_cell_length_a 23.840217
_cell_length_b 11.953398
_cell_length_c 13.944900
_cell_angle_alpha 90.000000
_cell_angle_beta 29.863185
_cell_angle_gamma 90.000000
_cell_volume 1978.726732
_symmetry_space_group_name_H-M "C 2/M"
_symmetry_group_IT_number 12
_symmetry_cell_setting 'monoclinic'
loop_
_space_group_symop_operation_xyz
x,y,z
-x,y,-z
-x,-y,-z
x,-y,z
1/2+x,1/2+y,z
1/2-x,1/2+y,-z
1/2-x,1/2-y,-z
1/2+x,1/2-y,z
loop_
_atom_site_type_symbol
_atom_site_label
_atom_site_fract_x
_atom_site_fract_y
_atom_site_fract_z
Si Si1 0.094027 0.867691 0.442010
Si Si2 0.305028 0.742773 0.150053
Si Si3 0.126979 0.626498 0.767345
Si Si4 0.059618 0.767126 0.695566
Si Si5 0.597559 0.500000 0.731771
Si Si6 0.674319 0.500000 0.827784
O O1 0.215657 0.821325 0.229429
O O2 0.000000 0.858645 0.500000
O O3 0.065065 0.786289 0.574141
O O4 0.100193 0.000000 0.460370
O O5 0.312812 0.791127 0.247110
O O6 0.274576 0.612456 0.204522
O O7 0.428445 0.745110 0.920032
O O8 0.170063 0.500000 0.708423
O O9 0.119418 0.671475 0.670219
O O10 0.000000 0.624728 0.000000
O O11 0.111257 0.882768 0.659140
O O12 0.671864 0.500000 0.716874
O O13 0.461314 0.500000 0.952615
#
# Coordination Sequence:
#
# PCOD9188838 Si02
#       6
#     8   8   8   8   4   4
#     4  11  25  43  61  83 113 155 209 254 287 338
#     4  10  20  36  61  88 119 154 191 238 292 351
#     4   9  17  31  55  90 125 152 181 229 296 359
#     4  10  19  36  62  86 118 156 191 236 291 354
#     4   9  14  30  57  88 115 151 192 228 279 359
#     4   9  16  30  57  88 119 149 186 232 291 349
#
# _framework density 20.215019999999999
#
# number of rings (size 3 to 8) (size 9 to 14) (size 15 to 20)
#    0.000    2.200    3.000    0.600    0.000    2.400 
#    1.800    0.500    0.000    0.000    0.000    0.000 
#    0.000    0.000    0.000    0.000    0.000    0.000 
#
# Total GULP energy -111615.361566 kJ/mol
# GULP energy per Si atom -5580.768078 kJ/mol
# Density = 2.016901 g / cm^3
# Si number density = 20.215020 Si / 1000 Ang^3
#
#
#
# Elastic Constant Matrix: (Units=GPa)
#
#
# Indices 1 2 3 4 5 6 
#
# 1 64.9148 32.6488 21.8873 0.0000 -14.0661 0.0000
# 2 32.6488 120.2892 30.1547 0.0000 -9.3312 0.0000
# 3 21.8873 30.1547 78.8160 0.0000 -5.1375 0.0000
# 4 0.0000 0.0000 0.0000 31.3507 0.0000 -3.1904
# 5 -14.0661 -9.3312 -5.1375 0.0000 27.6527 0.0000
# 6 0.0000 0.0000 0.0000 -3.1904 0.0000 27.9039
#
#
#
# Elastic Compliance Matrix: (Units=1/GPa)
#
#
# Indices 1 2 3 4 5 6 
#
# 1 0.020446 -0.003996 -0.003603 0.000000 0.008382 0.000000
# 2 -0.003996 0.010147 -0.002715 0.000000 0.000887 0.000000
# 3 -0.003603 -0.002715 0.014726 0.000000 -0.000013 0.000000
# 4 0.000000 0.000000 0.000000 0.032273 0.000000 0.003690
# 5 0.008382 0.000887 -0.000013 0.000000 0.040724 0.000000
# 6 0.000000 0.000000 0.000000 0.003690 0.000000 0.036259
#
#
# Mechanical properties :
#
#
# Convention : Reuss Voigt Hill
#
# Bulk Modulus (GPa) = 40.49849 48.15573 44.32711
# Shear Modulus (GPa) = 27.25810 29.33674 28.29742
#
# Velocity S-wave (km/s) = 3.67605 3.81364 3.74548
# Velocity P-wave (km/s) = 6.17213 6.57763 6.37810
#
# Compressibility (1/GPa) = 0.02469228
#
# Stress axis : x y z
#
# Youngs Moduli (GPa) = 48.91041 98.54885 67.90687
#
# Poissons Ratio (x) = 0.39380 0.24464
# Poissons Ratio (y) = 0.19544 0.18435
# Poissons Ratio (z) = 0.17620 0.26754
#
# Static dielectric constant tensor:
#      x y z
#    x 1.676240 0.000000 0.007270 
#    y 0.000000 1.692000 0.000000 
#    z 0.007270 0.000000 1.855480 
# 
# From -- ./inp_files/239870.got.cif
#   From: 2010.05.17/outbox.cif.g08.bks.cpg/sg12_120_cif.got.tgz:239870.got - 2010.06.03 13:09:07.
