data_PCOD9188851
_publ_section_title
;
Structure prediction by ZEFSAII (Michael W. Deem and Ramdas Pophale) SiO2 
 PCOD9188851
Probable space group: C 2/M
;
_chemical_formula_sum "Si O2"
_cell_formula_units_Z 48
_cell_length_a 19.618716
_cell_length_b 8.978017
_cell_length_c 13.338093
_cell_angle_alpha 90.000000
_cell_angle_beta 101.135012
_cell_angle_gamma 90.000000
_cell_volume 2305.107301
_symmetry_space_group_name_H-M "C 2/M"
_symmetry_group_IT_number 12
_symmetry_cell_setting 'monoclinic'
loop_
_space_group_symop_operation_xyz
x,y,z
-x,y,-z
-x,-y,-z
x,-y,z
1/2+x,1/2+y,z
1/2-x,1/2+y,-z
1/2-x,1/2-y,-z
1/2+x,1/2-y,z
loop_
_atom_site_type_symbol
_atom_site_label
_atom_site_fract_x
_atom_site_fract_y
_atom_site_fract_z
Si Si1 0.701446 0.826207 0.068041
Si Si2 0.423418 0.676388 0.873454
Si Si3 0.915411 0.325840 0.665776
Si Si4 0.825015 0.825980 0.245642
Si Si5 0.678911 0.320342 0.522076
Si Si6 0.048502 0.328416 0.818755
O O1 0.627307 0.749454 0.060245
O O2 0.747243 0.811822 0.181995
O O3 0.692423 0.000000 0.043556
O O4 0.750000 0.750000 0.000000
O O5 0.423131 0.500000 0.881669
O O6 0.392306 0.733388 0.757464
O O7 0.502123 0.736712 0.885073
O O8 0.894403 0.500000 0.667077
O O9 0.883687 0.249798 0.559812
O O10 0.998862 0.321196 0.704817
O O11 0.828473 0.782991 0.362691
O O12 0.877775 0.734877 0.191258
O O13 0.844793 0.000000 0.242635
O O14 0.750000 0.250000 0.500000
O O15 0.819464 0.000000 0.487270
O O16 0.051745 0.500000 0.850922
#
# Coordination Sequence:
#
# PCOD9188851 Si02
#       6
#     8   8   8   8   8   8
#     4  11  23  41  63  89 119 153 195 247 302 357
#     4  10  19  36  62  88 117 156 196 237 291 351
#     4   9  19  35  55  83 118 156 195 236 283 339
#     4  10  23  40  59  85 120 153 194 249 296 346
#     4  11  22  35  55  85 119 160 200 243 293 347
#     4   9  20  37  60  87 120 158 195 240 293 346
#
# _framework density 20.823326000000002
#
# number of rings (size 3 to 8) (size 9 to 14) (size 15 to 20)
#    1.000    1.000    0.000    4.000    0.000    4.667 
#    0.000    4.167    0.000    5.000    0.000    0.000 
#    0.000    0.000    0.000    0.000    0.000    0.000 
#
# Total GULP energy -133983.207363 kJ/mol
# GULP energy per Si atom -5582.633640 kJ/mol
# Density = 2.077593 g / cm^3
# Si number density = 20.823326 Si / 1000 Ang^3
#
#
#
# Elastic Constant Matrix: (Units=GPa)
#
#
# Indices 1 2 3 4 5 6 
#
# 1 119.7670 82.1120 38.1147 0.0000 -14.8748 0.0000
# 2 82.1120 145.8476 34.5302 0.0000 -21.3698 0.0000
# 3 38.1147 34.5302 79.0072 0.0000 2.3865 0.0000
# 4 0.0000 0.0000 0.0000 23.3843 0.0000 -6.4716
# 5 -14.8748 -21.3698 2.3865 0.0000 39.2914 0.0000
# 6 0.0000 0.0000 0.0000 -6.4716 0.0000 34.2275
#
#
#
# Elastic Compliance Matrix: (Units=1/GPa)
#
#
# Indices 1 2 3 4 5 6 
#
# 1 0.014714 -0.007023 -0.004089 0.000000 0.001999 0.000000
# 2 -0.007023 0.011830 -0.001900 0.000000 0.003891 0.000000
# 3 -0.004089 -0.001900 0.015567 0.000000 -0.003527 0.000000
# 4 0.000000 0.000000 0.000000 0.045125 0.000000 0.008532
# 5 0.001999 0.003891 -0.003527 0.000000 0.028538 0.000000
# 6 0.000000 0.000000 0.000000 0.008532 0.000000 0.030829
#
#
# Mechanical properties :
#
#
# Convention : Reuss Voigt Hill
#
# Bulk Modulus (GPa) = 62.16342 72.68176 67.42259
# Shear Modulus (GPa) = 28.09133 32.03829 30.06481
#
# Velocity S-wave (km/s) = 3.67690 3.92673 3.80386
# Velocity P-wave (km/s) = 6.92414 7.45243 7.19314
#
# Compressibility (1/GPa) = 0.01608663
#
# Stress axis : x y z
#
# Youngs Moduli (GPa) = 67.96168 84.52854 64.23916
#
# Poissons Ratio (x) = 0.59364 0.26270
# Poissons Ratio (y) = 0.47729 0.12205
# Poissons Ratio (z) = 0.27792 0.16060
#
# Static dielectric constant tensor:
#      x y z
#    x 1.748210 0.000000 0.061610 
#    y 0.000000 1.695710 0.000000 
#    z 0.061610 0.000000 1.809620 
# 
# From -- ./inp_files/229324.got.cif
#   From: 2010.05.17/outbox.cif.g08.bks.cpg/sg12_115_cif.got.tgz:229324.got - 2010.06.03 13:09:07.
