data_PCOD9188087
_publ_section_title
;
Structure prediction by ZEFSAII (Michael W. Deem and Ramdas Pophale) SiO2 
 PCOD9188087
Probable space group: C 2/M
;
_chemical_formula_sum "Si O2"
_cell_formula_units_Z 44
_cell_length_a 11.085041
_cell_length_b 21.336150
_cell_length_c 7.141370
_cell_angle_alpha 90.000000
_cell_angle_beta 105.125810
_cell_angle_gamma 90.000000
_cell_volume 1630.504596
_symmetry_space_group_name_H-M "C 2/M"
_symmetry_group_IT_number 12
_symmetry_cell_setting 'monoclinic'
loop_
_space_group_symop_operation_xyz
x,y,z
-x,y,-z
-x,-y,-z
x,-y,z
1/2+x,1/2+y,z
1/2-x,1/2+y,-z
1/2-x,1/2-y,-z
1/2+x,1/2-y,z
loop_
_atom_site_type_symbol
_atom_site_label
_atom_site_fract_x
_atom_site_fract_y
_atom_site_fract_z
Si Si1 0.446823 0.500000 0.736048
Si Si2 0.268539 0.136456 0.074799
Si Si3 0.695546 0.137025 0.355857
Si Si4 0.061331 0.137356 0.282585
Si Si5 0.795703 0.500000 0.632863
Si Si6 0.236286 0.500000 0.937830
Si Si7 0.520765 0.228897 0.783737
O O1 0.503055 0.569088 0.726186
O O2 0.328383 0.500000 0.544106
O O3 0.375084 0.500000 0.906759
O O4 0.132495 0.140143 0.111123
O O5 0.351478 0.191611 0.193267
O O6 0.274405 0.140942 0.853643
O O7 0.319981 0.066668 0.144514
O O8 0.821024 0.140905 0.527556
O O9 0.594120 0.190631 0.351514
O O10 0.640417 0.067179 0.371422
O O11 0.982240 0.199521 0.277742
O O12 0.761065 0.500000 0.838119
O O13 0.500000 0.226991 0.000000
#
# Coordination Sequence:
#
# PCOD9188087 Si02
#       7
#     4   8   8   8   4   4   8
#     4   8  16  30  53  77  95 132 180 216 258 305
#     4   9  19  34  54  80 108 137 172 217 263 313
#     4   9  18  32  51  77 105 138 176 211 261 317
#     4  10  19  36  56  75 106 140 175 220 263 309
#     4   8  14  27  48  73 103 133 166 213 257 309
#     4   8  14  29  52  77 104 133 166 208 265 318
#     4  10  21  34  50  79 109 138 178 213 259 320
#
# _framework density 26.985510000000001
#
# number of rings (size 3 to 8) (size 9 to 14) (size 15 to 20)
#    0.000    2.909    0.000    0.545    0.000    4.364 
#    0.000    7.727    0.000    6.545    0.000    2.545 
#    0.000   20.364    0.000    0.000    0.000    0.000 
#
# Total GULP energy -123300.591312 kJ/mol
# GULP energy per Si atom -5604.572332 kJ/mol
# Density = 2.692409 g / cm^3
# Si number density = 26.985510 Si / 1000 Ang^3
#
#
#
# Elastic Constant Matrix: (Units=GPa)
#
#
# Indices 1 2 3 4 5 6 
#
# 1 67.6470 71.6833 15.8020 0.0000 6.1497 0.0000
# 2 71.6833 309.4593 38.2615 0.0000 45.1050 0.0000
# 3 15.8020 38.2615 105.9372 0.0000 -1.8808 0.0000
# 4 0.0000 0.0000 0.0000 44.7436 0.0000 39.4965
# 5 6.1497 45.1050 -1.8808 0.0000 40.1588 0.0000
# 6 0.0000 0.0000 0.0000 39.4965 0.0000 83.8742
#
#
#
# Elastic Compliance Matrix: (Units=1/GPa)
#
#
# Indices 1 2 3 4 5 6 
#
# 1 0.019947 -0.004806 -0.001199 0.000000 0.002287 0.000000
# 2 -0.004806 0.005266 -0.001278 0.000000 -0.005239 0.000000
# 3 -0.001199 -0.001278 0.010117 0.000000 0.002093 0.000000
# 4 0.000000 0.000000 0.000000 0.038249 0.000000 -0.018011
# 5 0.002287 -0.005239 0.002093 0.000000 0.030533 0.000000
# 6 0.000000 0.000000 0.000000 -0.018011 0.000000 0.020404
#
#
# Mechanical properties :
#
#
# Convention : Reuss Voigt Hill
#
# Bulk Modulus (GPa) = 48.15856 81.61524 64.88690
# Shear Modulus (GPa) = 34.24557 57.57508 45.91032
#
# Velocity S-wave (km/s) = 3.56622 4.62405 4.12915
# Velocity P-wave (km/s) = 5.90271 7.66935 6.84328
#
# Compressibility (1/GPa) = 0.02076474
#
# Stress axis : x y z
#
# Youngs Moduli (GPa) = 50.13229 189.88895 98.84124
#
# Poissons Ratio (x) = 0.91254 0.11853
# Poissons Ratio (y) = 0.24092 0.12634
# Poissons Ratio (z) = 0.06012 0.24272
#
# Static dielectric constant tensor:
#      x y z
#    x 2.013670 0.000000 -0.009590 
#    y 0.000000 2.060460 0.000000 
#    z -0.009590 0.000000 2.172020 
# 
# From -- ./inp_files/63756.got.cif
#   From: 2010.05.17/outbox.cif.g08.bks.cpg/sg12_32_cif.got.tgz:63756.got - 2010.06.03 13:09:07.
