data_PCOD9188398
_publ_section_title
;
Structure prediction by ZEFSAII (Michael W. Deem and Ramdas Pophale) SiO2 
 PCOD9188398
Probable space group: C 2/M
;
_chemical_formula_sum "Si O2"
_cell_formula_units_Z 48
_cell_length_a 29.515114
_cell_length_b 18.583929
_cell_length_c 10.006491
_cell_angle_alpha 90.000000
_cell_angle_beta 152.095107
_cell_angle_gamma 90.000000
_cell_volume 2568.707000
_symmetry_space_group_name_H-M "C 2/M"
_symmetry_group_IT_number 12
_symmetry_cell_setting 'monoclinic'
loop_
_space_group_symop_operation_xyz
x,y,z
-x,y,-z
-x,-y,-z
x,-y,z
1/2+x,1/2+y,z
1/2-x,1/2+y,-z
1/2-x,1/2-y,-z
1/2+x,1/2-y,z
loop_
_atom_site_type_symbol
_atom_site_label
_atom_site_fract_x
_atom_site_fract_y
_atom_site_fract_z
Si Si1 0.928324 0.376347 0.437755
Si Si2 0.737691 0.419197 0.357524
Si Si3 0.272160 0.579371 0.988290
Si Si4 0.842324 0.773918 0.827668
Si Si5 0.390318 0.718049 0.253366
Si Si6 0.441910 0.859874 0.984178
O O1 0.825929 0.415556 0.181790
O O2 0.899391 0.291323 0.360588
O O3 0.000000 0.388022 0.500000
O O4 0.992861 0.395819 0.733258
O O5 0.710866 0.500000 0.323263
O O6 0.752888 0.416020 0.236153
O O7 0.656692 0.359996 0.181766
O O8 0.837967 0.396600 0.689553
O O9 0.317180 0.500000 0.126500
O O10 0.337797 0.649954 0.182651
O O11 0.750000 0.750000 0.500000
O O12 0.925043 0.722415 0.987731
O O13 0.837461 0.761374 0.975059
O O14 0.500000 0.696844 0.500000
O O15 0.500000 0.861350 0.000000
#
# Coordination Sequence:
#
# PCOD9188398 Si02
#       6
#     8   8   8   8   8   8
#     4  11  21  36  57  81 117 149 182 231 285 330
#     4   9  19  34  55  81 110 142 185 231 272 325
#     4  10  21  36  54  82 114 150 187 225 277 336
#     4   9  18  34  56  82 107 142 188 225 271 327
#     4  10  19  36  59  83 113 144 184 234 283 323
#     4  11  19  33  57  85 108 141 186 230 274 327
#
# _framework density 18.686444000000002
#
# number of rings (size 3 to 8) (size 9 to 14) (size 15 to 20)
#    0.000    2.000    5.000    0.500    0.000    1.667 
#    0.000    0.000    0.000    0.500    0.000    0.000 
#    0.000    0.000    0.000    0.000    0.000    0.000 
#
# Total GULP energy -133669.702355 kJ/mol
# GULP energy per Si atom -5569.570931 kJ/mol
# Density = 1.864391 g / cm^3
# Si number density = 18.686444 Si / 1000 Ang^3
#
#
#
# Elastic Constant Matrix: (Units=GPa)
#
#
# Indices 1 2 3 4 5 6 
#
# 1 45.0833 10.6906 -11.5264 0.0000 1.1129 0.0000
# 2 10.6906 72.2450 6.1631 0.0000 -3.2850 0.0000
# 3 -11.5264 6.1631 28.1041 0.0000 -1.3469 0.0000
# 4 0.0000 0.0000 0.0000 12.9095 0.0000 -0.5377
# 5 1.1129 -3.2850 -1.3469 0.0000 21.4500 0.0000
# 6 0.0000 0.0000 0.0000 -0.5377 0.0000 -2.8249
#
#
#
# Elastic Compliance Matrix: (Units=1/GPa)
#
#
# Indices 1 2 3 4 5 6 
#
# 1 0.026432 -0.004987 0.011868 0.000000 -0.001390 0.000000
# 2 -0.004987 0.015130 -0.005256 0.000000 0.002246 0.000000
# 3 0.011868 -0.005256 0.041659 0.000000 0.001195 0.000000
# 4 0.000000 0.000000 0.000000 0.076853 0.000000 -0.014627
# 5 -0.001390 0.002246 0.001195 0.000000 0.047111 0.000000
# 6 0.000000 0.000000 0.000000 -0.014627 0.000000 -0.351211
#
#
# Mechanical properties :
#
#
# Convention : Reuss Voigt Hill
#
# Bulk Modulus (GPa) = 11.56450 17.34302 14.45376
# Shear Modulus (GPa) = -42.21136 15.64726 -13.28205
#
# Velocity S-wave (km/s) = -4.75798 2.89685 -2.66895
# Velocity P-wave (km/s) = 4.89717 4.52661 1.32137
#
# Compressibility (1/GPa) = 0.08647154
#
# Stress axis : x y z
#
# Youngs Moduli (GPa) = 37.83263 66.09283 24.00437
#
# Poissons Ratio (x) = 0.32960 -0.28488
# Poissons Ratio (y) = 0.18867 0.12616
# Poissons Ratio (z) = -0.44899 0.34736
#
# Static dielectric constant tensor:
#      x y z
#    x 1.660260 0.000000 -0.049690 
#    y 0.000000 1.681620 0.000000 
#    z -0.049690 0.000000 1.704500 
# 
# From -- ./inp_files/87716.got.cif
#   From: 2010.05.17/outbox.cif.g08.bks.cpg/sg12_44_cif.got.tgz:87716.got - 2010.06.03 13:09:07.
