data_PCOD9188140
_publ_section_title
;
Structure prediction by ZEFSAII (Michael W. Deem and Ramdas Pophale) SiO2 
 PCOD9188140
Probable space group: C 2/M
;
_chemical_formula_sum "Si O2"
_cell_formula_units_Z 56
_cell_length_a 15.281281
_cell_length_b 7.711471
_cell_length_c 22.590176
_cell_angle_alpha 90.000000
_cell_angle_beta 98.462934
_cell_angle_gamma 90.000000
_cell_volume 2633.066088
_symmetry_space_group_name_H-M "C 2/M"
_symmetry_group_IT_number 12
_symmetry_cell_setting 'monoclinic'
loop_
_space_group_symop_operation_xyz
x,y,z
-x,y,-z
-x,-y,-z
x,-y,z
1/2+x,1/2+y,z
1/2-x,1/2+y,-z
1/2-x,1/2-y,-z
1/2+x,1/2-y,z
loop_
_atom_site_type_symbol
_atom_site_label
_atom_site_fract_x
_atom_site_fract_y
_atom_site_fract_z
Si Si1 0.005665 0.203983 0.434255
Si Si2 0.161260 0.212854 0.654840
Si Si3 0.772625 0.701167 0.083103
Si Si4 0.796020 0.706793 0.567144
Si Si5 0.459438 0.208179 0.128810
Si Si6 0.833708 0.794700 0.210938
Si Si7 0.417043 0.295470 0.955820
O O1 0.931873 0.272594 0.382211
O O2 0.000000 0.280297 0.500000
O O3 0.105148 0.222037 0.422134
O O4 0.984387 0.000000 0.438091
O O5 0.236314 0.267722 0.615939
O O6 0.174104 0.271497 0.723455
O O7 0.161552 0.000000 0.657143
O O8 0.774596 0.500000 0.066561
O O9 0.547382 0.722130 0.107996
O O10 0.770508 0.712075 0.154785
O O11 0.682159 0.779406 0.048996
O O12 0.801291 0.500000 0.571360
O O13 0.750000 0.750000 0.500000
O O14 0.431253 0.261820 0.192134
O O15 0.371711 0.274610 0.083171
O O16 0.460578 0.000000 0.126349
O O17 0.817364 0.000000 0.208485
O O18 0.411926 0.500000 0.968741
O O19 0.500000 0.216216 0.000000
#
# Coordination Sequence:
#
# PCOD9188140 Si02
#       7
#     8   8   8   8   8   8   8
#     4  10  19  36  57  77 106 143 175 216 274 325
#     4   9  19  36  56  76 106 140 178 222 267 322
#     4   8  18  36  53  76 110 138 168 218 269 307
#     4  11  21  36  55  80 109 141 178 222 271 322
#     4   9  19  36  54  77 109 140 173 220 268 306
#     4   9  17  35  59  77 100 143 185 216 261 319
#     4  10  20  35  57  83 109 141 180 218 262 320
#
# _framework density 21.267982
#
# number of rings (size 3 to 8) (size 9 to 14) (size 15 to 20)
#    0.857    1.714    1.429    0.857    0.000    1.714 
#    2.571    4.286    0.000    0.000    0.000    0.000 
#    0.000    0.000    0.000    0.000    0.000    0.000 
#
# Total GULP energy -156006.256071 kJ/mol
# GULP energy per Si atom -5571.652003 kJ/mol
# Density = 2.121958 g / cm^3
# Si number density = 21.267982 Si / 1000 Ang^3
#
#
#
# Elastic Constant Matrix: (Units=GPa)
#
#
# Indices 1 2 3 4 5 6 
#
# 1 100.7652 -6.9956 16.6362 0.0000 -3.0690 0.0000
# 2 -6.9956 47.9148 5.1126 0.0000 0.8681 0.0000
# 3 16.6362 5.1126 106.7063 0.0000 -9.6830 0.0000
# 4 0.0000 0.0000 0.0000 15.2109 0.0000 -5.3629
# 5 -3.0690 0.8681 -9.6830 0.0000 25.4094 0.0000
# 6 0.0000 0.0000 0.0000 -5.3629 0.0000 17.4915
#
#
#
# Elastic Compliance Matrix: (Units=1/GPa)
#
#
# Indices 1 2 3 4 5 6 
#
# 1 0.010328 0.001673 -0.001639 0.000000 0.000566 0.000000
# 2 0.001673 0.021280 -0.001376 0.000000 -0.001049 0.000000
# 3 -0.001639 -0.001376 0.010026 0.000000 0.003670 0.000000
# 4 0.000000 0.000000 0.000000 0.073710 0.000000 0.022600
# 5 0.000566 -0.001049 0.003670 0.000000 0.040858 0.000000
# 6 0.000000 0.000000 0.000000 0.022600 0.000000 0.064100
#
#
# Mechanical properties :
#
#
# Convention : Reuss Voigt Hill
#
# Bulk Modulus (GPa) = 25.67379 31.65475 28.66427
# Shear Modulus (GPa) = 21.18912 27.66457 24.42685
#
# Velocity S-wave (km/s) = 3.15983 3.61052 3.39267
# Velocity P-wave (km/s) = 5.04088 5.68306 5.37158
#
# Compressibility (1/GPa) = 0.03895022
#
# Stress axis : x y z
#
# Youngs Moduli (GPa) = 96.82414 46.99173 99.74098
#
# Poissons Ratio (x) = -0.07860 0.16348
# Poissons Ratio (y) = -0.16194 0.13720
# Poissons Ratio (z) = 0.15870 0.06464
#
# Static dielectric constant tensor:
#      x y z
#    x 1.771640 0.000000 -0.002000 
#    y 0.000000 1.784490 0.000000 
#    z -0.002000 0.000000 1.817210 
# 
# From -- ./inp_files/308904.got.cif
#   From: 2010.05.17/outbox.cif.g08.bks.cpg/sg12_155_cif.got.tgz:308904.got - 2010.06.03 13:09:07.
