data_PCOD9188507
_publ_section_title
;
Structure prediction by ZEFSAII (Michael W. Deem and Ramdas Pophale) SiO2 
 PCOD9188507
Probable space group: C 2/M
;
_chemical_formula_sum "Si O2"
_cell_formula_units_Z 56
_cell_length_a 34.554644
_cell_length_b 14.646672
_cell_length_c 13.623768
_cell_angle_alpha 90.000000
_cell_angle_beta 24.793628
_cell_angle_gamma 90.000000
_cell_volume 2891.481577
_symmetry_space_group_name_H-M "C 2/M"
_symmetry_group_IT_number 12
_symmetry_cell_setting 'monoclinic'
loop_
_space_group_symop_operation_xyz
x,y,z
-x,y,-z
-x,-y,-z
x,-y,z
1/2+x,1/2+y,z
1/2-x,1/2+y,-z
1/2-x,1/2-y,-z
1/2+x,1/2-y,z
loop_
_atom_site_type_symbol
_atom_site_label
_atom_site_fract_x
_atom_site_fract_y
_atom_site_fract_z
Si Si1 0.060415 0.730370 0.604692
Si Si2 0.207458 0.599834 0.990859
Si Si3 0.635462 0.399160 0.537653
Si Si4 0.720469 0.183805 0.655063
Si Si5 0.464216 0.895221 0.979733
Si Si6 0.760697 0.607929 0.856716
Si Si7 0.620749 0.263247 0.080607
O O1 0.072100 0.816323 0.650031
O O2 0.156742 0.681172 0.354924
O O3 0.009373 0.653240 0.783996
O O4 0.988857 0.763414 0.686214
O O5 0.160312 0.500000 0.096734
O O6 0.248695 0.612121 0.003944
O O7 0.142634 0.681662 0.106312
O O8 0.289242 0.597526 0.723464
O O9 0.593761 0.500000 0.643405
O O10 0.692853 0.370287 0.500982
O O11 0.750000 0.250000 0.500000
O O12 0.644312 0.116942 0.784899
O O13 0.672707 0.236660 0.857819
O O14 0.491530 0.000000 0.915575
O O15 0.500000 0.854612 0.000000
O O16 0.779408 0.500000 0.788951
O O17 0.670904 0.647028 0.007734
#
# Coordination Sequence:
#
# PCOD9188507 Si02
#       7
#     8   8   8   8   8   8   8
#     4  11  22  37  58  87 117 159 195 250 292 355
#     4   9  19  37  61  84 115 153 198 246 298 356
#     4  10  20  37  60  83 113 156 200 237 289 353
#     4  10  19  36  60  82 112 150 190 236 294 347
#     4  10  21  35  55  86 118 148 190 243 294 351
#     4  11  22  39  60  87 122 159 197 250 306 355
#     4  10  22  37  58  85 118 153 193 244 298 354
#
# _framework density 19.367234
#
# number of rings (size 3 to 8) (size 9 to 14) (size 15 to 20)
#    0.000    1.857    2.857    2.143    0.000    5.143 
#    0.000    2.143    0.000   11.571    0.000    0.000 
#    0.000    0.000    0.000    0.000    0.000    0.000 
#
# Total GULP energy -156084.765653 kJ/mol
# GULP energy per Si atom -5574.455916 kJ/mol
# Density = 1.932315 g / cm^3
# Si number density = 19.367234 Si / 1000 Ang^3
#
#
#
# Elastic Constant Matrix: (Units=GPa)
#
#
# Indices 1 2 3 4 5 6 
#
# 1 106.2602 36.8250 16.7179 0.0000 -12.2039 0.0000
# 2 36.8250 106.5170 16.4701 0.0000 -7.0782 0.0000
# 3 16.7179 16.4701 19.3942 0.0000 -8.8615 0.0000
# 4 0.0000 0.0000 0.0000 96.9409 0.0000 9.1405
# 5 -12.2039 -7.0782 -8.8615 0.0000 31.2763 0.0000
# 6 0.0000 0.0000 0.0000 9.1405 0.0000 28.6452
#
#
#
# Elastic Compliance Matrix: (Units=1/GPa)
#
#
# Indices 1 2 3 4 5 6 
#
# 1 0.011694 -0.002869 -0.006726 0.000000 0.002008 0.000000
# 2 -0.002869 0.011512 -0.007609 0.000000 -0.000670 0.000000
# 3 -0.006726 -0.007609 0.071031 0.000000 0.015779 0.000000
# 4 0.000000 0.000000 0.000000 0.010636 0.000000 -0.003394
# 5 0.002008 -0.000670 0.015779 0.000000 0.037075 0.000000
# 6 0.000000 0.000000 0.000000 -0.003394 0.000000 0.035993
#
#
# Mechanical properties :
#
#
# Convention : Reuss Voigt Hill
#
# Bulk Modulus (GPa) = 16.71461 41.35525 29.03493
# Shear Modulus (GPa) = 21.52449 42.18303 31.85376
#
# Velocity S-wave (km/s) = 3.33736 4.67203 4.05992
# Velocity P-wave (km/s) = 4.84765 7.10658 6.08289
#
# Compressibility (1/GPa) = 0.05982789
#
# Stress axis : x y z
#
# Youngs Moduli (GPa) = 85.51319 86.86413 14.07834
#
# Poissons Ratio (x) = 0.24925 0.09469
# Poissons Ratio (y) = 0.24537 0.10713
# Poissons Ratio (z) = 0.57517 0.66097
#
# Static dielectric constant tensor:
#      x y z
#    x 1.691030 0.000000 -0.012870 
#    y 0.000000 1.709740 0.000000 
#    z -0.012870 0.000000 1.683910 
# 
# From -- ./inp_files/189589.got.cif
#   From: 2010.05.17/outbox.cif.g08.bks.cpg/sg12_95_cif.got.tgz:189589.got - 2010.06.03 13:09:07.
