data_PCOD9188003
_publ_section_title
;
Structure prediction by ZEFSAII (Michael W. Deem and Ramdas Pophale) SiO2 
 PCOD9188003
Probable space group: C 2/M
;
_chemical_formula_sum "Si O2"
_cell_formula_units_Z 32
_cell_length_a 15.806840
_cell_length_b 24.510691
_cell_length_c 9.436183
_cell_angle_alpha 90.000000
_cell_angle_beta 158.143337
_cell_angle_gamma 90.000000
_cell_volume 1361.048302
_symmetry_space_group_name_H-M "C 2/M"
_symmetry_group_IT_number 12
_symmetry_cell_setting 'monoclinic'
loop_
_space_group_symop_operation_xyz
x,y,z
-x,y,-z
-x,-y,-z
x,-y,z
1/2+x,1/2+y,z
1/2-x,1/2+y,-z
1/2-x,1/2-y,-z
1/2+x,1/2-y,z
loop_
_atom_site_type_symbol
_atom_site_label
_atom_site_fract_x
_atom_site_fract_y
_atom_site_fract_z
Si Si1 0.978010 0.613808 0.197713
Si Si2 0.965290 0.000000 0.116216
Si Si3 0.730040 0.000000 0.025488
Si Si4 0.682670 0.687142 0.908754
Si Si5 0.139630 0.878765 0.412920
O O1 0.234074 0.622295 0.542052
O O2 0.902765 0.552748 0.122313
O O3 0.900257 0.651955 0.203693
O O4 0.826213 0.629760 0.825804
O O5 0.068799 0.058256 0.320347
O O6 0.746647 0.000000 0.879956
O O7 0.000000 0.000000 0.000000
O O8 0.000000 0.000000 0.500000
O O9 0.500000 0.676615 0.500000
O O10 0.558679 0.663863 0.855915
O O11 0.750000 0.750000 0.000000
#
# Coordination Sequence:
#
# PCOD9188003 Si02
#       5
#     8   4   4   8   8
#     4  10  19  35  67  90 113 160 217 257 297 371
#     4  12  23  37  57  96 137 158 192 257 324 378
#     4  12  17  35  65  90 122 165 207 253 308 383
#     4  10  21  40  62  89 120 162 216 268 310 369
#     4  10  20  38  61  90 122 159 209 254 308 376
#
# _framework density 23.511289000000001
#
# number of rings (size 3 to 8) (size 9 to 14) (size 15 to 20)
#    0.000    1.500    5.000    1.500    0.000    3.000 
#    4.500    2.500    0.000    0.000    0.000    0.000 
#    0.000    0.000    0.000    0.000    0.000    0.000 
#
# Total GULP energy -89327.078399 kJ/mol
# GULP energy per Si atom -5582.942400 kJ/mol
# Density = 2.345778 g / cm^3
# Si number density = 23.511289 Si / 1000 Ang^3
#
#
#
# Elastic Constant Matrix: (Units=GPa)
#
#
# Indices 1 2 3 4 5 6 
#
# 1 243.4351 101.8224 69.4789 -0.0001 54.7267 0.0000
# 2 101.8224 183.1133 27.7829 -0.0002 48.4835 0.0000
# 3 69.4789 27.7829 68.5143 -0.0009 15.6681 0.0001
# 4 -0.0001 -0.0002 -0.0009 20.5705 -0.0002 -1.2767
# 5 54.7267 48.4835 15.6681 -0.0002 58.4369 0.0000
# 6 0.0000 0.0000 0.0001 -1.2767 0.0000 15.0478
#
#
#
# Elastic Compliance Matrix: (Units=1/GPa)
#
#
# Indices 1 2 3 4 5 6 
#
# 1 0.007592 -0.002385 -0.005922 0.000000 -0.003544 0.000000
# 2 -0.002385 0.007918 0.000212 0.000000 -0.004393 0.000000
# 3 -0.005922 0.000212 0.020546 0.000001 -0.000139 0.000000
# 4 0.000000 0.000000 0.000001 0.048871 0.000000 0.004146
# 5 -0.003544 -0.004393 -0.000139 0.000000 0.024113 0.000000
# 6 0.000000 0.000000 0.000000 0.004146 0.000000 0.066807
#
#
# Mechanical properties :
#
#
# Convention : Reuss Voigt Hill
#
# Bulk Modulus (GPa) = 50.33206 99.24789 74.78997
# Shear Modulus (GPa) = 25.16885 38.54296 31.85591
#
# Velocity S-wave (km/s) = 3.27540 4.05327 3.68492
# Velocity P-wave (km/s) = 5.97983 8.01310 7.06994
#
# Compressibility (1/GPa) = 0.01986805
#
# Stress axis : x y z
#
# Youngs Moduli (GPa) = 131.71435 126.29110 48.67077
#
# Poissons Ratio (x) = 0.30120 0.28821
# Poissons Ratio (y) = 0.31414 -0.01033
# Poissons Ratio (z) = 0.77995 -0.02681
#
# Static dielectric constant tensor:
#      x y z
#    x 1.940220 0.000000 0.016580 
#    y 0.000000 1.862670 0.000000 
#    z 0.016580 0.000000 1.992050 
# 
# From -- ./inp_files/66049.got.cif
#   From: 2010.05.17/outbox.cif.g08.bks.cpg/sg12_34_cif.got.tgz:66049.got - 2010.06.03 13:09:07.
