data_PCOD9188143
_publ_section_title
;
Structure prediction by ZEFSAII (Michael W. Deem and Ramdas Pophale) SiO2 
 PCOD9188143
Probable space group: C 2/M
;
_chemical_formula_sum "Si O2"
_cell_formula_units_Z 40
_cell_length_a 15.084534
_cell_length_b 8.446801
_cell_length_c 25.468217
_cell_angle_alpha 90.000000
_cell_angle_beta 137.736442
_cell_angle_gamma 90.000000
_cell_volume 2182.438829
_symmetry_space_group_name_H-M "C 2/M"
_symmetry_group_IT_number 12
_symmetry_cell_setting 'monoclinic'
loop_
_space_group_symop_operation_xyz
x,y,z
-x,y,-z
-x,-y,-z
x,-y,z
1/2+x,1/2+y,z
1/2-x,1/2+y,-z
1/2-x,1/2-y,-z
1/2+x,1/2-y,z
loop_
_atom_site_type_symbol
_atom_site_label
_atom_site_fract_x
_atom_site_fract_y
_atom_site_fract_z
Si Si1 0.638081 0.191261 0.587032
Si Si2 0.148133 0.310621 0.000006
Si Si3 0.353287 0.308980 0.882564
Si Si4 0.128761 0.693094 0.702998
Si Si5 0.668926 0.188941 0.414372
O O1 0.500000 0.242060 0.500000
O O2 0.651158 0.242522 0.652814
O O3 0.755206 0.256395 0.603636
O O4 0.639353 0.000000 0.586180
O O5 0.149952 0.500000 0.000072
O O6 0.179311 0.251349 0.072966
O O7 0.250000 0.250000 0.000000
O O8 0.996938 0.251567 0.926981
O O9 0.358289 0.500000 0.886497
O O10 0.240783 0.256183 0.792584
O O11 0.129541 0.500000 0.704095
O O12 0.981443 0.746374 0.652364
O O13 0.750000 0.250000 0.500000
O O14 0.666266 0.000000 0.416762
#
# Coordination Sequence:
#
# PCOD9188143 Si02
#       5
#     8   8   8   8   8
#     4  10  19  36  57  77 108 149 189 232 285 334
#     4  11  22  39  62  88 118 152 190 231 283 345
#     4  10  20  38  61  88 119 151 189 235 289 342
#     4   9  20  37  57  81 116 153 186 232 287 338
#     4  11  21  36  55  80 109 146 192 237 283 333
#
# _framework density 18.328119000000001
#
# number of rings (size 3 to 8) (size 9 to 14) (size 15 to 20)
#    0.000    1.800    2.000    4.200    0.000    2.000 
#    0.000   10.000    0.000    0.000    0.000    0.000 
#    0.000    0.000    0.000    0.000    0.000    0.000 
#
# Total GULP energy -111649.701621 kJ/mol
# GULP energy per Si atom -5582.485081 kJ/mol
# Density = 1.828640 g / cm^3
# Si number density = 18.328119 Si / 1000 Ang^3
#
#
#
# Elastic Constant Matrix: (Units=GPa)
#
#
# Indices 1 2 3 4 5 6 
#
# 1 211.3009 48.0194 119.2995 0.0000 5.6193 0.0000
# 2 48.0194 65.1447 39.3473 0.0000 -0.6276 0.0000
# 3 119.2995 39.3473 205.1778 0.0000 -2.3524 0.0000
# 4 0.0000 0.0000 0.0000 14.7454 0.0000 2.1824
# 5 5.6193 -0.6276 -2.3524 0.0000 17.9229 0.0000
# 6 0.0000 0.0000 0.0000 2.1824 0.0000 35.8657
#
#
#
# Elastic Compliance Matrix: (Units=1/GPa)
#
#
# Indices 1 2 3 4 5 6 
#
# 1 0.007802 -0.003415 -0.003917 0.000000 -0.003080 0.000000
# 2 -0.003415 0.018857 -0.001613 0.000000 0.001519 0.000000
# 3 -0.003917 -0.001613 0.007485 0.000000 0.002154 0.000000
# 4 0.000000 0.000000 0.000000 0.068434 0.000000 -0.004164
# 5 -0.003080 0.001519 0.002154 0.000000 0.057096 0.000000
# 6 0.000000 0.000000 0.000000 -0.004164 0.000000 0.028135
#
#
# Mechanical properties :
#
#
# Convention : Reuss Voigt Hill
#
# Bulk Modulus (GPa) = 61.52301 99.43953 80.48127
# Shear Modulus (GPa) = 23.68352 32.03727 27.86039
#
# Velocity S-wave (km/s) = 3.59861 4.18543 3.90306
# Velocity P-wave (km/s) = 7.13492 8.81646 8.01989
#
# Compressibility (1/GPa) = 0.01625408
#
# Stress axis : x y z
#
# Youngs Moduli (GPa) = 128.17252 53.03173 133.59504
#
# Poissons Ratio (x) = 0.18110 0.52327
# Poissons Ratio (y) = 0.43770 0.21551
# Poissons Ratio (z) = 0.50203 0.08555
#
# Static dielectric constant tensor:
#      x y z
#    x 1.607960 0.000000 -0.001130 
#    y 0.000000 1.633030 0.000000 
#    z -0.001130 0.000000 1.625660 
# 
# From -- ./inp_files/308688.got.cif
#   From: 2010.05.17/outbox.cif.g08.bks.cpg/sg12_155_cif.got.tgz:308688.got - 2010.06.03 13:09:07.
