data_PCOD9188231
_publ_section_title
;
Structure prediction by ZEFSAII (Michael W. Deem and Ramdas Pophale) SiO2 
 PCOD9188231
Probable space group: C 2/M
;
_chemical_formula_sum "Si O2"
_cell_formula_units_Z 56
_cell_length_a 28.902682
_cell_length_b 7.510918
_cell_length_c 12.949804
_cell_angle_alpha 90.000000
_cell_angle_beta 50.628917
_cell_angle_gamma 90.000000
_cell_volume 2173.221995
_symmetry_space_group_name_H-M "C 2/M"
_symmetry_group_IT_number 12
_symmetry_cell_setting 'monoclinic'
loop_
_space_group_symop_operation_xyz
x,y,z
-x,y,-z
-x,-y,-z
x,-y,z
1/2+x,1/2+y,z
1/2-x,1/2+y,-z
1/2-x,1/2-y,-z
1/2+x,1/2-y,z
loop_
_atom_site_type_symbol
_atom_site_label
_atom_site_fract_x
_atom_site_fract_y
_atom_site_fract_z
Si Si1 0.103136 0.788526 0.980789
Si Si2 0.838472 0.283972 0.465663
Si Si3 0.414876 0.289054 0.763376
Si Si4 0.061843 0.712797 0.825042
Si Si5 0.793345 0.787022 0.840855
Si Si6 0.540089 0.213442 0.633803
Si Si7 0.727078 0.296435 0.728196
O O1 0.057637 0.767077 0.949646
O O2 0.165038 0.710124 0.849226
O O3 0.110745 0.000000 0.983932
O O4 0.092533 0.713859 0.109731
O O5 0.834925 0.500000 0.475181
O O6 0.870512 0.240552 0.312065
O O7 0.773260 0.211703 0.581788
O O8 0.890592 0.228317 0.474624
O O9 0.405248 0.500000 0.779890
O O10 0.360562 0.220358 0.771136
O O11 0.485100 0.265533 0.640317
O O12 0.055086 0.500000 0.834337
O O13 0.027104 0.778553 0.771157
O O14 0.765581 0.700218 0.779137
O O15 0.794056 0.000000 0.823269
O O16 0.750000 0.750000 0.000000
O O17 0.540979 0.000000 0.632286
O O18 0.714748 0.500000 0.713633
#
# Coordination Sequence:
#
# PCOD9188231 Si02
#       7
#     8   8   8   8   8   8   8
#     4  10  20  32  49  78 108 140 175 211 265 320
#     4   7  15  34  56  75 104 140 175 217 259 303
#     4  10  21  36  52  75 108 138 171 214 265 318
#     4   8  17  34  52  76 107 137 176 218 255 303
#     4  11  22  38  56  79 108 138 173 216 263 315
#     4   8  17  35  55  76 102 138 181 217 253 303
#     4  10  19  36  58  78 106 141 175 217 264 311
#
# _framework density 25.768190000000001
#
# number of rings (size 3 to 8) (size 9 to 14) (size 15 to 20)
#    0.857    2.000    1.429    0.429    0.000    4.000 
#    0.000    5.000    0.000    4.286    0.000    0.000 
#    0.000    0.000    0.000    0.000    0.000    0.000 
#
# Total GULP energy -156144.200318 kJ/mol
# GULP energy per Si atom -5576.578583 kJ/mol
# Density = 2.570954 g / cm^3
# Si number density = 25.768190 Si / 1000 Ang^3
#
#
#
# Elastic Constant Matrix: (Units=GPa)
#
#
# Indices 1 2 3 4 5 6 
#
# 1 130.5664 -0.2024 25.8952 0.0000 -6.8876 0.0000
# 2 -0.2024 86.2903 -13.3622 0.0001 -4.9175 -0.0001
# 3 25.8952 -13.3622 54.9192 0.0000 9.3171 0.0000
# 4 0.0000 0.0001 0.0000 -14.1921 0.0000 18.1511
# 5 -6.8876 -4.9175 9.3171 0.0000 29.9779 0.0000
# 6 0.0000 -0.0001 0.0000 18.1511 0.0000 -0.8691
#
#
#
# Elastic Compliance Matrix: (Units=1/GPa)
#
#
# Indices 1 2 3 4 5 6 
#
# 1 0.008805 -0.000537 -0.004867 0.000000 0.003448 0.000000
# 2 -0.000537 0.012111 0.003044 0.000000 0.000917 0.000000
# 3 -0.004867 0.003044 0.022538 0.000000 -0.007624 0.000000
# 4 0.000000 0.000000 0.000000 0.002741 0.000000 0.057236
# 5 0.003448 0.000917 -0.007624 0.000000 0.036670 0.000000
# 6 0.000000 0.000000 0.000000 0.057236 0.000000 0.044752
#
#
# Mechanical properties :
#
#
# Convention : Reuss Voigt Hill
#
# Bulk Modulus (GPa) = 25.81672 32.93744 29.37708
# Shear Modulus (GPa) = 34.42396 20.27968 27.35182
#
# Velocity S-wave (km/s) = 3.65897 2.80840 3.26154
# Velocity P-wave (km/s) = 5.28123 4.82971 5.06051
#
# Compressibility (1/GPa) = 0.03873458
#
# Stress axis : x y z
#
# Youngs Moduli (GPa) = 113.56780 82.56822 44.37033
#
# Poissons Ratio (x) = 0.04430 0.21596
# Poissons Ratio (y) = 0.06094 -0.13507
# Poissons Ratio (z) = 0.55277 -0.25135
#
# Static dielectric constant tensor:
#      x y z
#    x 2.096350 0.000000 -0.069280 
#    y 0.000000 1.954040 0.000000 
#    z -0.069280 0.000000 2.139400 
# 
# From -- ./inp_files/248881.got.cif
#   From: 2010.05.17/outbox.cif.g08.bks.cpg/sg12_125_cif.got.tgz:248881.got - 2010.06.03 13:09:07.
