data_PCOD9188388
_publ_section_title
;
Structure prediction by ZEFSAII (Michael W. Deem and Ramdas Pophale) SiO2 
 PCOD9188388
Probable space group: C 2/M
;
_chemical_formula_sum "Si O2"
_cell_formula_units_Z 48
_cell_length_a 21.169251
_cell_length_b 8.440122
_cell_length_c 17.918073
_cell_angle_alpha 90.000000
_cell_angle_beta 53.946719
_cell_angle_gamma 90.000000
_cell_volume 2588.269247
_symmetry_space_group_name_H-M "C 2/M"
_symmetry_group_IT_number 12
_symmetry_cell_setting 'monoclinic'
loop_
_space_group_symop_operation_xyz
x,y,z
-x,y,-z
-x,-y,-z
x,-y,z
1/2+x,1/2+y,z
1/2-x,1/2+y,-z
1/2-x,1/2-y,-z
1/2+x,1/2-y,z
loop_
_atom_site_type_symbol
_atom_site_label
_atom_site_fract_x
_atom_site_fract_y
_atom_site_fract_z
Si Si1 0.765385 0.808252 0.714815
Si Si2 0.880759 0.186631 0.104410
Si Si3 0.025583 0.688759 0.096472
Si Si4 0.444816 0.691362 0.606523
Si Si5 0.483445 0.808331 0.289019
Si Si6 0.695671 0.191163 0.604101
O O1 0.706572 0.742562 0.817774
O O2 0.855043 0.756192 0.659614
O O3 0.730290 0.756888 0.659441
O O4 0.763536 0.000000 0.719026
O O5 0.940802 0.273124 0.119361
O O6 0.888200 0.000000 0.111171
O O7 0.911526 0.229467 0.000734
O O8 0.036808 0.500000 0.085071
O O9 0.025265 0.740230 0.182765
O O10 0.500000 0.747115 0.500000
O O11 0.445069 0.500000 0.604245
O O12 0.478105 0.745398 0.662661
O O13 0.393269 0.755243 0.345825
O O14 0.483981 0.000000 0.290464
O O15 0.750000 0.250000 0.500000
O O16 0.695491 0.000000 0.604484
#
# Coordination Sequence:
#
# PCOD9188388 Si02
#       6
#     8   8   8   8   8   8
#     4  10  20  38  58  79 113 154 191 225 280 348
#     4  11  21  33  55  89 118 143 185 239 285 328
#     4  10  19  36  59  82 114 154 187 224 286 348
#     4  10  22  39  60  83 112 153 193 234 282 336
#     4  10  21  37  58  83 112 148 188 232 282 337
#     4  10  20  35  55  81 109 142 187 235 281 333
#
# _framework density 18.545210999999998
#
# number of rings (size 3 to 8) (size 9 to 14) (size 15 to 20)
#    0.000    1.833    1.667    4.000    0.000    5.000 
#    0.000    0.833    0.000    0.000    0.000    0.000 
#    0.000    0.000    0.000    0.000    0.000    0.000 
#
# Total GULP energy -134042.569424 kJ/mol
# GULP energy per Si atom -5585.107059 kJ/mol
# Density = 1.850300 g / cm^3
# Si number density = 18.545211 Si / 1000 Ang^3
#
#
#
# Elastic Constant Matrix: (Units=GPa)
#
#
# Indices 1 2 3 4 5 6 
#
# 1 138.2063 10.4972 80.3551 0.0001 -4.9099 -0.0005
# 2 10.4972 7.9774 6.2164 0.0003 -1.4874 -0.0011
# 3 80.3551 6.2164 158.1215 0.0000 -4.5742 -0.0003
# 4 0.0001 0.0003 0.0000 28.5294 0.0000 3.6627
# 5 -4.9099 -1.4874 -4.5742 0.0000 33.5123 0.0003
# 6 -0.0005 -0.0011 -0.0003 3.6627 0.0003 19.1332
#
#
#
# Elastic Compliance Matrix: (Units=1/GPa)
#
#
# Indices 1 2 3 4 5 6 
#
# 1 0.011068 -0.010427 -0.005202 0.000000 0.000449 0.000000
# 2 -0.010427 0.140001 -0.000070 -0.000002 0.004677 0.000008
# 3 -0.005202 -0.000070 0.008984 0.000000 0.000461 0.000000
# 4 0.000000 -0.000002 0.000000 0.035935 0.000000 -0.006879
# 5 0.000449 0.004677 0.000461 0.000000 0.030176 0.000000
# 6 0.000000 0.000008 0.000000 -0.006879 0.000000 0.053582
#
#
# Mechanical properties :
#
#
# Convention : Reuss Voigt Hill
#
# Bulk Modulus (GPa) = 7.77266 55.38251 31.57759
# Shear Modulus (GPa) = 14.12320 30.05073 22.08697
#
# Velocity S-wave (km/s) = 2.76262 4.02979 3.45480
# Velocity P-wave (km/s) = 3.79162 7.18197 5.74269
#
# Compressibility (1/GPa) = 0.12865605
#
# Stress axis : x y z
#
# Youngs Moduli (GPa) = 90.35294 7.14280 111.31274
#
# Poissons Ratio (x) = 0.07448 0.57900
# Poissons Ratio (y) = 0.94208 0.00779
# Poissons Ratio (z) = 0.46998 0.00050
#
# Static dielectric constant tensor:
#      x y z
#    x 1.614050 0.000000 -0.005170 
#    y 0.000000 1.635800 0.000000 
#    z -0.005170 0.000000 1.638070 
# 
# From -- ./inp_files/274040.got.cif
#   From: 2010.05.17/outbox.cif.g08.bks.cpg/sg12_138_cif.got.tgz:274040.got - 2010.06.03 13:09:07.
