data_PCOD9188152
_publ_section_title
;
Structure prediction by ZEFSAII (Michael W. Deem and Ramdas Pophale) SiO2 
 PCOD9188152
Probable space group: C 2/M
;
_chemical_formula_sum "Si O2"
_cell_formula_units_Z 56
_cell_length_a 24.474459
_cell_length_b 7.430242
_cell_length_c 16.317517
_cell_angle_alpha 90.000000
_cell_angle_beta 124.410661
_cell_angle_gamma 90.000000
_cell_volume 2448.096219
_symmetry_space_group_name_H-M "C 2/M"
_symmetry_group_IT_number 12
_symmetry_cell_setting 'monoclinic'
loop_
_space_group_symop_operation_xyz
x,y,z
-x,y,-z
-x,-y,-z
x,-y,z
1/2+x,1/2+y,z
1/2-x,1/2+y,-z
1/2-x,1/2-y,-z
1/2+x,1/2-y,z
loop_
_atom_site_type_symbol
_atom_site_label
_atom_site_fract_x
_atom_site_fract_y
_atom_site_fract_z
Si Si1 0.960461 0.791508 0.390202
Si Si2 0.454793 0.721757 0.202655
Si Si3 0.670412 0.217777 0.630409
Si Si4 0.312984 0.279148 0.818509
Si Si5 0.317641 0.285228 0.009579
Si Si6 0.327869 0.786109 0.552361
Si Si7 0.418725 0.705552 0.781635
O O1 0.970054 0.715595 0.307864
O O2 0.883762 0.782584 0.351021
O O3 0.000000 0.708169 0.500000
O O4 0.981397 0.000000 0.402747
O O5 0.455728 0.500000 0.205069
O O6 0.511704 0.783655 0.188731
O O7 0.382287 0.780288 0.112529
O O8 0.744141 0.275165 0.717714
O O9 0.654118 0.277261 0.523967
O O10 0.669258 0.000000 0.629805
O O11 0.313440 0.500000 0.817007
O O12 0.314870 0.219080 0.913904
O O13 0.375248 0.214911 0.817961
O O14 0.324802 0.500000 0.010081
O O15 0.250000 0.250000 0.000000
O O16 0.161827 0.500000 0.435489
O O17 0.250000 0.750000 0.500000
O O18 0.371428 0.704391 0.661543
O O19 0.433063 0.500000 0.818195
#
# Coordination Sequence:
#
# PCOD9188152 Si02
#       7
#     8   8   8   8   8   8   8
#     4  10  20  34  51  75 105 139 178 218 264 318
#     4   9  19  34  55  81 108 140 183 228 270 323
#     4  10  20  34  51  76 106 137 175 218 263 318
#     4   9  18  33  54  79 106 136 175 223 272 320
#     4  10  20  36  57  81 107 139 182 228 274 325
#     4  11  21  34  53  79 112 145 181 220 264 322
#     4  10  19  36  57  78 110 145 178 224 274 322
#
# _framework density 22.874917
#
# number of rings (size 3 to 8) (size 9 to 14) (size 15 to 20)
#    0.000    2.143    1.429    2.143    0.000    3.143 
#    0.000    5.000    0.000    0.000    0.000    2.000 
#    0.000    0.000    0.000    0.000    0.000    0.000 
#
# Total GULP energy -156552.883329 kJ/mol
# GULP energy per Si atom -5591.174405 kJ/mol
# Density = 2.282285 g / cm^3
# Si number density = 22.874917 Si / 1000 Ang^3
#
#
#
# Elastic Constant Matrix: (Units=GPa)
#
#
# Indices 1 2 3 4 5 6 
#
# 1 189.0326 -6.6530 78.4959 0.0000 -8.0746 0.0000
# 2 -6.6530 77.1705 2.6779 0.0000 -3.6195 0.0000
# 3 78.4959 2.6779 132.4389 0.0000 -16.1371 0.0000
# 4 0.0000 0.0000 0.0000 -14.7337 0.0000 1.8778
# 5 -8.0746 -3.6195 -16.1371 0.0000 44.2503 0.0000
# 6 0.0000 0.0000 0.0000 1.8778 0.0000 18.9572
#
#
#
# Elastic Compliance Matrix: (Units=1/GPa)
#
#
# Indices 1 2 3 4 5 6 
#
# 1 0.007062 0.000746 -0.004224 0.000000 -0.000191 0.000000
# 2 0.000746 0.013090 -0.000586 0.000000 0.000993 0.000000
# 3 -0.004224 -0.000586 0.010430 0.000000 0.002985 0.000000
# 4 0.000000 0.000000 0.000000 -0.067026 0.000000 0.006639
# 5 -0.000191 0.000993 0.002985 0.000000 0.023734 0.000000
# 6 0.000000 0.000000 0.000000 0.006639 0.000000 0.052093
#
#
# Mechanical properties :
#
#
# Convention : Reuss Voigt Hill
#
# Bulk Modulus (GPa) = 44.53505 60.85374 52.69439
# Shear Modulus (GPa) = 90.91767 31.30283 61.11025
#
# Velocity S-wave (km/s) = 6.31125 3.70325 5.17426
# Velocity P-wave (km/s) = 8.52176 6.70418 7.66702
#
# Compressibility (1/GPa) = 0.02245423
#
# Stress axis : x y z
#
# Youngs Moduli (GPa) = 141.59727 76.39656 95.87919
#
# Poissons Ratio (x) = -0.05703 0.40500
# Poissons Ratio (y) = -0.10570 0.05620
# Poissons Ratio (z) = 0.59812 0.04478
#
# Static dielectric constant tensor:
#      x y z
#    x 1.821250 0.000000 -0.004240 
#    y 0.000000 1.896840 0.000000 
#    z -0.004240 0.000000 1.816980 
# 
# From -- ./inp_files/238980.got.cif
#   From: 2010.05.17/outbox.cif.g08.bks.cpg/sg12_120_cif.got.tgz:238980.got - 2010.06.03 13:09:07.
