data_PCOD9188290
_publ_section_title
;
Structure prediction by ZEFSAII (Michael W. Deem and Ramdas Pophale) SiO2 
 PCOD9188290
Probable space group: C 2/M
;
_chemical_formula_sum "Si O2"
_cell_formula_units_Z 48
_cell_length_a 9.578400
_cell_length_b 15.602298
_cell_length_c 16.389814
_cell_angle_alpha 90.000000
_cell_angle_beta 94.783578
_cell_angle_gamma 90.000000
_cell_volume 2440.844928
_symmetry_space_group_name_H-M "C 2/M"
_symmetry_group_IT_number 12
_symmetry_cell_setting 'monoclinic'
loop_
_space_group_symop_operation_xyz
x,y,z
-x,y,-z
-x,-y,-z
x,-y,z
1/2+x,1/2+y,z
1/2-x,1/2+y,-z
1/2-x,1/2-y,-z
1/2+x,1/2-y,z
loop_
_atom_site_type_symbol
_atom_site_label
_atom_site_fract_x
_atom_site_fract_y
_atom_site_fract_z
Si Si1 0.810277 0.734536 0.314251
Si Si2 0.336310 0.164598 0.479274
Si Si3 0.536109 0.742288 0.203862
Si Si4 0.846530 0.319380 0.954446
Si Si5 0.069417 0.097045 0.918272
Si Si6 0.617287 0.403541 0.576550
O O1 0.819478 0.660248 0.381767
O O2 0.649542 0.739453 0.280966
O O3 0.867568 0.824707 0.357813
O O4 0.900857 0.715376 0.238510
O O5 0.500000 0.173738 0.500000
O O6 0.250000 0.250000 0.500000
O O7 0.263008 0.096258 0.533299
O O8 0.614171 0.788729 0.133863
O O9 0.481298 0.655340 0.158848
O O10 0.736006 0.395881 0.939145
O O11 0.750000 0.250000 0.000000
O O12 0.000000 0.336066 0.000000
O O13 0.024796 0.000000 0.903334
O O14 0.000000 0.128050 0.000000
O O15 0.500000 0.386803 0.500000
O O16 0.591558 0.500000 0.608981
#
# Coordination Sequence:
#
# PCOD9188290 Si02
#       6
#     8   8   8   8   8   8
#     4  11  21  34  59  90 120 155 204 254 303 364
#     4  10  19  36  58  83 112 152 206 250 288 360
#     4  12  21  36  60  91 123 161 197 253 310 363
#     4  12  20  39  66  91 119 163 217 251 287 374
#     4  11  24  42  64  91 123 162 208 260 309 362
#     4  10  21  39  61  86 121 165 207 252 305 362
#
# _framework density 19.665322
#
# number of rings (size 3 to 8) (size 9 to 14) (size 15 to 20)
#    0.000    1.000    5.000    5.000    0.000    1.333 
#    0.000    0.833    0.000    2.000    0.000    0.000 
#    0.000    0.000    0.000    0.000    0.000    0.000 
#
# Total GULP energy -133697.684015 kJ/mol
# GULP energy per Si atom -5570.736834 kJ/mol
# Density = 1.962056 g / cm^3
# Si number density = 19.665322 Si / 1000 Ang^3
#
#
#
# Elastic Constant Matrix: (Units=GPa)
#
#
# Indices 1 2 3 4 5 6 
#
# 1 135.6643 8.1280 14.2945 0.0000 7.0006 0.0000
# 2 8.1280 32.7768 10.9643 0.0000 -3.1653 0.0000
# 3 14.2945 10.9643 72.9082 0.0000 -4.4475 0.0000
# 4 0.0000 0.0000 0.0000 19.5546 0.0000 -0.3464
# 5 7.0006 -3.1653 -4.4475 0.0000 54.4370 0.0000
# 6 0.0000 0.0000 0.0000 -0.3464 0.0000 15.3455
#
#
#
# Elastic Compliance Matrix: (Units=1/GPa)
#
#
# Indices 1 2 3 4 5 6 
#
# 1 0.007667 -0.001568 -0.001340 0.000000 -0.001187 0.000000
# 2 -0.001568 0.032565 -0.004485 0.000000 0.001729 0.000000
# 3 -0.001340 -0.004485 0.014721 0.000000 0.001114 0.000000
# 4 0.000000 0.000000 0.000000 0.051159 0.000000 0.001155
# 5 -0.001187 0.001729 0.001114 0.000000 0.018714 0.000000
# 6 0.000000 0.000000 0.000000 0.001155 0.000000 0.065192
#
#
# Mechanical properties :
#
#
# Convention : Reuss Voigt Hill
#
# Bulk Modulus (GPa) = 24.89460 34.23587 29.56523
# Shear Modulus (GPa) = 22.91550 31.73159 27.32354
#
# Velocity S-wave (km/s) = 3.41731 4.02130 3.73155
# Velocity P-wave (km/s) = 5.31576 6.24565 5.79938
#
# Compressibility (1/GPa) = 0.04016936
#
# Stress axis : x y z
#
# Youngs Moduli (GPa) = 130.42095 30.70754 67.93032
#
# Poissons Ratio (x) = 0.04814 0.09102
# Poissons Ratio (y) = 0.20447 0.30463
# Poissons Ratio (z) = 0.17475 0.13771
#
# Static dielectric constant tensor:
#      x y z
#    x 1.865210 0.000000 0.063210 
#    y 0.000000 1.780450 0.000000 
#    z 0.063210 0.000000 1.764570 
# 
# From -- ./inp_files/256176.got.cif
#   From: 2010.05.17/outbox.cif.g08.bks.cpg/sg12_129_cif.got.tgz:256176.got - 2010.06.03 13:09:07.
