data_PCOD9188371
_publ_section_title
;
Structure prediction by ZEFSAII (Michael W. Deem and Ramdas Pophale) SiO2 
 PCOD9188371
Probable space group: C 2/M
;
_chemical_formula_sum "Si O2"
_cell_formula_units_Z 48
_cell_length_a 9.362312
_cell_length_b 18.709480
_cell_length_c 30.205667
_cell_angle_alpha 90.000000
_cell_angle_beta 150.175709
_cell_angle_gamma 90.000000
_cell_volume 2631.408238
_symmetry_space_group_name_H-M "C 2/M"
_symmetry_group_IT_number 12
_symmetry_cell_setting 'monoclinic'
loop_
_space_group_symop_operation_xyz
x,y,z
-x,y,-z
-x,-y,-z
x,-y,z
1/2+x,1/2+y,z
1/2-x,1/2+y,-z
1/2-x,1/2-y,-z
1/2+x,1/2-y,z
loop_
_atom_site_type_symbol
_atom_site_label
_atom_site_fract_x
_atom_site_fract_y
_atom_site_fract_z
Si Si1 0.670664 0.325796 0.409868
Si Si2 0.326938 0.083335 0.767188
Si Si3 0.314697 0.329981 0.065350
Si Si4 0.826932 0.825914 0.410273
Si Si5 0.316226 0.166990 0.064721
Si Si6 0.834573 0.416878 0.233947
O O1 0.461722 0.377607 0.326528
O O2 0.696692 0.249919 0.391433
O O3 0.532607 0.317308 0.422150
O O4 0.000000 0.352562 0.500000
O O5 0.471846 0.123028 0.847388
O O6 0.543613 0.088511 0.783556
O O7 0.277741 0.000000 0.763206
O O8 0.429563 0.248690 0.089630
O O9 0.536641 0.374340 0.153972
O O10 0.251663 0.365594 0.001218
O O11 0.000000 0.323650 0.000000
O O12 0.572018 0.878652 0.327952
O O13 0.000000 0.852449 0.500000
O O14 0.000000 0.171239 0.000000
O O15 0.801302 0.500000 0.236096
#
# Coordination Sequence:
#
# PCOD9188371 Si02
#       6
#     8   8   8   8   8   8
#     4  10  20  37  60  85 112 141 180 231 275 320
#     4  10  21  36  57  83 110 147 188 223 269 328
#     4  10  21  36  56  83 113 142 184 233 276 319
#     4  10  20  37  61  85 108 143 185 227 272 325
#     4  10  19  36  59  82 106 145 189 227 270 323
#     4  10  21  37  56  80 114 150 181 222 276 331
#
# _framework density 18.241184000000001
#
# number of rings (size 3 to 8) (size 9 to 14) (size 15 to 20)
#    0.000    2.000    1.667    3.000    0.000    2.000 
#    6.000    0.000    0.000    0.000    0.000    0.000 
#    0.000    0.000    0.000    0.000    0.000    0.000 
#
# Total GULP energy -133817.547501 kJ/mol
# GULP energy per Si atom -5575.731146 kJ/mol
# Density = 1.819967 g / cm^3
# Si number density = 18.241184 Si / 1000 Ang^3
#
#
#
# Elastic Constant Matrix: (Units=GPa)
#
#
# Indices 1 2 3 4 5 6 
#
# 1 69.1655 23.3485 44.0383 0.0003 -12.1659 0.0005
# 2 23.3485 93.1607 91.2839 -0.0071 -10.7164 -0.0005
# 3 44.0383 91.2839 163.0180 -0.0009 -15.8926 0.0007
# 4 0.0003 -0.0071 -0.0009 -6.6547 -0.0013 0.3012
# 5 -12.1659 -10.7164 -15.8926 -0.0013 32.0336 0.0003
# 6 0.0005 -0.0005 0.0007 0.3012 0.0003 17.8124
#
#
#
# Elastic Compliance Matrix: (Units=1/GPa)
#
#
# Indices 1 2 3 4 5 6 
#
# 1 0.018129 0.000770 -0.004868 0.000000 0.004728 0.000000
# 2 0.000770 0.023878 -0.013421 -0.000024 0.001622 0.000002
# 3 -0.004868 -0.013421 0.015075 0.000012 0.001141 -0.000001
# 4 0.000000 -0.000024 0.000012 -0.150154 -0.000008 0.002539
# 5 0.004728 0.001622 0.001141 -0.000008 0.034121 -0.000001
# 6 0.000000 0.000002 -0.000001 0.002539 -0.000001 0.056098
#
#
# Mechanical properties :
#
#
# Convention : Reuss Voigt Hill
#
# Bulk Modulus (GPa) = 45.36031 71.40953 58.38492
# Shear Modulus (GPa) = 126.47584 19.74982 73.11283
#
# Velocity S-wave (km/s) = 8.33582 3.29402 6.33784
# Velocity P-wave (km/s) = 10.84291 7.32802 9.25388
#
# Compressibility (1/GPa) = 0.02204570
#
# Stress axis : x y z
#
# Youngs Moduli (GPa) = 55.16008 41.87951 66.33283
#
# Poissons Ratio (x) = -0.03223 0.32288
# Poissons Ratio (y) = -0.04246 0.89023
# Poissons Ratio (z) = 0.26849 0.56205
#
# Static dielectric constant tensor:
#      x y z
#    x 1.599020 0.000000 -0.021040 
#    y 0.000000 1.615200 0.000000 
#    z -0.021040 0.000000 1.598990 
# 
# From -- ./inp_files/197198.got.cif
#   From: 2010.05.17/outbox.cif.g08.bks.cpg/sg12_99_cif.got.tgz:197198.got - 2010.06.03 13:09:07.
