data_PCOD9188746
_publ_section_title
;
Structure prediction by ZEFSAII (Michael W. Deem and Ramdas Pophale) SiO2 
 PCOD9188746
Probable space group: C 2/M
;
_chemical_formula_sum "Si O2"
_cell_formula_units_Z 64
_cell_length_a 12.601528
_cell_length_b 29.798775
_cell_length_c 18.526425
_cell_angle_alpha 90.000000
_cell_angle_beta 150.154904
_cell_angle_gamma 90.000000
_cell_volume 3462.128532
_symmetry_space_group_name_H-M "C 2/M"
_symmetry_group_IT_number 12
_symmetry_cell_setting 'monoclinic'
loop_
_space_group_symop_operation_xyz
x,y,z
-x,y,-z
-x,-y,-z
x,-y,z
1/2+x,1/2+y,z
1/2-x,1/2+y,-z
1/2-x,1/2-y,-z
1/2+x,1/2-y,z
loop_
_atom_site_type_symbol
_atom_site_label
_atom_site_fract_x
_atom_site_fract_y
_atom_site_fract_z
Si Si1 0.945224 0.300361 0.163851
Si Si2 0.072639 0.890972 0.296432
Si Si3 0.442340 0.089323 0.629526
Si Si4 0.223996 0.552579 0.173711
Si Si5 0.751837 0.388490 0.665438
Si Si6 0.992230 0.800388 0.175526
Si Si7 0.710313 0.334670 0.160390
Si Si8 0.797243 0.452590 0.326527
O O1 0.809803 0.302560 0.158266
O O2 0.111523 0.341640 0.252299
O O3 0.046550 0.251091 0.224107
O O4 0.759486 0.303032 0.993593
O O5 0.252710 0.900156 0.462353
O O6 0.033772 0.838450 0.259940
O O7 0.149825 0.912226 0.265877
O O8 0.878011 0.919984 0.211129
O O9 0.349898 0.084999 0.654643
O O10 0.600784 0.131015 0.717483
O O11 0.593177 0.050937 0.686466
O O12 0.289203 0.500000 0.224347
O O13 0.222023 0.581471 0.247018
O O14 0.000000 0.551702 0.000000
O O15 0.500000 0.380355 0.500000
O O16 0.130895 0.812820 0.186944
O O17 0.500000 0.356347 0.000000
O O18 0.683042 0.500000 0.268494
O O19 0.000000 0.451797 0.500000
#
# Coordination Sequence:
#
# PCOD9188746 Si02
#       8
#     8   8   8   8   8   8   8   8
#     4   9  21  37  58  87 117 161 209 254 300 372
#     4  11  20  36  61  89 120 159 197 255 305 364
#     4  10  20  37  58  86 117 152 206 240 306 366
#     4  11  25  43  65  93 125 165 211 258 311 376
#     4  11  22  43  60  87 127 165 202 257 313 365
#     4  10  19  36  61  87 118 160 205 249 316 367
#     4   9  18  35  56  80 114 154 195 248 299 360
#     4   9  18  32  54  84 114 146 187 238 290 347
#
# _framework density 18.485737
#
# number of rings (size 3 to 8) (size 9 to 14) (size 15 to 20)
#    0.000    2.000    2.500    1.125    0.000    2.250 
#    2.250    3.750    0.000    0.375    0.000    0.000 
#    0.000    0.000    0.000    0.000    0.000    0.000 
#
# Total GULP energy -178157.719702 kJ/mol
# GULP energy per Si atom -5567.428741 kJ/mol
# Density = 1.844366 g / cm^3
# Si number density = 18.485737 Si / 1000 Ang^3
#
#
#
# Elastic Constant Matrix: (Units=GPa)
#
#
# Indices 1 2 3 4 5 6 
#
# 1 108.0475 41.6874 22.8661 0.0000 7.0853 -0.0002
# 2 41.6874 103.6640 15.4578 -0.0001 -3.5282 -0.0002
# 3 22.8661 15.4578 48.7965 -0.0009 7.5258 -0.0009
# 4 0.0000 -0.0001 -0.0009 18.6612 -0.0003 3.1136
# 5 7.0853 -3.5282 7.5258 -0.0003 21.2510 -0.0004
# 6 -0.0002 -0.0002 -0.0009 3.1136 -0.0004 18.1206
#
#
#
# Elastic Compliance Matrix: (Units=1/GPa)
#
#
# Indices 1 2 3 4 5 6 
#
# 1 0.011945 -0.004369 -0.003689 0.000000 -0.003402 0.000000
# 2 -0.004369 0.011905 -0.002383 0.000000 0.004277 0.000000
# 3 -0.003689 -0.002383 0.024168 0.000001 -0.007725 0.000001
# 4 0.000000 0.000000 0.000001 0.055169 0.000000 -0.009480
# 5 -0.003402 0.004277 -0.007725 0.000000 0.051637 0.000001
# 6 0.000000 0.000000 0.000001 -0.009480 0.000001 0.056815
#
#
# Mechanical properties :
#
#
# Convention : Reuss Voigt Hill
#
# Bulk Modulus (GPa) = 36.85277 46.72564 41.78921
# Shear Modulus (GPa) = 20.69839 23.63965 22.16902
#
# Velocity S-wave (km/s) = 3.34981 3.57992 3.46678
# Velocity P-wave (km/s) = 5.91107 6.51300 6.21932
#
# Compressibility (1/GPa) = 0.02713500
#
# Stress axis : x y z
#
# Youngs Moduli (GPa) = 83.71988 84.00160 41.37676
#
# Poissons Ratio (x) = 0.36702 0.15262
# Poissons Ratio (y) = 0.36578 0.09862
# Poissons Ratio (z) = 0.30881 0.20021
#
# Static dielectric constant tensor:
#      x y z
#    x 1.668660 0.000000 -0.007330 
#    y 0.000000 1.652000 0.000000 
#    z -0.007330 0.000000 1.656570 
# 
# From -- ./inp_files/266292.got.cif
#   From: 2010.05.17/outbox.cif.g08.bks.cpg/sg12_134_cif.got.tgz:266292.got - 2010.06.03 13:09:07.
