data_PCOD9188463
_publ_section_title
;
Structure prediction by ZEFSAII (Michael W. Deem and Ramdas Pophale) SiO2 
 PCOD9188463
Probable space group: C 2/M
;
_chemical_formula_sum "Si O2"
_cell_formula_units_Z 48
_cell_length_a 14.142530
_cell_length_b 18.136878
_cell_length_c 9.738120
_cell_angle_alpha 90.000000
_cell_angle_beta 74.021535
_cell_angle_gamma 90.000000
_cell_volume 2401.337330
_symmetry_space_group_name_H-M "C 2/M"
_symmetry_group_IT_number 12
_symmetry_cell_setting 'monoclinic'
loop_
_space_group_symop_operation_xyz
x,y,z
-x,y,-z
-x,-y,-z
x,-y,z
1/2+x,1/2+y,z
1/2-x,1/2+y,-z
1/2-x,1/2-y,-z
1/2+x,1/2-y,z
loop_
_atom_site_type_symbol
_atom_site_label
_atom_site_fract_x
_atom_site_fract_y
_atom_site_fract_z
Si Si1 0.892432 0.670669 0.299330
Si Si2 0.742949 0.914547 0.455086
Si Si3 0.579197 0.916149 0.287880
Si Si4 0.415950 0.657413 0.237855
Si Si5 0.149835 0.347259 0.989529
Si Si6 0.626142 0.676424 0.063491
O O1 0.795937 0.638346 0.409847
O O2 0.893002 0.758724 0.292284
O O3 0.897834 0.642896 0.139766
O O4 0.987127 0.638187 0.338848
O O5 0.667556 0.901900 0.358138
O O6 0.851110 0.895193 0.357652
O O7 0.735512 0.000000 0.498617
O O8 0.544882 0.000000 0.320866
O O9 0.620617 0.904224 0.118082
O O10 0.533483 0.647909 0.186604
O O11 0.383401 0.650724 0.091057
O O12 0.267475 0.344969 0.924186
O O13 0.120289 0.265711 0.057311
#
# Coordination Sequence:
#
# PCOD9188463 Si02
#       6
#     8   8   8   8   8   8
#     4  11  22  35  59  88 117 154 198 246 298 344
#     4  11  24  41  57  83 125 164 194 238 294 354
#     4  11  22  38  58  86 122 160 198 238 293 357
#     4  10  19  37  62  88 113 153 202 244 287 349
#     4  10  19  36  59  88 118 149 190 247 296 341
#     4   9  18  35  62  88 116 145 196 249 288 338
#
# _framework density 19.988862999999998
#
# number of rings (size 3 to 8) (size 9 to 14) (size 15 to 20)
#    0.000    1.667    3.333    2.000    0.000    3.333 
#    0.000    3.333    0.000    1.000    0.000    0.000 
#    0.000    0.000    0.000    0.000    0.000    0.000 
#
# Total GULP energy -134112.456473 kJ/mol
# GULP energy per Si atom -5588.019020 kJ/mol
# Density = 1.994337 g / cm^3
# Si number density = 19.988863 Si / 1000 Ang^3
#
#
#
# Elastic Constant Matrix: (Units=GPa)
#
#
# Indices 1 2 3 4 5 6 
#
# 1 80.7504 4.9979 11.2380 0.0000 -19.2627 0.0000
# 2 4.9979 21.7086 20.1955 0.0000 -4.0428 0.0000
# 3 11.2380 20.1955 63.5851 0.0000 -18.2185 0.0000
# 4 0.0000 0.0000 0.0000 4.1687 0.0000 2.5651
# 5 -19.2627 -4.0428 -18.2185 0.0000 36.2254 0.0000
# 6 0.0000 0.0000 0.0000 2.5651 0.0000 18.9352
#
#
#
# Elastic Compliance Matrix: (Units=1/GPa)
#
#
# Indices 1 2 3 4 5 6 
#
# 1 0.014264 -0.002188 0.000324 0.000000 0.007504 0.000000
# 2 -0.002188 0.066142 -0.022011 0.000000 -0.004852 0.000000
# 3 0.000324 -0.022011 0.025711 0.000000 0.010646 0.000000
# 4 0.000000 0.000000 0.000000 0.261699 0.000000 -0.035451
# 5 0.007504 -0.004852 0.010646 0.000000 0.036408 0.000000
# 6 0.000000 0.000000 0.000000 -0.035451 0.000000 0.057614
#
#
# Mechanical properties :
#
#
# Convention : Reuss Voigt Hill
#
# Bulk Modulus (GPa) = 17.13298 26.54519 21.83908
# Shear Modulus (GPa) = 9.45102 20.50670 14.97886
#
# Velocity S-wave (km/s) = 2.17679 3.20645 2.74041
# Velocity P-wave (km/s) = 3.86106 5.19781 4.57848
#
# Compressibility (1/GPa) = 0.05836698
#
# Stress axis : x y z
#
# Youngs Moduli (GPa) = 70.10592 15.11908 38.89369
#
# Poissons Ratio (x) = 0.03308 -0.01259
# Poissons Ratio (y) = 0.15338 0.85609
# Poissons Ratio (z) = -0.02270 0.33278
#
# Static dielectric constant tensor:
#      x y z
#    x 1.708550 0.000000 -0.020720 
#    y 0.000000 1.666690 0.000000 
#    z -0.020720 0.000000 1.705000 
# 
# From -- ./inp_files/63323.got.cif
#   From: 2010.05.17/outbox.cif.g08.bks.cpg/sg12_32_cif.got.tgz:63323.got - 2010.06.03 13:09:07.
