data_PCOD9188070
_publ_section_title
;
Structure prediction by ZEFSAII (Michael W. Deem and Ramdas Pophale) SiO2 
 PCOD9188070
Probable space group: C 2/M
;
_chemical_formula_sum "Si O2"
_cell_formula_units_Z 44
_cell_length_a 29.304839
_cell_length_b 7.663237
_cell_length_c 28.834900
_cell_angle_alpha 90.000000
_cell_angle_beta 164.401729
_cell_angle_gamma 90.000000
_cell_volume 1741.189011
_symmetry_space_group_name_H-M "C 2/M"
_symmetry_group_IT_number 12
_symmetry_cell_setting 'monoclinic'
loop_
_space_group_symop_operation_xyz
x,y,z
-x,y,-z
-x,-y,-z
x,-y,z
1/2+x,1/2+y,z
1/2-x,1/2+y,-z
1/2-x,1/2-y,-z
1/2+x,1/2-y,z
loop_
_atom_site_type_symbol
_atom_site_label
_atom_site_fract_x
_atom_site_fract_y
_atom_site_fract_z
Si Si1 0.887135 0.697398 0.347158
Si Si2 0.469778 0.698090 0.240392
Si Si3 0.077081 0.199432 0.170747
Si Si4 0.500000 0.242491 0.000000
Si Si5 0.280196 0.293926 0.143545
Si Si6 0.812606 0.213739 0.625135
O O1 0.949850 0.500000 0.402820
O O2 0.687105 0.690363 0.165850
O O3 0.891502 0.777200 0.299790
O O4 0.000000 0.774763 0.500000
O O5 0.410345 0.500000 0.174653
O O6 0.356099 0.777872 0.169704
O O7 0.653470 0.700310 0.444724
O O8 0.518656 0.773078 0.237906
O O9 0.063993 0.317967 0.112909
O O10 0.192844 0.257334 0.326183
O O11 0.117038 0.000000 0.194531
O O12 0.892948 0.197765 0.014027
O O13 0.248308 0.500000 0.106736
O O14 0.804459 0.000000 0.613816
#
# Coordination Sequence:
#
# PCOD9188070 Si02
#       6
#     8   8   8   4   8   8
#     4  10  21  36  58  83 109 146 191 235 282 328
#     4   9  19  36  53  77 112 143 176 226 276 326
#     4  10  20  35  56  79 106 141 183 229 277 325
#     4  10  19  36  55  80 115 140 177 240 283 320
#     4  10  21  36  53  76 112 146 177 222 276 334
#     4   9  19  34  56  81 104 140 187 227 272 327
#
# _framework density 25.270087
#
# number of rings (size 3 to 8) (size 9 to 14) (size 15 to 20)
#    0.000    2.364    0.000    3.273    2.545    3.273 
#    0.000    7.273    0.000    0.000    0.000    0.000 
#    0.000    0.000    0.000    0.000    0.000    0.000 
#
# Total GULP energy -122499.370188 kJ/mol
# GULP energy per Si atom -5568.153190 kJ/mol
# Density = 2.521257 g / cm^3
# Si number density = 25.270087 Si / 1000 Ang^3
#
#
#
# Elastic Constant Matrix: (Units=GPa)
#
#
# Indices 1 2 3 4 5 6 
#
# 1 137.7043 18.0440 24.6684 -0.0075 -2.9856 0.0032
# 2 18.0440 79.1209 -2.1112 -0.0035 -6.7381 -0.0001
# 3 24.6684 -2.1112 81.5899 0.0013 -10.4630 0.0166
# 4 -0.0075 -0.0035 0.0013 9.9023 0.0000 -7.8976
# 5 -2.9856 -6.7381 -10.4630 0.0000 57.4771 0.0032
# 6 0.0032 -0.0001 0.0166 -7.8976 0.0032 8.2311
#
#
#
# Elastic Compliance Matrix: (Units=1/GPa)
#
#
# Indices 1 2 3 4 5 6 
#
# 1 0.007951 -0.001902 -0.002487 0.000031 -0.000263 0.000032
# 2 -0.001902 0.013244 0.001131 0.000006 0.001660 0.000004
# 3 -0.002487 0.001131 0.013350 -0.000105 0.002434 -0.000128
# 4 0.000031 0.000006 -0.000105 0.430177 -0.000040 0.412749
# 5 -0.000263 0.001660 0.002434 -0.000040 0.018022 -0.000050
# 6 0.000032 0.000004 -0.000128 0.412749 -0.000050 0.517517
#
#
# Mechanical properties :
#
#
# Convention : Reuss Voigt Hill
#
# Bulk Modulus (GPa) = 35.67825 42.17974 38.92899
# Shear Modulus (GPa) = 4.92067 32.30967 18.61517
#
# Velocity S-wave (km/s) = 1.39695 3.57959 2.71707
# Velocity P-wave (km/s) = 4.09284 5.81485 5.02811
#
# Compressibility (1/GPa) = 0.02802828
#
# Stress axis : x y z
#
# Youngs Moduli (GPa) = 125.77088 75.50503 74.90819
#
# Poissons Ratio (x) = 0.14361 0.18629
# Poissons Ratio (y) = 0.23922 -0.08469
# Poissons Ratio (z) = 0.31277 -0.08537
#
# Static dielectric constant tensor:
#      x y z
#    x 2.024450 0.000000 -0.020550 
#    y 0.000000 1.989910 0.000000 
#    z -0.020550 0.000000 2.027860 
# 
# From -- ./inp_files/369069.got.cif
#   From: 2010.05.17/outbox.cif.g08.bks.cpg/sg12_185_cif.got.tgz:369069.got - 2010.06.03 13:09:07.
