data_PCOD9188204
_publ_section_title
;
Structure prediction by ZEFSAII (Michael W. Deem and Ramdas Pophale) SiO2 
 PCOD9188204
Probable space group: C 2/M
;
_chemical_formula_sum "Si O2"
_cell_formula_units_Z 40
_cell_length_a 18.930532
_cell_length_b 22.670875
_cell_length_c 10.371746
_cell_angle_alpha 90.000000
_cell_angle_beta 22.627142
_cell_angle_gamma 90.000000
_cell_volume 1712.544968
_symmetry_space_group_name_H-M "C 2/M"
_symmetry_group_IT_number 12
_symmetry_cell_setting 'monoclinic'
loop_
_space_group_symop_operation_xyz
x,y,z
-x,y,-z
-x,-y,-z
x,-y,z
1/2+x,1/2+y,z
1/2-x,1/2+y,-z
1/2-x,1/2-y,-z
1/2+x,1/2-y,z
loop_
_atom_site_type_symbol
_atom_site_label
_atom_site_fract_x
_atom_site_fract_y
_atom_site_fract_z
Si Si1 0.773377 0.871590 0.388490
Si Si2 0.717518 0.000000 0.132696
Si Si3 0.787990 0.000000 0.318191
Si Si4 0.785095 0.876221 0.881136
Si Si5 0.789178 0.194244 0.111922
Si Si6 0.225479 0.820301 0.347479
O O1 0.709281 0.832303 0.617023
O O2 0.710998 0.939071 0.502728
O O3 0.710035 0.846276 0.358724
O O4 0.000000 0.870845 0.000000
O O5 0.500000 0.000000 0.500000
O O6 0.781301 0.000000 0.173702
O O7 0.773883 0.940178 0.964837
O O8 0.000000 0.000000 0.000000
O O9 0.710507 0.826750 0.106759
O O10 0.711695 0.870374 0.859505
O O11 0.000000 0.863061 0.500000
O O12 0.005502 0.180920 0.735925
O O13 0.771193 0.259857 0.196894
#
# Coordination Sequence:
#
# PCOD9188204 Si02
#       6
#     8   4   4   8   8   8
#     4   9  18  34  59  87 116 156 213 256 302 365
#     4  12  25  42  66  97 132 162 205 269 329 368
#     4  10  20  38  68  91 119 166 216 253 309 378
#     4  10  22  39  61  89 122 164 217 254 305 384
#     4  10  19  36  57  85 122 160 211 256 311 371
#     4  10  21  34  58  90 120 160 207 264 306 370
#
# _framework density 23.357050000000001
#
# number of rings (size 3 to 8) (size 9 to 14) (size 15 to 20)
#    0.000    2.000    2.000    1.500    2.800    2.400 
#    0.000    0.000    0.000    1.200    0.000    0.000 
#    0.000    0.000    0.000    0.000    0.000    0.000 
#
# Total GULP energy -111682.139316 kJ/mol
# GULP energy per Si atom -5584.106966 kJ/mol
# Density = 2.330389 g / cm^3
# Si number density = 23.357050 Si / 1000 Ang^3
#
#
#
# Elastic Constant Matrix: (Units=GPa)
#
#
# Indices 1 2 3 4 5 6 
#
# 1 81.2517 30.7385 57.3999 -0.0214 45.9197 -0.0045
# 2 30.7385 118.9062 26.2507 0.0070 41.4420 0.0232
# 3 57.3999 26.2507 95.0287 -0.0301 23.8802 0.0208
# 4 -0.0214 0.0070 -0.0301 33.1189 -0.0026 17.5274
# 5 45.9197 41.4420 23.8802 -0.0026 44.0495 -0.0139
# 6 -0.0045 0.0232 0.0208 17.5274 -0.0139 22.2720
#
#
#
# Elastic Compliance Matrix: (Units=1/GPa)
#
#
# Indices 1 2 3 4 5 6 
#
# 1 0.055355 0.009692 -0.022368 0.000027 -0.054697 -0.000033
# 2 0.009692 0.014237 -0.004494 0.000015 -0.021061 -0.000034
# 3 -0.022368 -0.004494 0.021248 0.000021 0.016027 -0.000026
# 4 0.000027 0.000015 0.000021 0.051746 -0.000063 -0.040722
# 5 -0.054697 -0.021061 0.016027 -0.000063 0.090847 0.000102
# 6 -0.000033 -0.000034 -0.000026 -0.040722 0.000102 0.076947
#
#
# Mechanical properties :
#
#
# Convention : Reuss Voigt Hill
#
# Bulk Modulus (GPa) = 17.69946 58.21829 37.95888
# Shear Modulus (GPa) = 13.75312 31.94125 22.84719
#
# Velocity S-wave (km/s) = 2.42920 3.70201 3.13097
# Velocity P-wave (km/s) = 3.93220 6.57668 5.41825
#
# Compressibility (1/GPa) = 0.05649890
#
# Stress axis : x y z
#
# Youngs Moduli (GPa) = 18.06523 70.23867 47.06316
#
# Poissons Ratio (x) = -0.68073 1.05271
# Poissons Ratio (y) = -0.17508 0.21152
# Poissons Ratio (z) = 0.40408 0.31568
#
# Static dielectric constant tensor:
#      x y z
#    x 1.917770 -0.000020 -0.009760 
#    y -0.000020 1.872360 0.000050 
#    z -0.009760 0.000050 1.853170 
# 
# From -- ./inp_files/39250.got.cif
#   From: 2010.05.17/outbox.cif.g08.bks.cpg/sg12_20_cif.got.tgz:39250.got - 2010.06.03 13:09:07.
