data_PCOD9188701
_publ_section_title
;
Structure prediction by ZEFSAII (Michael W. Deem and Ramdas Pophale) SiO2 
 PCOD9188701
Probable space group: C 2/M
;
_chemical_formula_sum "Si O2"
_cell_formula_units_Z 48
_cell_length_a 31.527311
_cell_length_b 8.023368
_cell_length_c 8.036105
_cell_angle_alpha 90.000000
_cell_angle_beta 95.554239
_cell_angle_gamma 90.000000
_cell_volume 2023.230857
_symmetry_space_group_name_H-M "C 2/M"
_symmetry_group_IT_number 12
_symmetry_cell_setting 'monoclinic'
loop_
_space_group_symop_operation_xyz
x,y,z
-x,y,-z
-x,-y,-z
x,-y,z
1/2+x,1/2+y,z
1/2-x,1/2+y,-z
1/2-x,1/2-y,-z
1/2+x,1/2-y,z
loop_
_atom_site_type_symbol
_atom_site_label
_atom_site_fract_x
_atom_site_fract_y
_atom_site_fract_z
Si Si1 0.889151 0.685838 0.692963
Si Si2 0.644802 0.303725 0.787223
Si Si3 0.726161 0.697963 0.657620
Si Si4 0.436872 0.814327 0.067538
Si Si5 0.982255 0.000000 0.226995
Si Si6 0.930762 0.000000 0.553852
Si Si7 0.191490 0.808310 0.159275
O O1 0.896821 0.500000 0.630165
O O2 0.840501 0.706590 0.734954
O O3 0.903268 0.834135 0.577056
O O4 0.916390 0.704224 0.875789
O O5 0.634483 0.500000 0.754035
O O6 0.678465 0.234716 0.666485
O O7 0.602281 0.206213 0.816853
O O8 0.672512 0.299608 0.967955
O O9 0.721554 0.500000 0.660095
O O10 0.750000 0.750000 0.500000
O O11 0.760166 0.750805 0.809381
O O12 0.468311 0.665111 0.123844
O O13 0.455191 0.000000 0.089701
O O14 0.955414 0.000000 0.389082
O O15 0.031466 0.000000 0.294666
O O16 0.189011 0.000000 0.214356
#
# Coordination Sequence:
#
# PCOD9188701 Si02
#       7
#     8   8   8   8   4   4   8
#     4  10  21  40  66  95 122 155 207 258 308 367
#     4   9  19  37  60  83 114 154 199 249 301 358
#     4  11  23  36  51  79 119 160 201 248 297 352
#     4  10  21  39  67  95 120 157 205 259 310 364
#     4  11  25  43  63  89 131 163 207 247 307 381
#     4  11  25  43  63  91 125 173 199 249 311 375
#     4  10  19  36  61  85 113 153 198 249 306 356
#
# _framework density 23.724429000000001
#
# number of rings (size 3 to 8) (size 9 to 14) (size 15 to 20)
#    0.000    1.833    1.667    2.000    0.000    6.000 
#    0.000    3.333    0.000    0.000    0.000    0.000 
#    0.000    0.000    0.000    0.000    0.000    0.000 
#
# Total GULP energy -134393.809796 kJ/mol
# GULP energy per Si atom -5599.742075 kJ/mol
# Density = 2.367043 g / cm^3
# Si number density = 23.724429 Si / 1000 Ang^3
#
#
#
# Elastic Constant Matrix: (Units=GPa)
#
#
# Indices 1 2 3 4 5 6 
#
# 1 119.0474 37.0484 18.7878 0.0000 -9.1297 0.0000
# 2 37.0484 146.6376 35.1320 0.0000 -12.5444 0.0000
# 3 18.7878 35.1320 72.1103 0.0000 -12.5449 0.0000
# 4 0.0000 0.0000 0.0000 26.1918 0.0000 8.5261
# 5 -9.1297 -12.5444 -12.5449 0.0000 41.4781 0.0000
# 6 0.0000 0.0000 0.0000 8.5261 0.0000 -55.3810
#
#
#
# Elastic Compliance Matrix: (Units=1/GPa)
#
#
# Indices 1 2 3 4 5 6 
#
# 1 0.009291 -0.001948 -0.001286 0.000000 0.001067 0.000000
# 2 -0.001948 0.008192 -0.003301 0.000000 0.001051 0.000000
# 3 -0.001286 -0.003301 0.016454 0.000000 0.003695 0.000000
# 4 0.000000 0.000000 0.000000 0.036358 0.000000 0.005597
# 5 0.001067 0.001051 0.003695 0.000000 0.025779 0.000000
# 6 0.000000 0.000000 0.000000 0.005597 0.000000 -0.017195
#
#
# Mechanical properties :
#
#
# Convention : Reuss Voigt Hill
#
# Bulk Modulus (GPa) = 47.92240 57.74800 52.83520
# Shear Modulus (GPa) = 50.55349 18.91291 34.73320
#
# Velocity S-wave (km/s) = 4.62113 2.82652 3.83041
# Velocity P-wave (km/s) = 6.97973 5.91999 6.47159
#
# Compressibility (1/GPa) = 0.02086707
#
# Stress axis : x y z
#
# Youngs Moduli (GPa) = 107.63066 122.06352 60.77630
#
# Poissons Ratio (x) = 0.23778 0.07816
# Poissons Ratio (y) = 0.20967 0.20063
# Poissons Ratio (z) = 0.13842 0.40294
#
# Static dielectric constant tensor:
#      x y z
#    x 1.882590 0.000000 0.001010 
#    y 0.000000 1.837190 0.000000 
#    z 0.001010 0.000000 1.901720 
# 
# From -- ./inp_files/108801.got.cif
#   From: 2010.05.17/outbox.cif.g08.bks.cpg/sg12_55_cif.got.tgz:108801.got - 2010.06.03 13:09:07.
