data_PCOD9188702
_publ_section_title
;
Structure prediction by ZEFSAII (Michael W. Deem and Ramdas Pophale) SiO2 
 PCOD9188702
Probable space group: C 2/M
;
_chemical_formula_sum "Si O2"
_cell_formula_units_Z 48
_cell_length_a 12.193314
_cell_length_b 28.944969
_cell_length_c 14.139661
_cell_angle_alpha 90.000000
_cell_angle_beta 31.134138
_cell_angle_gamma 90.000000
_cell_volume 2580.244484
_symmetry_space_group_name_H-M "C 2/M"
_symmetry_group_IT_number 12
_symmetry_cell_setting 'monoclinic'
loop_
_space_group_symop_operation_xyz
x,y,z
-x,y,-z
-x,-y,-z
x,-y,z
1/2+x,1/2+y,z
1/2-x,1/2+y,-z
1/2-x,1/2-y,-z
1/2+x,1/2-y,z
loop_
_atom_site_type_symbol
_atom_site_label
_atom_site_fract_x
_atom_site_fract_y
_atom_site_fract_z
Si Si1 0.853383 0.101736 0.892106
Si Si2 0.803860 0.303577 0.702842
Si Si3 0.694582 0.407380 0.782062
Si Si4 0.472332 0.445062 0.408393
Si Si5 0.837149 0.204897 0.985044
Si Si6 0.483739 0.945819 0.726102
O O1 0.849129 0.156855 0.916831
O O2 0.061528 0.077865 0.788670
O O3 0.872830 0.086124 0.769799
O O4 0.652607 0.081470 0.095639
O O5 0.787617 0.357664 0.690860
O O6 0.578033 0.284037 0.837720
O O7 0.000000 0.283317 0.500000
O O8 0.803977 0.302337 0.816348
O O9 0.874708 0.435566 0.704328
O O10 0.500000 0.400413 0.000000
O O11 0.500000 0.437242 0.500000
O O12 0.510078 0.500000 0.363066
O O13 0.230194 0.434123 0.556461
O O14 0.750000 0.250000 0.000000
O O15 0.460595 0.000000 0.761242
#
# Coordination Sequence:
#
# PCOD9188702 Si02
#       6
#     8   8   8   8   8   8
#     4  10  20  36  60  84 114 157 192 241 301 349
#     4  10  19  36  61  85 113 156 187 228 302 362
#     4   9  17  33  55  88 117 144 185 230 296 360
#     4  10  23  40  55  80 119 162 206 243 284 346
#     4  10  21  39  58  85 118 151 195 247 293 352
#     4  10  20  34  57  87 119 151 190 241 292 348
#
# _framework density 18.602886999999999
#
# number of rings (size 3 to 8) (size 9 to 14) (size 15 to 20)
#    0.000    2.167    5.000    0.500    4.667    5.000 
#    0.000    8.333    0.000    0.000    0.000    0.000 
#    0.000    0.000    0.000    0.000    0.000    0.000 
#
# Total GULP energy -133680.130167 kJ/mol
# GULP energy per Si atom -5570.005424 kJ/mol
# Density = 1.856055 g / cm^3
# Si number density = 18.602887 Si / 1000 Ang^3
#
#
#
# Elastic Constant Matrix: (Units=GPa)
#
#
# Indices 1 2 3 4 5 6 
#
# 1 56.2837 27.6749 44.5960 0.0000 15.4933 0.0000
# 2 27.6749 57.7665 38.7497 0.0000 1.3374 0.0000
# 3 44.5960 38.7497 95.7681 0.0000 14.2356 0.0000
# 4 0.0000 0.0000 0.0000 6.5806 0.0000 -6.5271
# 5 15.4933 1.3374 14.2356 0.0000 26.4289 0.0000
# 6 0.0000 0.0000 0.0000 -6.5271 0.0000 29.5192
#
#
#
# Elastic Compliance Matrix: (Units=1/GPa)
#
#
# Indices 1 2 3 4 5 6 
#
# 1 0.034220 -0.009319 -0.010058 0.000000 -0.014171 0.000000
# 2 -0.009319 0.026761 -0.007717 0.000000 0.008266 0.000000
# 3 -0.010058 -0.007717 0.018820 0.000000 -0.003851 0.000000
# 4 0.000000 0.000000 0.000000 0.194652 0.000000 0.043040
# 5 -0.014171 0.008266 -0.003851 0.000000 0.047801 0.000000
# 6 0.000000 0.000000 0.000000 0.043040 0.000000 0.043393
#
#
# Mechanical properties :
#
#
# Convention : Reuss Voigt Hill
#
# Bulk Modulus (GPa) = 39.04269 47.98439 43.51354
# Shear Modulus (GPa) = 11.67208 19.09225 15.38217
#
# Velocity S-wave (km/s) = 2.50758 3.20708 2.87865
# Velocity P-wave (km/s) = 5.42374 6.28998 5.87285
#
# Compressibility (1/GPa) = 0.02561299
#
# Stress axis : x y z
#
# Youngs Moduli (GPa) = 29.22306 37.36780 53.13434
#
# Poissons Ratio (x) = 0.34824 0.53440
# Poissons Ratio (y) = 0.27234 0.41004
# Poissons Ratio (z) = 0.29391 0.28837
#
# Static dielectric constant tensor:
#      x y z
#    x 1.705520 0.000000 -0.002830 
#    y 0.000000 1.622080 0.000000 
#    z -0.002830 0.000000 1.679600 
# 
# From -- ./inp_files/209267.got.cif
#   From: 2010.05.17/outbox.cif.g08.bks.cpg/sg12_105_cif.got.tgz:209267.got - 2010.06.03 13:09:07.
