data_PCOD9188577
_publ_section_title
;
Structure prediction by ZEFSAII (Michael W. Deem and Ramdas Pophale) SiO2 
 PCOD9188577
Probable space group: C 2/M
;
_chemical_formula_sum "Si O2"
_cell_formula_units_Z 56
_cell_length_a 13.827672
_cell_length_b 18.888943
_cell_length_c 16.693302
_cell_angle_alpha 90.000000
_cell_angle_beta 143.617055
_cell_angle_gamma 90.000000
_cell_volume 2586.335980
_symmetry_space_group_name_H-M "C 2/M"
_symmetry_group_IT_number 12
_symmetry_cell_setting 'monoclinic'
loop_
_space_group_symop_operation_xyz
x,y,z
-x,y,-z
-x,-y,-z
x,-y,z
1/2+x,1/2+y,z
1/2-x,1/2+y,-z
1/2-x,1/2-y,-z
1/2+x,1/2-y,z
loop_
_atom_site_type_symbol
_atom_site_label
_atom_site_fract_x
_atom_site_fract_y
_atom_site_fract_z
Si Si1 0.830280 0.703712 0.224760
Si Si2 0.390421 0.708460 0.763625
Si Si3 0.107457 0.689796 0.990920
Si Si4 0.611359 0.278086 0.495691
Si Si5 0.162423 0.923968 0.461705
Si Si6 0.891044 0.082466 0.151268
Si Si7 0.492817 0.920077 0.587217
O O1 0.710581 0.702984 0.221621
O O2 0.724882 0.742533 0.087522
O O3 0.907067 0.625791 0.281578
O O4 0.986137 0.753515 0.344416
O O5 0.257545 0.723300 0.606393
O O6 0.497617 0.638152 0.824283
O O7 0.494080 0.780477 0.844711
O O8 0.217864 0.621841 0.045451
O O9 0.000000 0.677415 0.000000
O O10 0.500000 0.278765 0.500000
O O11 0.678503 0.355853 0.526703
O O12 0.306870 0.923203 0.492589
O O13 0.989324 0.920062 0.300892
O O14 0.173950 0.000000 0.511745
O O15 0.881816 0.000000 0.117204
O O16 0.500000 0.891721 0.500000
O O17 0.558210 0.000000 0.627219
#
# Coordination Sequence:
#
# PCOD9188577 Si02
#       7
#     8   8   8   8   8   8   8
#     4  10  19  36  60  86 113 150 191 235 291 347
#     4  10  22  37  59  89 113 147 195 242 289 343
#     4  10  22  40  60  84 115 150 196 246 289 343
#     4  10  20  36  60  87 116 151 193 240 293 346
#     4  10  21  35  56  89 119 152 194 240 292 345
#     4  11  22  38  60  84 116 156 195 237 289 351
#     4  10  20  34  54  86 125 155 187 238 295 352
#
# _framework density 21.652253000000002
#
# number of rings (size 3 to 8) (size 9 to 14) (size 15 to 20)
#    0.000    1.857    1.429    3.429    2.000    3.429 
#    0.000    1.429    0.000    3.000    0.000    0.000 
#    0.000    0.000    0.000    0.000    0.000    0.000 
#
# Total GULP energy -156335.163818 kJ/mol
# GULP energy per Si atom -5583.398708 kJ/mol
# Density = 2.160297 g / cm^3
# Si number density = 21.652253 Si / 1000 Ang^3
#
#
#
# Elastic Constant Matrix: (Units=GPa)
#
#
# Indices 1 2 3 4 5 6 
#
# 1 62.5396 33.9887 6.9378 -0.0002 32.1746 0.0000
# 2 33.9887 184.6243 38.2489 -0.0011 17.3620 -0.0002
# 3 6.9378 38.2489 86.1432 -0.0013 13.5055 -0.0006
# 4 -0.0002 -0.0011 -0.0013 33.6585 -0.0003 5.0907
# 5 32.1746 17.3620 13.5055 -0.0003 28.6114 -0.0003
# 6 0.0000 -0.0002 -0.0006 5.0907 -0.0003 27.4041
#
#
#
# Elastic Compliance Matrix: (Units=1/GPa)
#
#
# Indices 1 2 3 4 5 6 
#
# 1 0.042359 -0.004573 0.006104 0.000000 -0.047740 0.000000
# 2 -0.004573 0.006638 -0.002974 0.000000 0.002519 0.000000
# 3 0.006104 -0.002974 0.014288 0.000000 -0.011804 0.000000
# 4 0.000000 0.000000 0.000000 0.030569 0.000000 -0.005679
# 5 -0.047740 0.002519 -0.011804 0.000000 0.092681 0.000001
# 6 0.000000 0.000000 0.000000 -0.005679 0.000001 0.037546
#
#
# Mechanical properties :
#
#
# Convention : Reuss Voigt Hill
#
# Bulk Modulus (GPa) = 16.55674 54.62866 35.59270
# Shear Modulus (GPa) = 20.23481 34.87691 27.55586
#
# Velocity S-wave (km/s) = 3.06033 4.01780 3.57130
# Velocity P-wave (km/s) = 4.48896 6.84167 5.78616
#
# Compressibility (1/GPa) = 0.06039836
#
# Stress axis : x y z
#
# Youngs Moduli (GPa) = 23.60769 150.65839 69.98897
#
# Poissons Ratio (x) = 0.68899 -0.42720
# Poissons Ratio (y) = 0.10796 0.20813
# Poissons Ratio (z) = -0.14410 0.44802
#
# Static dielectric constant tensor:
#      x y z
#    x 1.815230 0.000000 0.010640 
#    y 0.000000 1.806140 0.000000 
#    z 0.010640 0.000000 1.792360 
# 
# From -- ./inp_files/311763.got.cif
#   From: 2010.05.17/outbox.cif.g08.bks.cpg/sg12_156_cif.got.tgz:311763.got - 2010.06.03 13:09:07.
