data_PCOD9188384
_publ_section_title
;
Structure prediction by ZEFSAII (Michael W. Deem and Ramdas Pophale) SiO2 
 PCOD9188384
Probable space group: C 2/M
;
_chemical_formula_sum "Si O2"
_cell_formula_units_Z 56
_cell_length_a 18.135403
_cell_length_b 16.030397
_cell_length_c 11.152934
_cell_angle_alpha 90.000000
_cell_angle_beta 63.404864
_cell_angle_gamma 90.000000
_cell_volume 2899.289082
_symmetry_space_group_name_H-M "C 2/M"
_symmetry_group_IT_number 12
_symmetry_cell_setting 'monoclinic'
loop_
_space_group_symop_operation_xyz
x,y,z
-x,y,-z
-x,-y,-z
x,-y,z
1/2+x,1/2+y,z
1/2-x,1/2+y,-z
1/2-x,1/2-y,-z
1/2+x,1/2-y,z
loop_
_atom_site_type_symbol
_atom_site_label
_atom_site_fract_x
_atom_site_fract_y
_atom_site_fract_z
Si Si1 0.077526 0.720898 0.660694
Si Si2 0.952089 0.857398 0.646311
Si Si3 0.347413 0.737776 0.142486
Si Si4 0.683403 0.093238 0.979616
Si Si5 0.942006 0.405339 0.706709
Si Si6 0.665188 0.220464 0.366865
Si Si7 0.131075 0.092032 0.054406
O O1 0.098735 0.748117 0.778578
O O2 0.156519 0.717933 0.516285
O O3 0.015965 0.787500 0.645562
O O4 0.027379 0.635068 0.687289
O O5 0.871905 0.808128 0.654628
O O6 0.000000 0.899755 0.500000
O O7 0.924312 0.904691 0.785525
O O8 0.335590 0.827665 0.088864
O O9 0.256428 0.708065 0.250506
O O10 0.383590 0.669169 0.024467
O O11 0.677587 0.000000 0.927779
O O12 0.619302 0.096607 0.135410
O O13 0.774870 0.101261 0.967805
O O14 0.951639 0.500000 0.659951
O O15 0.897519 0.349046 0.639038
O O16 0.122372 0.000000 0.003973
#
# Coordination Sequence:
#
# PCOD9188384 Si02
#       7
#     8   8   8   8   8   8   8
#     4  10  23  35  54  88 120 153 197 239 301 360
#     4   9  19  38  59  82 111 147 195 242 288 351
#     4  12  21  37  61  86 121 160 193 246 305 348
#     4  10  21  36  60  89 112 147 201 249 296 359
#     4  10  20  37  60  88 119 153 201 254 299 355
#     4  10  19  36  59  82 113 160 202 237 285 357
#     4  11  22  37  61  87 110 150 204 248 292 355
#
# _framework density 19.315079000000001
#
# number of rings (size 3 to 8) (size 9 to 14) (size 15 to 20)
#    0.000    1.714    2.857    3.857    0.000    4.286 
#    0.000    2.857    0.000    3.429    0.000    0.000 
#    0.000    0.000    0.000    0.000    0.000    0.000 
#
# Total GULP energy -156264.449734 kJ/mol
# GULP energy per Si atom -5580.873205 kJ/mol
# Density = 1.927112 g / cm^3
# Si number density = 19.315079 Si / 1000 Ang^3
#
#
#
# Elastic Constant Matrix: (Units=GPa)
#
#
# Indices 1 2 3 4 5 6 
#
# 1 34.3789 8.2153 22.1882 0.0000 -4.3850 0.0000
# 2 8.2153 108.0712 43.7951 0.0000 8.0368 0.0000
# 3 22.1882 43.7951 121.4035 0.0000 -6.8654 0.0000
# 4 0.0000 0.0000 0.0000 -5.6232 0.0000 -6.4412
# 5 -4.3850 8.0368 -6.8654 0.0000 27.1603 0.0000
# 6 0.0000 0.0000 0.0000 -6.4412 0.0000 12.8401
#
#
#
# Elastic Compliance Matrix: (Units=1/GPa)
#
#
# Indices 1 2 3 4 5 6 
#
# 1 0.033407 -0.000546 -0.005676 0.000000 0.004120 0.000000
# 2 -0.000546 0.011354 -0.004252 0.000000 -0.004523 0.000000
# 3 -0.005676 -0.004252 0.010984 0.000000 0.003118 0.000000
# 4 0.000000 0.000000 0.000000 -0.112938 0.000000 -0.056655
# 5 0.004120 -0.004523 0.003118 0.000000 0.039610 0.000000
# 6 0.000000 0.000000 0.000000 -0.056655 0.000000 0.049460
#
#
# Mechanical properties :
#
#
# Convention : Reuss Voigt Hill
#
# Bulk Modulus (GPa) = 28.73692 45.80563 37.27127
# Shear Modulus (GPa) = 77.61118 19.51910 48.56514
#
# Velocity S-wave (km/s) = 6.34578 3.18238 5.01978
# Velocity P-wave (km/s) = 8.28264 6.10491 7.27571
#
# Compressibility (1/GPa) = 0.03479845
#
# Stress axis : x y z
#
# Youngs Moduli (GPa) = 29.93418 88.07466 91.03795
#
# Poissons Ratio (x) = 0.04808 0.51669
# Poissons Ratio (y) = 0.01634 0.38708
# Poissons Ratio (z) = 0.16989 0.37448
#
# Static dielectric constant tensor:
#      x y z
#    x 1.646350 0.000000 -0.024610 
#    y 0.000000 1.683840 0.000000 
#    z -0.024610 0.000000 1.697340 
# 
# From -- ./inp_files/75886.got.cif
#   From: 2010.05.17/outbox.cif.g08.bks.cpg/sg12_38_cif.got.tgz:75886.got - 2010.06.03 13:09:07.
