data_PCOD9188118
_publ_section_title
;
Structure prediction by ZEFSAII (Michael W. Deem and Ramdas Pophale) SiO2 
 PCOD9188118
Probable space group: C 2/M
;
_chemical_formula_sum "Si O2"
_cell_formula_units_Z 56
_cell_length_a 16.190503
_cell_length_b 14.526364
_cell_length_c 20.945164
_cell_angle_alpha 90.000000
_cell_angle_beta 146.343666
_cell_angle_gamma 90.000000
_cell_volume 2730.081175
_symmetry_space_group_name_H-M "C 2/M"
_symmetry_group_IT_number 12
_symmetry_cell_setting 'monoclinic'
loop_
_space_group_symop_operation_xyz
x,y,z
-x,y,-z
-x,-y,-z
x,-y,z
1/2+x,1/2+y,z
1/2-x,1/2+y,-z
1/2-x,1/2-y,-z
1/2+x,1/2-y,z
loop_
_atom_site_type_symbol
_atom_site_label
_atom_site_fract_x
_atom_site_fract_y
_atom_site_fract_z
Si Si1 0.631535 0.683120 0.958029
Si Si2 0.885762 0.607214 0.196399
Si Si3 0.883500 0.893575 0.481942
Si Si4 0.424435 0.602160 0.203918
Si Si5 0.076799 0.765253 0.378254
Si Si6 0.157894 0.608213 0.122000
Si Si7 0.397803 0.167714 0.774835
O O1 0.614151 0.602673 0.894876
O O2 0.477623 0.741227 0.856220
O O3 0.750000 0.750000 0.000000
O O4 0.717963 0.644972 0.075420
O O5 0.886116 0.500000 0.214922
O O6 0.977473 0.673853 0.303924
O O7 0.973666 0.617697 0.184715
O O8 0.960109 0.835624 0.587877
O O9 0.741027 0.837580 0.363358
O O10 0.000000 0.899970 0.500000
O O11 0.842549 0.000000 0.473907
O O12 0.462828 0.500000 0.250453
O O13 0.552984 0.675111 0.299139
O O14 0.289035 0.641416 0.160132
O O15 0.250000 0.750000 0.500000
O O16 0.154529 0.500000 0.104296
O O17 0.165328 0.617726 0.202592
O O18 0.000000 0.649721 0.000000
#
# Coordination Sequence:
#
# PCOD9188118 Si02
#       7
#     8   8   8   8   8   8   8
#     4  10  19  36  56  84 121 152 197 242 292 355
#     4  11  22  37  61  85 117 160 202 251 300 351
#     4  11  23  40  62  91 127 162 195 238 300 367
#     4  11  21  36  57  87 124 154 185 242 303 358
#     4  12  23  38  57  85 121 156 208 245 287 352
#     4  10  20  31  52  87 121 151 183 225 294 368
#     4  11  20  36  57  84 125 156 195 238 295 357
#
# _framework density 20.51221
#
# number of rings (size 3 to 8) (size 9 to 14) (size 15 to 20)
#    0.000    1.143    4.286    4.714    0.000    4.000 
#    0.000    0.000    0.000    0.429    0.000   12.000 
#    0.000    0.000    0.000    0.000    0.000    0.000 
#
# Total GULP energy -155968.035669 kJ/mol
# GULP energy per Si atom -5570.286988 kJ/mol
# Density = 2.046552 g / cm^3
# Si number density = 20.512210 Si / 1000 Ang^3
#
#
#
# Elastic Constant Matrix: (Units=GPa)
#
#
# Indices 1 2 3 4 5 6 
#
# 1 34.8851 14.1013 14.3469 -0.0002 -0.9629 0.0000
# 2 14.1013 144.8433 68.7001 -0.0002 3.5034 -0.0001
# 3 14.3469 68.7001 156.8757 -0.0009 -0.4267 -0.0004
# 4 -0.0002 -0.0002 -0.0009 25.1362 -0.0003 -3.8334
# 5 -0.9629 3.5034 -0.4267 -0.0003 31.8371 -0.0001
# 6 0.0000 -0.0001 -0.0004 -3.8334 -0.0001 21.2467
#
#
#
# Elastic Compliance Matrix: (Units=1/GPa)
#
#
# Indices 1 2 3 4 5 6 
#
# 1 0.030306 -0.002101 -0.001849 0.000000 0.001123 0.000000
# 2 -0.002101 0.008892 -0.003705 0.000000 -0.001092 0.000000
# 3 -0.001849 -0.003705 0.008167 0.000000 0.000461 0.000000
# 4 0.000000 0.000000 0.000000 0.040909 0.000000 0.007381
# 5 0.001123 -0.001092 0.000461 0.000000 0.031570 0.000000
# 6 0.000000 0.000000 0.000000 0.007381 0.000000 0.048398
#
#
# Mechanical properties :
#
#
# Convention : Reuss Voigt Hill
#
# Bulk Modulus (GPa) = 31.19468 58.98895 45.09181
# Shear Modulus (GPa) = 25.74180 31.60773 28.67476
#
# Velocity S-wave (km/s) = 3.54637 3.92972 3.74295
# Velocity P-wave (km/s) = 5.65773 7.02927 6.38046
#
# Compressibility (1/GPa) = 0.03205675
#
# Stress axis : x y z
#
# Youngs Moduli (GPa) = 32.99685 112.45748 122.43953
#
# Poissons Ratio (x) = 0.23626 0.22633
# Poissons Ratio (y) = 0.06932 0.45364
# Poissons Ratio (z) = 0.06100 0.41665
#
# Static dielectric constant tensor:
#      x y z
#    x 1.806330 0.000000 -0.002070 
#    y 0.000000 1.802520 0.000000 
#    z -0.002070 0.000000 1.839740 
# 
# From -- ./inp_files/316805.got.cif
#   From: 2010.05.17/outbox.cif.g08.bks.cpg/sg12_159_cif.got.tgz:316805.got - 2010.06.03 13:09:07.
