data_PCOD9188809
_publ_section_title
;
Structure prediction by ZEFSAII (Michael W. Deem and Ramdas Pophale) SiO2 
 PCOD9188809
Probable space group: C 2/M
;
_chemical_formula_sum "Si O2"
_cell_formula_units_Z 64
_cell_length_a 11.977971
_cell_length_b 13.387810
_cell_length_c 27.521674
_cell_angle_alpha 90.000000
_cell_angle_beta 138.534864
_cell_angle_gamma 90.000000
_cell_volume 2922.357448
_symmetry_space_group_name_H-M "C 2/M"
_symmetry_group_IT_number 12
_symmetry_cell_setting 'monoclinic'
loop_
_space_group_symop_operation_xyz
x,y,z
-x,y,-z
-x,-y,-z
x,-y,z
1/2+x,1/2+y,z
1/2-x,1/2+y,-z
1/2-x,1/2-y,-z
1/2+x,1/2-y,z
loop_
_atom_site_type_symbol
_atom_site_label
_atom_site_fract_x
_atom_site_fract_y
_atom_site_fract_z
Si Si1 0.332647 0.111383 0.689341
Si Si2 0.691081 0.180593 0.793011
Si Si3 0.770032 0.321341 0.306016
Si Si4 0.080137 0.636187 0.475031
Si Si5 0.971188 0.828339 0.044153
Si Si6 0.319313 0.360559 0.464383
Si Si7 0.882334 0.113197 0.186126
Si Si8 0.818663 0.612934 0.981668
O O1 0.529789 0.128933 0.764509
O O2 0.239331 0.203067 0.684659
O O3 0.302548 0.124067 0.621552
O O4 0.278893 0.000000 0.685823
O O5 0.682546 0.162100 0.733689
O O6 0.683213 0.298961 0.801037
O O7 0.867687 0.146313 0.871494
O O8 0.584005 0.368284 0.251131
O O9 0.915178 0.362829 0.387493
O O10 0.230491 0.602562 0.485916
O O11 0.147821 0.744456 0.513760
O O12 0.000000 0.597024 0.500000
O O13 0.809531 0.875572 0.015904
O O14 0.941261 0.707608 0.029618
O O15 0.000000 0.866386 0.000000
O O16 0.500000 0.395680 0.500000
O O17 0.792869 0.126305 0.104041
O O18 0.847783 0.000000 0.190611
O O19 0.890266 0.500000 0.005259
#
# Coordination Sequence:
#
# PCOD9188809 Si02
#       8
#     8   8   8   8   8   8   8   8
#     4  11  24  40  62  97 129 166 216 265 320 392
#     4  11  23  40  65  91 123 169 211 262 323 380
#     4  11  21  41  64  90 126 171 208 263 322 381
#     4  10  19  36  64  95 123 175 219 263 328 396
#     4  11  22  40  62  91 125 165 210 259 315 386
#     4  10  19  36  61  94 126 169 212 266 325 391
#     4  10  22  39  63  93 124 161 212 263 317 381
#     4  10  22  39  62  93 125 163 209 262 319 380
#
# _framework density 21.900127000000001
#
# number of rings (size 3 to 8) (size 9 to 14) (size 15 to 20)
#    0.000    1.500    6.250    0.000    0.000    2.750 
#    0.000    1.250    0.000    1.500    0.000    0.000 
#    0.000    0.000    0.000    0.000    0.000    0.000 
#
# Total GULP energy -178443.786785 kJ/mol
# GULP energy per Si atom -5576.368337 kJ/mol
# Density = 2.185028 g / cm^3
# Si number density = 21.900127 Si / 1000 Ang^3
#
#
#
# Elastic Constant Matrix: (Units=GPa)
#
#
# Indices 1 2 3 4 5 6 
#
# 1 123.8011 -9.1566 28.4619 0.0000 15.9851 0.0000
# 2 -9.1566 75.8039 19.6522 0.0000 3.9362 0.0000
# 3 28.4619 19.6522 91.6599 0.0000 -5.8943 0.0000
# 4 0.0000 0.0000 0.0000 -1.8764 0.0000 -7.2643
# 5 15.9851 3.9362 -5.8943 0.0000 26.3191 0.0000
# 6 0.0000 0.0000 0.0000 -7.2643 0.0000 -42.1314
#
#
#
# Elastic Compliance Matrix: (Units=1/GPa)
#
#
# Indices 1 2 3 4 5 6 
#
# 1 0.010235 0.002732 -0.004251 0.000000 -0.007577 0.000000
# 2 0.002732 0.014904 -0.004357 0.000000 -0.004864 0.000000
# 3 -0.004251 -0.004357 0.013567 0.000000 0.006272 0.000000
# 4 0.000000 0.000000 0.000000 -1.602764 0.000000 0.276350
# 5 -0.007577 -0.004864 0.006272 0.000000 0.044729 0.000000
# 6 0.000000 0.000000 0.000000 0.276350 0.000000 -0.071384
#
#
# Mechanical properties :
#
#
# Convention : Reuss Voigt Hill
#
# Bulk Modulus (GPa) = 37.09901 41.01997 39.05949
# Shear Modulus (GPa) = -3.18476 13.28275 5.04899
#
# Velocity S-wave (km/s) = -1.20722 2.46542 1.52002
# Velocity P-wave (km/s) = 3.87733 5.18416 4.57762
#
# Compressibility (1/GPa) = 0.02695490
#
# Stress axis : x y z
#
# Youngs Moduli (GPa) = 97.70174 67.09638 73.70635
#
# Poissons Ratio (x) = -0.18330 0.31334
# Poissons Ratio (y) = -0.26691 0.32110
# Poissons Ratio (z) = 0.41535 0.29231
#
# Static dielectric constant tensor:
#      x y z
#    x 1.799810 0.000000 0.027090 
#    y 0.000000 1.796680 0.000000 
#    z 0.027090 0.000000 1.768610 
# 
# From -- ./inp_files/358490.got.cif
#   From: 2010.05.17/outbox.cif.g08.bks.cpg/sg12_180_cif.got.tgz:358490.got - 2010.06.03 13:09:07.
