data_PCOD9188062
_publ_section_title
;
Structure prediction by ZEFSAII (Michael W. Deem and Ramdas Pophale) SiO2 
 PCOD9188062
Probable space group: C 2/M
;
_chemical_formula_sum "Si O2"
_cell_formula_units_Z 60
_cell_length_a 12.320672
_cell_length_b 19.267523
_cell_length_c 27.882769
_cell_angle_alpha 90.000000
_cell_angle_beta 30.684983
_cell_angle_gamma 90.000000
_cell_volume 3377.821342
_symmetry_space_group_name_H-M "C 2/M"
_symmetry_group_IT_number 12
_symmetry_cell_setting 'monoclinic'
loop_
_space_group_symop_operation_xyz
x,y,z
-x,y,-z
-x,-y,-z
x,-y,z
1/2+x,1/2+y,z
1/2-x,1/2+y,-z
1/2-x,1/2-y,-z
1/2+x,1/2-y,z
loop_
_atom_site_type_symbol
_atom_site_label
_atom_site_fract_x
_atom_site_fract_y
_atom_site_fract_z
Si Si1 0.740518 0.083844 0.464469
Si Si2 0.550012 0.324340 0.891909
Si Si3 0.982462 0.343268 0.775163
Si Si4 0.028290 0.189714 0.185899
Si Si5 0.921809 0.916323 0.583501
Si Si6 0.500000 0.780649 0.000000
Si Si7 0.789082 0.920764 0.045813
Si Si8 0.247717 0.916236 0.650660
O O1 0.797036 0.102661 0.388141
O O2 0.494574 0.103209 0.566783
O O3 0.905800 0.107311 0.442142
O O4 0.742478 0.000000 0.464806
O O5 0.785741 0.352756 0.813368
O O6 0.542408 0.296424 0.841615
O O7 0.494664 0.269071 0.954917
O O8 0.374288 0.384231 0.965754
O O9 0.011475 0.261083 0.770396
O O10 0.890704 0.376384 0.859246
O O11 0.196285 0.380852 0.678769
O O12 0.904274 0.126439 0.256826
O O13 0.281870 0.178230 0.087694
O O14 0.000000 0.900836 0.500000
O O15 0.899295 0.000000 0.595928
O O16 0.722848 0.000000 0.064767
O O17 0.000000 0.919925 0.000000
O O18 0.227337 0.000000 0.663326
#
# Coordination Sequence:
#
# PCOD9188062 Si02
#       8
#     8   8   8   8   8   4   8   8
#     4   8  17  38  61  79 110 148 184 227 280 335
#     4  10  19  36  55  78 110 148 189 221 277 334
#     4  10  21  36  52  82 113 146 184 223 273 342
#     4  11  22  35  60  80 107 147 186 232 280 327
#     4  10  21  36  57  86 118 149 178 226 285 329
#     4  10  20  38  52  78 112 150 176 228 280 344
#     4   9  16  31  53  77 107 141 180 220 260 323
#     4   9  19  38  61  83 106 145 195 232 273 332
#
# _framework density 17.762927000000001
#
# number of rings (size 3 to 8) (size 9 to 14) (size 15 to 20)
#    0.000    2.400    3.333    1.600    1.867    3.200 
#    2.400    1.000    0.000    0.000    0.000    0.000 
#    0.000    0.000    0.000    0.000    0.000    0.000 
#
# Total GULP energy -167215.394277 kJ/mol
# GULP energy per Si atom -5573.846476 kJ/mol
# Density = 1.772250 g / cm^3
# Si number density = 17.762927 Si / 1000 Ang^3
#
#
#
# Elastic Constant Matrix: (Units=GPa)
#
#
# Indices 1 2 3 4 5 6 
#
# 1 76.3170 13.2305 66.3733 0.0022 -3.4910 0.0013
# 2 13.2305 49.6053 44.0179 0.0005 -2.4702 0.0006
# 3 66.3733 44.0179 139.3193 -0.0029 -13.2449 -0.0095
# 4 0.0022 0.0005 -0.0029 29.0082 0.0059 -12.0335
# 5 -3.4910 -2.4702 -13.2449 0.0059 19.0691 0.0054
# 6 0.0013 0.0006 -0.0095 -12.0335 0.0054 7.0213
#
#
#
# Elastic Compliance Matrix: (Units=1/GPa)
#
#
# Indices 1 2 3 4 5 6 
#
# 1 0.023561 0.005312 -0.013306 -0.000036 -0.004241 -0.000082
# 2 0.005312 0.029341 -0.012149 -0.000030 -0.003665 -0.000068
# 3 -0.013306 -0.012149 0.018174 0.000035 0.008614 0.000082
# 4 -0.000036 -0.000030 0.000035 0.119270 -0.000081 0.204413
# 5 -0.004241 -0.003665 0.008614 -0.000081 0.057172 -0.000170
# 6 -0.000082 -0.000068 0.000082 0.204413 -0.000170 0.492761
#
#
# Mechanical properties :
#
#
# Convention : Reuss Voigt Hill
#
# Bulk Modulus (GPa) = 32.47896 56.94277 44.71087
# Shear Modulus (GPa) = 6.32247 20.46105 13.39176
#
# Velocity S-wave (km/s) = 1.88867 3.39764 2.74873
# Velocity P-wave (km/s) = 4.80422 6.89338 5.94134
#
# Compressibility (1/GPa) = 0.03078916
#
# Stress axis : x y z
#
# Youngs Moduli (GPa) = 42.44341 34.08232 55.02227
#
# Poissons Ratio (x) = -0.18105 0.73214
# Poissons Ratio (y) = -0.22547 0.66849
# Poissons Ratio (z) = 0.56476 0.41408
#
# Static dielectric constant tensor:
#      x y z
#    x 1.630370 0.000000 0.001070 
#    y 0.000000 1.598210 0.000000 
#    z 0.001070 0.000000 1.589740 
# 
# From -- ./inp_files/336855.got.cif
#   From: 2010.05.17/outbox.cif.g08.bks.cpg/sg12_169_cif.got.tgz:336855.got - 2010.06.03 13:09:07.
