data_PCOD9188365
_publ_section_title
;
Structure prediction by ZEFSAII (Michael W. Deem and Ramdas Pophale) SiO2 
 PCOD9188365
Probable space group: C 2/M
;
_chemical_formula_sum "Si O2"
_cell_formula_units_Z 56
_cell_length_a 16.278148
_cell_length_b 10.753638
_cell_length_c 28.597532
_cell_angle_alpha 90.000000
_cell_angle_beta 37.578846
_cell_angle_gamma 90.000000
_cell_volume 3052.908881
_symmetry_space_group_name_H-M "C 2/M"
_symmetry_group_IT_number 12
_symmetry_cell_setting 'monoclinic'
loop_
_space_group_symop_operation_xyz
x,y,z
-x,y,-z
-x,-y,-z
x,-y,z
1/2+x,1/2+y,z
1/2-x,1/2+y,-z
1/2-x,1/2-y,-z
1/2+x,1/2-y,z
loop_
_atom_site_type_symbol
_atom_site_label
_atom_site_fract_x
_atom_site_fract_y
_atom_site_fract_z
Si Si1 0.480606 0.296501 0.389012
Si Si2 0.640822 0.144947 0.060374
Si Si3 0.112521 0.857208 0.233704
Si Si4 0.002437 0.640368 0.776539
Si Si5 0.078172 0.351089 0.919245
Si Si6 0.312165 0.646092 0.630230
Si Si7 0.261250 0.862793 0.437928
O O1 0.563307 0.358702 0.309599
O O2 0.587968 0.276416 0.382004
O O3 0.394602 0.190093 0.401800
O O4 0.357382 0.365111 0.470591
O O5 0.590241 0.154254 0.136199
O O6 0.514085 0.170548 0.083959
O O7 0.684035 0.000000 0.032364
O O8 0.750000 0.250000 0.000000
O O9 0.027338 0.754202 0.244482
O O10 0.267540 0.813845 0.158096
O O11 0.099147 0.000000 0.221942
O O12 0.977368 0.500000 0.768947
O O13 0.160351 0.645635 0.718406
O O14 0.086006 0.500000 0.921851
O O15 0.000000 0.299546 0.000000
O O16 0.360482 0.500000 0.608332
O O17 0.296779 0.696168 0.583895
O O18 0.294898 0.000000 0.406482
#
# Coordination Sequence:
#
# PCOD9188365 Si02
#       7
#     8   8   8   8   8   8   8
#     4  11  21  34  59  86 114 147 197 244 290 342
#     4  10  20  35  56  81 111 144 184 230 283 340
#     4  11  21  35  57  85 114 145 189 245 290 333
#     4  10  21  37  56  81 113 151 190 232 283 348
#     4   9  18  33  54  80 108 142 181 225 281 339
#     4  10  19  36  59  81 110 151 197 237 284 349
#     4  10  21  37  57  82 116 153 192 239 296 354
#
# _framework density 18.343160999999998
#
# number of rings (size 3 to 8) (size 9 to 14) (size 15 to 20)
#    0.000    1.857    1.429    3.429    0.000    5.143 
#    0.000    1.429    0.000    7.714    0.000    0.000 
#    0.000    0.000    0.000    0.000    0.000    0.000 
#
# Total GULP energy -155892.284177 kJ/mol
# GULP energy per Si atom -5567.581578 kJ/mol
# Density = 1.830141 g / cm^3
# Si number density = 18.343161 Si / 1000 Ang^3
#
#
#
# Elastic Constant Matrix: (Units=GPa)
#
#
# Indices 1 2 3 4 5 6 
#
# 1 124.9906 51.7362 28.5345 0.0000 -5.2205 0.0000
# 2 51.7362 63.7761 26.6511 0.0000 -2.1999 0.0000
# 3 28.5345 26.6511 115.5106 0.0000 -0.7326 0.0000
# 4 0.0000 0.0000 0.0000 -20.8159 0.0000 16.4157
# 5 -5.2205 -2.1999 -0.7326 0.0000 34.5919 0.0000
# 6 0.0000 0.0000 0.0000 16.4157 0.0000 11.2031
#
#
#
# Elastic Compliance Matrix: (Units=1/GPa)
#
#
# Indices 1 2 3 4 5 6 
#
# 1 0.012163 -0.009487 -0.000808 0.000000 0.001215 0.000000
# 2 -0.009487 0.024789 -0.003375 0.000000 0.000073 0.000000
# 3 -0.000808 -0.003375 0.009635 0.000000 -0.000133 0.000000
# 4 0.000000 0.000000 0.000000 -0.022287 0.000000 0.032657
# 5 0.001215 0.000073 -0.000133 0.000000 0.029094 0.000000
# 6 0.000000 0.000000 0.000000 0.032657 0.000000 0.041410
#
#
# Mechanical properties :
#
#
# Convention : Reuss Voigt Hill
#
# Bulk Modulus (GPa) = 51.95973 57.56897 54.76435
# Shear Modulus (GPa) = 38.89262 18.15285 28.52274
#
# Velocity S-wave (km/s) = 4.60964 3.14924 3.94757
# Velocity P-wave (km/s) = 7.53125 6.68403 7.12025
#
# Compressibility (1/GPa) = 0.01924567
#
# Stress axis : x y z
#
# Youngs Moduli (GPa) = 82.21881 40.34065 103.79109
#
# Poissons Ratio (x) = 0.38271 0.08386
# Poissons Ratio (y) = 0.78001 0.35033
# Poissons Ratio (z) = 0.06643 0.13616
#
# Static dielectric constant tensor:
#      x y z
#    x 1.637090 0.000000 0.014010 
#    y 0.000000 1.634020 0.000000 
#    z 0.014010 0.000000 1.668400 
# 
# From -- ./inp_files/268609.got.cif
#   From: 2010.05.17/outbox.cif.g08.bks.cpg/sg12_135_cif.got.tgz:268609.got - 2010.06.03 13:09:07.
