data_PCOD9188694
_publ_section_title
;
Structure prediction by ZEFSAII (Michael W. Deem and Ramdas Pophale) SiO2 
 PCOD9188694
Probable space group: C 2/M
;
_chemical_formula_sum "Si O2"
_cell_formula_units_Z 64
_cell_length_a 19.776561
_cell_length_b 17.745623
_cell_length_c 25.188223
_cell_angle_alpha 90.000000
_cell_angle_beta 157.922063
_cell_angle_gamma 90.000000
_cell_volume 3322.571052
_symmetry_space_group_name_H-M "C 2/M"
_symmetry_group_IT_number 12
_symmetry_cell_setting 'monoclinic'
loop_
_space_group_symop_operation_xyz
x,y,z
-x,y,-z
-x,-y,-z
x,-y,z
1/2+x,1/2+y,z
1/2-x,1/2+y,-z
1/2-x,1/2-y,-z
1/2+x,1/2-y,z
loop_
_atom_site_type_symbol
_atom_site_label
_atom_site_fract_x
_atom_site_fract_y
_atom_site_fract_z
Si Si1 0.207421 0.291511 0.283732
Si Si2 0.569389 0.847420 0.603841
Si Si3 0.355598 0.696695 0.022595
Si Si4 0.922839 0.080856 0.885718
Si Si5 0.187985 0.088193 0.910193
Si Si6 0.156107 0.769124 0.507192
Si Si7 0.961543 0.412903 0.911145
Si Si8 0.976723 0.213255 0.270943
O O1 0.322711 0.226244 0.339193
O O2 0.309208 0.312456 0.412264
O O3 0.012473 0.254249 0.156248
O O4 0.173803 0.358242 0.218089
O O5 0.500000 0.886525 0.500000
O O6 0.714712 0.897482 0.738293
O O7 0.411088 0.814055 0.523996
O O8 0.464563 0.642852 0.062866
O O9 0.286555 0.641821 0.019503
O O10 0.200618 0.741532 0.877980
O O11 0.941391 0.000000 0.871942
O O12 0.000000 0.077009 0.000000
O O13 0.033375 0.132419 0.765265
O O14 0.153217 0.000000 0.897494
O O15 0.358505 0.089586 0.994241
O O16 0.350540 0.760664 0.621997
O O17 0.009546 0.796897 0.357850
O O18 0.901018 0.500000 0.869447
O O19 0.000000 0.388349 0.000000
#
# Coordination Sequence:
#
# PCOD9188694 Si02
#       8
#     8   8   8   8   8   8   8   8
#     4  10  19  36  61  84 114 147 199 247 294 355
#     4   9  20  35  54  79 112 152 192 229 284 353
#     4  11  20  37  63  89 112 154 203 250 304 354
#     4  10  21  36  56  87 120 150 192 246 301 359
#     4  11  22  37  58  88 121 154 195 248 308 363
#     4  10  21  36  54  87 117 151 200 242 291 358
#     4  10  22  37  57  89 120 151 197 254 309 355
#     4  11  21  35  60  84 118 154 197 250 297 353
#
# _framework density 19.262191999999999
#
# number of rings (size 3 to 8) (size 9 to 14) (size 15 to 20)
#    0.000    1.750    2.500    2.250    1.750    2.250 
#    0.000    1.250    0.000    9.375    0.000    0.000 
#    0.000    0.000    0.000    0.000    0.000    0.000 
#
# Total GULP energy -178368.844359 kJ/mol
# GULP energy per Si atom -5574.026386 kJ/mol
# Density = 1.921835 g / cm^3
# Si number density = 19.262192 Si / 1000 Ang^3
#
#
#
# Elastic Constant Matrix: (Units=GPa)
#
#
# Indices 1 2 3 4 5 6 
#
# 1 74.0766 22.5299 27.4172 -0.0058 -25.3522 0.0012
# 2 22.5299 79.0199 33.4144 -0.0073 -23.6056 0.0020
# 3 27.4172 33.4144 109.1769 -0.0224 -30.7582 0.0056
# 4 -0.0058 -0.0073 -0.0224 101.8248 -0.0009 1.1855
# 5 -25.3522 -23.6056 -30.7582 -0.0009 44.2213 -0.0002
# 6 0.0012 0.0020 0.0056 1.1855 -0.0002 23.3789
#
#
#
# Elastic Compliance Matrix: (Units=1/GPa)
#
#
# Indices 1 2 3 4 5 6 
#
# 1 0.017345 -0.001952 -0.001555 0.000001 0.007821 0.000000
# 2 -0.001952 0.016060 -0.002892 0.000000 0.005443 -0.000001
# 3 -0.001555 -0.002892 0.012125 0.000002 0.005998 -0.000003
# 4 0.000001 0.000000 0.000002 0.009827 0.000002 -0.000498
# 5 0.007821 0.005443 0.005998 0.000002 0.034174 -0.000002
# 6 0.000000 -0.000001 -0.000003 -0.000498 -0.000002 0.042799
#
#
# Mechanical properties :
#
#
# Convention : Reuss Voigt Hill
#
# Bulk Modulus (GPa) = 30.55021 47.66629 39.10825
# Shear Modulus (GPa) = 32.04332 45.81247 38.92790
#
# Velocity S-wave (km/s) = 4.08307 4.88214 4.50037
# Velocity P-wave (km/s) = 6.17440 7.52197 6.88125
#
# Compressibility (1/GPa) = 0.03273300
#
# Stress axis : x y z
#
# Youngs Moduli (GPa) = 57.65269 62.26560 82.47455
#
# Poissons Ratio (x) = 0.12151 0.12827
# Poissons Ratio (y) = 0.11251 0.23851
# Poissons Ratio (z) = 0.08967 0.18007
#
# Static dielectric constant tensor:
#      x y z
#    x 1.722440 0.000000 0.000970 
#    y 0.000000 1.666600 -0.000010 
#    z 0.000970 -0.000010 1.687510 
# 
# From -- ./inp_files/366820.got.cif
#   From: 2010.05.17/outbox.cif.g08.bks.cpg/sg12_184_cif.got.tgz:366820.got - 2010.06.03 13:09:07.
