data_PCOD9188913
_publ_section_title
;
Structure prediction by ZEFSAII (Michael W. Deem and Ramdas Pophale) SiO2 
 PCOD9188913
Probable space group: C 2/M
;
_chemical_formula_sum "Si O2"
_cell_formula_units_Z 50
_cell_length_a 9.741089
_cell_length_b 26.932700
_cell_length_c 10.107046
_cell_angle_alpha 90.000000
_cell_angle_beta 55.303609
_cell_angle_gamma 90.000000
_cell_volume 2180.110473
_symmetry_space_group_name_H-M "C 2/M"
_symmetry_group_IT_number 12
_symmetry_cell_setting 'monoclinic'
loop_
_space_group_symop_operation_xyz
x,y,z
-x,y,-z
-x,-y,-z
x,-y,z
1/2+x,1/2+y,z
1/2-x,1/2+y,-z
1/2-x,1/2-y,-z
1/2+x,1/2-y,z
loop_
_atom_site_type_symbol
_atom_site_label
_atom_site_fract_x
_atom_site_fract_y
_atom_site_fract_z
Si Si1 0.144253 0.555971 0.759589
Si Si2 0.482498 0.725465 0.796922
Si Si3 0.244113 0.696808 0.167044
Si Si4 0.425416 0.625612 0.687738
Si Si5 0.000000 0.000000 0.000000
Si Si6 0.707211 0.079694 0.153921
Si Si7 0.705863 0.444535 0.619596
O O1 0.170312 0.500000 0.795892
O O2 0.251722 0.596324 0.779071
O O3 0.214841 0.556095 0.569094
O O4 0.950759 0.568459 0.850748
O O5 0.670062 0.712926 0.741572
O O6 0.436388 0.778064 0.757009
O O7 0.418292 0.681800 0.737421
O O8 0.367427 0.719664 0.989609
O O9 0.243548 0.638277 0.139747
O O10 0.500000 0.623771 0.500000
O O11 0.558479 0.595436 0.702579
O O12 0.138843 0.955995 0.960842
O O13 0.670082 0.065684 0.328339
O O14 0.633205 0.500000 0.685931
#
# Coordination Sequence:
#
# PCOD9188913 Si02
#       7
#     8   8   8   8   2   8   8
#     4  10  21  38  58  92 126 165 211 254 301 374
#     4  10  21  43  62  89 116 160 214 252 311 370
#     4  10  23  39  67  87 117 162 210 258 304 377
#     4  10  21  38  63  91 127 163 205 258 316 365
#     4  12  24  36  62  90 128 160 192 260 316 368
#     4  12  22  38  60  93 124 160 208 259 314 364
#     4  10  19  36  63  87 122 168 209 252 307 375
#
# _framework density 22.934618
#
# number of rings (size 3 to 8) (size 9 to 14) (size 15 to 20)
#    0.000    1.600    3.200    1.920    2.240    3.200 
#    0.000    2.400    0.000    1.920    0.000    0.000 
#    0.000    0.000    0.000    0.000    0.000    0.000 
#
# Total GULP energy -139514.297516 kJ/mol
# GULP energy per Si atom -5580.571901 kJ/mol
# Density = 2.288242 g / cm^3
# Si number density = 22.934618 Si / 1000 Ang^3
#
#
#
# Elastic Constant Matrix: (Units=GPa)
#
#
# Indices 1 2 3 4 5 6 
#
# 1 103.1665 64.3460 17.5022 0.0000 -26.1231 0.0000
# 2 64.3460 169.7301 5.3734 0.0000 -11.2510 0.0000
# 3 17.5022 5.3734 38.6002 0.0000 -0.0175 0.0000
# 4 0.0000 0.0000 0.0000 33.5717 0.0000 7.1389
# 5 -26.1231 -11.2510 -0.0175 0.0000 26.4987 0.0000
# 6 0.0000 0.0000 0.0000 7.1389 0.0000 40.1486
#
#
#
# Elastic Compliance Matrix: (Units=1/GPa)
#
#
# Indices 1 2 3 4 5 6 
#
# 1 0.018600 -0.005757 -0.007625 0.000000 0.015887 0.000000
# 2 -0.005757 0.007872 0.001513 0.000000 -0.002332 0.000000
# 3 -0.007625 0.001513 0.029150 0.000000 -0.006855 0.000000
# 4 0.000000 0.000000 0.000000 0.030958 0.000000 -0.005505
# 5 0.015887 -0.002332 -0.006855 0.000000 0.052405 0.000000
# 6 0.000000 0.000000 0.000000 -0.005505 0.000000 0.025886
#
#
# Mechanical properties :
#
#
# Convention : Reuss Voigt Hill
#
# Bulk Modulus (GPa) = 31.36280 53.99332 42.67806
# Shear Modulus (GPa) = 25.09583 34.99547 30.04565
#
# Velocity S-wave (km/s) = 3.31151 3.91049 3.62340
# Velocity P-wave (km/s) = 5.32222 6.63194 6.01285
#
# Compressibility (1/GPa) = 0.03188491
#
# Stress axis : x y z
#
# Youngs Moduli (GPa) = 53.76299 127.03728 34.30508
#
# Poissons Ratio (x) = 0.73135 0.26158
# Poissons Ratio (y) = 0.30951 -0.05192
# Poissons Ratio (z) = 0.40995 -0.19227
#
# Static dielectric constant tensor:
#      x y z
#    x 1.851440 0.000000 -0.067550 
#    y 0.000000 1.818670 0.000000 
#    z -0.067550 0.000000 1.496330 
# 
# From -- ./inp_files/124180.got.cif
#   From: 2010.05.17/outbox.cif.g08.bks.cpg/sg12_63_cif.got.tgz:124180.got - 2010.06.03 13:09:07.
