data_PCOD9188413
_publ_section_title
;
Structure prediction by ZEFSAII (Michael W. Deem and Ramdas Pophale) SiO2 
 PCOD9188413
Probable space group: C 2/M
;
_chemical_formula_sum "Si O2"
_cell_formula_units_Z 52
_cell_length_a 5.172669
_cell_length_b 28.058674
_cell_length_c 18.071718
_cell_angle_alpha 90.000000
_cell_angle_beta 116.553279
_cell_angle_gamma 90.000000
_cell_volume 2346.231552
_symmetry_space_group_name_H-M "C 2/M"
_symmetry_group_IT_number 12
_symmetry_cell_setting 'monoclinic'
loop_
_space_group_symop_operation_xyz
x,y,z
-x,y,-z
-x,-y,-z
x,-y,z
1/2+x,1/2+y,z
1/2-x,1/2+y,-z
1/2-x,1/2-y,-z
1/2+x,1/2-y,z
loop_
_atom_site_type_symbol
_atom_site_label
_atom_site_fract_x
_atom_site_fract_y
_atom_site_fract_z
Si Si1 0.154784 0.276957 0.598836
Si Si2 0.710841 0.423689 0.688521
Si Si3 0.341204 0.500000 0.557527
Si Si4 0.410896 0.272547 0.091052
Si Si5 0.282868 0.869550 0.303303
Si Si6 0.523187 0.382004 0.110143
Si Si7 0.024792 0.444831 0.118960
O O1 0.482199 0.264939 0.618687
O O2 0.114359 0.321680 0.646485
O O3 0.000000 0.285363 0.500000
O O4 0.470083 0.456063 0.619863
O O5 0.519264 0.380845 0.695431
O O6 0.960664 0.408716 0.663276
O O7 0.855738 0.446002 0.780780
O O8 0.500000 0.500000 0.500000
O O9 0.000000 0.500000 0.500000
O O10 0.718349 0.246193 0.134065
O O11 0.415513 0.329056 0.076445
O O12 0.250000 0.250000 0.000000
O O13 0.207307 0.868892 0.207168
O O14 0.744289 0.410559 0.085694
O O15 0.268125 0.418192 0.101334
O O16 0.971285 0.500000 0.090149
#
# Coordination Sequence:
#
# PCOD9188413 Si02
#       7
#     8   8   4   8   8   8   8
#     4  10  21  36  52  71  97 137 184 230 288 350
#     4  10  21  37  52  76 108 144 183 233 301 348
#     4  12  24  36  52  76 106 146 196 238 284 358
#     4  10  21  38  60  89 125 166 194 233 296 352
#     4  10  21  35  56  78 107 142 182 243 295 340
#     4  10  21  34  57  93 116 147 209 240 287 375
#     4  10  19  36  59  83 119 158 188 250 307 342
#
# _framework density 22.163198999999999
#
# number of rings (size 3 to 8) (size 9 to 14) (size 15 to 20)
#    0.000    1.846    0.769    3.231    0.000    3.077 
#    0.000    0.000    0.000    0.000    0.000   43.077 
#    0.000    0.000    0.000    0.000    0.000    0.000 
#
# Total GULP energy -145099.430695 kJ/mol
# GULP energy per Si atom -5580.747334 kJ/mol
# Density = 2.211275 g / cm^3
# Si number density = 22.163199 Si / 1000 Ang^3
#
#
#
# Elastic Constant Matrix: (Units=GPa)
#
#
# Indices 1 2 3 4 5 6 
#
# 1 158.4157 44.5160 16.0104 0.0000 7.9368 0.0000
# 2 44.5160 153.6744 21.2884 0.0000 7.1192 0.0000
# 3 16.0104 21.2884 54.2233 0.0000 6.4752 0.0000
# 4 0.0000 0.0000 0.0000 16.6424 0.0000 19.1415
# 5 7.9368 7.1192 6.4752 0.0000 23.0544 0.0000
# 6 0.0000 0.0000 0.0000 19.1415 0.0000 10.0570
#
#
#
# Elastic Compliance Matrix: (Units=1/GPa)
#
#
# Indices 1 2 3 4 5 6 
#
# 1 0.007014 -0.001797 -0.001183 0.000000 -0.001527 0.000000
# 2 -0.001797 0.007387 -0.002246 0.000000 -0.001031 0.000000
# 3 -0.001183 -0.002246 0.020220 0.000000 -0.004578 0.000000
# 4 0.000000 0.000000 0.000000 -0.050531 0.000000 0.096176
# 5 -0.001527 -0.001031 -0.004578 0.000000 0.045506 0.000000
# 6 0.000000 0.000000 0.000000 0.096176 0.000000 -0.083619
#
#
# Mechanical properties :
#
#
# Convention : Reuss Voigt Hill
#
# Bulk Modulus (GPa) = 41.37717 58.88256 50.12987
# Shear Modulus (GPa) = -140.78765 28.91733 -55.93516
#
# Velocity S-wave (km/s) = -7.97879 3.61604 -5.02918
# Velocity P-wave (km/s) = 8.13459 6.63775 3.32504
#
# Compressibility (1/GPa) = 0.02416791
#
# Stress axis : x y z
#
# Youngs Moduli (GPa) = 142.58082 135.37677 49.45554
#
# Poissons Ratio (x) = 0.24328 0.05850
# Poissons Ratio (y) = 0.25622 0.11109
# Poissons Ratio (z) = 0.16867 0.30410
#
# Static dielectric constant tensor:
#      x y z
#    x 2.030120 0.000000 -0.025740 
#    y 0.000000 1.935900 0.000000 
#    z -0.025740 0.000000 1.753040 
# 
# From -- ./inp_files/298123.got.cif
#   From: 2010.05.17/outbox.cif.g08.bks.cpg/sg12_150_cif.got.tgz:298123.got - 2010.06.03 13:09:07.
