data_PCOD9188158
_publ_section_title
;
Structure prediction by ZEFSAII (Michael W. Deem and Ramdas Pophale) SiO2 
 PCOD9188158
Probable space group: C 2/M
;
_chemical_formula_sum "Si O2"
_cell_formula_units_Z 56
_cell_length_a 14.387540
_cell_length_b 17.476268
_cell_length_c 20.551679
_cell_angle_alpha 90.000000
_cell_angle_beta 37.045015
_cell_angle_gamma 90.000000
_cell_volume 3113.135337
_symmetry_space_group_name_H-M "C 2/M"
_symmetry_group_IT_number 12
_symmetry_cell_setting 'monoclinic'
loop_
_space_group_symop_operation_xyz
x,y,z
-x,y,-z
-x,-y,-z
x,-y,z
1/2+x,1/2+y,z
1/2-x,1/2+y,-z
1/2-x,1/2-y,-z
1/2+x,1/2-y,z
loop_
_atom_site_type_symbol
_atom_site_label
_atom_site_fract_x
_atom_site_fract_y
_atom_site_fract_z
Si Si1 0.456375 0.270691 0.454003
Si Si2 0.166954 0.913110 0.296641
Si Si3 0.601335 0.252666 0.006176
Si Si4 0.105712 0.851277 0.189627
Si Si5 0.091354 0.717191 0.655779
Si Si6 0.664662 0.417378 0.023152
Si Si7 0.494082 0.865048 0.169660
O O1 0.500000 0.237333 0.500000
O O2 0.559441 0.346979 0.387377
O O3 0.275399 0.291101 0.552704
O O4 0.477802 0.216768 0.378607
O O5 0.162148 0.895972 0.222016
O O6 0.339133 0.902535 0.228471
O O7 0.114532 0.000000 0.338448
O O8 0.522085 0.212474 0.112301
O O9 0.500000 0.237431 0.000000
O O10 0.764016 0.210967 0.903283
O O11 0.621258 0.342460 0.006601
O O12 0.955962 0.801674 0.291776
O O13 0.090845 0.904920 0.135606
O O14 0.025815 0.656800 0.743803
O O15 0.621528 0.500000 0.020154
O O16 0.850310 0.412692 0.927477
#
# Coordination Sequence:
#
# PCOD9188158 Si02
#       7
#     8   8   8   8   8   8   8
#     4  10  21  35  56  81 111 139 190 239 273 324
#     4  11  22  34  55  86 118 146 173 223 293 343
#     4  11  20  34  56  79 107 147 191 228 257 322
#     4  10  19  37  56  78 111 148 191 223 265 335
#     4  10  19  36  57  79 105 148 195 230 270 322
#     4  11  22  34  52  82 116 145 180 231 278 324
#     4  11  19  36  55  81 113 149 184 219 271 340
#
# _framework density 17.988295999999998
#
# number of rings (size 3 to 8) (size 9 to 14) (size 15 to 20)
#    0.000    1.429    5.714    1.714    0.000    0.571 
#    0.000    2.143    0.000    0.000    0.000    0.000 
#    0.000   10.857    0.000    0.000    0.000    0.000 
#
# Total GULP energy -156187.846094 kJ/mol
# GULP energy per Si atom -5578.137360 kJ/mol
# Density = 1.794735 g / cm^3
# Si number density = 17.988296 Si / 1000 Ang^3
#
#
#
# Elastic Constant Matrix: (Units=GPa)
#
#
# Indices 1 2 3 4 5 6 
#
# 1 61.4322 2.4185 14.0418 -0.0003 14.4667 0.0000
# 2 2.4185 70.7328 2.1827 -0.0004 2.3458 0.0001
# 3 14.0418 2.1827 62.4058 -0.0011 8.8383 0.0004
# 4 -0.0003 -0.0004 -0.0011 -6.9660 0.0005 0.7872
# 5 14.4667 2.3458 8.8383 0.0005 28.7787 -0.0001
# 6 0.0000 0.0001 0.0004 0.7872 -0.0001 18.2769
#
#
#
# Elastic Compliance Matrix: (Units=1/GPa)
#
#
# Indices 1 2 3 4 5 6 
#
# 1 0.019011 -0.000271 -0.003050 -0.000001 -0.008598 0.000000
# 2 -0.000271 0.014187 -0.000304 -0.000001 -0.000927 0.000000
# 3 -0.003050 -0.000304 0.017251 -0.000003 -0.003740 0.000000
# 4 -0.000001 -0.000001 -0.000003 -0.142860 0.000004 0.006153
# 5 -0.008598 -0.000927 -0.003740 0.000004 0.040294 0.000000
# 6 0.000000 0.000000 0.000000 0.006153 0.000000 0.054449
#
#
# Mechanical properties :
#
#
# Convention : Reuss Voigt Hill
#
# Bulk Modulus (GPa) = 23.14912 25.76186 24.45549
# Shear Modulus (GPa) = 208.49719 19.74644 114.12181
#
# Velocity S-wave (km/s) = 10.77770 3.31681 7.97371
# Velocity P-wave (km/s) = 12.95281 5.38710 9.91958
#
# Compressibility (1/GPa) = 0.04319819
#
# Stress axis : x y z
#
# Youngs Moduli (GPa) = 52.60201 70.48657 57.96827
#
# Poissons Ratio (x) = 0.01908 0.17683
# Poissons Ratio (y) = 0.01424 0.01762
# Poissons Ratio (z) = 0.16046 0.02143
#
# Static dielectric constant tensor:
#      x y z
#    x 1.615050 0.000000 0.025000 
#    y 0.000000 1.606900 0.000000 
#    z 0.025000 0.000000 1.646050 
# 
# From -- ./inp_files/310753.got.cif
#   From: 2010.05.17/outbox.cif.g08.bks.cpg/sg12_156_cif.got.tgz:310753.got - 2010.06.03 13:09:07.
