data_PCOD9188265
_publ_section_title
;
Structure prediction by ZEFSAII (Michael W. Deem and Ramdas Pophale) SiO2 
 PCOD9188265
Probable space group: C 2/M
;
_chemical_formula_sum "Si O2"
_cell_formula_units_Z 56
_cell_length_a 20.225757
_cell_length_b 8.692166
_cell_length_c 28.695926
_cell_angle_alpha 90.000000
_cell_angle_beta 37.441352
_cell_angle_gamma 90.000000
_cell_volume 3067.045457
_symmetry_space_group_name_H-M "C 2/M"
_symmetry_group_IT_number 12
_symmetry_cell_setting 'monoclinic'
loop_
_space_group_symop_operation_xyz
x,y,z
-x,y,-z
-x,-y,-z
x,-y,z
1/2+x,1/2+y,z
1/2-x,1/2+y,-z
1/2-x,1/2-y,-z
1/2+x,1/2-y,z
loop_
_atom_site_type_symbol
_atom_site_label
_atom_site_fract_x
_atom_site_fract_y
_atom_site_fract_z
Si Si1 0.437643 0.316389 0.123566
Si Si2 0.406224 0.683031 0.706683
Si Si3 0.717502 0.315953 0.874420
Si Si4 0.362656 0.685441 0.454192
Si Si5 0.123022 0.183870 0.446810
Si Si6 0.273670 0.181472 0.698002
Si Si7 0.824186 0.682989 0.000268
O O1 0.457909 0.500000 0.108937
O O2 0.380297 0.268649 0.106564
O O3 0.346314 0.290277 0.214217
O O4 0.549676 0.234428 0.073180
O O5 0.401165 0.500000 0.717563
O O6 0.328935 0.767770 0.786581
O O7 0.531322 0.734927 0.634321
O O8 0.355284 0.721181 0.684651
O O9 0.711598 0.500000 0.881650
O O10 0.711143 0.242919 0.928863
O O11 0.362806 0.500000 0.452863
O O12 0.250000 0.750000 0.500000
O O13 0.371581 0.732834 0.502899
O O14 0.205697 0.269226 0.366281
O O15 0.000000 0.214678 0.500000
O O16 0.141731 0.000000 0.433038
O O17 0.295908 0.000000 0.691991
O O18 0.816126 0.500000 0.003223
O O19 0.750000 0.750000 0.000000
#
# Coordination Sequence:
#
# PCOD9188265 Si02
#       7
#     8   8   8   8   8   8   8
#     4   9  20  39  61  87 121 153 189 239 288 339
#     4  10  19  36  59  84 116 154 194 238 287 340
#     4  10  21  39  64  92 119 151 191 238 289 342
#     4  10  22  38  56  80 113 155 194 239 290 339
#     4  10  19  36  58  81 113 152 194 239 287 340
#     4  10  20  34  57  90 118 148 189 242 293 334
#     4  12  25  41  62  88 119 156 194 234 287 346
#
# _framework density 18.258614000000001
#
# number of rings (size 3 to 8) (size 9 to 14) (size 15 to 20)
#    0.000    1.857    1.429    3.857    0.000    7.143 
#    2.571    0.000    0.000    0.000    0.000    0.000 
#    0.000    0.000    0.000    0.000    0.000    0.000 
#
# Total GULP energy -156311.799770 kJ/mol
# GULP energy per Si atom -5582.564277 kJ/mol
# Density = 1.821706 g / cm^3
# Si number density = 18.258614 Si / 1000 Ang^3
#
#
#
# Elastic Constant Matrix: (Units=GPa)
#
#
# Indices 1 2 3 4 5 6 
#
# 1 123.8186 46.6210 69.3453 -0.0001 -8.5585 0.0008
# 2 46.6210 58.5678 42.8814 0.0000 -3.2556 0.0003
# 3 69.3453 42.8814 112.4771 -0.0001 -5.4605 0.0005
# 4 -0.0001 0.0000 -0.0001 32.4093 0.0000 -0.5324
# 5 -8.5585 -3.2556 -5.4605 0.0000 26.8553 -0.0002
# 6 0.0008 0.0003 0.0005 -0.5324 -0.0002 29.5338
#
#
#
# Elastic Compliance Matrix: (Units=1/GPa)
#
#
# Indices 1 2 3 4 5 6 
#
# 1 0.014163 -0.006702 -0.006057 0.000000 0.002469 0.000000
# 2 -0.006702 0.026886 -0.006124 0.000000 -0.000122 0.000000
# 3 -0.006057 -0.006124 0.014978 0.000000 0.000373 0.000000
# 4 0.000000 0.000000 0.000000 0.030865 0.000000 0.000556
# 5 0.002469 -0.000122 0.000373 0.000000 0.038085 0.000000
# 6 0.000000 0.000000 0.000000 0.000556 0.000000 0.033870
#
#
# Mechanical properties :
#
#
# Convention : Reuss Voigt Hill
#
# Bulk Modulus (GPa) = 54.76170 68.06209 61.41190
# Shear Modulus (GPa) = 24.66725 26.82738 25.74731
#
# Velocity S-wave (km/s) = 3.67957 3.83730 3.75927
# Velocity P-wave (km/s) = 6.93612 7.54923 7.24916
#
# Compressibility (1/GPa) = 0.01826094
#
# Stress axis : x y z
#
# Youngs Moduli (GPa) = 70.60893 37.19367 66.76562
#
# Poissons Ratio (x) = 0.24927 0.40438
# Poissons Ratio (y) = 0.47321 0.40889
# Poissons Ratio (z) = 0.42765 0.22779
#
# Static dielectric constant tensor:
#      x y z
#    x 1.593370 0.000000 0.010000 
#    y 0.000000 1.622910 0.000000 
#    z 0.010000 0.000000 1.631310 
# 
# From -- ./inp_files/275018.got.cif
#   From: 2010.05.17/outbox.cif.g08.bks.cpg/sg12_138_cif.got.tgz:275018.got - 2010.06.03 13:09:07.
