data_PCOD9188783
_publ_section_title
;
Structure prediction by ZEFSAII (Michael W. Deem and Ramdas Pophale) SiO2 
 PCOD9188783
Probable space group: C 2/M
;
_chemical_formula_sum "Si O2"
_cell_formula_units_Z 64
_cell_length_a 30.967488
_cell_length_b 7.865452
_cell_length_c 18.301836
_cell_angle_alpha 90.000000
_cell_angle_beta 43.725561
_cell_angle_gamma 90.000000
_cell_volume 3081.279645
_symmetry_space_group_name_H-M "C 2/M"
_symmetry_group_IT_number 12
_symmetry_cell_setting 'monoclinic'
loop_
_space_group_symop_operation_xyz
x,y,z
-x,y,-z
-x,-y,-z
x,-y,z
1/2+x,1/2+y,z
1/2-x,1/2+y,-z
1/2-x,1/2-y,-z
1/2+x,1/2-y,z
loop_
_atom_site_type_symbol
_atom_site_label
_atom_site_fract_x
_atom_site_fract_y
_atom_site_fract_z
Si Si1 0.554027 0.298330 0.216865
Si Si2 0.771333 0.693889 0.894767
Si Si3 0.362004 0.696588 0.018273
Si Si4 0.348721 0.797660 0.599039
Si Si5 0.100265 0.190255 0.313665
Si Si6 0.688722 0.796961 0.621157
Si Si7 0.706932 0.702773 0.765534
Si Si8 0.587778 0.206937 0.628600
O O1 0.569901 0.500000 0.203048
O O2 0.596112 0.227741 0.098451
O O3 0.566901 0.228689 0.283261
O O4 0.482307 0.273452 0.284951
O O5 0.795211 0.500000 0.864974
O O6 0.827259 0.809179 0.799371
O O7 0.750000 0.750000 0.000000
O O8 0.708896 0.697014 0.924220
O O9 0.384091 0.500000 0.999348
O O10 0.348929 0.772915 0.114550
O O11 0.394087 0.768514 0.612627
O O12 0.277529 0.730339 0.695174
O O13 0.378473 0.734248 0.487299
O O14 0.341698 0.000000 0.600129
O O15 0.075331 0.000000 0.353418
O O16 0.750000 0.750000 0.500000
O O17 0.693598 0.727103 0.696665
O O18 0.629016 0.738534 0.647332
O O19 0.685889 0.000000 0.629767
O O20 0.708363 0.500000 0.778445
O O21 0.585967 0.000000 0.629825
#
# Coordination Sequence:
#
# PCOD9188783 Si02
#       8
#     8   8   8   8   8   8   8   8
#     4  10  22  40  58  80 115 160 202 238 278 336
#     4  11  19  32  53  80 114 152 194 242 289 334
#     4   9  18  35  57  81 116 154 190 234 283 337
#     4  10  20  37  59  84 117 154 190 236 295 350
#     4  11  22  35  54  86 121 152 197 245 287 340
#     4  11  22  39  63  91 119 145 185 240 295 350
#     4  10  19  36  61  90 119 149 185 236 297 346
#     4  10  23  42  60  82 114 152 195 238 288 355
#
# _framework density 20.770589999999999
#
# number of rings (size 3 to 8) (size 9 to 14) (size 15 to 20)
#    0.000    1.750    3.750    1.125    0.000    3.500 
#    0.000    3.750    0.000    3.750    0.000    0.000 
#    0.000    0.000    0.000    0.000    0.000    0.000 
#
# Total GULP energy -178483.005714 kJ/mol
# GULP energy per Si atom -5577.593929 kJ/mol
# Density = 2.072332 g / cm^3
# Si number density = 20.770590 Si / 1000 Ang^3
#
#
#
# Elastic Constant Matrix: (Units=GPa)
#
#
# Indices 1 2 3 4 5 6 
#
# 1 141.2504 -0.5614 62.1780 -0.0027 16.7136 -0.0004
# 2 -0.5614 26.3113 4.5721 -0.0282 0.5179 0.0052
# 3 62.1780 4.5721 77.0200 -0.0112 17.2165 -0.0022
# 4 -0.0027 -0.0282 -0.0112 14.8671 0.0090 -1.6869
# 5 16.7136 0.5179 17.2165 0.0090 40.0365 0.0001
# 6 -0.0004 0.0052 -0.0022 -1.6869 0.0001 23.9094
#
#
#
# Elastic Compliance Matrix: (Units=1/GPa)
#
#
# Indices 1 2 3 4 5 6 
#
# 1 0.011092 0.001795 -0.008874 -0.000001 -0.000838 -0.000001
# 2 0.001795 0.038704 -0.003836 0.000070 0.000400 -0.000004
# 3 -0.008874 -0.003836 0.021614 0.000011 -0.005540 0.000003
# 4 -0.000001 0.000070 0.000011 0.067806 -0.000021 0.004784
# 5 -0.000838 0.000400 -0.005540 -0.000021 0.027704 -0.000002
# 6 -0.000001 -0.000004 0.000003 0.004784 -0.000002 0.042162
#
#
# Mechanical properties :
#
#
# Convention : Reuss Voigt Hill
#
# Bulk Modulus (GPa) = 20.16952 41.88435 31.02693
# Shear Modulus (GPa) = 20.20710 27.65546 23.93128
#
# Velocity S-wave (km/s) = 3.12247 3.65289 3.39805
# Velocity P-wave (km/s) = 4.76775 6.16445 5.51053
#
# Compressibility (1/GPa) = 0.04957977
#
# Stress axis : x y z
#
# Youngs Moduli (GPa) = 90.15349 25.83737 46.26687
#
# Poissons Ratio (x) = -0.04638 0.41057
# Poissons Ratio (y) = -0.16184 0.17748
# Poissons Ratio (z) = 0.80002 0.09911
#
# Static dielectric constant tensor:
#      x y z
#    x 1.727090 -0.000010 0.043850 
#    y -0.000010 1.779380 0.000000 
#    z 0.043850 0.000000 1.749140 
# 
# From -- ./inp_files/295542.got.cif
#   From: 2010.05.17/outbox.cif.g08.bks.cpg/sg12_148_cif.got.tgz:295542.got - 2010.06.03 13:09:07.
