data_PCOD9188241
_publ_section_title
;
Structure prediction by ZEFSAII (Michael W. Deem and Ramdas Pophale) SiO2 
 PCOD9188241
Probable space group: C 2/M
;
_chemical_formula_sum "Si O2"
_cell_formula_units_Z 64
_cell_length_a 21.121861
_cell_length_b 8.614132
_cell_length_c 20.761614
_cell_angle_alpha 90.000000
_cell_angle_beta 66.663360
_cell_angle_gamma 90.000000
_cell_volume 3468.477722
_symmetry_space_group_name_H-M "C 2/M"
_symmetry_group_IT_number 12
_symmetry_cell_setting 'monoclinic'
loop_
_space_group_symop_operation_xyz
x,y,z
-x,y,-z
-x,-y,-z
x,-y,z
1/2+x,1/2+y,z
1/2-x,1/2+y,-z
1/2-x,1/2-y,-z
1/2+x,1/2-y,z
loop_
_atom_site_type_symbol
_atom_site_label
_atom_site_fract_x
_atom_site_fract_y
_atom_site_fract_z
Si Si1 0.174075 0.813915 0.544725
Si Si2 0.300037 0.185681 0.070210
Si Si3 0.798378 0.187808 0.210889
Si Si4 0.392145 0.312373 0.293219
Si Si5 0.851719 0.814300 0.919067
Si Si6 0.919477 0.687882 0.532231
Si Si7 0.453642 0.813917 0.774054
Si Si8 0.142473 0.688964 0.305742
O O1 0.250000 0.750000 0.500000
O O2 0.146964 0.763204 0.625884
O O3 0.121397 0.756154 0.511532
O O4 0.176764 0.000000 0.543155
O O5 0.318040 0.246866 0.133397
O O6 0.220749 0.232803 0.085813
O O7 0.303516 0.000000 0.066834
O O8 0.346031 0.254649 0.994320
O O9 0.849469 0.236192 0.247339
O O10 0.720401 0.238711 0.259429
O O11 0.798419 0.000000 0.207693
O O12 0.394731 0.500000 0.292279
O O13 0.469224 0.248561 0.260988
O O14 0.913963 0.744366 0.853303
O O15 0.855737 0.000000 0.916892
O O16 0.915850 0.500000 0.530028
O O17 0.884125 0.737839 0.613468
O O18 0.000000 0.731524 0.500000
O O19 0.409057 0.760381 0.730061
O O20 0.454581 0.000000 0.773375
O O21 0.142400 0.500000 0.305820
#
# Coordination Sequence:
#
# PCOD9188241 Si02
#       8
#     8   8   8   8   8   8   8   8
#     4  11  23  40  61  84 114 153 198 245 292 348
#     4  10  20  34  56  87 118 146 186 237 281 326
#     4  10  19  36  58  79 109 150 192 232 280 340
#     4  10  23  40  58  81 116 156 190 232 289 349
#     4  10  20  35  57  85 119 154 186 226 281 340
#     4  10  20  36  58  84 116 151 191 238 291 350
#     4  11  21  36  60  87 116 151 192 237 283 337
#     4   9  18  33  56  83 110 146 189 233 283 340
#
# _framework density 18.451899000000001
#
# number of rings (size 3 to 8) (size 9 to 14) (size 15 to 20)
#    0.000    1.875    1.250    3.000    0.000    5.750 
#    0.000    3.750    0.000    3.750    0.000    0.000 
#    0.000    0.000    0.000    0.000    0.000    0.000 
#
# Total GULP energy -178779.886125 kJ/mol
# GULP energy per Si atom -5586.871441 kJ/mol
# Density = 1.840990 g / cm^3
# Si number density = 18.451899 Si / 1000 Ang^3
#
#
#
# Elastic Constant Matrix: (Units=GPa)
#
#
# Indices 1 2 3 4 5 6 
#
# 1 145.0758 34.2260 82.5487 0.0000 14.4650 0.0000
# 2 34.2260 22.6789 35.4915 0.0001 1.8557 0.0004
# 3 82.5487 35.4915 170.8291 -0.0001 18.6297 -0.0001
# 4 0.0000 0.0001 -0.0001 26.9220 0.0000 1.5338
# 5 14.4650 1.8557 18.6297 0.0000 28.8144 0.0001
# 6 0.0000 0.0004 -0.0001 1.5338 0.0001 30.2028
#
#
#
# Elastic Compliance Matrix: (Units=1/GPa)
#
#
# Indices 1 2 3 4 5 6 
#
# 1 0.011920 -0.013755 -0.002524 0.000000 -0.003466 0.000000
# 2 -0.013755 0.081863 -0.011339 0.000000 0.008964 -0.000001
# 3 -0.002524 -0.011339 0.009910 0.000000 -0.004410 0.000000
# 4 0.000000 0.000000 0.000000 0.037252 0.000000 -0.001892
# 5 -0.003466 0.008964 -0.004410 0.000000 0.038719 0.000000
# 6 0.000000 -0.000001 0.000000 -0.001892 0.000000 0.033206
#
#
# Mechanical properties :
#
#
# Convention : Reuss Voigt Hill
#
# Bulk Modulus (GPa) = 20.63662 71.45734 46.04698
# Shear Modulus (GPa) = 17.58962 29.60903 23.59932
#
# Velocity S-wave (km/s) = 3.09085 4.01017 3.58014
# Velocity P-wave (km/s) = 4.89348 7.76223 6.48839
#
# Compressibility (1/GPa) = 0.04845754
#
# Stress axis : x y z
#
# Youngs Moduli (GPa) = 83.89340 12.21546 100.90568
#
# Poissons Ratio (x) = 0.16802 0.25471
# Poissons Ratio (y) = 1.15395 1.14415
# Poissons Ratio (z) = 0.21177 0.13851
#
# Static dielectric constant tensor:
#      x y z
#    x 1.610020 0.000000 0.002500 
#    y 0.000000 1.626570 0.000000 
#    z 0.002500 0.000000 1.618920 
# 
# From -- ./inp_files/319892.got.cif
#   From: 2010.05.17/outbox.cif.g08.bks.cpg/sg12_160_cif.got.tgz:319892.got - 2010.06.03 13:09:07.
