data_PCOD9188858
_publ_section_title
;
Structure prediction by ZEFSAII (Michael W. Deem and Ramdas Pophale) SiO2 
 PCOD9188858
Probable space group: C 2/M
;
_chemical_formula_sum "Si O2"
_cell_formula_units_Z 56
_cell_length_a 25.860434
_cell_length_b 19.484228
_cell_length_c 8.117377
_cell_angle_alpha 90.000000
_cell_angle_beta 139.692681
_cell_angle_gamma 90.000000
_cell_volume 2645.838217
_symmetry_space_group_name_H-M "C 2/M"
_symmetry_group_IT_number 12
_symmetry_cell_setting 'monoclinic'
loop_
_space_group_symop_operation_xyz
x,y,z
-x,y,-z
-x,-y,-z
x,-y,z
1/2+x,1/2+y,z
1/2-x,1/2+y,-z
1/2-x,1/2-y,-z
1/2+x,1/2-y,z
loop_
_atom_site_type_symbol
_atom_site_label
_atom_site_fract_x
_atom_site_fract_y
_atom_site_fract_z
Si Si1 0.171297 0.922930 0.854944
Si Si2 0.258716 0.328923 0.465161
Si Si3 0.941631 0.850513 0.200696
Si Si4 0.682279 0.920185 0.562355
Si Si5 0.093159 0.833958 0.382730
Si Si6 0.613146 0.800742 0.903636
Si Si7 0.941676 0.679474 0.605554
O O1 0.113884 0.912036 0.874667
O O2 0.143861 0.866738 0.656701
O O3 0.160210 0.000000 0.762200
O O4 0.260442 0.914504 0.138315
O O5 0.250000 0.250000 0.500000
O O6 0.226559 0.379095 0.526236
O O7 0.348942 0.346413 0.630708
O O8 0.196291 0.332656 0.161553
O O9 0.889472 0.781215 0.067124
O O10 0.000000 0.836556 0.500000
O O11 0.003054 0.860931 0.199277
O O12 0.600148 0.882279 0.403176
O O13 0.673072 0.000000 0.500396
O O14 0.081593 0.751913 0.367941
O O15 0.592635 0.814175 0.663673
O O16 0.536991 0.827416 0.822591
#
# Coordination Sequence:
#
# PCOD9188858 Si02
#       7
#     8   8   8   8   8   8   8
#     4  10  20  36  61  87 117 157 192 236 292 346
#     4  12  24  36  57  88 118 159 193 234 292 348
#     4   9  16  33  55  89 121 140 184 245 289 333
#     4  11  25  42  56  82 122 157 194 237 295 354
#     4  10  20  35  59  90 114 150 196 240 282 342
#     4  10  19  36  62  89 114 143 199 251 284 338
#     4  10  19  40  63  87 112 148 196 248 294 330
#
# _framework density 21.165316000000001
#
# number of rings (size 3 to 8) (size 9 to 14) (size 15 to 20)
#    0.000    1.714    5.714    1.714    0.000    4.857 
#    0.000    5.714    0.000    1.714    0.000    0.000 
#    0.000    0.000    0.000    0.000    0.000    0.000 
#
# Total GULP energy -156382.066594 kJ/mol
# GULP energy per Si atom -5585.073807 kJ/mol
# Density = 2.111714 g / cm^3
# Si number density = 21.165316 Si / 1000 Ang^3
#
#
#
# Elastic Constant Matrix: (Units=GPa)
#
#
# Indices 1 2 3 4 5 6 
#
# 1 121.2812 32.0969 -4.8283 0.0000 15.6283 0.0000
# 2 32.0969 76.2319 -3.1823 0.0000 13.0707 0.0000
# 3 -4.8283 -3.1823 60.9122 0.0000 13.6805 0.0000
# 4 0.0000 0.0000 0.0000 15.4249 0.0000 3.3993
# 5 15.6283 13.0707 13.6805 0.0000 23.4723 0.0000
# 6 0.0000 0.0000 0.0000 3.3993 0.0000 21.5509
#
#
#
# Elastic Compliance Matrix: (Units=1/GPa)
#
#
# Indices 1 2 3 4 5 6 
#
# 1 0.009913 -0.003052 0.001987 0.000000 -0.006059 0.000000
# 2 -0.003052 0.015921 0.002445 0.000000 -0.008258 0.000000
# 3 0.001987 0.002445 0.019912 0.000000 -0.014289 0.000000
# 4 0.000000 0.000000 0.000000 0.067165 0.000000 -0.010594
# 5 -0.006059 -0.008258 -0.014289 0.000000 0.059564 0.000000
# 6 0.000000 0.000000 0.000000 -0.010594 0.000000 0.048073
#
#
# Mechanical properties :
#
#
# Convention : Reuss Voigt Hill
#
# Bulk Modulus (GPa) = 20.61649 34.06644 27.34146
# Shear Modulus (GPa) = 21.37149 27.71222 24.54186
#
# Velocity S-wave (km/s) = 3.18109 3.62238 3.40888
# Velocity P-wave (km/s) = 4.82227 5.79878 5.33292
#
# Compressibility (1/GPa) = 0.04850486
#
# Stress axis : x y z
#
# Youngs Moduli (GPa) = 100.87927 62.81056 50.22194
#
# Poissons Ratio (x) = 0.19169 -0.09979
# Poissons Ratio (y) = 0.30788 -0.12277
# Poissons Ratio (z) = -0.20046 -0.15355
#
# Static dielectric constant tensor:
#      x y z
#    x 1.803620 0.000000 -0.023550 
#    y 0.000000 1.697790 0.000000 
#    z -0.023550 0.000000 1.821400 
# 
# From -- ./inp_files/106061.got.cif
#   From: 2010.05.17/outbox.cif.g08.bks.cpg/sg12_54_cif.got.tgz:106061.got - 2010.06.03 13:09:07.
