data_PCOD9188881
_publ_section_title
;
Structure prediction by ZEFSAII (Michael W. Deem and Ramdas Pophale) SiO2 
 PCOD9188881
Probable space group: C 2/M
;
_chemical_formula_sum "Si O2"
_cell_formula_units_Z 64
_cell_length_a 11.190721
_cell_length_b 14.116126
_cell_length_c 24.935059
_cell_angle_alpha 90.000000
_cell_angle_beta 42.336322
_cell_angle_gamma 90.000000
_cell_volume 2652.830547
_symmetry_space_group_name_H-M "C 2/M"
_symmetry_group_IT_number 12
_symmetry_cell_setting 'monoclinic'
loop_
_space_group_symop_operation_xyz
x,y,z
-x,y,-z
-x,-y,-z
x,-y,z
1/2+x,1/2+y,z
1/2-x,1/2+y,-z
1/2-x,1/2-y,-z
1/2+x,1/2-y,z
loop_
_atom_site_type_symbol
_atom_site_label
_atom_site_fract_x
_atom_site_fract_y
_atom_site_fract_z
Si Si1 0.694948 0.612171 0.452393
Si Si2 0.289088 0.107533 0.303457
Si Si3 0.690452 0.605933 0.041702
Si Si4 0.153873 0.781646 0.857825
Si Si5 0.448864 0.889840 0.458605
Si Si6 0.243375 0.182431 0.713735
Si Si7 0.655166 0.390818 0.175346
Si Si8 0.341321 0.896607 0.881188
O O1 0.500000 0.646861 0.500000
O O2 0.674166 0.500000 0.468714
O O3 0.813485 0.620851 0.359412
O O4 0.789674 0.649840 0.474336
O O5 0.202580 0.207503 0.314790
O O6 0.469474 0.106940 0.209867
O O7 0.208553 0.000000 0.323610
O O8 0.606683 0.500000 0.063623
O O9 0.548918 0.688050 0.078425
O O10 0.739342 0.610068 0.087624
O O11 0.835617 0.611241 0.947108
O O12 0.242978 0.834410 0.777556
O O13 0.217766 0.674149 0.831682
O O14 0.225332 0.818308 0.890611
O O15 0.500000 0.849961 0.500000
O O16 0.621957 0.880504 0.364112
O O17 0.405343 0.000000 0.482278
O O18 0.040278 0.157925 0.763266
O O19 0.639350 0.500000 0.197975
O O20 0.262655 0.000000 0.894738
#
# Coordination Sequence:
#
# PCOD9188881 Si02
#       8
#     8   8   8   8   8   8   8   8
#     4   9  19  40  69  99 134 174 219 278 344 403
#     4  10  21  39  63  92 127 170 221 278 342 407
#     4   9  20  38  62  91 124 165 222 284 344 403
#     4  11  21  36  60  93 123 165 220 275 336 405
#     4  10  22  42  70 105 139 177 229 285 341 410
#     4  11  23  41  63  94 129 173 223 275 336 410
#     4  10  22  41  62  89 129 179 221 272 344 412
#     4  10  19  36  62  91 123 161 217 285 340 399
#
# _framework density 24.125174000000001
#
# number of rings (size 3 to 8) (size 9 to 14) (size 15 to 20)
#    0.000    2.000    1.250    1.875    0.000    5.000 
#    4.500    1.250    0.000    1.500    0.000    0.000 
#    0.000    0.500    0.000    0.000    0.000    0.000 
#
# Total GULP energy -178665.526084 kJ/mol
# GULP energy per Si atom -5583.297690 kJ/mol
# Density = 2.407026 g / cm^3
# Si number density = 24.125174 Si / 1000 Ang^3
#
#
#
# Elastic Constant Matrix: (Units=GPa)
#
#
# Indices 1 2 3 4 5 6 
#
# 1 117.1128 15.6384 58.9901 0.0000 12.5768 0.0000
# 2 15.6384 119.6593 -4.8860 0.0001 -3.6314 0.0000
# 3 58.9901 -4.8860 108.7574 0.0001 15.9268 0.0000
# 4 0.0000 0.0001 0.0001 14.1177 0.0000 10.7219
# 5 12.5768 -3.6314 15.9268 0.0000 28.1499 0.0000
# 6 0.0000 0.0000 0.0000 10.7219 0.0000 7.1681
#
#
#
# Elastic Compliance Matrix: (Units=1/GPa)
#
#
# Indices 1 2 3 4 5 6 
#
# 1 0.012259 -0.001928 -0.006430 0.000000 -0.002088 0.000000
# 2 -0.001928 0.008699 0.001250 0.000000 0.001277 -0.000001
# 3 -0.006430 0.001250 0.013405 0.000000 -0.004550 0.000000
# 4 0.000000 0.000000 0.000000 -0.520884 0.000001 0.779125
# 5 -0.002088 0.001277 -0.004550 0.000001 0.039196 -0.000001
# 6 0.000000 -0.000001 0.000000 0.779125 -0.000001 -1.025888
#
#
# Mechanical properties :
#
#
# Convention : Reuss Voigt Hill
#
# Bulk Modulus (GPa) = 49.63848 53.89049 51.76449
# Shear Modulus (GPa) = -3.44286 28.27295 12.41505
#
# Velocity S-wave (km/s) = -1.19590 3.42706 2.27096
# Velocity P-wave (km/s) = 4.32587 6.16814 5.32725
#
# Compressibility (1/GPa) = 0.02014566
#
# Stress axis : x y z
#
# Youngs Moduli (GPa) = 81.56947 114.95819 74.59822
#
# Poissons Ratio (x) = 0.22165 0.47970
# Poissons Ratio (y) = 0.15728 -0.09322
# Poissons Ratio (z) = 0.52453 -0.14366
#
# Static dielectric constant tensor:
#      x y z
#    x 1.919850 0.000000 -0.005990 
#    y 0.000000 1.975280 0.000000 
#    z -0.005990 0.000000 1.894160 
# 
# From -- ./inp_files/358407.got.cif
#   From: 2010.05.17/outbox.cif.g08.bks.cpg/sg12_180_cif.got.tgz:358407.got - 2010.06.03 13:09:07.
