data_PCOD9188559
_publ_section_title
;
Structure prediction by ZEFSAII (Michael W. Deem and Ramdas Pophale) SiO2 
 PCOD9188559
Probable space group: C 2/M
;
_chemical_formula_sum "Si O2"
_cell_formula_units_Z 48
_cell_length_a 9.529211
_cell_length_b 14.998574
_cell_length_c 19.449469
_cell_angle_alpha 90.000000
_cell_angle_beta 51.206064
_cell_angle_gamma 90.000000
_cell_volume 2166.593560
_symmetry_space_group_name_H-M "C 2/M"
_symmetry_group_IT_number 12
_symmetry_cell_setting 'monoclinic'
loop_
_space_group_symop_operation_xyz
x,y,z
-x,y,-z
-x,-y,-z
x,-y,z
1/2+x,1/2+y,z
1/2-x,1/2+y,-z
1/2-x,1/2-y,-z
1/2+x,1/2-y,z
loop_
_atom_site_type_symbol
_atom_site_label
_atom_site_fract_x
_atom_site_fract_y
_atom_site_fract_z
Si Si1 0.717980 0.391342 0.254434
Si Si2 0.581640 0.391525 0.766313
Si Si3 0.973962 0.609027 0.587462
Si Si4 0.973847 0.401019 0.933683
Si Si5 0.800906 0.890907 0.584108
Si Si6 0.611935 0.666708 0.035086
O O1 0.712220 0.500000 0.262101
O O2 0.555135 0.367025 0.253672
O O3 0.717142 0.358848 0.332340
O O4 0.901948 0.359221 0.162194
O O5 0.576296 0.500000 0.775324
O O6 0.783450 0.366395 0.680920
O O7 0.507603 0.350853 0.860489
O O8 0.975662 0.500000 0.585923
O O9 0.000000 0.637325 0.500000
O O10 0.141573 0.639403 0.582788
O O11 0.053889 0.500000 0.916712
O O12 0.766191 0.407500 0.981111
O O13 0.000000 0.358456 0.000000
O O14 0.000000 0.865343 0.500000
O O15 0.793466 0.000000 0.585464
O O16 0.500000 0.668371 0.000000
O O17 0.750000 0.750000 0.000000
#
# Coordination Sequence:
#
# PCOD9188559 Si02
#       6
#     8   8   8   8   8   8
#     4   9  17  29  51  78 108 146 184 227 280 339
#     4  10  20  36  59  87 117 154 195 240 294 348
#     4   9  17  29  48  80 121 154 186 233 288 343
#     4  10  19  36  60  85 113 147 188 239 295 352
#     4   9  16  26  43  72 112 153 186 222 279 346
#     4  12  27  42  58  81 114 157 201 248 295 353
#
# _framework density 22.154595
#
# number of rings (size 3 to 8) (size 9 to 14) (size 15 to 20)
#    0.000    2.167    1.667    2.000    2.333    5.333 
#    0.000    0.000    0.000    0.000    0.000    2.333 
#    0.000    0.000    0.000    0.000    0.000    0.167 
#
# Total GULP energy -133939.786782 kJ/mol
# GULP energy per Si atom -5580.824449 kJ/mol
# Density = 2.210417 g / cm^3
# Si number density = 22.154595 Si / 1000 Ang^3
#
#
#
# Elastic Constant Matrix: (Units=GPa)
#
#
# Indices 1 2 3 4 5 6 
#
# 1 240.0143 22.2856 157.2469 0.0000 14.9818 0.0000
# 2 22.2856 51.2619 16.2482 0.0000 1.2437 0.0000
# 3 157.2469 16.2482 278.2701 0.0001 8.5980 0.0001
# 4 0.0000 0.0000 0.0001 -3.8866 0.0000 -16.8388
# 5 14.9818 1.2437 8.5980 0.0000 45.2861 0.0000
# 6 0.0000 0.0000 0.0001 -16.8388 0.0000 34.5016
#
#
#
# Elastic Compliance Matrix: (Units=1/GPa)
#
#
# Indices 1 2 3 4 5 6 
#
# 1 0.006870 -0.001767 -0.003732 0.000000 -0.001516 0.000000
# 2 -0.001767 0.020335 -0.000191 0.000000 0.000062 0.000000
# 3 -0.003732 -0.000191 0.005709 0.000000 0.000156 0.000000
# 4 0.000000 0.000000 0.000000 -0.082611 0.000000 -0.040319
# 5 -0.001516 0.000062 0.000156 0.000000 0.022552 0.000000
# 6 0.000000 0.000000 0.000000 -0.040319 0.000000 0.009306
#
#
# Mechanical properties :
#
#
# Convention : Reuss Voigt Hill
#
# Bulk Modulus (GPa) = 46.43825 106.78975 76.61400
# Shear Modulus (GPa) = 6947.29318 40.09793 3493.69556
#
# Velocity S-wave (km/s) = 56.05919 4.25892 39.75406
# Velocity P-wave (km/s) = 64.89363 8.51418 46.27999
#
# Compressibility (1/GPa) = 0.02153397
#
# Stress axis : x y z
#
# Youngs Moduli (GPa) = 145.55238 49.17676 175.16038
#
# Poissons Ratio (x) = 0.08690 0.65376
# Poissons Ratio (y) = 0.25719 0.03341
# Poissons Ratio (z) = 0.54325 0.00938
#
# Static dielectric constant tensor:
#      x y z
#    x 1.792790 0.000000 -0.025540 
#    y 0.000000 2.116410 0.000000 
#    z -0.025540 0.000000 1.755020 
# 
# From -- ./inp_files/257916.got.cif
#   From: 2010.05.17/outbox.cif.g08.bks.cpg/sg12_129_cif.got.tgz:257916.got - 2010.06.03 13:09:07.
