data_PCOD9188803
_publ_section_title
;
Structure prediction by ZEFSAII (Michael W. Deem and Ramdas Pophale) SiO2 
 PCOD9188803
Probable space group: C 2/M
;
_chemical_formula_sum "Si O2"
_cell_formula_units_Z 28
_cell_length_a 8.730722
_cell_length_b 17.703409
_cell_length_c 12.362716
_cell_angle_alpha 90.000000
_cell_angle_beta 32.496781
_cell_angle_gamma 90.000000
_cell_volume 1026.595077
_symmetry_space_group_name_H-M "C 2/M"
_symmetry_group_IT_number 12
_symmetry_cell_setting 'monoclinic'
loop_
_space_group_symop_operation_xyz
x,y,z
-x,y,-z
-x,-y,-z
x,-y,z
1/2+x,1/2+y,z
1/2-x,1/2+y,-z
1/2-x,1/2-y,-z
1/2+x,1/2-y,z
loop_
_atom_site_type_symbol
_atom_site_label
_atom_site_fract_x
_atom_site_fract_y
_atom_site_fract_z
Si Si1 0.999570 0.780001 0.228423
Si Si2 0.000000 0.367819 0.000000
Si Si3 0.771834 0.917866 0.232755
Si Si4 0.680925 0.886574 0.666347
O O1 0.819279 0.845698 0.279836
O O2 0.831865 0.703790 0.351874
O O3 0.210435 0.819235 0.188569
O O4 0.250000 0.750000 0.000000
O O5 0.007240 0.406297 0.113383
O O6 0.473049 0.918258 0.347550
O O7 0.816719 0.000000 0.258291
O O8 0.000000 0.908988 0.000000
O O9 0.000000 0.911925 0.500000
#
# Coordination Sequence:
#
# PCOD9188803 Si02
#       4
#     8   4   8   8
#     4  10  19  36  61  92 127 165 212 264 310 377
#     4  10  20  36  61  92 129 160 210 268 310 370
#     4  11  22  40  65  93 132 177 209 255 333 390
#     4  11  23  39  66  98 128 167 216 268 319 373
#
# _framework density 27.274626999999999
#
# number of rings (size 3 to 8) (size 9 to 14) (size 15 to 20)
#    0.000    1.429    5.714    3.429    2.000    5.143 
#    0.000    2.857    0.000    6.000    0.000    0.000 
#    0.000    0.000    0.000    0.000    0.000    0.000 
#
# Total GULP energy -78356.365862 kJ/mol
# GULP energy per Si atom -5596.883276 kJ/mol
# Density = 2.721255 g / cm^3
# Si number density = 27.274627 Si / 1000 Ang^3
#
#
#
# Elastic Constant Matrix: (Units=GPa)
#
#
# Indices 1 2 3 4 5 6 
#
# 1 108.0443 54.9697 24.0801 -0.0042 -32.5825 0.0016
# 2 54.9697 216.3615 17.9231 -0.0087 -17.7633 0.0043
# 3 24.0801 17.9231 136.4153 -0.0353 -17.1770 0.0116
# 4 -0.0042 -0.0087 -0.0353 -12.2025 0.0118 0.6817
# 5 -32.5825 -17.7633 -17.1770 0.0118 69.7583 0.0033
# 6 0.0016 0.0043 0.0116 0.6817 0.0033 26.5112
#
#
#
# Elastic Compliance Matrix: (Units=1/GPa)
#
#
# Indices 1 2 3 4 5 6 
#
# 1 0.012309 -0.002634 -0.001225 0.000006 0.004777 -0.000001
# 2 -0.002634 0.005315 -0.000225 -0.000002 0.000068 -0.000001
# 3 -0.001225 -0.000225 0.007737 -0.000021 0.001276 -0.000003
# 4 0.000006 -0.000002 -0.000021 -0.081833 0.000011 0.002104
# 5 0.004777 0.000068 0.001276 0.000011 0.016898 -0.000003
# 6 -0.000001 -0.000001 -0.000003 0.002104 -0.000003 0.037666
#
#
# Mechanical properties :
#
#
# Convention : Reuss Voigt Hill
#
# Bulk Modulus (GPa) = 58.16089 72.75186 65.45637
# Shear Modulus (GPa) = 416.98954 41.06994 229.02974
#
# Velocity S-wave (km/s) = 12.37810 3.88466 9.17355
# Velocity P-wave (km/s) = 15.02200 6.84489 11.67289
#
# Compressibility (1/GPa) = 0.01719368
#
# Stress axis : x y z
#
# Youngs Moduli (GPa) = 81.24141 188.13942 129.24907
#
# Poissons Ratio (x) = 0.49548 0.15837
# Poissons Ratio (y) = 0.21396 0.02907
# Poissons Ratio (z) = 0.09954 0.04231
#
# Static dielectric constant tensor:
#      x y z
#    x 2.199680 0.000050 0.046200 
#    y 0.000050 2.157370 0.000060 
#    z 0.046200 0.000060 2.160040 
# 
# From -- ./inp_files/196719.got.cif
#   From: 2010.05.17/outbox.cif.g08.bks.cpg/sg12_99_cif.got.tgz:196719.got - 2010.06.03 13:09:07.
