data_PCOD9188195
_publ_section_title
;
Structure prediction by ZEFSAII (Michael W. Deem and Ramdas Pophale) SiO2 
 PCOD9188195
Probable space group: C 2/M
;
_chemical_formula_sum "Si O2"
_cell_formula_units_Z 58
_cell_length_a 19.241074
_cell_length_b 7.600435
_cell_length_c 20.773258
_cell_angle_alpha 90.000000
_cell_angle_beta 66.809894
_cell_angle_gamma 90.000000
_cell_volume 2792.440793
_symmetry_space_group_name_H-M "C 2/M"
_symmetry_group_IT_number 12
_symmetry_cell_setting 'monoclinic'
loop_
_space_group_symop_operation_xyz
x,y,z
-x,y,-z
-x,-y,-z
x,-y,z
1/2+x,1/2+y,z
1/2-x,1/2+y,-z
1/2-x,1/2-y,-z
1/2+x,1/2-y,z
loop_
_atom_site_type_symbol
_atom_site_label
_atom_site_fract_x
_atom_site_fract_y
_atom_site_fract_z
Si Si1 0.167420 0.290440 0.002381
Si Si2 0.098743 0.713880 0.156417
Si Si3 0.540362 0.791823 0.706764
Si Si4 0.955391 0.195062 0.616192
Si Si5 0.644911 0.287523 0.777459
Si Si6 0.435237 0.702721 0.069589
Si Si7 0.000000 0.500000 0.500000
Si Si8 0.310981 0.213075 0.756120
O O1 0.160882 0.500000 0.997325
O O2 0.111059 0.226175 0.079521
O O3 0.250000 0.250000 0.000000
O O4 0.141288 0.207112 0.945217
O O5 0.097327 0.500000 0.154639
O O6 0.167110 0.765846 0.179057
O O7 0.023597 0.774296 0.219936
O O8 0.522980 0.708153 0.644457
O O9 0.617816 0.760817 0.716053
O O10 0.528851 0.000000 0.702022
O O11 0.878614 0.225231 0.685252
O O12 0.966566 0.346158 0.560539
O O13 0.953442 0.000000 0.588955
O O14 0.644934 0.500000 0.782302
O O15 0.586604 0.218459 0.853376
O O16 0.729022 0.225558 0.763596
O O17 0.457317 0.500000 0.072482
O O18 0.500000 0.784258 0.000000
O O19 0.311623 0.000000 0.754511
#
# Coordination Sequence:
#
# PCOD9188195 Si02
#       8
#     8   8   8   8   8   8   2   8
#     4  11  21  33  49  71 101 145 193 245 307 368
#     4   8  16  31  52  71 101 147 193 244 306 353
#     4  10  19  36  57  84 117 150 195 248 295 341
#     4  11  22  39  67  99 127 160 199 237 285 350
#     4  10  20  33  55  82 113 161 202 251 312 359
#     4  10  21  36  51  74 111 152 204 258 310 364
#     4  12  22  44  68 102 132 160 190 230 292 342
#     4   9  17  35  56  82 118 154 199 253 301 355
#
# _framework density 20.770358999999999
#
# number of rings (size 3 to 8) (size 9 to 14) (size 15 to 20)
#    0.000    2.069    1.379    3.517    0.000    3.586 
#    0.000    8.966    0.000    0.828    0.000    0.000 
#    0.000    0.000    0.000    0.000    0.000    0.000 
#
# Total GULP energy -161734.636236 kJ/mol
# GULP energy per Si atom -5577.056422 kJ/mol
# Density = 2.072308 g / cm^3
# Si number density = 20.770359 Si / 1000 Ang^3
#
#
#
# Elastic Constant Matrix: (Units=GPa)
#
#
# Indices 1 2 3 4 5 6 
#
# 1 85.4872 -1.1177 -3.4631 0.0001 1.1565 0.0001
# 2 -1.1177 99.7167 19.6635 0.0002 -0.5634 0.0001
# 3 -3.4631 19.6635 64.6316 0.0000 -10.1135 0.0001
# 4 0.0001 0.0002 0.0000 -4.8619 0.0000 5.8923
# 5 1.1565 -0.5634 -10.1135 0.0000 -0.6681 0.0000
# 6 0.0001 0.0001 0.0001 5.8923 0.0000 19.2103
#
#
#
# Elastic Compliance Matrix: (Units=1/GPa)
#
#
# Indices 1 2 3 4 5 6 
#
# 1 0.011701 -0.000075 0.001137 0.000000 0.003111 0.000000
# 2 -0.000075 0.010359 -0.001349 0.000000 0.011548 0.000000
# 3 0.001137 -0.001349 0.004877 0.000000 -0.070722 0.000000
# 4 0.000000 0.000000 0.000000 -0.149943 0.000000 0.045991
# 5 0.003111 0.011548 -0.070722 0.000000 -0.430568 0.000001
# 6 0.000000 0.000000 0.000000 0.045991 0.000001 0.037949
#
#
# Mechanical properties :
#
#
# Convention : Reuss Voigt Hill
#
# Bulk Modulus (GPa) = 37.93370 31.11122 34.52246
# Shear Modulus (GPa) = -9.87627 18.38625 4.25499
#
# Velocity S-wave (km/s) = -2.18296 2.97849 1.43284
# Velocity P-wave (km/s) = 3.45677 5.18070 4.40392
#
# Compressibility (1/GPa) = 0.02636179
#
# Stress axis : x y z
#
# Youngs Moduli (GPa) = 85.46547 96.53686 205.04103
#
# Poissons Ratio (x) = 0.00728 -0.23306
# Poissons Ratio (y) = 0.00644 0.27651
# Poissons Ratio (z) = -0.09714 0.13019
#
# Static dielectric constant tensor:
#      x y z
#    x 1.784870 0.000000 -0.008530 
#    y 0.000000 1.766320 0.000000 
#    z -0.008530 0.000000 1.718090 
# 
# From -- ./inp_files/313836.got.cif
#   From: 2010.05.17/outbox.cif.g08.bks.cpg/sg12_157_cif.got.tgz:313836.got - 2010.06.03 13:09:07.
