data_PCOD9188358
_publ_section_title
;
Structure prediction by ZEFSAII (Michael W. Deem and Ramdas Pophale) SiO2 
 PCOD9188358
Probable space group: C 2/M
;
_chemical_formula_sum "Si O2"
_cell_formula_units_Z 44
_cell_length_a 20.005507
_cell_length_b 13.058859
_cell_length_c 6.888918
_cell_angle_alpha 90.000000
_cell_angle_beta 109.221309
_cell_angle_gamma 90.000000
_cell_volume 1699.396194
_symmetry_space_group_name_H-M "C 2/M"
_symmetry_group_IT_number 12
_symmetry_cell_setting 'monoclinic'
loop_
_space_group_symop_operation_xyz
x,y,z
-x,y,-z
-x,-y,-z
x,-y,z
1/2+x,1/2+y,z
1/2-x,1/2+y,-z
1/2-x,1/2-y,-z
1/2+x,1/2-y,z
loop_
_atom_site_type_symbol
_atom_site_label
_atom_site_fract_x
_atom_site_fract_y
_atom_site_fract_z
Si Si1 0.213380 0.612792 0.806308
Si Si2 0.054677 0.650735 0.757356
Si Si3 0.382697 0.392800 0.666367
Si Si4 0.406855 0.841500 0.767963
Si Si5 0.500000 0.340885 0.500000
Si Si6 0.753292 0.660824 0.715011
O O1 0.234485 0.500000 0.756573
O O2 0.127515 0.615776 0.726697
O O3 0.243667 0.715273 0.732368
O O4 0.238596 0.622589 0.055842
O O5 0.048084 0.767903 0.683430
O O6 0.968916 0.624734 0.675963
O O7 0.070885 0.626607 0.996116
O O8 0.380195 0.500000 0.778890
O O9 0.400093 0.282692 0.777664
O O10 0.448057 0.399827 0.584523
O O11 0.313979 0.379736 0.464679
O O12 0.325103 0.871788 0.670897
#
# Coordination Sequence:
#
# PCOD9188358 Si02
#       6
#     8   8   8   8   4   8
#     4  10  20  36  61  88 114 151 194 236 285 341
#     4   9  18  38  59  82 111 151 190 229 289 333
#     4  11  21  35  56  85 114 150 192 232 282 344
#     4   9  20  36  58  78 115 156 181 234 290 337
#     4  10  19  36  59  80 112 152 185 240 285 332
#     4  10  20  37  57  84 119 152 185 238 288 335
#
# _framework density 25.891551
#
# number of rings (size 3 to 8) (size 9 to 14) (size 15 to 20)
#    0.000    2.182    1.818    1.364    0.000    0.727 
#    0.000   16.818    0.000    1.091    0.000    0.000 
#    0.000    0.000    0.000    0.000    0.000    0.000 
#
# Total GULP energy -122725.377842 kJ/mol
# GULP energy per Si atom -5578.426266 kJ/mol
# Density = 2.583262 g / cm^3
# Si number density = 25.891551 Si / 1000 Ang^3
#
#
#
# Elastic Constant Matrix: (Units=GPa)
#
#
# Indices 1 2 3 4 5 6 
#
# 1 195.9246 26.2607 -8.4199 0.0000 8.1083 0.0000
# 2 26.2607 166.2441 3.2630 0.0000 8.5432 0.0000
# 3 -8.4199 3.2630 66.4254 0.0000 20.4213 0.0000
# 4 0.0000 0.0000 0.0000 -4.9228 0.0000 -23.6561
# 5 8.1083 8.5432 20.4213 0.0000 30.5213 0.0000
# 6 0.0000 0.0000 0.0000 -23.6561 0.0000 -115.6095
#
#
#
# Elastic Compliance Matrix: (Units=1/GPa)
#
#
# Indices 1 2 3 4 5 6 
#
# 1 0.005353 -0.000763 0.001369 0.000000 -0.002125 0.000000
# 2 -0.000763 0.006216 0.000089 0.000000 -0.001597 0.000000
# 3 0.001369 0.000089 0.019316 0.000000 -0.013313 0.000000
# 4 0.000000 0.000000 0.000000-12.151645 0.000000 2.486475
# 5 -0.002125 -0.001597 -0.013313 0.000000 0.042683 0.000000
# 6 0.000000 0.000000 0.000000 2.486475 0.000000 -0.517433
#
#
# Mechanical properties :
#
#
# Convention : Reuss Voigt Hill
#
# Bulk Modulus (GPa) = 30.98381 52.31130 41.64756
# Shear Modulus (GPa) = -0.39726 9.16383 4.38328
#
# Velocity S-wave (km/s) = -0.39213 1.88335 1.30254
# Velocity P-wave (km/s) = 3.43333 4.99772 4.28748
#
# Compressibility (1/GPa) = 0.03227492
#
# Stress axis : x y z
#
# Youngs Moduli (GPa) = 186.80850 160.87192 51.76924
#
# Poissons Ratio (x) = 0.12279 -0.07088
# Poissons Ratio (y) = 0.14259 -0.00459
# Poissons Ratio (z) = -0.25578 -0.01427
#
# Static dielectric constant tensor:
#      x y z
#    x 2.033390 0.000000 -0.008330 
#    y 0.000000 2.163430 0.000000 
#    z -0.008330 0.000000 2.011670 
# 
# From -- ./inp_files/86039.got.cif
#   From: 2010.05.17/outbox.cif.g08.bks.cpg/sg12_44_cif.got.tgz:86039.got - 2010.06.03 13:09:07.
