data_PCOD9188741
_publ_section_title
;
Structure prediction by ZEFSAII (Michael W. Deem and Ramdas Pophale) SiO2 
 PCOD9188741
Probable space group: C 2/M
;
_chemical_formula_sum "Si O2"
_cell_formula_units_Z 48
_cell_length_a 10.928162
_cell_length_b 13.880097
_cell_length_c 17.666607
_cell_angle_alpha 90.000000
_cell_angle_beta 55.097672
_cell_angle_gamma 90.000000
_cell_volume 2197.732071
_symmetry_space_group_name_H-M "C 2/M"
_symmetry_group_IT_number 12
_symmetry_cell_setting 'monoclinic'
loop_
_space_group_symop_operation_xyz
x,y,z
-x,y,-z
-x,-y,-z
x,-y,z
1/2+x,1/2+y,z
1/2-x,1/2+y,-z
1/2-x,1/2-y,-z
1/2+x,1/2-y,z
loop_
_atom_site_type_symbol
_atom_site_label
_atom_site_fract_x
_atom_site_fract_y
_atom_site_fract_z
Si Si1 0.204523 0.612527 0.225478
Si Si2 0.413483 0.306391 0.704373
Si Si3 0.527553 0.606298 0.170275
Si Si4 0.169283 0.184086 0.423550
Si Si5 0.154385 0.181044 0.979560
Si Si6 0.241701 0.888175 0.553069
O O1 0.168891 0.500000 0.248013
O O2 0.083211 0.690381 0.294471
O O3 0.355271 0.636108 0.220117
O O4 0.252702 0.633828 0.121478
O O5 0.377637 0.333454 0.803253
O O6 0.304392 0.335270 0.674337
O O7 0.570148 0.358874 0.633049
O O8 0.526098 0.500000 0.202618
O O9 0.593333 0.606144 0.063108
O O10 0.261051 0.130470 0.456147
O O11 0.174416 0.299349 0.436636
O O12 0.000000 0.152965 0.500000
O O13 0.250000 0.250000 0.000000
O O14 0.000000 0.225507 0.000000
O O15 0.272924 0.000000 0.561335
#
# Coordination Sequence:
#
# PCOD9188741 Si02
#       6
#     8   8   8   8   8   8
#     4  10  21  37  58  83 116 156 199 245 291 347
#     4  11  20  33  56  84 117 145 187 237 293 343
#     4  10  20  34  57  86 113 151 201 246 292 352
#     4   9  21  38  58  85 112 146 186 234 287 349
#     4  10  19  36  61  87 117 161 206 254 301 357
#     4  10  21  39  60  83 113 148 188 233 287 352
#
# _framework density 21.840698
#
# number of rings (size 3 to 8) (size 9 to 14) (size 15 to 20)
#    0.000    2.000    1.667    2.000    0.000    8.000 
#    0.000    6.667    0.000   14.000    0.000    0.000 
#    0.000    0.000    0.000    0.000    0.000    0.000 
#
# Total GULP energy -133688.345438 kJ/mol
# GULP energy per Si atom -5570.347727 kJ/mol
# Density = 2.179099 g / cm^3
# Si number density = 21.840698 Si / 1000 Ang^3
#
#
#
# Elastic Constant Matrix: (Units=GPa)
#
#
# Indices 1 2 3 4 5 6 
#
# 1 52.2440 15.3892 23.4769 0.0000 27.2131 0.0000
# 2 15.3892 74.4284 13.1382 0.0000 5.0327 0.0000
# 3 23.4769 13.1382 81.6858 0.0000 34.3297 0.0000
# 4 0.0000 0.0000 0.0000 19.0758 0.0000 -2.1980
# 5 27.2131 5.0327 34.3297 0.0000 43.6915 0.0000
# 6 0.0000 0.0000 0.0000 -2.1980 0.0000 19.3998
#
#
#
# Elastic Compliance Matrix: (Units=1/GPa)
#
#
# Indices 1 2 3 4 5 6 
#
# 1 0.030071 -0.004950 -0.000320 0.000000 -0.017908 0.000000
# 2 -0.004950 0.014645 -0.002269 0.000000 0.003179 0.000000
# 3 -0.000320 -0.002269 0.018671 0.000000 -0.014209 0.000000
# 4 0.000000 0.000000 0.000000 0.053116 0.000000 0.006018
# 5 -0.017908 0.003179 -0.014209 0.000000 0.044840 0.000000
# 6 0.000000 0.000000 0.000000 0.006018 0.000000 0.052229
#
#
# Mechanical properties :
#
#
# Convention : Reuss Voigt Hill
#
# Bulk Modulus (GPa) = 20.70061 34.70744 27.70402
# Shear Modulus (GPa) = 20.42884 26.85701 23.64293
#
# Velocity S-wave (km/s) = 3.06168 3.51048 3.29373
# Velocity P-wave (km/s) = 4.69010 5.68832 5.21316
#
# Compressibility (1/GPa) = 0.04830776
#
# Stress axis : x y z
#
# Youngs Moduli (GPa) = 33.25474 68.28370 53.56003
#
# Poissons Ratio (x) = 0.33802 0.01716
# Poissons Ratio (y) = 0.16462 0.12151
# Poissons Ratio (z) = 0.01065 0.15492
#
# Static dielectric constant tensor:
#      x y z
#    x 1.849350 0.000000 0.009750 
#    y 0.000000 1.787000 0.000000 
#    z 0.009750 0.000000 1.893940 
# 
# From -- ./inp_files/262094.got.cif
#   From: 2010.05.17/outbox.cif.g08.bks.cpg/sg12_132_cif.got.tgz:262094.got - 2010.06.03 13:09:07.
