data_PCOD9188092
_publ_section_title
;
Structure prediction by ZEFSAII (Michael W. Deem and Ramdas Pophale) SiO2 
 PCOD9188092
Probable space group: C 2/M
;
_chemical_formula_sum "Si O2"
_cell_formula_units_Z 56
_cell_length_a 14.234635
_cell_length_b 12.811172
_cell_length_c 15.552505
_cell_angle_alpha 90.000000
_cell_angle_beta 116.857241
_cell_angle_gamma 90.000000
_cell_volume 2530.265473
_symmetry_space_group_name_H-M "C 2/M"
_symmetry_group_IT_number 12
_symmetry_cell_setting 'monoclinic'
loop_
_space_group_symop_operation_xyz
x,y,z
-x,y,-z
-x,-y,-z
x,-y,z
1/2+x,1/2+y,z
1/2-x,1/2+y,-z
1/2-x,1/2-y,-z
1/2+x,1/2-y,z
loop_
_atom_site_type_symbol
_atom_site_label
_atom_site_fract_x
_atom_site_fract_y
_atom_site_fract_z
Si Si1 0.546368 0.614667 0.617737
Si Si2 0.122811 0.810322 0.048437
Si Si3 0.444003 0.178943 0.275621
Si Si4 0.662089 0.121856 0.947001
Si Si5 0.788198 0.787910 0.407223
Si Si6 0.721596 0.621486 0.266091
Si Si7 0.630427 0.112661 0.459280
O O1 0.500000 0.616366 0.500000
O O2 0.523302 0.500000 0.642365
O O3 0.526769 0.704970 0.679003
O O4 0.669147 0.637261 0.648443
O O5 0.213438 0.866590 0.027295
O O6 0.159431 0.834089 0.159609
O O7 0.134772 0.692053 0.018294
O O8 0.000000 0.841271 0.000000
O O9 0.406561 0.166993 0.161971
O O10 0.344062 0.135476 0.288414
O O11 0.544764 0.115170 0.348974
O O12 0.638733 0.000000 0.947456
O O13 0.706637 0.702956 0.337154
O O14 0.741363 0.860586 0.460938
O O15 0.878947 0.709953 0.480545
O O16 0.699002 0.500000 0.273095
O O17 0.629305 0.000000 0.502135
#
# Coordination Sequence:
#
# PCOD9188092 Si02
#       7
#     8   8   8   8   8   8   8
#     4  10  19  36  56  77 113 155 191 235 287 335
#     4  10  22  40  65  91 120 158 204 254 304 377
#     4  10  20  37  60  87 113 150 197 237 286 359
#     4  10  22  42  65  91 126 161 197 258 312 358
#     4  10  22  36  53  84 117 149 196 240 278 358
#     4  10  21  39  60  84 116 152 190 247 298 344
#     4  11  21  35  56  82 115 156 191 236 288 344
#
# _framework density 22.132064
#
# number of rings (size 3 to 8) (size 9 to 14) (size 15 to 20)
#    0.000    1.857    1.429    3.429    2.000    1.429 
#    0.000   15.714    0.000    0.000    0.000    0.000 
#    0.000    0.000    0.000    0.000    0.000    0.000 
#
# Total GULP energy -156025.469320 kJ/mol
# GULP energy per Si atom -5572.338190 kJ/mol
# Density = 2.208169 g / cm^3
# Si number density = 22.132064 Si / 1000 Ang^3
#
#
#
# Elastic Constant Matrix: (Units=GPa)
#
#
# Indices 1 2 3 4 5 6 
#
# 1 42.8919 -1.0997 29.4340 0.0000 15.1341 0.0000
# 2 -1.0997 159.8591 44.2555 0.0000 4.5911 0.0000
# 3 29.4340 44.2555 79.8757 0.0000 20.4183 0.0000
# 4 0.0000 0.0000 0.0000 24.3338 0.0000 -5.4793
# 5 15.1341 4.5911 20.4183 0.0000 22.5019 0.0000
# 6 0.0000 0.0000 0.0000 -5.4793 0.0000 6.0634
#
#
#
# Elastic Compliance Matrix: (Units=1/GPa)
#
#
# Indices 1 2 3 4 5 6 
#
# 1 0.036871 0.004014 -0.012059 0.000000 -0.014674 0.000000
# 2 0.004014 0.007971 -0.006236 0.000000 0.001333 0.000000
# 3 -0.012059 -0.006236 0.023462 0.000000 -0.011906 0.000000
# 4 0.000000 0.000000 0.000000 0.051594 0.000000 0.046624
# 5 -0.014674 0.001333 -0.011906 0.000000 0.064842 0.000000
# 6 0.000000 0.000000 0.000000 0.046624 0.000000 0.207058
#
#
# Mechanical properties :
#
#
# Convention : Reuss Voigt Hill
#
# Bulk Modulus (GPa) = 25.16357 47.53405 36.34881
# Shear Modulus (GPa) = 11.53114 24.58227 18.05670
#
# Velocity S-wave (km/s) = 2.28505 3.33634 2.85943
# Velocity P-wave (km/s) = 4.28443 6.03040 5.23078
#
# Compressibility (1/GPa) = 0.03973998
#
# Stress axis : x y z
#
# Youngs Moduli (GPa) = 27.12187 125.45019 42.62189
#
# Poissons Ratio (x) = -0.50351 0.51399
# Poissons Ratio (y) = -0.10886 0.26580
# Poissons Ratio (z) = 0.32707 0.78234
#
# Static dielectric constant tensor:
#      x y z
#    x 1.831120 0.000000 0.035070 
#    y 0.000000 1.818080 0.000000 
#    z 0.035070 0.000000 1.870800 
# 
# From -- ./inp_files/269384.got.cif
#   From: 2010.05.17/outbox.cif.g08.bks.cpg/sg12_135_cif.got.tgz:269384.got - 2010.06.03 13:09:07.
