data_PCOD9188269
_publ_section_title
;
Structure prediction by ZEFSAII (Michael W. Deem and Ramdas Pophale) SiO2 
 PCOD9188269
Probable space group: C 2/M
;
_chemical_formula_sum "Si O2"
_cell_formula_units_Z 48
_cell_length_a 11.963729
_cell_length_b 20.309302
_cell_length_c 8.667628
_cell_angle_alpha 90.000000
_cell_angle_beta 89.811244
_cell_angle_gamma 90.000000
_cell_volume 2106.005357
_symmetry_space_group_name_H-M "C 2/M"
_symmetry_group_IT_number 12
_symmetry_cell_setting 'monoclinic'
loop_
_space_group_symop_operation_xyz
x,y,z
-x,y,-z
-x,-y,-z
x,-y,z
1/2+x,1/2+y,z
1/2-x,1/2+y,-z
1/2-x,1/2-y,-z
1/2+x,1/2-y,z
loop_
_atom_site_type_symbol
_atom_site_label
_atom_site_fract_x
_atom_site_fract_y
_atom_site_fract_z
Si Si1 0.311466 0.701000 0.876060
Si Si2 0.172291 0.500000 0.093619
Si Si3 0.302807 0.205449 0.633862
Si Si4 0.998318 0.000000 0.181263
Si Si5 0.053997 0.500000 0.762925
Si Si6 0.344768 0.383595 0.151897
Si Si7 0.368155 0.500000 0.560262
Si Si8 0.806419 0.389210 0.388543
O O1 0.371474 0.750996 0.756217
O O2 0.238920 0.656684 0.754317
O O3 0.250000 0.750000 0.000000
O O4 0.374942 0.651702 0.990089
O O5 0.246866 0.435197 0.110456
O O6 0.078117 0.500000 0.223925
O O7 0.109693 0.500000 0.931889
O O8 0.250000 0.250000 0.500000
O O9 0.203898 0.170475 0.731583
O O10 0.358896 0.150283 0.530837
O O11 0.936741 0.068070 0.223779
O O12 0.118555 0.000000 0.254065
O O13 0.000000 0.000000 0.000000
O O14 0.102373 0.437003 0.679488
O O15 0.500000 0.500000 0.500000
O O16 0.294461 0.434375 0.537283
#
# Coordination Sequence:
#
# PCOD9188269 Si02
#       8
#     8   4   8   4   4   8   4   8
#     4   9  17  32  58  80 105 150 189 223 276 325
#     4  10  20  34  59  88 110 138 179 233 291 340
#     4   9  19  34  58  82 105 153 188 223 276 335
#     4  11  22  32  55  87 113 143 187 230 279 330
#     4  10  20  34  59  87 110 141 176 231 297 335
#     4  10  19  36  58  83 114 142 186 233 278 331
#     4  11  22  34  55  83 115 153 180 226 283 331
#     4  10  19  36  58  81 115 143 186 228 282 333
#
# _framework density 22.791965000000001
#
# number of rings (size 3 to 8) (size 9 to 14) (size 15 to 20)
#    0.000    2.167    1.667    2.000    2.333    2.000 
#    0.000    1.667    0.000   70.000    0.000    0.000 
#    0.000    0.000    0.000    0.000    0.000    0.000 
#
# Total GULP energy -133791.870635 kJ/mol
# GULP energy per Si atom -5574.661276 kJ/mol
# Density = 2.274009 g / cm^3
# Si number density = 22.791965 Si / 1000 Ang^3
#
#
#
# Elastic Constant Matrix: (Units=GPa)
#
#
# Indices 1 2 3 4 5 6 
#
# 1 56.0346 32.4173 22.3557 0.0000 -8.7746 0.0000
# 2 32.4173 130.4996 66.3941 0.0000 0.7265 0.0000
# 3 22.3557 66.3941 134.5644 0.0000 3.5065 0.0000
# 4 0.0000 0.0000 0.0000 -736.6812 0.0000 -8.2495
# 5 -8.7746 0.7265 3.5065 0.0000 26.9856 0.0000
# 6 0.0000 0.0000 0.0000 -8.2495 0.0000 -5.0231
#
#
#
# Elastic Compliance Matrix: (Units=1/GPa)
#
#
# Indices 1 2 3 4 5 6 
#
# 1 0.022454 -0.004835 -0.001544 0.000000 0.007632 0.000000
# 2 -0.004835 0.011276 -0.004728 0.000000 -0.001261 0.000000
# 3 -0.001544 -0.004728 0.010064 0.000000 -0.001682 0.000000
# 4 0.000000 0.000000 0.000000 -0.001383 0.000000 0.002271
# 5 0.007632 -0.001261 -0.001682 0.000000 0.039791 0.000000
# 6 0.000000 0.000000 0.000000 0.002271 0.000000 -0.202810
#
#
# Mechanical properties :
#
#
# Convention : Reuss Voigt Hill
#
# Bulk Modulus (GPa) = 46.33440 62.60367 54.46904
# Shear Modulus (GPa) = -54.82392 -129.61497 -92.21944
#
# Velocity S-wave (km/s) = -4.90981 -7.54932 -6.36783
# Velocity P-wave (km/s) = 3.43049 6.96150 5.48775
#
# Compressibility (1/GPa) = 0.02158224
#
# Stress axis : x y z
#
# Youngs Moduli (GPa) = 44.53509 88.68282 99.36152
#
# Poissons Ratio (x) = 0.42877 0.15339
# Poissons Ratio (y) = 0.21532 0.46974
# Poissons Ratio (z) = 0.06875 0.41925
#
# Static dielectric constant tensor:
#      x y z
#    x 1.796440 0.000000 -0.019320 
#    y 0.000000 1.959030 0.000000 
#    z -0.019320 0.000000 1.927890 
# 
# From -- ./inp_files/63427.got.cif
#   From: 2010.05.17/outbox.cif.g08.bks.cpg/sg12_32_cif.got.tgz:63427.got - 2010.06.03 13:09:07.
