data_PCOD9188526
_publ_section_title
;
Structure prediction by ZEFSAII (Michael W. Deem and Ramdas Pophale) SiO2 
 PCOD9188526
Probable space group: C 2/M
;
_chemical_formula_sum "Si O2"
_cell_formula_units_Z 44
_cell_length_a 26.732225
_cell_length_b 12.882681
_cell_length_c 15.398511
_cell_angle_alpha 90.000000
_cell_angle_beta 157.119699
_cell_angle_gamma 90.000000
_cell_volume 2061.837341
_symmetry_space_group_name_H-M "C 2/M"
_symmetry_group_IT_number 12
_symmetry_cell_setting 'monoclinic'
loop_
_space_group_symop_operation_xyz
x,y,z
-x,y,-z
-x,-y,-z
x,-y,z
1/2+x,1/2+y,z
1/2-x,1/2+y,-z
1/2-x,1/2-y,-z
1/2+x,1/2-y,z
loop_
_atom_site_type_symbol
_atom_site_label
_atom_site_fract_x
_atom_site_fract_y
_atom_site_fract_z
Si Si1 0.130050 0.808781 0.759591
Si Si2 0.255893 0.160754 0.787033
Si Si3 0.254886 0.615943 0.702777
Si Si4 0.538188 0.187902 0.227603
Si Si5 0.000000 0.801456 0.000000
Si Si6 0.986750 0.110151 0.697181
O O1 0.203219 0.864788 0.797900
O O2 0.066324 0.872829 0.735905
O O3 0.000000 0.762027 0.500000
O O4 0.250000 0.750000 0.000000
O O5 0.239308 0.286338 0.743536
O O6 0.161934 0.110940 0.567472
O O7 0.402354 0.129736 0.007217
O O8 0.239035 0.500000 0.713596
O O9 0.148887 0.631763 0.457582
O O10 0.392989 0.632387 0.878316
O O11 0.500902 0.290667 0.223023
O O12 0.570532 0.228178 0.183387
O O13 0.021480 0.000000 0.793082
#
# Coordination Sequence:
#
# PCOD9188526 Si02
#       6
#     8   8   8   8   4   8
#     4  10  19  36  60  83 119 160 199 241 298 349
#     4   9  20  36  57  80 118 151 189 243 295 345
#     4  10  21  37  58  85 114 151 191 240 294 358
#     4  10  20  38  59  82 117 153 188 247 300 353
#     4  10  21  38  57  82 112 150 195 236 299 354
#     4  10  21  36  60  86 114 157 206 243 290 354
#
# _framework density 21.34019
#
# number of rings (size 3 to 8) (size 9 to 14) (size 15 to 20)
#    0.000    2.182    1.818    0.818    0.000    7.636 
#    0.000    0.455    0.000   14.182    0.000    0.000 
#    0.000    0.000    0.000    0.000    0.000    0.000 
#
# Total GULP energy -122544.592903 kJ/mol
# GULP energy per Si atom -5570.208768 kJ/mol
# Density = 2.129162 g / cm^3
# Si number density = 21.340190 Si / 1000 Ang^3
#
#
#
# Elastic Constant Matrix: (Units=GPa)
#
#
# Indices 1 2 3 4 5 6 
#
# 1 59.6896 10.0799 -9.3781 0.0000 -2.5882 0.0000
# 2 10.0799 99.0630 17.5962 0.0000 -0.2606 0.0000
# 3 -9.3781 17.5962 146.3635 0.0000 -13.8643 0.0000
# 4 0.0000 0.0000 0.0000 8.1623 0.0000 3.0119
# 5 -2.5882 -0.2606 -13.8643 0.0000 40.1917 0.0000
# 6 0.0000 0.0000 0.0000 3.0119 0.0000 -2.0686
#
#
#
# Elastic Compliance Matrix: (Units=1/GPa)
#
#
# Indices 1 2 3 4 5 6 
#
# 1 0.017406 -0.002036 0.001514 0.000000 0.001630 0.000000
# 2 -0.002036 0.010558 -0.001453 0.000000 -0.000564 0.000000
# 3 0.001514 -0.001453 0.007353 0.000000 0.002624 0.000000
# 4 0.000000 0.000000 0.000000 0.079696 0.000000 0.116039
# 5 0.001630 -0.000564 0.002624 0.000000 0.025887 0.000000
# 6 0.000000 0.000000 0.000000 0.116039 0.000000 -0.314462
#
#
# Mechanical properties :
#
#
# Convention : Reuss Voigt Hill
#
# Bulk Modulus (GPa) = 31.88003 37.96801 34.92402
# Shear Modulus (GPa) = -31.41552 28.37827 -1.51863
#
# Velocity S-wave (km/s) = -3.84100 3.65060 -0.84450
# Velocity P-wave (km/s) = 2.16786 5.96654 3.93065
#
# Compressibility (1/GPa) = 0.03136760
#
# Stress axis : x y z
#
# Youngs Moduli (GPa) = 57.45225 94.71151 136.00541
#
# Poissons Ratio (x) = 0.19281 -0.20597
# Poissons Ratio (y) = 0.11696 0.19765
# Poissons Ratio (z) = -0.08701 0.13764
#
# Static dielectric constant tensor:
#      x y z
#    x 1.739140 0.000000 -0.029770 
#    y 0.000000 1.877070 0.000000 
#    z -0.029770 0.000000 1.819450 
# 
# From -- ./inp_files/296537.got.cif
#   From: 2010.05.17/outbox.cif.g08.bks.cpg/sg12_149_cif.got.tgz:296537.got - 2010.06.03 13:09:07.
