data_PCOD9188006
_publ_section_title
;
Structure prediction by ZEFSAII (Michael W. Deem and Ramdas Pophale) SiO2 
 PCOD9188006
Probable space group: C 2/M
;
_chemical_formula_sum "Si O2"
_cell_formula_units_Z 40
_cell_length_a 15.530146
_cell_length_b 24.215241
_cell_length_c 10.615132
_cell_angle_alpha 90.000000
_cell_angle_beta 155.334894
_cell_angle_gamma 90.000000
_cell_volume 1665.913228
_symmetry_space_group_name_H-M "C 2/M"
_symmetry_group_IT_number 12
_symmetry_cell_setting 'monoclinic'
loop_
_space_group_symop_operation_xyz
x,y,z
-x,y,-z
-x,-y,-z
x,-y,z
1/2+x,1/2+y,z
1/2-x,1/2+y,-z
1/2-x,1/2-y,-z
1/2+x,1/2-y,z
loop_
_atom_site_type_symbol
_atom_site_label
_atom_site_fract_x
_atom_site_fract_y
_atom_site_fract_z
Si Si1 0.022200 0.096664 0.396774
Si Si2 0.097020 0.437100 0.760761
Si Si3 0.182357 0.085652 0.338673
Si Si4 0.837988 0.291462 0.511005
Si Si5 0.688793 0.199747 0.152419
O O1 0.000000 0.064529 0.500000
O O2 0.127641 0.073531 0.410745
O O3 0.148956 0.151614 0.601999
O O4 0.785537 0.102138 0.041921
O O5 0.176215 0.500000 0.852516
O O6 0.000000 0.419517 0.500000
O O7 0.907201 0.437427 0.604288
O O8 0.216288 0.151342 0.362352
O O9 0.000000 0.067655 0.000000
O O10 0.750000 0.250000 0.500000
O O11 0.790300 0.258695 0.320048
O O12 0.074713 0.299864 0.866551
O O13 0.500000 0.189624 0.000000
#
# Coordination Sequence:
#
# PCOD9188006 Si02
#       5
#     8   8   8   8   8
#     4  12  26  44  71 104 146 183 231 295 352 419
#     4  11  27  49  73 107 140 176 240 305 358 424
#     4  12  23  44  77 103 138 195 234 285 362 421
#     4  10  19  35  68 100 141 186 234 283 337 411
#     4  10  20  38  64  99 140 192 227 284 347 406
#
# _framework density 24.010854999999999
#
# number of rings (size 3 to 8) (size 9 to 14) (size 15 to 20)
#    0.000    1.000    6.000    3.000    0.000    1.600 
#    0.000    6.000    0.000    0.000    0.000    0.000 
#    0.000    0.000    0.000    0.000    0.000    0.000 
#
# Total GULP energy -111757.576446 kJ/mol
# GULP energy per Si atom -5587.878822 kJ/mol
# Density = 2.395620 g / cm^3
# Si number density = 24.010855 Si / 1000 Ang^3
#
#
#
# Elastic Constant Matrix: (Units=GPa)
#
#
# Indices 1 2 3 4 5 6 
#
# 1 156.8533 -1.3231 56.2668 0.0001 3.8372 0.0001
# 2 -1.3231 78.9996 48.6250 0.0000 8.4874 0.0000
# 3 56.2668 48.6250 194.6665 0.0001 4.9995 0.0003
# 4 0.0001 0.0000 0.0001 4.7916 0.0001 38.2713
# 5 3.8372 8.4874 4.9995 0.0001 36.1657 0.0002
# 6 0.0001 0.0000 0.0003 38.2713 0.0002 90.7347
#
#
#
# Elastic Compliance Matrix: (Units=1/GPa)
#
#
# Indices 1 2 3 4 5 6 
#
# 1 0.007321 0.001775 -0.002538 0.000000 -0.000843 0.000000
# 2 0.001775 0.015721 -0.004356 0.000000 -0.003276 0.000000
# 3 -0.002538 -0.004356 0.006950 0.000000 0.000331 0.000000
# 4 0.000000 0.000000 0.000000 -0.088098 0.000000 0.037159
# 5 -0.000843 -0.003276 0.000331 0.000000 0.028463 0.000000
# 6 0.000000 0.000000 0.000000 0.037159 0.000000 -0.004652
#
#
# Mechanical properties :
#
#
# Convention : Reuss Voigt Hill
#
# Bulk Modulus (GPa) = 50.61914 70.85076 60.73495
# Shear Modulus (GPa) = -286.16639 48.13512 -119.01564
#
# Velocity S-wave (km/s) = -10.92890 4.48227 -7.04805
# Velocity P-wave (km/s) = 11.75274 7.50730 6.39403
#
# Compressibility (1/GPa) = 0.01975537
#
# Stress axis : x y z
#
# Youngs Moduli (GPa) = 136.58573 63.60900 143.88220
#
# Poissons Ratio (x) = -0.11293 0.36517
# Poissons Ratio (y) = -0.24248 0.62674
# Poissons Ratio (z) = 0.34665 0.27708
#
# Static dielectric constant tensor:
#      x y z
#    x 2.020730 0.000000 -0.078270 
#    y 0.000000 1.937820 0.000000 
#    z -0.078270 0.000000 2.014420 
# 
# From -- ./inp_files/161130.got.cif
#   From: 2010.05.17/outbox.cif.g08.bks.cpg/sg12_81_cif.got.tgz:161130.got - 2010.06.03 13:09:07.
