data_PCOD9188830
_publ_section_title
;
Structure prediction by ZEFSAII (Michael W. Deem and Ramdas Pophale) SiO2 
 PCOD9188830
Probable space group: C 2/M
;
_chemical_formula_sum "Si O2"
_cell_formula_units_Z 48
_cell_length_a 24.322446
_cell_length_b 8.366130
_cell_length_c 12.942182
_cell_angle_alpha 90.000000
_cell_angle_beta 89.436235
_cell_angle_gamma 90.000000
_cell_volume 2633.409122
_symmetry_space_group_name_H-M "C 2/M"
_symmetry_group_IT_number 12
_symmetry_cell_setting 'monoclinic'
loop_
_space_group_symop_operation_xyz
x,y,z
-x,y,-z
-x,-y,-z
x,-y,z
1/2+x,1/2+y,z
1/2-x,1/2+y,-z
1/2-x,1/2-y,-z
1/2+x,1/2-y,z
loop_
_atom_site_type_symbol
_atom_site_label
_atom_site_fract_x
_atom_site_fract_y
_atom_site_fract_z
Si Si1 0.935404 0.310129 0.894503
Si Si2 0.937112 0.304964 0.503930
Si Si3 0.634122 0.195131 0.298124
Si Si4 0.554921 0.312490 0.876133
Si Si5 0.868211 0.308314 0.304023
Si Si6 0.748542 0.308062 0.618741
O O1 0.929239 0.500000 0.909632
O O2 0.891812 0.253593 0.810023
O O3 0.997506 0.277475 0.854037
O O4 0.930394 0.227390 0.005591
O O5 0.937470 0.500000 0.504620
O O6 0.905293 0.253293 0.607297
O O7 0.903766 0.255409 0.403052
O O8 0.000000 0.250679 0.500000
O O9 0.695956 0.245606 0.323852
O O10 0.633614 0.000000 0.297333
O O11 0.544731 0.500000 0.866296
O O12 0.602597 0.259267 0.797955
O O13 0.869642 0.500000 0.299663
O O14 0.806118 0.253291 0.324506
O O15 0.748162 0.500000 0.617370
O O16 0.750000 0.250000 0.500000
#
# Coordination Sequence:
#
# PCOD9188830 Si02
#       6
#     8   8   8   8   8   8
#     4  10  19  36  62  86 109 146 193 231 272 332
#     4   9  16  28  51  81 109 138 176 225 276 325
#     4   9  18  33  55  83 111 144 187 232 275 327
#     4  11  22  37  56  83 119 150 180 228 289 338
#     4  11  21  36  58  82 110 147 194 233 274 333
#     4  11  21  37  57  81 114 152 189 229 281 331
#
# _framework density 18.227326000000001
#
# number of rings (size 3 to 8) (size 9 to 14) (size 15 to 20)
#    0.000    1.833    1.667    5.000    0.000    2.667 
#    0.000    4.167    0.000    2.000    0.000    0.000 
#    0.000    0.000    0.000    0.000    0.000    0.000 
#
# Total GULP energy -134039.706949 kJ/mol
# GULP energy per Si atom -5584.987790 kJ/mol
# Density = 1.818584 g / cm^3
# Si number density = 18.227326 Si / 1000 Ang^3
#
#
#
# Elastic Constant Matrix: (Units=GPa)
#
#
# Indices 1 2 3 4 5 6 
#
# 1 144.2182 -5.8489 61.6150 0.0000 17.4295 0.0000
# 2 -5.8489 25.5463 -1.4251 0.0000 5.7746 0.0000
# 3 61.6150 -1.4251 85.5354 0.0000 9.3265 0.0000
# 4 0.0000 0.0000 0.0000 14.7157 0.0000 -10.9662
# 5 17.4295 5.7746 9.3265 0.0000 26.2688 0.0000
# 6 0.0000 0.0000 0.0000 -10.9662 0.0000 21.6447
#
#
#
# Elastic Compliance Matrix: (Units=1/GPa)
#
#
# Indices 1 2 3 4 5 6 
#
# 1 0.010746 0.003268 -0.007106 0.000000 -0.005325 0.000000
# 2 0.003268 0.042436 -0.000409 0.000000 -0.011352 0.000000
# 3 -0.007106 -0.000409 0.016934 0.000000 -0.001208 0.000000
# 4 0.000000 0.000000 0.000000 0.109173 0.000000 0.055312
# 5 -0.005325 -0.011352 -0.001208 0.000000 0.044526 0.000000
# 6 0.000000 0.000000 0.000000 0.055312 0.000000 0.074224
#
#
# Mechanical properties :
#
#
# Convention : Reuss Voigt Hill
#
# Bulk Modulus (GPa) = 16.22791 40.44243 28.33517
# Shear Modulus (GPa) = 15.28705 25.92309 20.60507
#
# Velocity S-wave (km/s) = 2.89915 3.77531 3.36586
# Velocity P-wave (km/s) = 4.48656 6.42183 5.53936
#
# Compressibility (1/GPa) = 0.06162224
#
# Stress axis : x y z
#
# Youngs Moduli (GPa) = 93.05935 23.56491 59.05123
#
# Poissons Ratio (x) = -0.07700 0.41959
# Poissons Ratio (y) = -0.30409 0.02416
# Poissons Ratio (z) = 0.66124 0.00964
#
# Static dielectric constant tensor:
#      x y z
#    x 1.616780 0.000000 0.010370 
#    y 0.000000 1.627490 0.000000 
#    z 0.010370 0.000000 1.604690 
# 
# From -- ./inp_files/172192.got.cif
#   From: 2010.05.17/outbox.cif.g08.bks.cpg/sg12_87_cif.got.tgz:172192.got - 2010.06.03 13:09:07.
