data_PCOD9188619
_publ_section_title
;
Structure prediction by ZEFSAII (Michael W. Deem and Ramdas Pophale) SiO2 
 PCOD9188619
Probable space group: C 2/M
;
_chemical_formula_sum "Si O2"
_cell_formula_units_Z 52
_cell_length_a 9.123255
_cell_length_b 29.304621
_cell_length_c 14.282475
_cell_angle_alpha 90.000000
_cell_angle_beta 140.577920
_cell_angle_gamma 90.000000
_cell_volume 2424.836404
_symmetry_space_group_name_H-M "C 2/M"
_symmetry_group_IT_number 12
_symmetry_cell_setting 'monoclinic'
loop_
_space_group_symop_operation_xyz
x,y,z
-x,y,-z
-x,-y,-z
x,-y,z
1/2+x,1/2+y,z
1/2-x,1/2+y,-z
1/2-x,1/2-y,-z
1/2+x,1/2-y,z
loop_
_atom_site_type_symbol
_atom_site_label
_atom_site_fract_x
_atom_site_fract_y
_atom_site_fract_z
Si Si1 0.881521 0.000000 0.540232
Si Si2 0.592735 0.399281 0.860118
Si Si3 0.731770 0.500000 0.892194
Si Si4 0.685835 0.912234 0.514242
Si Si5 0.311941 0.326341 0.481696
Si Si6 0.555555 0.216527 0.829464
Si Si7 0.791224 0.808428 0.174845
Si Si8 0.000000 0.153443 0.000000
O O1 0.725239 0.044524 0.470045
O O2 0.000000 0.000000 0.500000
O O3 0.065761 0.000000 0.717559
O O4 0.687859 0.450810 0.920938
O O5 0.413633 0.404661 0.687535
O O6 0.743455 0.357198 0.892986
O O7 0.482021 0.378750 0.899633
O O8 0.000000 0.500000 0.000000
O O9 0.500000 0.922289 0.500000
O O10 0.648988 0.866680 0.437750
O O11 0.500000 0.345149 0.500000
O O12 0.476279 0.310155 0.646408
O O13 0.147644 0.290730 0.348685
O O14 0.416306 0.204600 0.856546
O O15 0.645582 0.268255 0.866387
O O16 0.770885 0.184221 0.905211
#
# Coordination Sequence:
#
# PCOD9188619 Si02
#       8
#     4   8   4   8   8   8   8   4
#     4  10  21  39  61  94 124 155 212 269 310 382
#     4  10  24  43  63  90 124 163 211 263 310 378
#     4  10  24  46  69  92 125 170 211 255 328 385
#     4  10  19  36  60  87 122 158 200 259 325 364
#     4   9  19  37  60  88 121 160 206 254 314 376
#     4  11  23  38  61  93 129 168 209 255 311 383
#     4  10  22  40  65  91 123 165 210 265 320 368
#     4  12  26  41  60  92 128 165 214 254 310 380
#
# _framework density 21.444747
#
# number of rings (size 3 to 8) (size 9 to 14) (size 15 to 20)
#    0.000    1.846    0.000    3.000    2.154    5.231 
#    2.769    0.769    0.000    0.000    0.000    0.000 
#    0.000    0.000    0.000    0.000    0.000    0.000 
#
# Total GULP energy -145072.083076 kJ/mol
# GULP energy per Si atom -5579.695503 kJ/mol
# Density = 2.139594 g / cm^3
# Si number density = 21.444747 Si / 1000 Ang^3
#
#
#
# Elastic Constant Matrix: (Units=GPa)
#
#
# Indices 1 2 3 4 5 6 
#
# 1 153.1726 95.5714 5.9414 0.0000 0.7595 0.0000
# 2 95.5714 169.9446 25.9157 0.0000 0.3028 0.0000
# 3 5.9414 25.9157 39.8320 0.0000 7.5649 0.0000
# 4 0.0000 0.0000 0.0000 -36.6420 0.0000 -7.1451
# 5 0.7595 0.3028 7.5649 0.0000 37.3029 0.0000
# 6 0.0000 0.0000 0.0000 -7.1451 0.0000 49.7016
#
#
#
# Elastic Compliance Matrix: (Units=1/GPa)
#
#
# Indices 1 2 3 4 5 6 
#
# 1 0.010289 -0.006185 0.002620 0.000000 -0.000691 0.000000
# 2 -0.006185 0.010275 -0.006002 0.000000 0.001260 0.000000
# 3 0.002620 -0.006002 0.029767 0.000000 -0.006041 0.000000
# 4 0.000000 0.000000 0.000000 -0.026547 0.000000 -0.003816
# 5 -0.000691 0.001260 -0.006041 0.000000 0.028037 0.000000
# 6 0.000000 0.000000 0.000000 -0.003816 0.000000 0.019571
#
#
# Mechanical properties :
#
#
# Convention : Reuss Voigt Hill
#
# Bulk Modulus (GPa) = 32.05263 68.64513 50.34888
# Shear Modulus (GPa) = 49.54149 25.77388 37.65768
#
# Velocity S-wave (km/s) = 4.81166 3.47057 4.19505
# Velocity P-wave (km/s) = 6.77115 6.93826 6.85522
#
# Compressibility (1/GPa) = 0.03119869
#
# Stress axis : x y z
#
# Youngs Moduli (GPa) = 97.18836 97.31968 33.59418
#
# Poissons Ratio (x) = 0.60190 -0.08803
# Poissons Ratio (y) = 0.60108 0.20164
# Poissons Ratio (z) = -0.25467 0.58413
#
# Static dielectric constant tensor:
#      x y z
#    x 1.718680 0.000000 -0.037420 
#    y 0.000000 1.809840 0.000000 
#    z -0.037420 0.000000 1.789370 
# 
# From -- ./inp_files/201388.got.cif
#   From: 2010.05.17/outbox.cif.g08.bks.cpg/sg12_101_cif.got.tgz:201388.got - 2010.06.03 13:09:07.
