data_PCOD9188162
_publ_section_title
;
Structure prediction by ZEFSAII (Michael W. Deem and Ramdas Pophale) SiO2 
 PCOD9188162
Probable space group: C 2/M
;
_chemical_formula_sum "Si O2"
_cell_formula_units_Z 40
_cell_length_a 15.500061
_cell_length_b 12.740538
_cell_length_c 18.182315
_cell_angle_alpha 90.000000
_cell_angle_beta 30.561398
_cell_angle_gamma 90.000000
_cell_volume 1825.695451
_symmetry_space_group_name_H-M "C 2/M"
_symmetry_group_IT_number 12
_symmetry_cell_setting 'monoclinic'
loop_
_space_group_symop_operation_xyz
x,y,z
-x,y,-z
-x,-y,-z
x,-y,z
1/2+x,1/2+y,z
1/2-x,1/2+y,-z
1/2-x,1/2-y,-z
1/2+x,1/2-y,z
loop_
_atom_site_type_symbol
_atom_site_label
_atom_site_fract_x
_atom_site_fract_y
_atom_site_fract_z
Si Si1 0.802778 0.883841 0.038848
Si Si2 0.663839 0.166486 0.287647
Si Si3 0.221981 0.618520 0.416799
Si Si4 0.828962 0.381935 0.174540
Si Si5 0.974218 0.713436 0.209027
O O1 0.790241 0.882317 0.135724
O O2 0.615547 0.849365 0.149499
O O3 0.845387 0.000000 0.980521
O O4 0.926978 0.797051 0.915319
O O5 0.707711 0.131457 0.338174
O O6 0.470306 0.134953 0.415410
O O7 0.694154 0.291170 0.257031
O O8 0.277303 0.500000 0.394228
O O9 0.346679 0.712610 0.348204
O O10 0.768315 0.500000 0.205945
O O11 0.878593 0.363581 0.223193
O O12 0.000000 0.367401 0.000000
#
# Coordination Sequence:
#
# PCOD9188162 Si02
#       5
#     8   8   8   8   8
#     4  11  21  36  56  80 111 143 182 230 270 318
#     4  10  20  36  57  85 107 140 186 222 270 324
#     4  10  20  37  58  80 113 146 177 227 274 319
#     4  10  19  36  57  79 108 143 179 225 273 315
#     4  10  22  36  53  83 109 144 186 220 271 329
#
# _framework density 21.909458999999998
#
# number of rings (size 3 to 8) (size 9 to 14) (size 15 to 20)
#    0.000    1.800    2.000    3.600    0.000    0.800 
#    0.000   13.000    0.000    0.000    0.000    0.000 
#    0.000    0.000    0.000    0.000    0.000    0.000 
#
# Total GULP energy -111775.094769 kJ/mol
# GULP energy per Si atom -5588.754738 kJ/mol
# Density = 2.185959 g / cm^3
# Si number density = 21.909459 Si / 1000 Ang^3
#
#
#
# Elastic Constant Matrix: (Units=GPa)
#
#
# Indices 1 2 3 4 5 6 
#
# 1 9.2617 -0.7486 11.0979 0.0002 4.1669 -0.0001
# 2 -0.7486 134.6198 4.8133 0.0003 5.6598 -0.0004
# 3 11.0979 4.8133 56.3275 0.0010 6.9239 -0.0006
# 4 0.0002 0.0003 0.0010 22.9295 -0.0005 -0.6024
# 5 4.1669 5.6598 6.9239 -0.0005 26.7348 0.0003
# 6 -0.0001 -0.0004 -0.0006 -0.6024 0.0003 12.6292
#
#
#
# Elastic Compliance Matrix: (Units=1/GPa)
#
#
# Indices 1 2 3 4 5 6 
#
# 1 0.148505 0.002504 -0.027436 -0.000001 -0.016571 0.000000
# 2 0.002504 0.007549 -0.000923 0.000000 -0.001749 0.000000
# 3 -0.027436 -0.000923 0.023434 -0.000001 -0.001597 0.000001
# 4 -0.000001 0.000000 -0.000001 0.043667 0.000001 0.002083
# 5 -0.016571 -0.001749 -0.001597 0.000001 0.040771 -0.000001
# 6 0.000000 0.000000 0.000001 0.002083 -0.000001 0.079281
#
#
# Mechanical properties :
#
#
# Convention : Reuss Voigt Hill
#
# Bulk Modulus (GPa) = 7.82621 25.61490 16.72055
# Shear Modulus (GPa) = 11.42831 24.79513 18.11172
#
# Velocity S-wave (km/s) = 2.28637 3.36774 2.87829
# Velocity P-wave (km/s) = 3.24804 5.18062 4.32369
#
# Compressibility (1/GPa) = 0.12777585
#
# Stress axis : x y z
#
# Youngs Moduli (GPa) = 6.73379 132.47128 42.67272
#
# Poissons Ratio (x) = -0.33165 1.17077
# Poissons Ratio (y) = -0.01686 0.03940
# Poissons Ratio (z) = 0.18475 0.12231
#
# Static dielectric constant tensor:
#      x y z
#    x 1.819070 0.000000 0.011330 
#    y 0.000000 1.779080 0.000000 
#    z 0.011330 0.000000 1.798230 
# 
# From -- ./inp_files/71222.got.cif
#   From: 2010.05.17/outbox.cif.g08.bks.cpg/sg12_36_cif.got.tgz:71222.got - 2010.06.03 13:09:07.
