data_PCOD9188180
_publ_section_title
;
Structure prediction by ZEFSAII (Michael W. Deem and Ramdas Pophale) SiO2 
 PCOD9188180
Probable space group: C 2/M
;
_chemical_formula_sum "Si O2"
_cell_formula_units_Z 48
_cell_length_a 34.067693
_cell_length_b 16.214681
_cell_length_c 9.611880
_cell_angle_alpha 90.000000
_cell_angle_beta 154.396772
_cell_angle_gamma 90.000000
_cell_volume 2294.459949
_symmetry_space_group_name_H-M "C 2/M"
_symmetry_group_IT_number 12
_symmetry_cell_setting 'monoclinic'
loop_
_space_group_symop_operation_xyz
x,y,z
-x,y,-z
-x,-y,-z
x,-y,z
1/2+x,1/2+y,z
1/2-x,1/2+y,-z
1/2-x,1/2-y,-z
1/2+x,1/2-y,z
loop_
_atom_site_type_symbol
_atom_site_label
_atom_site_fract_x
_atom_site_fract_y
_atom_site_fract_z
Si Si1 0.915909 0.590121 0.535108
Si Si2 0.122450 0.621111 0.271152
Si Si3 0.870247 0.222717 0.323033
Si Si4 0.518755 0.592877 0.724222
Si Si5 0.216893 0.770996 0.661782
Si Si6 0.727252 0.590883 0.476651
O O1 0.893571 0.500000 0.399986
O O2 0.875631 0.590761 0.563287
O O3 0.887678 0.678060 0.379690
O O4 0.024815 0.596673 0.900001
O O5 0.137293 0.719061 0.334503
O O6 0.201972 0.593291 0.423677
O O7 0.821848 0.199745 0.313732
O O8 0.957988 0.166226 0.590697
O O9 0.799876 0.211152 0.971137
O O10 0.500000 0.593664 0.500000
O O11 0.493606 0.500000 0.695012
O O12 0.624914 0.604511 0.095415
O O13 0.249100 0.840670 0.660617
O O14 0.730692 0.500000 0.551857
#
# Coordination Sequence:
#
# PCOD9188180 Si02
#       6
#     8   8   8   8   8   8
#     4  10  20  35  59  85 111 149 190 233 288 345
#     4  10  19  36  57  81 113 146 191 238 282 341
#     4  10  22  40  58  82 118 153 192 239 287 345
#     4  10  22  40  62  87 115 153 197 240 291 347
#     4  10  22  38  58  83 113 155 194 234 290 343
#     4  11  22  36  58  87 117 149 191 243 293 344
#
# _framework density 20.919955999999999
#
# number of rings (size 3 to 8) (size 9 to 14) (size 15 to 20)
#    0.000    1.833    0.000    4.500    0.000    4.667 
#    0.000   10.833    0.000    2.500    0.000    0.000 
#    0.000    0.000    0.000    0.000    0.000    0.000 
#
# Total GULP energy -133931.615315 kJ/mol
# GULP energy per Si atom -5580.483971 kJ/mol
# Density = 2.087234 g / cm^3
# Si number density = 20.919956 Si / 1000 Ang^3
#
#
#
# Elastic Constant Matrix: (Units=GPa)
#
#
# Indices 1 2 3 4 5 6 
#
# 1 75.1343 60.1830 40.0798 0.0000 22.4786 0.0000
# 2 60.1830 108.8285 36.2055 0.0000 16.8920 0.0000
# 3 40.0798 36.2055 74.6703 0.0000 18.1838 0.0000
# 4 0.0000 0.0000 0.0000 9.0132 0.0000 -6.7718
# 5 22.4786 16.8920 18.1838 0.0000 29.2913 0.0000
# 6 0.0000 0.0000 0.0000 -6.7718 0.0000 10.8171
#
#
#
# Elastic Compliance Matrix: (Units=1/GPa)
#
#
# Indices 1 2 3 4 5 6 
#
# 1 0.031260 -0.012913 -0.007645 0.000000 -0.011797 0.000000
# 2 -0.012913 0.016614 -0.001419 0.000000 0.001209 0.000000
# 3 -0.007645 -0.001419 0.019505 0.000000 -0.005423 0.000000
# 4 0.000000 0.000000 0.000000 0.209478 0.000000 0.131140
# 5 -0.011797 0.001209 -0.005423 0.000000 0.045862 0.000000
# 6 0.000000 0.000000 0.000000 0.131140 0.000000 0.174544
#
#
# Mechanical properties :
#
#
# Convention : Reuss Voigt Hill
#
# Bulk Modulus (GPa) = 42.69055 59.06328 50.87692
# Shear Modulus (GPa) = 9.10706 17.96865 13.53785
#
# Velocity S-wave (km/s) = 2.08872 2.93392 2.54663
# Velocity P-wave (km/s) = 5.12522 6.30646 5.74628
#
# Compressibility (1/GPa) = 0.02342439
#
# Stress axis : x y z
#
# Youngs Moduli (GPa) = 31.98943 60.19028 51.27001
#
# Poissons Ratio (x) = 0.77721 0.39198
# Poissons Ratio (y) = 0.41307 0.07276
# Poissons Ratio (z) = 0.24457 0.08542
#
# Static dielectric constant tensor:
#      x y z
#    x 1.715320 0.000000 0.005230 
#    y 0.000000 1.809740 0.000000 
#    z 0.005230 0.000000 1.756540 
# 
# From -- ./inp_files/112939.got.cif
#   From: 2010.05.17/outbox.cif.g08.bks.cpg/sg12_57_cif.got.tgz:112939.got - 2010.06.03 13:09:07.
