data_PCOD9188237
_publ_section_title
;
Structure prediction by ZEFSAII (Michael W. Deem and Ramdas Pophale) SiO2 
 PCOD9188237
Probable space group: C 2/M
;
_chemical_formula_sum "Si O2"
_cell_formula_units_Z 48
_cell_length_a 26.657789
_cell_length_b 12.324474
_cell_length_c 15.106547
_cell_angle_alpha 90.000000
_cell_angle_beta 27.963396
_cell_angle_gamma 90.000000
_cell_volume 2327.259435
_symmetry_space_group_name_H-M "C 2/M"
_symmetry_group_IT_number 12
_symmetry_cell_setting 'monoclinic'
loop_
_space_group_symop_operation_xyz
x,y,z
-x,y,-z
-x,-y,-z
x,-y,z
1/2+x,1/2+y,z
1/2-x,1/2+y,-z
1/2-x,1/2-y,-z
1/2+x,1/2-y,z
loop_
_atom_site_type_symbol
_atom_site_label
_atom_site_fract_x
_atom_site_fract_y
_atom_site_fract_z
Si Si1 0.966702 0.259639 0.455690
Si Si2 0.197087 0.126895 0.406183
Si Si3 0.679752 0.122173 0.055271
Si Si4 0.870445 0.804206 0.108904
Si Si5 0.399636 0.376002 0.254364
Si Si6 0.759904 0.666503 0.847828
O O1 0.904379 0.178614 0.487634
O O2 0.876744 0.347842 0.623607
O O3 0.000000 0.211413 0.500000
O O4 0.068056 0.317039 0.252383
O O5 0.304087 0.193023 0.216844
O O6 0.175495 0.140890 0.544796
O O7 0.205549 0.000000 0.373205
O O8 0.742512 0.117315 0.051154
O O9 0.665211 0.000000 0.044717
O O10 0.743350 0.204584 0.893707
O O11 0.849107 0.861188 0.236376
O O12 0.825700 0.864929 0.092008
O O13 0.997732 0.797669 0.900927
O O14 0.440737 0.500000 0.195801
#
# Coordination Sequence:
#
# PCOD9188237 Si02
#       6
#     8   8   8   8   8   8
#     4   9  19  36  55  81 111 142 181 221 263 317
#     4  10  21  37  57  80 109 144 179 220 269 318
#     4  10  20  36  56  79 110 145 180 220 266 316
#     4  10  19  36  58  79 108 141 180 222 265 320
#     4  10  21  37  58  82 107 139 179 224 271 316
#     4   9  20  34  53  82 111 140 179 223 266 316
#
# _framework density 20.625116999999999
#
# number of rings (size 3 to 8) (size 9 to 14) (size 15 to 20)
#    0.000    2.333    0.000    2.500    0.000    7.333 
#    0.000   16.667    0.000   11.000    0.000    0.000 
#    0.000    0.000    0.000    0.000    0.000    0.000 
#
# Total GULP energy -133832.250561 kJ/mol
# GULP energy per Si atom -5576.343773 kJ/mol
# Density = 2.057817 g / cm^3
# Si number density = 20.625117 Si / 1000 Ang^3
#
#
#
# Elastic Constant Matrix: (Units=GPa)
#
#
# Indices 1 2 3 4 5 6 
#
# 1 114.0421 11.6292 9.7979 0.0000 2.2862 0.0000
# 2 11.6292 109.9363 29.4712 0.0000 -7.0733 0.0000
# 3 9.7979 29.4712 56.9125 0.0000 -0.5782 0.0000
# 4 0.0000 0.0000 0.0000 12.2578 0.0000 -6.8594
# 5 2.2862 -7.0733 -0.5782 0.0000 27.6538 0.0000
# 6 0.0000 0.0000 0.0000 -6.8594 0.0000 8.9100
#
#
#
# Elastic Compliance Matrix: (Units=1/GPa)
#
#
# Indices 1 2 3 4 5 6 
#
# 1 0.008960 -0.000688 -0.001196 0.000000 -0.000942 0.000000
# 2 -0.000688 0.010804 -0.005449 0.000000 0.002706 0.000000
# 3 -0.001196 -0.005449 0.020589 0.000000 -0.000864 0.000000
# 4 0.000000 0.000000 0.000000 0.143328 0.000000 0.110341
# 5 -0.000942 0.002706 -0.000864 0.000000 0.036913 0.000000
# 6 0.000000 0.000000 0.000000 0.110341 0.000000 0.197179
#
#
# Mechanical properties :
#
#
# Convention : Reuss Voigt Hill
#
# Bulk Modulus (GPa) = 38.92759 42.52083 40.72421
# Shear Modulus (GPa) = 11.33783 25.09716 18.21749
#
# Velocity S-wave (km/s) = 2.34713 3.49209 2.97521
# Velocity P-wave (km/s) = 5.12447 6.07621 5.62052
#
# Compressibility (1/GPa) = 0.02568872
#
# Stress axis : x y z
#
# Youngs Moduli (GPa) = 111.60135 92.56096 48.56866
#
# Poissons Ratio (x) = 0.06367 0.05809
# Poissons Ratio (y) = 0.07676 0.26463
# Poissons Ratio (z) = 0.13347 0.50433
#
# Static dielectric constant tensor:
#      x y z
#    x 1.777960 0.000000 0.006410 
#    y 0.000000 1.726570 0.000000 
#    z 0.006410 0.000000 1.729040 
# 
# From -- ./inp_files/213242.got.cif
#   From: 2010.05.17/outbox.cif.g08.bks.cpg/sg12_107_cif.got.tgz:213242.got - 2010.06.03 13:09:07.
