data_PCOD9188405
_publ_section_title
;
Structure prediction by ZEFSAII (Michael W. Deem and Ramdas Pophale) SiO2 
 PCOD9188405
Probable space group: C 2/M
;
_chemical_formula_sum "Si O2"
_cell_formula_units_Z 56
_cell_length_a 28.458688
_cell_length_b 7.694723
_cell_length_c 17.964920
_cell_angle_alpha 90.000000
_cell_angle_beta 140.936616
_cell_angle_gamma 90.000000
_cell_volume 2479.120193
_symmetry_space_group_name_H-M "C 2/M"
_symmetry_group_IT_number 12
_symmetry_cell_setting 'monoclinic'
loop_
_space_group_symop_operation_xyz
x,y,z
-x,y,-z
-x,-y,-z
x,-y,z
1/2+x,1/2+y,z
1/2-x,1/2+y,-z
1/2-x,1/2-y,-z
1/2+x,1/2-y,z
loop_
_atom_site_type_symbol
_atom_site_label
_atom_site_fract_x
_atom_site_fract_y
_atom_site_fract_z
Si Si1 0.080148 0.290723 0.571673
Si Si2 0.836710 0.209315 0.624649
Si Si3 0.198075 0.288066 0.842103
Si Si4 0.563048 0.703427 0.388252
Si Si5 0.914375 0.213177 0.875466
Si Si6 0.097534 0.297905 0.848796
Si Si7 0.157367 0.200271 0.062995
O O1 0.077125 0.500000 0.564787
O O2 0.138886 0.242789 0.706103
O O3 0.099872 0.228439 0.513760
O O4 0.000000 0.224971 0.500000
O O5 0.750000 0.250000 0.500000
O O6 0.886969 0.273888 0.617452
O O7 0.874897 0.268976 0.749614
O O8 0.840888 0.000000 0.631515
O O9 0.201097 0.500000 0.852873
O O10 0.163294 0.223261 0.876993
O O11 0.275152 0.222741 0.902244
O O12 0.551706 0.500000 0.361247
O O13 0.480913 0.784729 0.289704
O O14 0.865588 0.274346 0.886264
O O15 0.915021 0.000000 0.875807
O O16 0.000000 0.264927 0.000000
O O17 0.111224 0.500000 0.878996
O O18 0.091172 0.207682 0.921134
O O19 0.177693 0.000000 0.102269
#
# Coordination Sequence:
#
# PCOD9188405 Si02
#       7
#     8   8   8   8   8   8   8
#     4  10  19  36  59  83 114 153 194 236 282 347
#     4  10  23  41  62  90 121 155 197 249 302 356
#     4   9  19  34  54  82 114 149 192 233 280 348
#     4  11  23  38  58  86 118 152 194 241 290 347
#     4   9  18  36  61  85 112 151 198 242 288 350
#     4  11  21  37  57  82 116 153 191 235 290 353
#     4  10  20  35  58  84 110 146 193 241 289 345
#
# _framework density 22.588657999999999
#
# number of rings (size 3 to 8) (size 9 to 14) (size 15 to 20)
#    0.000    2.000    1.429    2.143    2.000    3.714 
#    0.000    2.143    0.000    1.714    0.000    0.000 
#    0.000    0.000    0.000    0.000    0.000    0.000 
#
# Total GULP energy -156329.212110 kJ/mol
# GULP energy per Si atom -5583.186147 kJ/mol
# Density = 2.253725 g / cm^3
# Si number density = 22.588658 Si / 1000 Ang^3
#
#
#
# Elastic Constant Matrix: (Units=GPa)
#
#
# Indices 1 2 3 4 5 6 
#
# 1 180.9294 7.3631 72.5926 0.0000 -30.7493 0.0000
# 2 7.3631 44.9240 6.9743 0.0000 -0.0461 0.0000
# 3 72.5926 6.9743 121.2919 0.0000 -19.5560 0.0000
# 4 0.0000 0.0000 0.0000 25.8797 0.0000 -0.1786
# 5 -30.7493 -0.0461 -19.5560 0.0000 43.7730 0.0000
# 6 0.0000 0.0000 0.0000 -0.1786 0.0000 3.0220
#
#
#
# Elastic Compliance Matrix: (Units=1/GPa)
#
#
# Indices 1 2 3 4 5 6 
#
# 1 0.007797 -0.000647 -0.004037 0.000000 0.003673 0.000000
# 2 -0.000647 0.022529 -0.001053 0.000000 -0.000902 0.000000
# 3 -0.004037 -0.001053 0.011061 0.000000 0.002104 0.000000
# 4 0.000000 0.000000 0.000000 0.038656 0.000000 0.002284
# 5 0.003673 -0.000902 0.002104 0.000000 0.026365 0.000000
# 6 0.000000 0.000000 0.000000 0.002284 0.000000 0.331044
#
#
# Mechanical properties :
#
#
# Convention : Reuss Voigt Hill
#
# Bulk Modulus (GPa) = 33.43291 57.88949 45.66120
# Shear Modulus (GPa) = 10.89567 31.88263 21.38915
#
# Velocity S-wave (km/s) = 2.19863 3.76099 3.08051
# Velocity P-wave (km/s) = 4.61283 6.67409 5.73679
#
# Compressibility (1/GPa) = 0.02991065
#
# Stress axis : x y z
#
# Youngs Moduli (GPa) = 128.24678 44.38817 90.41013
#
# Poissons Ratio (x) = 0.02874 0.36501
# Poissons Ratio (y) = 0.08304 0.09523
# Poissons Ratio (z) = 0.51777 0.04675
#
# Static dielectric constant tensor:
#      x y z
#    x 1.834370 0.000000 0.019000 
#    y 0.000000 1.860920 0.000000 
#    z 0.019000 0.000000 1.851770 
# 
# From -- ./inp_files/292573.got.cif
#   From: 2010.05.17/outbox.cif.g08.bks.cpg/sg12_147_cif.got.tgz:292573.got - 2010.06.03 13:09:07.
