data_PCOD9188651
_publ_section_title
;
Structure prediction by ZEFSAII (Michael W. Deem and Ramdas Pophale) SiO2 
 PCOD9188651
Probable space group: C 2/M
;
_chemical_formula_sum "Si O2"
_cell_formula_units_Z 28
_cell_length_a 13.336076
_cell_length_b 14.095913
_cell_length_c 21.575929
_cell_angle_alpha 90.000000
_cell_angle_beta 159.206865
_cell_angle_gamma 90.000000
_cell_volume 1439.835755
_symmetry_space_group_name_H-M "C 2/M"
_symmetry_group_IT_number 12
_symmetry_cell_setting 'monoclinic'
loop_
_space_group_symop_operation_xyz
x,y,z
-x,y,-z
-x,-y,-z
x,-y,z
1/2+x,1/2+y,z
1/2-x,1/2+y,-z
1/2-x,1/2-y,-z
1/2+x,1/2-y,z
loop_
_atom_site_type_symbol
_atom_site_label
_atom_site_fract_x
_atom_site_fract_y
_atom_site_fract_z
Si Si1 0.970958 0.500000 0.378557
Si Si2 0.526475 0.500000 0.231948
Si Si3 0.903723 0.674715 0.633068
Si Si4 0.500000 0.296201 0.500000
Si Si5 0.087216 0.209403 0.847401
O O1 0.257654 0.500000 0.585328
O O2 0.970688 0.591503 0.334607
O O3 0.715213 0.500000 0.278808
O O4 0.359738 0.599004 0.134669
O O5 0.750000 0.750000 0.500000
O O6 0.651912 0.643424 0.534603
O O7 0.120779 0.728857 0.804095
O O8 0.752342 0.227107 0.667839
O O9 0.250000 0.250000 0.000000
#
# Coordination Sequence:
#
# PCOD9188651 Si02
#       5
#     4   4   8   4   8
#     4  11  20  36  70  92 112 165 211 246 308 368
#     4  11  20  37  64  91 120 156 208 258 302 353
#     4  10  19  36  60  90 119 157 199 245 304 360
#     4   8  20  38  58  82 128 162 182 258 306 342
#     4  10  21  39  62  90 126 156 199 255 304 355
#
# _framework density 19.446662
#
# number of rings (size 3 to 8) (size 9 to 14) (size 15 to 20)
#    1.714    0.286    2.857    3.429    0.000    1.714 
#    0.000    7.143    0.000    1.714    0.000    0.000 
#    0.000    0.000    0.000    0.000    0.000    0.000 
#
# Total GULP energy -77965.322445 kJ/mol
# GULP energy per Si atom -5568.951603 kJ/mol
# Density = 1.940240 g / cm^3
# Si number density = 19.446662 Si / 1000 Ang^3
#
#
#
# Elastic Constant Matrix: (Units=GPa)
#
#
# Indices 1 2 3 4 5 6 
#
# 1 106.8571 52.7898 16.7751 -0.0014 -30.5141 0.0040
# 2 52.7898 146.2226 34.4214 0.0732 -37.1641 -0.0085
# 3 16.7751 34.4214 83.6079 0.1056 -34.3040 -0.0174
# 4 -0.0014 0.0732 0.1056 10.8176 -0.0138 -11.6924
# 5 -30.5141 -37.1641 -34.3040 -0.0138 39.8766 -0.0039
# 6 0.0040 -0.0085 -0.0174 -11.6924 -0.0039 40.9066
#
#
#
# Elastic Compliance Matrix: (Units=1/GPa)
#
#
# Indices 1 2 3 4 5 6 
#
# 1 0.013099 -0.002912 0.002426 0.000014 0.009397 0.000004
# 2 -0.002912 0.009618 -0.000946 -0.000067 0.005922 -0.000017
# 3 0.002426 -0.000946 0.018953 -0.000212 0.017280 -0.000051
# 4 0.000014 -0.000067 -0.000212 0.133774 -0.000184 0.038237
# 5 0.009397 0.005922 0.017280 -0.000184 0.052652 -0.000040
# 6 0.000004 -0.000017 -0.000051 0.038237 -0.000040 0.035375
#
#
# Mechanical properties :
#
#
# Convention : Reuss Voigt Hill
#
# Bulk Modulus (GPa) = 25.76807 60.51778 43.14292
# Shear Modulus (GPa) = 17.90382 33.83357 25.86869
#
# Velocity S-wave (km/s) = 3.03753 4.17563 3.65120
# Velocity P-wave (km/s) = 5.05782 7.37803 6.32522
#
# Compressibility (1/GPa) = 0.03880772
#
# Stress axis : x y z
#
# Youngs Moduli (GPa) = 76.33918 103.97249 52.76156
#
# Poissons Ratio (x) = 0.30276 -0.12801
# Poissons Ratio (y) = 0.22230 0.04989
# Poissons Ratio (z) = -0.18521 0.09832
#
# Static dielectric constant tensor:
#      x y z
#    x 1.704200 0.000000 0.015700 
#    y 0.000000 1.671870 -0.000020 
#    z 0.015700 -0.000020 1.677510 
# 
# From -- ./inp_files/339835.got.cif
#   From: 2010.05.17/outbox.cif.g08.bks.cpg/sg12_170_cif.got.tgz:339835.got - 2010.06.03 13:09:07.
