data_PCOD9188625
_publ_section_title
;
Structure prediction by ZEFSAII (Michael W. Deem and Ramdas Pophale) SiO2 
 PCOD9188625
Probable space group: C 2/M
;
_chemical_formula_sum "Si O2"
_cell_formula_units_Z 38
_cell_length_a 11.306688
_cell_length_b 22.624027
_cell_length_c 9.825909
_cell_angle_alpha 90.000000
_cell_angle_beta 39.547252
_cell_angle_gamma 90.000000
_cell_volume 1600.378486
_symmetry_space_group_name_H-M "C 2/M"
_symmetry_group_IT_number 12
_symmetry_cell_setting 'monoclinic'
loop_
_space_group_symop_operation_xyz
x,y,z
-x,y,-z
-x,-y,-z
x,-y,z
1/2+x,1/2+y,z
1/2-x,1/2+y,-z
1/2-x,1/2-y,-z
1/2+x,1/2-y,z
loop_
_atom_site_type_symbol
_atom_site_label
_atom_site_fract_x
_atom_site_fract_y
_atom_site_fract_z
Si Si1 0.564953 0.320976 0.594209
Si Si2 0.000000 0.654860 0.500000
Si Si3 0.497380 0.794909 0.217347
Si Si4 0.240188 0.601210 0.920720
Si Si5 0.782093 0.067058 0.191493
Si Si6 0.000000 0.500000 0.000000
O O1 0.500000 0.302844 0.500000
O O2 0.508960 0.276346 0.768887
O O3 0.787124 0.317754 0.388893
O O4 0.456507 0.382322 0.712319
O O5 0.943886 0.691121 0.680161
O O6 0.170878 0.612140 0.383056
O O7 0.633652 0.835078 0.007043
O O8 0.212347 0.576466 0.098632
O O9 0.154348 0.552630 0.898454
O O10 0.746878 0.000000 0.265350
O O11 0.000000 0.078083 0.000000
#
# Coordination Sequence:
#
# PCOD9188625 Si02
#       6
#     8   4   8   8   8   2
#     4  11  22  40  63  91 124 161 210 261 313 376
#     4  10  19  36  60  88 118 151 202 256 314 364
#     4  10  22  40  63  92 123 159 206 264 315 377
#     4  11  23  41  62  88 126 168 207 255 315 370
#     4  10  20  36  59  86 117 156 201 256 303 368
#     4  12  24  44  64  90 132 172 218 252 302 388
#
# _framework density 23.744382999999999
#
# number of rings (size 3 to 8) (size 9 to 14) (size 15 to 20)
#    0.000    1.474    2.105    3.474    0.000    0.000 
#    0.000    4.737    0.000    0.000    0.000    0.000 
#    0.000    0.000    0.000    0.000    0.000    0.000 
#
# Total GULP energy -105838.992476 kJ/mol
# GULP energy per Si atom -5570.473288 kJ/mol
# Density = 2.369034 g / cm^3
# Si number density = 23.744383 Si / 1000 Ang^3
#
#
#
# Elastic Constant Matrix: (Units=GPa)
#
#
# Indices 1 2 3 4 5 6 
#
# 1 47.9444 9.8841 8.9008 0.0000 -14.9678 0.0000
# 2 9.8841 85.1878 30.3481 0.0000 -8.1848 0.0000
# 3 8.9008 30.3481 42.5017 0.0000 -13.1859 0.0000
# 4 0.0000 0.0000 0.0000 -2.6494 0.0000 -33.5091
# 5 -14.9678 -8.1848 -13.1859 0.0000 39.4881 0.0000
# 6 0.0000 0.0000 0.0000 -33.5091 0.0000 -102.1204
#
#
#
# Elastic Compliance Matrix: (Units=1/GPa)
#
#
# Indices 1 2 3 4 5 6 
#
# 1 0.024024 -0.001496 -0.001377 0.000000 0.008336 0.000000
# 2 -0.001496 0.015847 -0.011333 0.000000 -0.001067 0.000000
# 3 -0.001377 -0.011333 0.034603 0.000000 0.008684 0.000000
# 4 0.000000 0.000000 0.000000 0.119817 0.000000 -0.039316
# 5 0.008336 -0.001067 0.008684 0.000000 0.031163 0.000000
# 6 0.000000 0.000000 0.000000 -0.039316 0.000000 0.003109
#
#
# Mechanical properties :
#
#
# Convention : Reuss Voigt Hill
#
# Bulk Modulus (GPa) = 21.70950 30.43332 26.07141
# Shear Modulus (GPa) = 18.36014 -4.62294 6.86860
#
# Velocity S-wave (km/s) = 2.78374 -1.39685 1.70265
# Velocity P-wave (km/s) = 4.41533 3.20052 3.85606
#
# Compressibility (1/GPa) = 0.04606278
#
# Stress axis : x y z
#
# Youngs Moduli (GPa) = 41.62500 63.10190 28.89888
#
# Poissons Ratio (x) = 0.09441 0.03978
# Poissons Ratio (y) = 0.06227 0.32752
# Poissons Ratio (z) = 0.05730 0.71516
#
# Static dielectric constant tensor:
#      x y z
#    x 1.926220 0.000000 0.017010 
#    y 0.000000 1.573990 0.000000 
#    z 0.017010 0.000000 1.917570 
# 
# From -- ./inp_files/7626.got.cif
#   From: 2010.05.17/outbox.cif.g08.bks.cpg/sg12_4_cif.got.tgz:7626.got - 2010.06.03 13:09:07.
