data_PCOD9188850
_publ_section_title
;
Structure prediction by ZEFSAII (Michael W. Deem and Ramdas Pophale) SiO2 
 PCOD9188850
Probable space group: C 2/M
;
_chemical_formula_sum "Si O2"
_cell_formula_units_Z 56
_cell_length_a 20.683014
_cell_length_b 8.188471
_cell_length_c 16.260789
_cell_angle_alpha 90.000000
_cell_angle_beta 120.533061
_cell_angle_gamma 90.000000
_cell_volume 2372.088747
_symmetry_space_group_name_H-M "C 2/M"
_symmetry_group_IT_number 12
_symmetry_cell_setting 'monoclinic'
loop_
_space_group_symop_operation_xyz
x,y,z
-x,y,-z
-x,-y,-z
x,-y,z
1/2+x,1/2+y,z
1/2-x,1/2+y,-z
1/2-x,1/2-y,-z
1/2+x,1/2-y,z
loop_
_atom_site_type_symbol
_atom_site_label
_atom_site_fract_x
_atom_site_fract_y
_atom_site_fract_z
Si Si1 0.566409 0.817405 0.092738
Si Si2 0.834933 0.805221 0.568478
Si Si3 0.982472 0.814359 0.179467
Si Si4 0.802385 0.195305 0.727677
Si Si5 0.648009 0.806157 0.687737
Si Si6 0.987270 0.304301 0.618930
Si Si7 0.813792 0.810035 0.103743
O O1 0.526426 0.816005 0.155073
O O2 0.646742 0.739587 0.161024
O O3 0.577114 0.000000 0.066671
O O4 0.500000 0.728725 0.000000
O O5 0.750000 0.750000 0.500000
O O6 0.842940 0.753415 0.669614
O O7 0.899073 0.732730 0.550623
O O8 0.840493 0.000000 0.566452
O O9 0.893656 0.799022 0.108827
O O10 0.997045 0.783442 0.284272
O O11 0.007016 0.000000 0.174851
O O12 0.718246 0.264468 0.682330
O O13 0.797299 0.000000 0.720467
O O14 0.561884 0.749526 0.616540
O O15 0.672080 0.778981 0.799404
O O16 0.646553 0.000000 0.671624
O O17 0.993344 0.500000 0.628909
O O18 0.800171 0.000000 0.114806
O O19 0.750000 0.750000 0.000000
#
# Coordination Sequence:
#
# PCOD9188850 Si02
#       7
#     8   8   8   8   8   8   8
#     4  11  24  37  53  82 118 156 200 249 301 350
#     4  11  23  40  65  94 121 155 198 244 298 361
#     4  10  20  35  54  77 107 151 198 239 288 348
#     4  10  22  41  63  87 119 157 201 247 298 360
#     4   9  20  38  59  84 114 154 195 240 297 354
#     4  10  19  36  62  88 117 150 189 239 292 348
#     4  10  21  34  51  77 110 150 198 247 292 345
#
# _framework density 23.607885
#
# number of rings (size 3 to 8) (size 9 to 14) (size 15 to 20)
#    0.000    1.857    1.429    2.143    2.000    4.571 
#    0.000    0.714    0.000    4.286    0.000    0.000 
#    0.000    0.000    0.000    0.000    0.000    0.000 
#
# Total GULP energy -156181.396008 kJ/mol
# GULP energy per Si atom -5577.907000 kJ/mol
# Density = 2.355415 g / cm^3
# Si number density = 23.607885 Si / 1000 Ang^3
#
#
#
# Elastic Constant Matrix: (Units=GPa)
#
#
# Indices 1 2 3 4 5 6 
#
# 1 164.4668 18.5060 33.9605 0.0000 33.4312 0.0000
# 2 18.5060 45.2643 1.2927 0.0000 9.4879 0.0000
# 3 33.9605 1.2927 75.9591 0.0000 33.5490 0.0000
# 4 0.0000 0.0000 0.0000 18.3670 0.0000 9.1647
# 5 33.4312 9.4879 33.5490 0.0000 39.1131 0.0000
# 6 0.0000 0.0000 0.0000 9.1647 0.0000 17.4144
#
#
#
# Elastic Compliance Matrix: (Units=1/GPa)
#
#
# Indices 1 2 3 4 5 6 
#
# 1 0.007557 -0.002010 -0.001138 0.000000 -0.004995 0.000000
# 2 -0.002010 0.024361 0.003760 0.000000 -0.007416 0.000000
# 3 -0.001138 0.003760 0.021867 0.000000 -0.018696 0.000000
# 4 0.000000 0.000000 0.000000 0.073834 0.000000 -0.038857
# 5 -0.004995 -0.007416 -0.018696 0.000000 0.047672 0.000000
# 6 0.000000 0.000000 0.000000 -0.038857 0.000000 0.077873
#
#
# Mechanical properties :
#
#
# Convention : Reuss Voigt Hill
#
# Bulk Modulus (GPa) = 18.17900 43.68983 30.93442
# Shear Modulus (GPa) = 18.49955 30.44096 24.47026
#
# Velocity S-wave (km/s) = 2.80235 3.59477 3.22301
# Velocity P-wave (km/s) = 4.26474 5.98135 5.19445
#
# Compressibility (1/GPa) = 0.05500852
#
# Stress axis : x y z
#
# Youngs Moduli (GPa) = 132.33089 41.04852 45.73064
#
# Poissons Ratio (x) = 0.08251 0.05205
# Poissons Ratio (y) = 0.26598 -0.17193
# Poissons Ratio (z) = 0.15060 -0.15433
#
# Static dielectric constant tensor:
#      x y z
#    x 1.952370 0.000000 0.024010 
#    y 0.000000 1.839750 0.000000 
#    z 0.024010 0.000000 2.023800 
# 
# From -- ./inp_files/281710.got.cif
#   From: 2010.05.17/outbox.cif.g08.bks.cpg/sg12_141_cif.got.tgz:281710.got - 2010.06.03 13:09:07.
