data_PCOD9188303
_publ_section_title
;
Structure prediction by ZEFSAII (Michael W. Deem and Ramdas Pophale) SiO2 
 PCOD9188303
Probable space group: C 2/M
;
_chemical_formula_sum "Si O2"
_cell_formula_units_Z 44
_cell_length_a 20.628322
_cell_length_b 17.816896
_cell_length_c 6.945326
_cell_angle_alpha 90.000000
_cell_angle_beta 41.216390
_cell_angle_gamma 90.000000
_cell_volume 1681.942587
_symmetry_space_group_name_H-M "C 2/M"
_symmetry_group_IT_number 12
_symmetry_cell_setting 'monoclinic'
loop_
_space_group_symop_operation_xyz
x,y,z
-x,y,-z
-x,-y,-z
x,-y,z
1/2+x,1/2+y,z
1/2-x,1/2+y,-z
1/2-x,1/2-y,-z
1/2+x,1/2-y,z
loop_
_atom_site_type_symbol
_atom_site_label
_atom_site_fract_x
_atom_site_fract_y
_atom_site_fract_z
Si Si1 0.114123 0.916573 0.192536
Si Si2 0.154606 0.919130 0.528011
Si Si3 0.500000 0.702887 0.000000
Si Si4 0.572370 0.183237 0.159725
Si Si5 0.854413 0.415157 0.325050
Si Si6 0.236052 0.789288 0.738928
O O1 0.174101 0.914442 0.257057
O O2 0.000000 0.904623 0.500000
O O3 0.123202 0.000000 0.088047
O O4 0.156615 0.853203 0.964944
O O5 0.251162 0.919496 0.439597
O O6 0.103407 0.000000 0.666394
O O7 0.085627 0.850808 0.734075
O O8 0.469418 0.753944 0.890736
O O9 0.500000 0.173360 0.500000
O O10 0.576857 0.111973 0.005113
O O11 0.681843 0.218242 0.971234
O O12 0.875139 0.500000 0.351645
O O13 0.833769 0.345122 0.519611
O O14 0.250000 0.750000 0.500000
#
# Coordination Sequence:
#
# PCOD9188303 Si02
#       6
#     8   8   4   8   8   8
#     4  10  20  34  56  88 124 159 197 248 307 374
#     4  10  21  36  61  94 125 163 205 252 318 378
#     4  12  21  38  65  92 132 164 200 262 319 380
#     4  11  24  42  62  93 124 166 212 256 314 373
#     4  10  22  42  64  87 122 165 209 258 308 368
#     4  10  19  36  58  84 119 153 197 251 305 361
#
# _framework density 26.160226000000002
#
# number of rings (size 3 to 8) (size 9 to 14) (size 15 to 20)
#    0.000    1.636    1.818    3.545    0.000    0.364 
#    6.545    3.182    0.000    0.545    0.000    0.000 
#    0.000    0.000    0.000    0.000    0.000    0.000 
#
# Total GULP energy -122837.006480 kJ/mol
# GULP energy per Si atom -5583.500295 kJ/mol
# Density = 2.610068 g / cm^3
# Si number density = 26.160226 Si / 1000 Ang^3
#
#
#
# Elastic Constant Matrix: (Units=GPa)
#
#
# Indices 1 2 3 4 5 6 
#
# 1 61.1331 8.7960 -3.7190 0.0000 4.4995 0.0000
# 2 8.7960 168.9889 60.5251 0.0000 -2.1505 0.0000
# 3 -3.7190 60.5251 158.5025 0.0000 13.8178 0.0000
# 4 0.0000 0.0000 0.0000 63.2542 0.0000 -2.1575
# 5 4.4995 -2.1505 13.8178 0.0000 27.5918 0.0000
# 6 0.0000 0.0000 0.0000 -2.1575 0.0000 35.7567
#
#
#
# Elastic Compliance Matrix: (Units=1/GPa)
#
#
# Indices 1 2 3 4 5 6 
#
# 1 0.016883 -0.001359 0.001217 0.000000 -0.003469 0.000000
# 2 -0.001359 0.007064 -0.002924 0.000000 0.002237 0.000000
# 3 0.001217 -0.002924 0.007833 0.000000 -0.004349 0.000000
# 4 0.000000 0.000000 0.000000 0.015842 0.000000 0.000956
# 5 -0.003469 0.002237 -0.004349 0.000000 0.039161 0.000000
# 6 0.000000 0.000000 0.000000 0.000956 0.000000 0.028025
#
#
# Mechanical properties :
#
#
# Convention : Reuss Voigt Hill
#
# Bulk Modulus (GPa) = 38.98856 57.75875 48.37365
# Shear Modulus (GPa) = 38.61343 46.85535 42.73439
#
# Velocity S-wave (km/s) = 3.84609 4.23672 4.04612
# Velocity P-wave (km/s) = 5.88722 6.78674 6.35292
#
# Compressibility (1/GPa) = 0.02564855
#
# Stress axis : x y z
#
# Youngs Moduli (GPa) = 59.23237 141.56018 127.65740
#
# Poissons Ratio (x) = 0.19237 -0.15541
# Poissons Ratio (y) = 0.08049 0.37332
# Poissons Ratio (z) = -0.07211 0.41397
#
# Static dielectric constant tensor:
#      x y z
#    x 2.176500 0.000000 -0.078030 
#    y 0.000000 2.092510 0.000000 
#    z -0.078030 0.000000 2.112710 
# 
# From -- ./inp_files/112553.got.cif
#   From: 2010.05.17/outbox.cif.g08.bks.cpg/sg12_57_cif.got.tgz:112553.got - 2010.06.03 13:09:07.
