data_PCOD9188959
_publ_section_title
;
Structure prediction by ZEFSAII (Michael W. Deem and Ramdas Pophale) SiO2 
 PCOD9188959
Probable space group: C 2/M
;
_chemical_formula_sum "Si O2"
_cell_formula_units_Z 48
_cell_length_a 14.012184
_cell_length_b 13.567859
_cell_length_c 14.242067
_cell_angle_alpha 90.000000
_cell_angle_beta 122.021497
_cell_angle_gamma 90.000000
_cell_volume 2295.666516
_symmetry_space_group_name_H-M "C 2/M"
_symmetry_group_IT_number 12
_symmetry_cell_setting 'monoclinic'
loop_
_space_group_symop_operation_xyz
x,y,z
-x,y,-z
-x,-y,-z
x,-y,z
1/2+x,1/2+y,z
1/2-x,1/2+y,-z
1/2-x,1/2-y,-z
1/2+x,1/2-y,z
loop_
_atom_site_type_symbol
_atom_site_label
_atom_site_fract_x
_atom_site_fract_y
_atom_site_fract_z
Si Si1 0.803619 0.380263 0.072318
Si Si2 0.564586 0.883386 0.189377
Si Si3 0.240466 0.116717 0.842953
Si Si4 0.964657 0.201573 0.376634
Si Si5 0.325432 0.279945 0.627746
Si Si6 0.824917 0.382941 0.294666
O O1 0.800290 0.500000 0.065617
O O2 0.774078 0.357146 0.164789
O O3 0.934412 0.353092 0.124214
O O4 0.731270 0.345507 0.945088
O O5 0.632319 0.868401 0.127794
O O6 0.632882 0.818299 0.298636
O O7 0.569391 0.000000 0.213390
O O8 0.151854 0.158989 0.722906
O O9 0.221222 0.000000 0.833827
O O10 0.939439 0.319323 0.362843
O O11 0.000000 0.172700 0.500000
O O12 0.062604 0.171781 0.356588
O O13 0.250000 0.250000 0.500000
O O14 0.256789 0.346298 0.665278
O O15 0.843810 0.500000 0.308375
#
# Coordination Sequence:
#
# PCOD9188959 Si02
#       6
#     8   8   8   8   8   8
#     4   9  19  38  65  96 129 167 218 268 319 388
#     4  10  19  36  63  95 127 164 214 273 324 371
#     4  10  21  39  64  96 133 169 211 269 328 383
#     4  12  24  43  67  93 129 168 222 268 318 394
#     4  12  24  42  61  94 133 165 217 274 321 387
#     4  11  24  43  66  95 131 171 213 266 329 383
#
# _framework density 20.90896
#
# number of rings (size 3 to 8) (size 9 to 14) (size 15 to 20)
#    0.000    1.333    5.000    0.500    0.000    4.667 
#    0.000    0.833    0.000    3.000    0.000    0.000 
#    0.000    0.000    0.000    0.000    0.000    0.000 
#
# Total GULP energy -134022.011182 kJ/mol
# GULP energy per Si atom -5584.250466 kJ/mol
# Density = 2.086137 g / cm^3
# Si number density = 20.908960 Si / 1000 Ang^3
#
#
#
# Elastic Constant Matrix: (Units=GPa)
#
#
# Indices 1 2 3 4 5 6 
#
# 1 93.2906 16.2749 33.6137 0.0000 -13.6488 0.0000
# 2 16.2749 43.3822 38.8052 0.0000 -12.5042 0.0000
# 3 33.6137 38.8052 164.2331 0.0000 -17.1838 0.0000
# 4 0.0000 0.0000 0.0000 21.6645 0.0000 -2.2500
# 5 -13.6488 -12.5042 -17.1838 0.0000 30.1528 0.0000
# 6 0.0000 0.0000 0.0000 -2.2500 0.0000 28.3508
#
#
#
# Elastic Compliance Matrix: (Units=1/GPa)
#
#
# Indices 1 2 3 4 5 6 
#
# 1 0.012210 -0.002047 -0.001623 0.000000 0.003753 0.000000
# 2 -0.002047 0.031890 -0.006199 0.000000 0.008765 0.000000
# 3 -0.001623 -0.006199 0.008018 0.000000 0.001264 0.000000
# 4 0.000000 0.000000 0.000000 0.046542 0.000000 0.003694
# 5 0.003753 0.008765 0.001264 0.000000 0.039219 0.000000
# 6 0.000000 0.000000 0.000000 0.003694 0.000000 0.035565
#
#
# Mechanical properties :
#
#
# Convention : Reuss Voigt Hill
#
# Bulk Modulus (GPa) = 30.88274 53.14371 42.01323
# Shear Modulus (GPa) = 24.51266 30.18110 27.34688
#
# Velocity S-wave (km/s) = 3.42768 3.80340 3.62042
# Velocity P-wave (km/s) = 5.51973 6.69027 6.13299
#
# Compressibility (1/GPa) = 0.03238054
#
# Stress axis : x y z
#
# Youngs Moduli (GPa) = 81.89924 31.35742 124.71988
#
# Poissons Ratio (x) = 0.06420 0.20237
# Poissons Ratio (y) = 0.16769 0.77313
# Poissons Ratio (z) = 0.13289 0.19438
#
# Static dielectric constant tensor:
#      x y z
#    x 1.777240 0.000000 -0.027120 
#    y 0.000000 1.777980 0.000000 
#    z -0.027120 0.000000 1.762070 
# 
# From -- ./inp_files/143891.got.cif
#   From: 2010.05.17/outbox.cif.g08.bks.cpg/sg12_72_cif.got.tgz:143891.got - 2010.06.03 13:09:07.
