data_PCOD9188932
_publ_section_title
;
Structure prediction by ZEFSAII (Michael W. Deem and Ramdas Pophale) SiO2 
 PCOD9188932
Probable space group: C 2/M
;
_chemical_formula_sum "Si O2"
_cell_formula_units_Z 48
_cell_length_a 20.994418
_cell_length_b 8.517670
_cell_length_c 21.711158
_cell_angle_alpha 90.000000
_cell_angle_beta 138.245828
_cell_angle_gamma 90.000000
_cell_volume 2585.473695
_symmetry_space_group_name_H-M "C 2/M"
_symmetry_group_IT_number 12
_symmetry_cell_setting 'monoclinic'
loop_
_space_group_symop_operation_xyz
x,y,z
-x,y,-z
-x,-y,-z
x,-y,z
1/2+x,1/2+y,z
1/2-x,1/2+y,-z
1/2-x,1/2-y,-z
1/2+x,1/2-y,z
loop_
_atom_site_type_symbol
_atom_site_label
_atom_site_fract_x
_atom_site_fract_y
_atom_site_fract_z
Si Si1 0.796389 0.808680 0.742858
Si Si2 0.901875 0.691729 0.460508
Si Si3 0.609839 0.310262 0.063041
Si Si4 0.042577 0.188404 0.239853
Si Si5 0.347946 0.813523 0.042014
Si Si6 0.142620 0.311507 0.432734
O O1 0.692779 0.756676 0.644555
O O2 0.825089 0.760027 0.832296
O O3 0.878370 0.759667 0.753708
O O4 0.796510 0.000000 0.742733
O O5 0.901767 0.500000 0.459403
O O6 0.892536 0.738930 0.524984
O O7 0.000000 0.744830 0.500000
O O8 0.614082 0.500000 0.060824
O O9 0.500000 0.269697 0.000000
O O10 0.640811 0.239079 0.020717
O O11 0.075957 0.249844 0.330054
O O12 0.939307 0.247536 0.144656
O O13 0.042597 0.000000 0.240387
O O14 0.348602 0.000000 0.046244
O O15 0.250000 0.750000 0.000000
O O16 0.144426 0.500000 0.432643
O O17 0.250000 0.250000 0.500000
#
# Coordination Sequence:
#
# PCOD9188932 Si02
#       6
#     8   8   8   8   8   8
#     4   9  17  32  57  86 116 158 201 242 295 362
#     4   9  18  33  54  84 119 154 198 246 292 351
#     4  10  19  36  63  90 118 158 205 247 301 368
#     4  11  21  39  63  89 121 159 205 253 308 370
#     4  12  26  43  62  90 126 162 203 254 313 370
#     4  11  21  35  59  91 121 158 206 255 304 361
#
# _framework density 18.565263999999999
#
# number of rings (size 3 to 8) (size 9 to 14) (size 15 to 20)
#    0.000    1.667    3.333    2.500    0.000    1.667 
#    0.000    3.333    0.000    2.000    0.000    0.000 
#    0.000    0.000    0.000    0.000    0.000    0.000 
#
# Total GULP energy -134084.950332 kJ/mol
# GULP energy per Si atom -5586.872930 kJ/mol
# Density = 1.852301 g / cm^3
# Si number density = 18.565264 Si / 1000 Ang^3
#
#
#
# Elastic Constant Matrix: (Units=GPa)
#
#
# Indices 1 2 3 4 5 6 
#
# 1 184.7649 44.9814 123.8104 0.0000 2.0967 0.0000
# 2 44.9814 49.4682 43.3597 0.0000 -3.3834 0.0000
# 3 123.8104 43.3597 221.9980 0.0000 -7.9366 0.0000
# 4 0.0000 0.0000 0.0000 29.0783 0.0000 -4.2694
# 5 2.0967 -3.3834 -7.9366 0.0000 37.8931 0.0000
# 6 0.0000 0.0000 0.0000 -4.2694 0.0000 26.2355
#
#
#
# Elastic Compliance Matrix: (Units=1/GPa)
#
#
# Indices 1 2 3 4 5 6 
#
# 1 0.009645 -0.004979 -0.004475 0.000000 -0.001915 0.000000
# 2 -0.004979 0.027014 -0.002422 0.000000 0.002180 0.000000
# 3 -0.004475 -0.002422 0.007531 0.000000 0.001609 0.000000
# 4 0.000000 0.000000 0.000000 0.035232 0.000000 0.005733
# 5 -0.001915 0.002180 0.001609 0.000000 0.027028 0.000000
# 6 0.000000 0.000000 0.000000 0.005733 0.000000 0.039049
#
#
# Mechanical properties :
#
#
# Convention : Reuss Voigt Hill
#
# Bulk Modulus (GPa) = 48.92663 97.83712 73.38188
# Shear Modulus (GPa) = 28.39917 34.91336 31.65627
#
# Velocity S-wave (km/s) = 3.91537 4.34126 4.13381
# Velocity P-wave (km/s) = 6.84480 8.82849 7.89916
#
# Compressibility (1/GPa) = 0.02043877
#
# Stress axis : x y z
#
# Youngs Moduli (GPa) = 103.68288 37.01824 132.78700
#
# Poissons Ratio (x) = 0.18430 0.59423
# Poissons Ratio (y) = 0.51619 0.32157
# Poissons Ratio (z) = 0.46399 0.08965
#
# Static dielectric constant tensor:
#      x y z
#    x 1.612710 0.000000 -0.004150 
#    y 0.000000 1.639870 0.000000 
#    z -0.004150 0.000000 1.619720 
# 
# From -- ./inp_files/320303.got.cif
#   From: 2010.05.17/outbox.cif.g08.bks.cpg/sg12_161_cif.got.tgz:320303.got - 2010.06.03 13:09:07.
