data_PCOD9188650
_publ_section_title
;
Structure prediction by ZEFSAII (Michael W. Deem and Ramdas Pophale) SiO2 
 PCOD9188650
Probable space group: C 2/M
;
_chemical_formula_sum "Si O2"
_cell_formula_units_Z 64
_cell_length_a 9.431783
_cell_length_b 17.240436
_cell_length_c 20.383187
_cell_angle_alpha 90.000000
_cell_angle_beta 86.780024
_cell_angle_gamma 90.000000
_cell_volume 3309.237567
_symmetry_space_group_name_H-M "C 2/M"
_symmetry_group_IT_number 12
_symmetry_cell_setting 'monoclinic'
loop_
_space_group_symop_operation_xyz
x,y,z
-x,y,-z
-x,-y,-z
x,-y,z
1/2+x,1/2+y,z
1/2-x,1/2+y,-z
1/2-x,1/2-y,-z
1/2+x,1/2-y,z
loop_
_atom_site_type_symbol
_atom_site_label
_atom_site_fract_x
_atom_site_fract_y
_atom_site_fract_z
Si Si1 0.796514 0.408370 0.179024
Si Si2 0.044221 0.589282 0.073650
Si Si3 0.335993 0.825495 0.520636
Si Si4 0.047882 0.808084 0.148383
Si Si5 0.629035 0.225879 0.732726
Si Si6 0.777944 0.790363 0.070224
Si Si7 0.612158 0.252080 0.354872
Si Si8 0.874814 0.090015 0.557290
O O1 0.805907 0.500000 0.187336
O O2 0.634252 0.386013 0.164305
O O3 0.850273 0.360554 0.240325
O O4 0.911202 0.382339 0.120405
O O5 0.059763 0.500000 0.089542
O O6 0.195574 0.628809 0.074965
O O7 0.000000 0.599121 0.000000
O O8 0.500000 0.817065 0.500000
O O9 0.250000 0.750000 0.500000
O O10 0.332736 0.815802 0.598706
O O11 0.266181 0.895443 0.482743
O O12 0.953679 0.776949 0.211246
O O13 0.939498 0.802891 0.089405
O O14 0.184101 0.756260 0.125859
O O15 0.543851 0.232628 0.666987
O O16 0.787515 0.251002 0.711056
O O17 0.750000 0.750000 0.000000
O O18 0.615858 0.337762 0.390506
O O19 0.000000 0.099679 0.500000
O O20 0.879888 0.000000 0.581931
#
# Coordination Sequence:
#
# PCOD9188650 Si02
#       8
#     8   8   8   8   8   8   8   8
#     4  11  24  43  63  88 127 168 208 265 324 370
#     4  10  21  39  62  88 122 161 201 256 327 385
#     4  10  19  36  60  90 118 153 201 253 306 368
#     4  12  22  40  60  88 124 163 212 256 313 374
#     4  12  22  39  60  87 121 168 213 259 292 373
#     4  12  22  36  64  95 121 155 212 268 315 379
#     4  11  21  36  63  88 120 164 215 254 298 372
#     4  10  21  39  62  92 130 164 198 258 325 370
#
# _framework density 19.339801999999999
#
# number of rings (size 3 to 8) (size 9 to 14) (size 15 to 20)
#    0.000    1.000    3.750    5.625    0.000    1.250 
#    0.000    0.625    0.000    4.500    0.000    0.000 
#    0.000    0.000    0.000    0.000    0.000    0.000 
#
# Total GULP energy -178290.903654 kJ/mol
# GULP energy per Si atom -5571.590739 kJ/mol
# Density = 1.929578 g / cm^3
# Si number density = 19.339802 Si / 1000 Ang^3
#
#
#
# Elastic Constant Matrix: (Units=GPa)
#
#
# Indices 1 2 3 4 5 6 
#
# 1 128.8379 38.5641 21.9063 0.0000 8.4305 0.0000
# 2 38.5641 83.9462 22.8553 0.0000 5.4301 0.0000
# 3 21.9063 22.8553 77.7935 0.0000 2.7831 0.0000
# 4 0.0000 0.0000 0.0000 24.5646 0.0000 3.7661
# 5 8.4305 5.4301 2.7831 0.0000 43.6167 0.0000
# 6 0.0000 0.0000 0.0000 3.7661 0.0000 31.8363
#
#
#
# Elastic Compliance Matrix: (Units=1/GPa)
#
#
# Indices 1 2 3 4 5 6 
#
# 1 0.009213 -0.003760 -0.001446 0.000000 -0.001220 0.000000
# 2 -0.003760 0.014565 -0.003189 0.000000 -0.000883 0.000000
# 3 -0.001446 -0.003189 0.014207 0.000000 -0.000230 0.000000
# 4 0.000000 0.000000 0.000000 0.041461 0.000000 -0.004905
# 5 -0.001220 -0.000883 -0.000230 0.000000 0.023287 0.000000
# 6 0.000000 0.000000 0.000000 -0.004905 0.000000 0.031991
#
#
# Mechanical properties :
#
#
# Convention : Reuss Voigt Hill
#
# Bulk Modulus (GPa) = 47.17982 50.80323 48.99152
# Shear Modulus (GPa) = 31.53030 33.82033 32.67531
#
# Velocity S-wave (km/s) = 4.04212 4.18633 4.11486
# Velocity P-wave (km/s) = 6.79949 7.04932 6.92553
#
# Compressibility (1/GPa) = 0.02119550
#
# Stress axis : x y z
#
# Youngs Moduli (GPa) = 108.54513 68.65852 70.38873
#
# Poissons Ratio (x) = 0.25813 0.10179
# Poissons Ratio (y) = 0.40809 0.22445
# Poissons Ratio (z) = 0.15696 0.21894
#
# Static dielectric constant tensor:
#      x y z
#    x 1.716830 0.000000 0.021260 
#    y 0.000000 1.705360 0.000000 
#    z 0.021260 0.000000 1.769600 
# 
# From -- ./inp_files/300778.got.cif
#   From: 2010.05.17/outbox.cif.g08.bks.cpg/sg12_151_cif.got.tgz:300778.got - 2010.06.03 13:09:07.
