data_PCOD9188412
_publ_section_title
;
Structure prediction by ZEFSAII (Michael W. Deem and Ramdas Pophale) SiO2 
 PCOD9188412
Probable space group: C 2/M
;
_chemical_formula_sum "Si O2"
_cell_formula_units_Z 48
_cell_length_a 25.289658
_cell_length_b 13.968712
_cell_length_c 11.274774
_cell_angle_alpha 90.000000
_cell_angle_beta 150.741569
_cell_angle_gamma 90.000000
_cell_volume 1946.675667
_symmetry_space_group_name_H-M "C 2/M"
_symmetry_group_IT_number 12
_symmetry_cell_setting 'monoclinic'
loop_
_space_group_symop_operation_xyz
x,y,z
-x,y,-z
-x,-y,-z
x,-y,z
1/2+x,1/2+y,z
1/2-x,1/2+y,-z
1/2-x,1/2-y,-z
1/2+x,1/2-y,z
loop_
_atom_site_type_symbol
_atom_site_label
_atom_site_fract_x
_atom_site_fract_y
_atom_site_fract_z
Si Si1 0.680305 0.106441 0.772716
Si Si2 0.121195 0.398257 0.126846
Si Si3 0.121381 0.191058 0.733163
Si Si4 0.059799 0.178641 0.991389
Si Si5 0.846874 0.851643 0.470009
Si Si6 0.690320 0.860181 0.524442
O O1 0.623439 0.192910 0.732551
O O2 0.652370 0.103821 0.578823
O O3 0.667118 0.000000 0.796951
O O4 0.804652 0.143287 0.023101
O O5 0.068153 0.500000 0.988375
O O6 0.244223 0.404640 0.320623
O O7 0.132442 0.394203 0.292007
O O8 0.076333 0.293747 0.997656
O O9 0.170989 0.161023 0.704243
O O10 0.000000 0.157603 0.500000
O O11 0.973644 0.126685 0.736647
O O12 0.179092 0.132179 0.230051
O O13 0.000000 0.170074 0.000000
O O14 0.834456 0.751586 0.514291
#
# Coordination Sequence:
#
# PCOD9188412 Si02
#       6
#     8   8   8   8   8   8
#     4  10  22  40  63  89 118 154 196 246 298 351
#     4  11  22  35  56  90 122 149 189 242 289 338
#     4  10  22  41  63  87 115 156 199 248 297 349
#     4  11  18  35  59  82 111 161 195 226 281 350
#     4  10  20  38  58  81 117 156 195 229 290 352
#     4  10  19  36  59  83 119 157 191 230 287 354
#
# _framework density 24.657419000000001
#
# number of rings (size 3 to 8) (size 9 to 14) (size 15 to 20)
#    0.000    1.667    3.333    2.500    0.000    3.000 
#    0.000    5.000    0.000    0.000    0.000    0.000 
#    0.000    0.000    0.000    0.000    0.000    0.000 
#
# Total GULP energy -134026.260558 kJ/mol
# GULP energy per Si atom -5584.427523 kJ/mol
# Density = 2.460130 g / cm^3
# Si number density = 24.657419 Si / 1000 Ang^3
#
#
#
# Elastic Constant Matrix: (Units=GPa)
#
#
# Indices 1 2 3 4 5 6 
#
# 1 46.5294 4.0112 13.7988 0.0000 -9.3909 0.0000
# 2 4.0112 90.2432 -13.4100 0.0000 -20.6586 0.0000
# 3 13.7988 -13.4100 97.7084 0.0000 7.1073 0.0000
# 4 0.0000 0.0000 0.0000 -5.6127 0.0000 3.3588
# 5 -9.3909 -20.6586 7.1073 0.0000 35.1404 0.0000
# 6 0.0000 0.0000 0.0000 3.3588 0.0000 0.2601
#
#
#
# Elastic Compliance Matrix: (Units=1/GPa)
#
#
# Indices 1 2 3 4 5 6 
#
# 1 0.024120 0.000001 -0.003933 0.000000 0.007242 0.000000
# 2 0.000001 0.012951 0.001242 0.000000 0.007363 0.000000
# 3 -0.003933 0.001242 0.011148 0.000000 -0.002576 0.000000
# 4 0.000000 0.000000 0.000000 -0.020412 0.000000 0.263614
# 5 0.007242 0.007363 -0.002576 0.000000 0.035242 0.000000
# 6 0.000000 0.000000 0.000000 0.263614 0.000000 0.440513
#
#
# Mechanical properties :
#
#
# Convention : Reuss Voigt Hill
#
# Bulk Modulus (GPa) = 23.34329 27.03122 25.18725
# Shear Modulus (GPa) = 9.55620 21.29629 15.42625
#
# Velocity S-wave (km/s) = 1.97079 2.94204 2.50396
# Velocity P-wave (km/s) = 3.82966 4.74630 4.31240
#
# Compressibility (1/GPa) = 0.04283886
#
# Stress axis : x y z
#
# Youngs Moduli (GPa) = 41.46005 77.21303 89.70440
#
# Poissons Ratio (x) = -0.00010 0.35280
# Poissons Ratio (y) = -0.00006 -0.11139
# Poissons Ratio (z) = 0.16306 -0.09588
#
# Static dielectric constant tensor:
#      x y z
#    x 1.944160 0.000000 0.001120 
#    y 0.000000 1.403660 0.000000 
#    z 0.001120 0.000000 2.044120 
# 
# From -- ./inp_files/183659.got.cif
#   From: 2010.05.17/outbox.cif.g08.bks.cpg/sg12_92_cif.got.tgz:183659.got - 2010.06.03 13:09:07.
