data_PCOD9188524
_publ_section_title
;
Structure prediction by ZEFSAII (Michael W. Deem and Ramdas Pophale) SiO2 
 PCOD9188524
Probable space group: C 2/M
;
_chemical_formula_sum "Si O2"
_cell_formula_units_Z 40
_cell_length_a 10.873704
_cell_length_b 25.629810
_cell_length_c 11.376164
_cell_angle_alpha 90.000000
_cell_angle_beta 142.013630
_cell_angle_gamma 90.000000
_cell_volume 1951.319787
_symmetry_space_group_name_H-M "C 2/M"
_symmetry_group_IT_number 12
_symmetry_cell_setting 'monoclinic'
loop_
_space_group_symop_operation_xyz
x,y,z
-x,y,-z
-x,-y,-z
x,-y,z
1/2+x,1/2+y,z
1/2-x,1/2+y,-z
1/2-x,1/2-y,-z
1/2+x,1/2-y,z
loop_
_atom_site_type_symbol
_atom_site_label
_atom_site_fract_x
_atom_site_fract_y
_atom_site_fract_z
Si Si1 0.630298 0.789137 0.991803
Si Si2 0.674469 0.387549 0.727410
Si Si3 0.791899 0.559797 0.411835
Si Si4 0.958583 0.381608 0.742840
Si Si5 0.638953 0.559829 0.942925
O O1 0.765438 0.834065 0.157864
O O2 0.500000 0.765065 0.000000
O O3 0.750000 0.750000 0.000000
O O4 0.485574 0.821422 0.795262
O O5 0.500000 0.379464 0.500000
O O6 0.626906 0.429072 0.792922
O O7 0.863563 0.404638 0.790495
O O8 0.772102 0.500000 0.442833
O O9 0.588307 0.570008 0.187443
O O10 0.000000 0.561232 0.500000
O O11 0.814853 0.602612 0.529874
O O12 0.176132 0.404976 0.878647
O O13 0.688845 0.500000 0.006674
#
# Coordination Sequence:
#
# PCOD9188524 Si02
#       5
#     8   8   8   8   8
#     4   9  20  40  60  83 114 146 186 239 294 345
#     4  10  19  36  60  83 115 147 181 238 288 333
#     4  10  21  36  53  80 118 154 194 233 272 332
#     4  10  20  37  58  80 115 150 184 235 290 334
#     4  10  20  33  55  84 113 151 191 227 276 335
#
# _framework density 20.498947000000001
#
# number of rings (size 3 to 8) (size 9 to 14) (size 15 to 20)
#    0.000    2.200    2.000    2.400    0.000    3.600 
#    7.200    8.000    0.000    0.000    0.000    0.000 
#    0.000    0.000    0.000    0.000    0.000    0.000 
#
# Total GULP energy -111480.274088 kJ/mol
# GULP energy per Si atom -5574.013704 kJ/mol
# Density = 2.045229 g / cm^3
# Si number density = 20.498947 Si / 1000 Ang^3
#
#
#
# Elastic Constant Matrix: (Units=GPa)
#
#
# Indices 1 2 3 4 5 6 
#
# 1 96.4341 39.4089 14.6280 0.0000 22.0924 0.0000
# 2 39.4089 38.0124 13.5261 0.0000 0.6312 0.0000
# 3 14.6280 13.5261 80.8937 0.0000 -0.9183 0.0000
# 4 0.0000 0.0000 0.0000 16.3335 0.0000 5.6857
# 5 22.0924 0.6312 -0.9183 0.0000 41.8253 0.0000
# 6 0.0000 0.0000 0.0000 5.6857 0.0000 24.2047
#
#
#
# Elastic Compliance Matrix: (Units=1/GPa)
#
#
# Indices 1 2 3 4 5 6 
#
# 1 0.022438 -0.022946 -0.000351 0.000000 -0.011513 0.000000
# 2 -0.022946 0.051449 -0.004326 0.000000 0.011249 0.000000
# 3 -0.000351 -0.004326 0.013155 0.000000 0.000540 0.000000
# 4 0.000000 0.000000 0.000000 0.066676 0.000000 -0.015662
# 5 -0.011513 0.011249 0.000540 0.000000 0.029832 0.000000
# 6 0.000000 0.000000 0.000000 -0.015662 0.000000 0.044993
#
#
# Mechanical properties :
#
#
# Convention : Reuss Voigt Hill
#
# Bulk Modulus (GPa) = 31.45113 38.94067 35.19590
# Shear Modulus (GPa) = 16.98444 26.32451 21.65447
#
# Velocity S-wave (km/s) = 2.88158 3.58744 3.25371
# Velocity P-wave (km/s) = 5.14271 6.01642 5.59664
#
# Compressibility (1/GPa) = 0.03179536
#
# Stress axis : x y z
#
# Youngs Moduli (GPa) = 44.56768 19.43689 76.01754
#
# Poissons Ratio (x) = 0.44600 0.02671
# Poissons Ratio (y) = 1.02265 0.32883
# Poissons Ratio (z) = 0.01566 0.08408
#
# Static dielectric constant tensor:
#      x y z
#    x 1.807860 0.000000 0.026280 
#    y 0.000000 1.684180 0.000000 
#    z 0.026280 0.000000 1.790910 
# 
# From -- ./inp_files/80290.got.cif
#   From: 2010.05.17/outbox.cif.g08.bks.cpg/sg12_41_cif.got.tgz:80290.got - 2010.06.03 13:09:07.
