data_PCOD9188168
_publ_section_title
;
Structure prediction by ZEFSAII (Michael W. Deem and Ramdas Pophale) SiO2 
 PCOD9188168
Probable space group: C 2/M
;
_chemical_formula_sum "Si O2"
_cell_formula_units_Z 56
_cell_length_a 29.862264
_cell_length_b 8.803207
_cell_length_c 22.305945
_cell_angle_alpha 90.000000
_cell_angle_beta 149.358064
_cell_angle_gamma 90.000000
_cell_volume 2988.645672
_symmetry_space_group_name_H-M "C 2/M"
_symmetry_group_IT_number 12
_symmetry_cell_setting 'monoclinic'
loop_
_space_group_symop_operation_xyz
x,y,z
-x,y,-z
-x,-y,-z
x,-y,z
1/2+x,1/2+y,z
1/2-x,1/2+y,-z
1/2-x,1/2-y,-z
1/2+x,1/2-y,z
loop_
_atom_site_type_symbol
_atom_site_label
_atom_site_fract_x
_atom_site_fract_y
_atom_site_fract_z
Si Si1 0.741027 0.682544 0.208430
Si Si2 0.269310 0.318970 0.117214
Si Si3 0.116289 0.182405 0.865273
Si Si4 0.783201 0.317312 0.390707
Si Si5 0.411172 0.317793 0.633831
Si Si6 0.535728 0.679800 0.973434
Si Si7 0.121687 0.680363 0.277602
O O1 0.744491 0.500000 0.208618
O O2 0.785563 0.752483 0.201401
O O3 0.781370 0.727652 0.318762
O O4 0.637590 0.724949 0.088822
O O5 0.266788 0.500000 0.117059
O O6 0.340956 0.274166 0.149468
O O7 0.176434 0.257551 0.985265
O O8 0.014338 0.222209 0.751458
O O9 0.123849 0.000000 0.880390
O O10 0.786051 0.500000 0.397573
O O11 0.861917 0.244862 0.518959
O O12 0.693551 0.259486 0.318104
O O13 0.402739 0.500000 0.627147
O O14 0.369933 0.243810 0.645641
O O15 0.529085 0.500000 0.950376
O O16 0.473625 0.772826 0.857648
O O17 0.500000 0.697667 0.000000
O O18 0.133455 0.500000 0.290270
#
# Coordination Sequence:
#
# PCOD9188168 Si02
#       7
#     8   8   8   8   8   8   8
#     4  10  21  37  58  82 113 152 187 224 282 339
#     4  10  20  35  60  90 116 143 182 231 279 331
#     4   9  20  39  60  84 115 149 183 225 282 339
#     4  11  23  41  59  79 111 152 194 233 276 332
#     4  11  23  40  60  81 109 149 193 234 280 333
#     4  10  19  36  57  79 111 151 187 225 275 331
#     4  12  24  37  56  85 116 148 188 235 284 332
#
# _framework density 18.737583999999998
#
# number of rings (size 3 to 8) (size 9 to 14) (size 15 to 20)
#    0.000    1.571    1.429    3.857    0.000    7.143 
#    0.000    0.714    0.000    4.286    0.000    0.000 
#    0.000    0.000    0.000    0.000    0.000    0.000 
#
# Total GULP energy -156534.958638 kJ/mol
# GULP energy per Si atom -5590.534237 kJ/mol
# Density = 1.869494 g / cm^3
# Si number density = 18.737584 Si / 1000 Ang^3
#
#
#
# Elastic Constant Matrix: (Units=GPa)
#
#
# Indices 1 2 3 4 5 6 
#
# 1 83.5756 18.2893 30.7687 0.0000 -34.2632 0.0000
# 2 18.2893 29.7090 19.2981 0.0000 -10.5674 0.0000
# 3 30.7687 19.2981 73.1158 0.0000 -26.2999 0.0000
# 4 0.0000 0.0000 0.0000 30.7161 0.0000 -5.2401
# 5 -34.2632 -10.5674 -26.2999 0.0000 27.2315 0.0000
# 6 0.0000 0.0000 0.0000 -5.2401 0.0000 27.9337
#
#
#
# Elastic Compliance Matrix: (Units=1/GPa)
#
#
# Indices 1 2 3 4 5 6 
#
# 1 0.025566 -0.005821 0.002353 0.000000 0.032182 0.000000
# 2 -0.005821 0.043209 -0.008517 0.000000 0.001219 0.000000
# 3 0.002353 -0.008517 0.022695 0.000000 0.021575 0.000000
# 4 0.000000 0.000000 0.000000 0.033633 0.000000 0.006309
# 5 0.032182 0.001219 0.021575 0.000000 0.098523 0.000000
# 6 0.000000 0.000000 0.000000 0.006309 0.000000 0.036983
#
#
# Mechanical properties :
#
#
# Convention : Reuss Voigt Hill
#
# Bulk Modulus (GPa) = 14.81436 35.90139 25.35787
# Shear Modulus (GPa) = 16.28258 25.04588 20.66423
#
# Velocity S-wave (km/s) = 2.95104 3.66001 3.32448
# Velocity P-wave (km/s) = 4.41984 6.08790 5.31966
#
# Compressibility (1/GPa) = 0.06750207
#
# Stress axis : x y z
#
# Youngs Moduli (GPa) = 39.11435 23.14346 44.06283
#
# Poissons Ratio (x) = 0.13471 -0.10370
# Poissons Ratio (y) = 0.22767 0.37527
# Poissons Ratio (z) = -0.09205 0.19711
#
# Static dielectric constant tensor:
#      x y z
#    x 1.646810 0.000000 -0.001780 
#    y 0.000000 1.625980 0.000000 
#    z -0.001780 0.000000 1.633880 
# 
# From -- ./inp_files/238936.got.cif
#   From: 2010.05.17/outbox.cif.g08.bks.cpg/sg12_120_cif.got.tgz:238936.got - 2010.06.03 13:09:07.
