data_PCOD9188223
_publ_section_title
;
Structure prediction by ZEFSAII (Michael W. Deem and Ramdas Pophale) SiO2 
 PCOD9188223
Probable space group: C 2/M
;
_chemical_formula_sum "Si O2"
_cell_formula_units_Z 40
_cell_length_a 18.476175
_cell_length_b 18.449621
_cell_length_c 7.590891
_cell_angle_alpha 90.000000
_cell_angle_beta 133.175803
_cell_angle_gamma 90.000000
_cell_volume 1887.005953
_symmetry_space_group_name_H-M "C 2/M"
_symmetry_group_IT_number 12
_symmetry_cell_setting 'monoclinic'
loop_
_space_group_symop_operation_xyz
x,y,z
-x,y,-z
-x,-y,-z
x,-y,z
1/2+x,1/2+y,z
1/2-x,1/2+y,-z
1/2-x,1/2-y,-z
1/2+x,1/2-y,z
loop_
_atom_site_type_symbol
_atom_site_label
_atom_site_fract_x
_atom_site_fract_y
_atom_site_fract_z
Si Si1 0.613016 0.392268 0.668578
Si Si2 0.289982 0.362129 0.827334
Si Si3 0.090295 0.723577 0.534369
Si Si4 0.640754 0.770640 0.234307
Si Si5 0.224443 0.421011 0.344236
O O1 0.500000 0.416311 0.500000
O O2 0.610706 0.305355 0.630775
O O3 0.679464 0.420536 0.620288
O O4 0.666589 0.407260 0.941498
O O5 0.189234 0.323221 0.723858
O O6 0.368642 0.297803 0.909412
O O7 0.262105 0.406009 0.605808
O O8 0.071438 0.725282 0.291046
O O9 0.000000 0.695045 0.500000
O O10 0.750000 0.750000 0.500000
O O11 0.656773 0.850909 0.184237
O O12 0.175666 0.500000 0.251247
#
# Coordination Sequence:
#
# PCOD9188223 Si02
#       5
#     8   8   8   8   8
#     4  11  21  33  54  82 111 141 184 225 267 319
#     4  10  19  36  58  75 112 146 181 225 271 313
#     4   9  16  31  55  85 106 131 177 227 275 314
#     4   8  15  33  54  77 105 139 180 224 268 314
#     4  10  20  36  54  78 113 148 181 219 269 329
#
# _framework density 21.197600000000001
#
# number of rings (size 3 to 8) (size 9 to 14) (size 15 to 20)
#    0.000    2.800    6.000    0.600    0.000    2.000 
#    0.000    1.000    0.000    9.600    0.000    5.600 
#    0.000    0.800    0.000    0.000    0.000    0.000 
#
# Total GULP energy -111598.837013 kJ/mol
# GULP energy per Si atom -5579.941851 kJ/mol
# Density = 2.114935 g / cm^3
# Si number density = 21.197600 Si / 1000 Ang^3
#
#
#
# Elastic Constant Matrix: (Units=GPa)
#
#
# Indices 1 2 3 4 5 6 
#
# 1 147.3954 4.9484 23.7274 0.0000 -11.5314 0.0000
# 2 4.9484 71.0995 1.3765 0.0000 -5.3227 0.0000
# 3 23.7274 1.3765 37.0965 0.0000 -8.5732 0.0000
# 4 0.0000 0.0000 0.0000 -10.8626 0.0000 -7.5444
# 5 -11.5314 -5.3227 -8.5732 0.0000 23.7834 0.0000
# 6 0.0000 0.0000 0.0000 -7.5444 0.0000 -29.2917
#
#
#
# Elastic Compliance Matrix: (Units=1/GPa)
#
#
# Indices 1 2 3 4 5 6 
#
# 1 0.007666 -0.000294 -0.004417 0.000000 0.002059 0.000000
# 2 -0.000294 0.014317 0.000397 0.000000 0.003205 0.000000
# 3 -0.004417 0.000397 0.031955 0.000000 0.009466 0.000000
# 4 0.000000 0.000000 0.000000 -0.112115 0.000000 0.028876
# 5 0.002059 0.003205 0.009466 0.000000 0.047174 0.000000
# 6 0.000000 0.000000 0.000000 0.028876 0.000000 -0.041577
#
#
# Mechanical properties :
#
#
# Convention : Reuss Voigt Hill
#
# Bulk Modulus (GPa) = 22.06918 35.07734 28.57326
# Shear Modulus (GPa) = -173.31959 11.76178 -80.77891
#
# Velocity S-wave (km/s) = -9.05214 2.35811 -6.17983
# Velocity P-wave (km/s) = 9.94089 4.89877 6.11651
#
# Compressibility (1/GPa) = 0.04531205
#
# Stress axis : x y z
#
# Youngs Moduli (GPa) = 130.43861 69.84465 31.29438
#
# Poissons Ratio (x) = 0.02053 0.13822
# Poissons Ratio (y) = 0.03834 -0.01244
# Poissons Ratio (z) = 0.57612 -0.02776
#
# Static dielectric constant tensor:
#      x y z
#    x 1.791240 0.000000 0.012640 
#    y 0.000000 1.853020 0.000000 
#    z 0.012640 0.000000 1.848960 
# 
# From -- ./inp_files/74708.got.cif
#   From: 2010.05.17/outbox.cif.g08.bks.cpg/sg12_38_cif.got.tgz:74708.got - 2010.06.03 13:09:07.
