data_PCOD9188736
_publ_section_title
;
Structure prediction by ZEFSAII (Michael W. Deem and Ramdas Pophale) SiO2 
 PCOD9188736
Probable space group: C 2/M
;
_chemical_formula_sum "Si O2"
_cell_formula_units_Z 64
_cell_length_a 19.909932
_cell_length_b 8.918538
_cell_length_c 31.369983
_cell_angle_alpha 90.000000
_cell_angle_beta 141.769235
_cell_angle_gamma 90.000000
_cell_volume 3447.063453
_symmetry_space_group_name_H-M "C 2/M"
_symmetry_group_IT_number 12
_symmetry_cell_setting 'monoclinic'
loop_
_space_group_symop_operation_xyz
x,y,z
-x,y,-z
-x,-y,-z
x,-y,z
1/2+x,1/2+y,z
1/2-x,1/2+y,-z
1/2-x,1/2-y,-z
1/2+x,1/2-y,z
loop_
_atom_site_type_symbol
_atom_site_label
_atom_site_fract_x
_atom_site_fract_y
_atom_site_fract_z
Si Si1 0.832529 0.824822 0.152474
Si Si2 0.220173 0.819755 0.439780
Si Si3 0.635977 0.675689 0.931325
Si Si4 0.380983 0.679479 0.923139
Si Si5 0.414453 0.819800 0.849876
Si Si6 0.302182 0.178694 0.706035
Si Si7 0.624242 0.180294 0.561406
Si Si8 0.037546 0.321278 0.293223
O O1 0.874946 0.813050 0.125222
O O2 0.715960 0.746507 0.097303
O O3 0.918947 0.746337 0.226561
O O4 0.821999 0.000000 0.157839
O O5 0.250000 0.750000 0.500000
O O6 0.311337 0.778068 0.449760
O O7 0.107011 0.755157 0.365230
O O8 0.215226 0.000000 0.439855
O O9 0.634888 0.500000 0.942800
O O10 0.536357 0.760530 0.903427
O O11 0.750000 0.750000 0.000000
O O12 0.373913 0.500000 0.918851
O O13 0.369587 0.746836 0.870323
O O14 0.500000 0.721392 0.000000
O O15 0.345203 0.774801 0.773689
O O16 0.414679 0.000000 0.853024
O O17 0.193848 0.256896 0.635324
O O18 0.393939 0.209204 0.715993
O O19 0.285512 0.000000 0.698385
O O20 0.500000 0.232635 0.500000
O O21 0.624534 0.000000 0.563831
O O22 0.032463 0.500000 0.296808
#
# Coordination Sequence:
#
# PCOD9188736 Si02
#       8
#     8   8   8   8   8   8   8   8
#     4  11  23  39  60  87 117 152 194 241 294 351
#     4  10  20  36  58  85 118 154 194 238 288 345
#     4  11  23  37  59  89 118 149 192 240 290 346
#     4  11  25  43  61  83 115 157 199 241 296 357
#     4  11  22  39  61  86 118 152 194 242 293 350
#     4   9  19  35  58  87 116 150 188 235 289 340
#     4   9  19  36  58  84 114 150 192 236 281 335
#     4  10  19  36  61  87 117 152 193 240 292 347
#
# _framework density 18.566527000000001
#
# number of rings (size 3 to 8) (size 9 to 14) (size 15 to 20)
#    0.000    1.750    1.250    3.000    0.000    6.750 
#    2.250    0.000    0.000    0.000    0.000    0.000 
#    0.000    0.000    0.000    0.000    0.000    0.000 
#
# Total GULP energy -178786.830535 kJ/mol
# GULP energy per Si atom -5587.088454 kJ/mol
# Density = 1.852427 g / cm^3
# Si number density = 18.566527 Si / 1000 Ang^3
#
#
#
# Elastic Constant Matrix: (Units=GPa)
#
#
# Indices 1 2 3 4 5 6 
#
# 1 25.6621 13.0633 -0.6201 0.0000 2.4409 0.0000
# 2 13.0633 54.2078 35.2943 0.0000 0.0192 -0.0001
# 3 -0.6201 35.2943 103.6741 0.0000 3.7543 0.0000
# 4 0.0000 0.0000 0.0000 34.9782 0.0000 1.8241
# 5 2.4409 0.0192 3.7543 0.0000 38.2623 0.0000
# 6 0.0000 -0.0001 0.0000 1.8241 0.0000 28.1047
#
#
#
# Elastic Compliance Matrix: (Units=1/GPa)
#
#
# Indices 1 2 3 4 5 6 
#
# 1 0.047020 -0.014899 0.005481 0.000000 -0.003530 0.000000
# 2 -0.014899 0.028445 -0.009842 0.000000 0.001902 0.000000
# 3 0.005481 -0.009842 0.013088 0.000000 -0.001629 0.000000
# 4 0.000000 0.000000 0.000000 0.028686 0.000000 -0.001862
# 5 -0.003530 0.001902 -0.001629 0.000000 0.026519 0.000000
# 6 0.000000 0.000000 0.000000 -0.001862 0.000000 0.035702
#
#
# Mechanical properties :
#
#
# Convention : Reuss Voigt Hill
#
# Bulk Modulus (GPa) = 19.98610 31.00208 25.49409
# Shear Modulus (GPa) = 21.30761 29.32280 25.31520
#
# Velocity S-wave (km/s) = 3.39135 3.97840 3.69655
# Velocity P-wave (km/s) = 5.11106 6.15123 5.65511
#
# Compressibility (1/GPa) = 0.05003478
#
# Stress axis : x y z
#
# Youngs Moduli (GPa) = 21.26738 35.15545 76.40679
#
# Poissons Ratio (x) = 0.52377 -0.41879
# Poissons Ratio (y) = 0.31686 0.75197
# Poissons Ratio (z) = -0.11657 0.34599
#
# Static dielectric constant tensor:
#      x y z
#    x 1.636660 0.000000 -0.005830 
#    y 0.000000 1.617880 0.000000 
#    z -0.005830 0.000000 1.626300 
# 
# From -- ./inp_files/378428.got.cif
#   From: 2010.05.17/outbox.cif.g08.bks.cpg/sg12_190_cif.got.tgz:378428.got - 2010.06.03 13:09:07.
