data_PCOD9188662
_publ_section_title
;
Structure prediction by ZEFSAII (Michael W. Deem and Ramdas Pophale) SiO2 
 PCOD9188662
Probable space group: C 2/M
;
_chemical_formula_sum "Si O2"
_cell_formula_units_Z 64
_cell_length_a 29.941000
_cell_length_b 8.545823
_cell_length_c 16.998172
_cell_angle_alpha 90.000000
_cell_angle_beta 139.469357
_cell_angle_gamma 90.000000
_cell_volume 2826.432617
_symmetry_space_group_name_H-M "C 2/M"
_symmetry_group_IT_number 12
_symmetry_cell_setting 'monoclinic'
loop_
_space_group_symop_operation_xyz
x,y,z
-x,y,-z
-x,-y,-z
x,-y,z
1/2+x,1/2+y,z
1/2-x,1/2+y,-z
1/2-x,1/2-y,-z
1/2+x,1/2-y,z
loop_
_atom_site_type_symbol
_atom_site_label
_atom_site_fract_x
_atom_site_fract_y
_atom_site_fract_z
Si Si1 0.944185 0.180133 0.595470
Si Si2 0.663578 0.814649 0.278061
Si Si3 0.158419 0.185143 0.957549
Si Si4 0.075303 0.684601 0.701148
Si Si5 0.205662 0.315169 0.608705
Si Si6 0.295465 0.809219 0.216627
Si Si7 0.956808 0.683114 0.773682
Si Si8 0.419460 0.681717 0.980144
O O1 0.874751 0.279767 0.504747
O O2 0.975101 0.210317 0.723805
O O3 0.001933 0.234186 0.611574
O O4 0.927167 0.000000 0.561307
O O5 0.742892 0.765818 0.382874
O O6 0.618626 0.776503 0.294670
O O7 0.658175 0.000000 0.260243
O O8 0.626319 0.732081 0.154689
O O9 0.117859 0.282502 0.838311
O O10 0.123663 0.198726 0.996859
O O11 0.156659 0.000000 0.933399
O O12 0.236967 0.238425 0.076772
O O13 0.063880 0.500000 0.676200
O O14 0.128177 0.741843 0.705138
O O15 0.217013 0.500000 0.618210
O O16 0.223779 0.259529 0.721446
O O17 0.295581 0.000000 0.216704
O O18 0.959467 0.500000 0.755165
O O19 0.012106 0.717009 0.915623
O O20 0.438549 0.500000 0.997160
#
# Coordination Sequence:
#
# PCOD9188662 Si02
#       8
#     8   8   8   8   8   8   8   8
#     4  12  26  44  63  88 122 159 205 259 308 365
#     4  11  24  41  63  94 128 160 202 253 304 364
#     4  10  19  36  60  91 127 162 199 247 300 359
#     4  11  22  38  63  93 123 162 204 248 303 363
#     4  11  23  44  68  89 119 161 208 256 304 362
#     4   9  20  39  63  91 124 160 203 247 299 363
#     4  11  24  42  64  91 124 163 206 252 304 364
#     4  11  21  36  63  94 128 165 202 248 304 364
#
# _framework density 22.643384000000001
#
# number of rings (size 3 to 8) (size 9 to 14) (size 15 to 20)
#    0.000    1.250    2.500    3.750    0.000    5.000 
#    0.000    5.625    0.000    0.000    0.000    0.000 
#    0.000    0.000    0.000    0.000    0.000    0.000 
#
# Total GULP energy -179049.373537 kJ/mol
# GULP energy per Si atom -5595.292923 kJ/mol
# Density = 2.259185 g / cm^3
# Si number density = 22.643384 Si / 1000 Ang^3
#
#
#
# Elastic Constant Matrix: (Units=GPa)
#
#
# Indices 1 2 3 4 5 6 
#
# 1 100.9960 23.4094 -0.5595 0.0000 29.8550 0.0000
# 2 23.4094 39.5839 -15.2198 0.0000 2.2799 0.0000
# 3 -0.5595 -15.2198 55.2510 0.0000 20.5828 0.0000
# 4 0.0000 0.0000 0.0000 31.6686 0.0000 7.7714
# 5 29.8550 2.2799 20.5828 0.0000 35.1469 0.0000
# 6 0.0000 0.0000 0.0000 7.7714 0.0000 23.8375
#
#
#
# Elastic Compliance Matrix: (Units=1/GPa)
#
#
# Indices 1 2 3 4 5 6 
#
# 1 0.016209 -0.007131 0.004038 0.000000 -0.015670 0.000000
# 2 -0.007131 0.033356 0.009805 0.000000 -0.001849 0.000000
# 3 0.004038 0.009805 0.028594 0.000000 -0.020811 0.000000
# 4 0.000000 0.000000 0.000000 0.034323 0.000000 -0.011190
# 5 -0.015670 -0.001849 -0.020811 0.000000 0.054070 0.000000
# 6 0.000000 0.000000 0.000000 -0.011190 0.000000 0.045599
#
#
# Mechanical properties :
#
#
# Convention : Reuss Voigt Hill
#
# Bulk Modulus (GPa) = 10.91908 23.45455 17.18682
# Shear Modulus (GPa) = 21.80983 30.67732 26.24358
#
# Velocity S-wave (km/s) = 3.10689 3.68476 3.40810
# Velocity P-wave (km/s) = 4.20750 5.33704 4.80557
#
# Compressibility (1/GPa) = 0.09158278
#
# Stress axis : x y z
#
# Youngs Moduli (GPa) = 61.69498 29.97939 34.97261
#
# Poissons Ratio (x) = 0.21377 -0.14121
# Poissons Ratio (y) = 0.43993 -0.34291
# Poissons Ratio (z) = -0.24910 -0.29395
#
# Static dielectric constant tensor:
#      x y z
#    x 1.863640 0.000000 0.008540 
#    y 0.000000 1.755070 0.000000 
#    z 0.008540 0.000000 1.872120 
# 
# From -- ./inp_files/295815.got.cif
#   From: 2010.05.17/outbox.cif.g08.bks.cpg/sg12_148_cif.got.tgz:295815.got - 2010.06.03 13:09:07.
