data_PCOD9188982
_publ_section_title
;
Structure prediction by ZEFSAII (Michael W. Deem and Ramdas Pophale) SiO2 
 PCOD9188982
Probable space group: C 2/M
;
_chemical_formula_sum "Si O2"
_cell_formula_units_Z 64
_cell_length_a 11.456432
_cell_length_b 31.014124
_cell_length_c 16.614730
_cell_angle_alpha 90.000000
_cell_angle_beta 144.362101
_cell_angle_gamma 90.000000
_cell_volume 3439.678872
_symmetry_space_group_name_H-M "C 2/M"
_symmetry_group_IT_number 12
_symmetry_cell_setting 'monoclinic'
loop_
_space_group_symop_operation_xyz
x,y,z
-x,y,-z
-x,-y,-z
x,-y,z
1/2+x,1/2+y,z
1/2-x,1/2+y,-z
1/2-x,1/2-y,-z
1/2+x,1/2-y,z
loop_
_atom_site_type_symbol
_atom_site_label
_atom_site_fract_x
_atom_site_fract_y
_atom_site_fract_z
Si Si1 0.934265 0.204131 0.679136
Si Si2 0.331558 0.156396 0.344401
Si Si3 0.633666 0.576798 0.153373
Si Si4 0.266526 0.624038 0.351073
Si Si5 0.218812 0.047447 0.940655
Si Si6 0.597760 0.801986 0.356101
Si Si7 0.002553 0.451648 0.256102
Si Si8 0.772750 0.630746 0.857344
O O1 0.788571 0.191158 0.670696
O O2 0.804167 0.200426 0.523848
O O3 0.979127 0.254766 0.710596
O O4 0.115273 0.169903 0.780841
O O5 0.500000 0.138513 0.500000
O O6 0.188317 0.119280 0.232987
O O7 0.440271 0.176652 0.328548
O O8 0.494644 0.548584 0.133271
O O9 0.837616 0.556363 0.233163
O O10 0.500000 0.587096 0.000000
O O11 0.500000 0.629172 0.500000
O O12 0.145990 0.666886 0.309087
O O13 0.243406 0.616031 0.243895
O O14 0.169897 0.585062 0.347788
O O15 0.233660 0.088863 0.891440
O O16 0.246121 0.000000 0.917384
O O17 0.381637 0.051557 0.103738
O O18 0.083635 0.500000 0.308711
O O19 0.000000 0.645567 0.000000
#
# Coordination Sequence:
#
# PCOD9188982 Si02
#       8
#     8   8   8   8   8   8   8   8
#     4  10  22  40  65  91 120 158 207 248 296 367
#     4  10  20  36  64  89 116 154 200 247 302 356
#     4  10  19  36  64  90 116 151 202 252 303 353
#     4  12  24  39  64  89 124 165 204 249 304 363
#     4  10  21  39  64  91 119 162 209 250 300 366
#     4  10  22  40  65  91 118 160 204 250 299 364
#     4  10  21  39  63  91 122 161 205 252 305 362
#     4  12  24  40  62  91 125 165 201 250 305 359
#
# _framework density 18.606389
#
# number of rings (size 3 to 8) (size 9 to 14) (size 15 to 20)
#    0.000    1.500    5.000    0.375    1.750    3.000 
#    0.000    1.250    0.000    0.750    0.000    0.000 
#    0.000    0.000    0.000    0.000    0.000    0.000 
#
# Total GULP energy -178575.785953 kJ/mol
# GULP energy per Si atom -5580.493311 kJ/mol
# Density = 1.856404 g / cm^3
# Si number density = 18.606389 Si / 1000 Ang^3
#
#
#
# Elastic Constant Matrix: (Units=GPa)
#
#
# Indices 1 2 3 4 5 6 
#
# 1 75.8945 25.1761 15.5150 0.0000 5.3729 0.0000
# 2 25.1761 121.5619 14.4879 0.0000 6.8832 0.0000
# 3 15.5150 14.4879 32.5274 0.0000 11.9606 0.0000
# 4 0.0000 0.0000 0.0000 21.9636 0.0000 -5.1949
# 5 5.3729 6.8832 11.9606 0.0000 28.0066 0.0000
# 6 0.0000 0.0000 0.0000 -5.1949 0.0000 8.3554
#
#
#
# Elastic Compliance Matrix: (Units=1/GPa)
#
#
# Indices 1 2 3 4 5 6 
#
# 1 0.015248 -0.002425 -0.006331 0.000000 0.000374 0.000000
# 2 -0.002425 0.009081 -0.002656 0.000000 -0.000633 0.000000
# 3 -0.006331 -0.002656 0.040641 0.000000 -0.015489 0.000000
# 4 0.000000 0.000000 0.000000 0.053380 0.000000 0.033189
# 5 0.000374 -0.000633 -0.015489 0.000000 0.042404 0.000000
# 6 0.000000 0.000000 0.000000 0.033189 0.000000 0.140317
#
#
# Mechanical properties :
#
#
# Convention : Reuss Voigt Hill
#
# Bulk Modulus (GPa) = 23.72576 37.81578 30.77077
# Shear Modulus (GPa) = 14.79539 23.31878 19.05709
#
# Velocity S-wave (km/s) = 2.82295 3.54399 3.20382
# Velocity P-wave (km/s) = 4.83782 6.09218 5.50087
#
# Compressibility (1/GPa) = 0.04214828
#
# Stress axis : x y z
#
# Youngs Moduli (GPa) = 65.58145 110.12332 24.60551
#
# Poissons Ratio (x) = 0.26701 0.15577
# Poissons Ratio (y) = 0.15901 0.06534
# Poissons Ratio (z) = 0.41518 0.29243
#
# Static dielectric constant tensor:
#      x y z
#    x 1.639260 0.000000 0.010530 
#    y 0.000000 1.629140 0.000000 
#    z 0.010530 0.000000 1.635780 
# 
# From -- ./inp_files/266294.got.cif
#   From: 2010.05.17/outbox.cif.g08.bks.cpg/sg12_134_cif.got.tgz:266294.got - 2010.06.03 13:09:07.
