data_PCOD9188790
_publ_section_title
;
Structure prediction by ZEFSAII (Michael W. Deem and Ramdas Pophale) SiO2 
 PCOD9188790
Probable space group: C 2/M
;
_chemical_formula_sum "Si O2"
_cell_formula_units_Z 52
_cell_length_a 19.078006
_cell_length_b 18.435020
_cell_length_c 9.536712
_cell_angle_alpha 90.000000
_cell_angle_beta 54.760055
_cell_angle_gamma 90.000000
_cell_volume 2739.432419
_symmetry_space_group_name_H-M "C 2/M"
_symmetry_group_IT_number 12
_symmetry_cell_setting 'monoclinic'
loop_
_space_group_symop_operation_xyz
x,y,z
-x,y,-z
-x,-y,-z
x,-y,z
1/2+x,1/2+y,z
1/2-x,1/2+y,-z
1/2-x,1/2-y,-z
1/2+x,1/2-y,z
loop_
_atom_site_type_symbol
_atom_site_label
_atom_site_fract_x
_atom_site_fract_y
_atom_site_fract_z
Si Si1 0.239366 0.500000 0.448952
Si Si2 0.167062 0.784504 0.026450
Si Si3 0.366782 0.742089 0.398986
Si Si4 0.392117 0.000000 0.130918
Si Si5 0.953039 0.000000 0.208603
Si Si6 0.986693 0.862985 0.677063
Si Si7 0.750806 0.154719 0.336188
Si Si8 0.600075 0.838991 0.910996
O O1 0.170081 0.500000 0.657811
O O2 0.346496 0.500000 0.338549
O O3 0.219894 0.573691 0.389359
O O4 0.109177 0.833580 0.192179
O O5 0.250000 0.750000 0.000000
O O6 0.192952 0.834686 0.865522
O O7 0.117934 0.716379 0.014884
O O8 0.453767 0.704709 0.344942
O O9 0.323853 0.785241 0.575888
O O10 0.307642 0.677750 0.405713
O O11 0.368465 0.800109 0.268992
O O12 0.368316 0.920775 0.096729
O O13 0.500000 0.000000 0.000000
O O14 0.987307 0.070806 0.251790
O O15 0.000000 0.000000 0.000000
O O16 0.000000 0.882723 0.500000
O O17 0.500000 0.844574 0.000000
#
# Coordination Sequence:
#
# PCOD9188790 Si02
#       8
#     4   8   8   4   4   8   8   8
#     4  12  20  37  62  93 127 169 211 276 321 393
#     4  11  24  40  62  90 126 168 216 268 326 393
#     4  10  19  36  61  91 117 165 213 262 314 385
#     4  10  22  36  58  99 126 160 212 283 332 380
#     4  12  27  43  66  98 129 175 224 265 332 402
#     4  12  25  42  64  92 133 170 213 272 329 390
#     4  10  21  35  60  90 123 160 218 259 315 388
#     4  10  19  37  64  90 123 163 215 266 326 393
#
# _framework density 18.982033999999999
#
# number of rings (size 3 to 8) (size 9 to 14) (size 15 to 20)
#    0.000    1.231    4.615    2.077    2.154    1.231 
#    0.000    1.538    0.000    0.000    0.000    4.846 
#    0.000    0.000    0.000    0.000    0.000    0.000 
#
# Total GULP energy -144795.168568 kJ/mol
# GULP energy per Si atom -5569.044945 kJ/mol
# Density = 1.893883 g / cm^3
# Si number density = 18.982034 Si / 1000 Ang^3
#
#
#
# Elastic Constant Matrix: (Units=GPa)
#
#
# Indices 1 2 3 4 5 6 
#
# 1 60.0677 14.9924 27.0514 0.0000 -6.8291 0.0000
# 2 14.9924 109.5822 47.2751 0.0000 4.7563 0.0000
# 3 27.0514 47.2751 121.4101 0.0000 -5.5366 0.0000
# 4 0.0000 0.0000 0.0000 21.1230 0.0000 -4.4624
# 5 -6.8291 4.7563 -5.5366 0.0000 26.4317 0.0000
# 6 0.0000 0.0000 0.0000 -4.4624 0.0000 20.3479
#
#
#
# Elastic Compliance Matrix: (Units=1/GPa)
#
#
# Indices 1 2 3 4 5 6 
#
# 1 0.019066 -0.001267 -0.003554 0.000000 0.004410 0.000000
# 2 -0.001267 0.011276 -0.004257 0.000000 -0.003248 0.000000
# 3 -0.003554 -0.004257 0.010782 0.000000 0.002106 0.000000
# 4 0.000000 0.000000 0.000000 0.049642 0.000000 0.010887
# 5 0.004410 -0.003248 0.002106 0.000000 0.039998 0.000000
# 6 0.000000 0.000000 0.000000 0.010887 0.000000 0.051533
#
#
# Mechanical properties :
#
#
# Convention : Reuss Voigt Hill
#
# Bulk Modulus (GPa) = 43.53569 52.18864 47.86217
# Shear Modulus (GPa) = 24.02607 27.02992 25.52799
#
# Velocity S-wave (km/s) = 3.56156 3.77765 3.67120
# Velocity P-wave (km/s) = 6.31649 6.82502 6.57567
#
# Compressibility (1/GPa) = 0.02296966
#
# Stress axis : x y z
#
# Youngs Moduli (GPa) = 52.45002 88.68209 92.74819
#
# Poissons Ratio (x) = 0.11234 0.32960
# Poissons Ratio (y) = 0.06644 0.39480
# Poissons Ratio (z) = 0.18639 0.37749
#
# Static dielectric constant tensor:
#      x y z
#    x 1.659550 0.000000 -0.049530 
#    y 0.000000 1.608820 0.000000 
#    z -0.049530 0.000000 1.687980 
# 
# From -- ./inp_files/88390.got.cif
#   From: 2010.05.17/outbox.cif.g08.bks.cpg/sg12_45_cif.got.tgz:88390.got - 2010.06.03 13:09:07.
