data_PCOD9188186
_publ_section_title
;
Structure prediction by ZEFSAII (Michael W. Deem and Ramdas Pophale) SiO2 
 PCOD9188186
Probable space group: C 2/M
;
_chemical_formula_sum "Si O2"
_cell_formula_units_Z 56
_cell_length_a 18.956744
_cell_length_b 15.995245
_cell_length_c 12.741909
_cell_angle_alpha 90.000000
_cell_angle_beta 127.959629
_cell_angle_gamma 90.000000
_cell_volume 3046.212461
_symmetry_space_group_name_H-M "C 2/M"
_symmetry_group_IT_number 12
_symmetry_cell_setting 'monoclinic'
loop_
_space_group_symop_operation_xyz
x,y,z
-x,y,-z
-x,-y,-z
x,-y,z
1/2+x,1/2+y,z
1/2-x,1/2+y,-z
1/2-x,1/2-y,-z
1/2+x,1/2-y,z
loop_
_atom_site_type_symbol
_atom_site_label
_atom_site_fract_x
_atom_site_fract_y
_atom_site_fract_z
Si Si1 0.429002 0.723436 0.518071
Si Si2 0.396445 0.903795 0.778594
Si Si3 0.659164 0.592434 0.216962
Si Si4 0.135832 0.743269 0.087067
Si Si5 0.206010 0.903202 0.503009
Si Si6 0.046892 0.314445 0.797125
Si Si7 0.682786 0.170481 0.740289
O O1 0.500000 0.686585 0.500000
O O2 0.354435 0.658554 0.485147
O O3 0.482514 0.756720 0.667514
O O4 0.381655 0.799093 0.412060
O O5 0.388024 0.837180 0.864975
O O6 0.309829 0.889236 0.625358
O O7 0.485018 0.884608 0.793184
O O8 0.395112 0.000000 0.813536
O O9 0.618875 0.500000 0.170485
O O10 0.607624 0.672169 0.122932
O O11 0.683540 0.609402 0.360225
O O12 0.753200 0.596628 0.239866
O O13 0.243375 0.755803 0.173822
O O14 0.091543 0.735383 0.933596
O O15 0.186137 0.000000 0.509732
O O16 0.123783 0.345739 0.788424
#
# Coordination Sequence:
#
# PCOD9188186 Si02
#       7
#     8   8   8   8   8   8   8
#     4  10  20  36  59  85 109 149 200 241 288 345
#     4  11  23  37  60  89 119 155 197 240 293 350
#     4   9  19  34  59  84 109 152 198 233 284 347
#     4  10  21  38  60  81 121 159 191 238 289 352
#     4  10  19  36  57  82 113 151 195 242 290 344
#     4  11  22  35  57  88 119 150 191 241 295 343
#     4   9  20  37  60  80 115 157 192 235 288 346
#
# _framework density 18.383482999999998
#
# number of rings (size 3 to 8) (size 9 to 14) (size 15 to 20)
#    0.857    1.143    1.429    2.571    0.000    3.714 
#    0.000    0.714    0.000    9.429    0.000    0.000 
#    0.000    0.000    0.000    0.000    0.000    0.000 
#
# Total GULP energy -156083.645666 kJ/mol
# GULP energy per Si atom -5574.415917 kJ/mol
# Density = 1.834164 g / cm^3
# Si number density = 18.383483 Si / 1000 Ang^3
#
#
#
# Elastic Constant Matrix: (Units=GPa)
#
#
# Indices 1 2 3 4 5 6 
#
# 1 88.8078 36.7247 8.2743 0.0000 -1.2680 0.0000
# 2 36.7247 83.1240 42.8438 0.0000 -13.3899 0.0000
# 3 8.2743 42.8438 117.8633 0.0000 -8.2796 0.0000
# 4 0.0000 0.0000 0.0000 15.3134 0.0000 -13.6798
# 5 -1.2680 -13.3899 -8.2796 0.0000 23.1213 0.0000
# 6 0.0000 0.0000 0.0000 -13.6798 0.0000 69.6955
#
#
#
# Elastic Compliance Matrix: (Units=1/GPa)
#
#
# Indices 1 2 3 4 5 6 
#
# 1 0.014198 -0.007555 0.001535 0.000000 -0.003047 0.000000
# 2 -0.007555 0.019951 -0.006093 0.000000 0.008958 0.000000
# 3 0.001535 -0.006093 0.010616 0.000000 0.000357 0.000000
# 4 0.000000 0.000000 0.000000 0.079187 0.000000 0.015543
# 5 -0.003047 0.008958 0.000357 0.000000 0.048399 0.000000
# 6 0.000000 0.000000 0.000000 0.015543 0.000000 0.017399
#
#
# Mechanical properties :
#
#
# Convention : Reuss Voigt Hill
#
# Bulk Modulus (GPa) = 48.68225 51.72007 50.20116
# Shear Modulus (GPa) = 22.64267 35.08952 28.86609
#
# Velocity S-wave (km/s) = 3.51334 4.37367 3.96690
# Velocity P-wave (km/s) = 6.55722 7.32805 6.95333
#
# Compressibility (1/GPa) = 0.02054137
#
# Stress axis : x y z
#
# Youngs Moduli (GPa) = 70.43301 50.12193 94.19337
#
# Poissons Ratio (x) = 0.37867 -0.14463
# Poissons Ratio (y) = 0.53212 0.57390
# Poissons Ratio (z) = -0.10815 0.30538
#
# Static dielectric constant tensor:
#      x y z
#    x 1.641260 0.000000 0.019320 
#    y 0.000000 1.613220 0.000000 
#    z 0.019320 0.000000 1.623340 
# 
# From -- ./inp_files/157953.got.cif
#   From: 2010.05.17/outbox.cif.g08.bks.cpg/sg12_79_cif.got.tgz:157953.got - 2010.06.03 13:09:07.
