data_PCOD9188297
_publ_section_title
;
Structure prediction by ZEFSAII (Michael W. Deem and Ramdas Pophale) SiO2 
 PCOD9188297
Probable space group: C 2/M
;
_chemical_formula_sum "Si O2"
_cell_formula_units_Z 48
_cell_length_a 13.107224
_cell_length_b 24.024039
_cell_length_c 8.933808
_cell_angle_alpha 90.000000
_cell_angle_beta 87.631630
_cell_angle_gamma 90.000000
_cell_volume 2810.750039
_symmetry_space_group_name_H-M "C 2/M"
_symmetry_group_IT_number 12
_symmetry_cell_setting 'monoclinic'
loop_
_space_group_symop_operation_xyz
x,y,z
-x,y,-z
-x,-y,-z
x,-y,z
1/2+x,1/2+y,z
1/2-x,1/2+y,-z
1/2-x,1/2-y,-z
1/2+x,1/2-y,z
loop_
_atom_site_type_symbol
_atom_site_label
_atom_site_fract_x
_atom_site_fract_y
_atom_site_fract_z
Si Si1 0.109557 0.168073 0.734097
Si Si2 0.148722 0.060022 0.232325
Si Si3 0.500000 0.399404 0.000000
Si Si4 0.500000 0.405629 0.500000
Si Si5 0.032663 0.708859 0.670832
Si Si6 0.323659 0.203857 0.832680
Si Si7 0.731665 0.175502 0.821803
O O1 0.064960 0.139585 0.885332
O O2 0.075029 0.131447 0.596775
O O3 0.057168 0.227618 0.714372
O O4 0.230301 0.176274 0.747321
O O5 0.074375 0.063188 0.380746
O O6 0.213656 0.116815 0.211831
O O7 0.203361 0.000000 0.230424
O O8 0.074729 0.063960 0.094329
O O9 0.137679 0.679357 0.711938
O O10 0.000000 0.705465 0.500000
O O11 0.935430 0.688539 0.770430
O O12 0.306664 0.270530 0.805438
O O13 0.309834 0.185624 0.006367
#
# Coordination Sequence:
#
# PCOD9188297 Si02
#       7
#     8   8   4   4   8   8   8
#     4  10  20  33  56  84 119 145 182 227 282 342
#     4  11  22  38  58  84 114 152 193 232 278 330
#     4  10  19  36  58  84 112 146 187 232 278 334
#     4  10  21  34  56  86 118 148 177 230 288 338
#     4  11  23  33  54  85 120 151 181 225 284 354
#     4  10  20  36  57  84 114 148 185 227 288 340
#     4  10  22  36  58  83 112 150 188 237 278 332
#
# _framework density 17.077292
#
# number of rings (size 3 to 8) (size 9 to 14) (size 15 to 20)
#    0.000    1.667    2.500    3.000    7.000    1.333 
#    0.000    0.000    0.000    2.500    0.000    0.000 
#    0.000    0.000    0.000    0.000    0.000    0.000 
#
# Total GULP energy -133844.740249 kJ/mol
# GULP energy per Si atom -5576.864177 kJ/mol
# Density = 1.703842 g / cm^3
# Si number density = 17.077292 Si / 1000 Ang^3
#
#
#
# Elastic Constant Matrix: (Units=GPa)
#
#
# Indices 1 2 3 4 5 6 
#
# 1 68.1199 37.1827 24.2038 0.0000 7.9085 0.0000
# 2 37.1827 116.4389 33.2162 0.0000 0.4385 0.0000
# 3 24.2038 33.2162 84.3134 0.0000 10.0900 0.0000
# 4 0.0000 0.0000 0.0000 20.7744 0.0000 0.4806
# 5 7.9085 0.4385 10.0900 0.0000 22.4924 0.0000
# 6 0.0000 0.0000 0.0000 0.4806 0.0000 14.4019
#
#
#
# Elastic Compliance Matrix: (Units=1/GPa)
#
#
# Indices 1 2 3 4 5 6 
#
# 1 0.019194 -0.005319 -0.002768 0.000000 -0.005404 0.000000
# 2 -0.005319 0.011205 -0.003260 0.000000 0.003114 0.000000
# 3 -0.002768 -0.003260 0.014599 0.000000 -0.005512 0.000000
# 4 0.000000 0.000000 0.000000 0.048173 0.000000 -0.001607
# 5 -0.005404 0.003114 -0.005512 0.000000 0.048772 0.000000
# 6 0.000000 0.000000 0.000000 -0.001607 0.000000 0.069489
#
#
# Mechanical properties :
#
#
# Convention : Reuss Voigt Hill
#
# Bulk Modulus (GPa) = 44.83509 50.89751 47.86630
# Shear Modulus (GPa) = 20.69867 23.15172 21.92520
#
# Velocity S-wave (km/s) = 3.48524 3.68598 3.58701
# Velocity P-wave (km/s) = 6.51974 6.92706 6.72649
#
# Compressibility (1/GPa) = 0.02230396
#
# Stress axis : x y z
#
# Youngs Moduli (GPa) = 52.09865 89.24483 68.49752
#
# Poissons Ratio (x) = 0.47474 0.18959
# Poissons Ratio (y) = 0.27714 0.22330
# Poissons Ratio (z) = 0.14420 0.29094
#
# Static dielectric constant tensor:
#      x y z
#    x 1.571010 0.000000 0.001310 
#    y 0.000000 1.585550 0.000000 
#    z 0.001310 0.000000 1.594130 
# 
# From -- ./inp_files/50743.got.cif
#   From: 2010.05.17/outbox.cif.g08.bks.cpg/sg12_26_cif.got.tgz:50743.got - 2010.06.03 13:09:07.
