data_PCOD9188914
_publ_section_title
;
Structure prediction by ZEFSAII (Michael W. Deem and Ramdas Pophale) SiO2 
 PCOD9188914
Probable space group: C 2/M
;
_chemical_formula_sum "Si O2"
_cell_formula_units_Z 56
_cell_length_a 16.212496
_cell_length_b 15.289853
_cell_length_c 16.679746
_cell_angle_alpha 90.000000
_cell_angle_beta 132.577182
_cell_angle_gamma 90.000000
_cell_volume 3044.645287
_symmetry_space_group_name_H-M "C 2/M"
_symmetry_group_IT_number 12
_symmetry_cell_setting 'monoclinic'
loop_
_space_group_symop_operation_xyz
x,y,z
-x,y,-z
-x,-y,-z
x,-y,z
1/2+x,1/2+y,z
1/2-x,1/2+y,-z
1/2-x,1/2-y,-z
1/2+x,1/2-y,z
loop_
_atom_site_type_symbol
_atom_site_label
_atom_site_fract_x
_atom_site_fract_y
_atom_site_fract_z
Si Si1 0.826210 0.643216 0.260501
Si Si2 0.900676 0.000000 0.051422
Si Si3 0.628872 0.268285 0.582151
Si Si4 0.271204 0.850163 0.036059
Si Si5 0.507326 0.104201 0.914825
Si Si6 0.916401 0.402628 0.550611
Si Si7 0.820669 0.602572 0.666501
Si Si8 0.849983 0.000000 0.826966
O O1 0.829766 0.738666 0.302720
O O2 0.808359 0.643904 0.153504
O O3 0.728143 0.584840 0.234470
O O4 0.948715 0.603650 0.359154
O O5 0.035208 0.000000 0.147899
O O6 0.836026 0.914456 0.042249
O O7 0.880536 0.000000 0.941978
O O8 0.500000 0.297841 0.500000
O O9 0.628334 0.178027 0.530739
O O10 0.710194 0.339714 0.599435
O O11 0.372817 0.881173 0.046952
O O12 0.250000 0.750000 0.000000
O O13 0.410573 0.136043 0.791101
O O14 0.490609 0.000000 0.909271
O O15 0.500000 0.141463 0.000000
O O16 0.883957 0.500000 0.500866
O O17 0.874535 0.392078 0.613962
O O18 0.797036 0.500000 0.666346
#
# Coordination Sequence:
#
# PCOD9188914 Si02
#       8
#     8   4   8   8   8   8   8   4
#     4  10  20  35  59  84 120 153 190 241 296 352
#     4   9  20  38  55  82 120 155 190 235 295 346
#     4  10  23  36  56  89 120 147 194 250 295 352
#     4  11  22  37  60  84 118 158 193 240 298 350
#     4  10  21  38  62  88 112 150 207 251 279 338
#     4  10  19  36  63  88 112 148 198 245 299 345
#     4  10  21  38  62  83 112 160 199 240 295 346
#     4   9  18  34  59  82 118 157 184 231 297 364
#
# _framework density 18.392948000000001
#
# number of rings (size 3 to 8) (size 9 to 14) (size 15 to 20)
#    0.000    2.000    2.857    0.429    3.000    2.286 
#    2.571    0.000    0.000    0.000    0.000    0.000 
#    0.000    0.000    0.000    0.000    0.000    0.000 
#
# Total GULP energy -156222.201824 kJ/mol
# GULP energy per Si atom -5579.364351 kJ/mol
# Density = 1.835108 g / cm^3
# Si number density = 18.392948 Si / 1000 Ang^3
#
#
#
# Elastic Constant Matrix: (Units=GPa)
#
#
# Indices 1 2 3 4 5 6 
#
# 1 137.6541 59.3172 61.2175 0.0000 20.0078 0.0000
# 2 59.3172 69.4256 23.3957 0.0000 15.0858 0.0000
# 3 61.2175 23.3957 59.6081 0.0000 6.7288 0.0000
# 4 0.0000 0.0000 0.0000 11.9936 0.0000 9.9354
# 5 20.0078 15.0858 6.7288 0.0000 34.7282 0.0000
# 6 0.0000 0.0000 0.0000 9.9354 0.0000 19.0790
#
#
#
# Elastic Compliance Matrix: (Units=1/GPa)
#
#
# Indices 1 2 3 4 5 6 
#
# 1 0.018855 -0.010325 -0.014918 0.000000 -0.003487 0.000000
# 2 -0.010325 0.023612 0.001863 0.000000 -0.004670 0.000000
# 3 -0.014918 0.001863 0.031169 0.000000 0.001746 0.000000
# 4 0.000000 0.000000 0.000000 0.146634 0.000000 -0.076360
# 5 -0.003487 -0.004670 0.001746 0.000000 0.032494 0.000000
# 6 0.000000 0.000000 0.000000 -0.076360 0.000000 0.092178
#
#
# Mechanical properties :
#
#
# Convention : Reuss Voigt Hill
#
# Bulk Modulus (GPa) = 37.20731 61.61650 49.41190
# Shear Modulus (GPa) = 12.47942 21.34397 16.91170
#
# Velocity S-wave (km/s) = 2.60761 3.41022 3.03556
# Velocity P-wave (km/s) = 5.41657 7.00564 6.26172
#
# Compressibility (1/GPa) = 0.02687644
#
# Stress axis : x y z
#
# Youngs Moduli (GPa) = 53.03715 42.35108 32.08358
#
# Poissons Ratio (x) = 0.43726 0.47862
# Poissons Ratio (y) = 0.54758 -0.05977
# Poissons Ratio (z) = 0.79120 -0.07889
#
# Static dielectric constant tensor:
#      x y z
#    x 1.623380 0.000000 -0.019780 
#    y 0.000000 1.634880 0.000000 
#    z -0.019780 0.000000 1.654610 
# 
# From -- ./inp_files/270423.got.cif
#   From: 2010.05.17/outbox.cif.g08.bks.cpg/sg12_136_cif.got.tgz:270423.got - 2010.06.03 13:09:07.
