data_PCOD9188782
_publ_section_title
;
Structure prediction by ZEFSAII (Michael W. Deem and Ramdas Pophale) SiO2 
 PCOD9188782
Probable space group: C 2/M
;
_chemical_formula_sum "Si O2"
_cell_formula_units_Z 48
_cell_length_a 29.098316
_cell_length_b 8.478057
_cell_length_c 10.311280
_cell_angle_alpha 90.000000
_cell_angle_beta 89.689201
_cell_angle_gamma 90.000000
_cell_volume 2543.726290
_symmetry_space_group_name_H-M "C 2/M"
_symmetry_group_IT_number 12
_symmetry_cell_setting 'monoclinic'
loop_
_space_group_symop_operation_xyz
x,y,z
-x,y,-z
-x,-y,-z
x,-y,z
1/2+x,1/2+y,z
1/2-x,1/2+y,-z
1/2-x,1/2-y,-z
1/2+x,1/2-y,z
loop_
_atom_site_type_symbol
_atom_site_label
_atom_site_fract_x
_atom_site_fract_y
_atom_site_fract_z
Si Si1 0.220281 0.809713 0.119722
Si Si2 0.027142 0.814297 0.134770
Si Si3 0.470930 0.187077 0.375896
Si Si4 0.374029 0.688889 0.283108
Si Si5 0.275367 0.189333 0.371941
Si Si6 0.622520 0.692626 0.019485
O O1 0.244553 0.755546 0.250500
O O2 0.168378 0.757581 0.093108
O O3 0.220193 0.000000 0.120448
O O4 0.250000 0.750000 0.000000
O O5 0.077880 0.755049 0.099075
O O6 0.000778 0.724677 0.247905
O O7 0.028975 0.000000 0.171127
O O8 0.000000 0.804433 0.000000
O O9 0.500000 0.245033 0.500000
O O10 0.420604 0.261313 0.355470
O O11 0.464706 0.000000 0.389764
O O12 0.371634 0.500000 0.281182
O O13 0.327446 0.752194 0.349142
O O14 0.376802 0.743537 0.131613
O O15 0.250000 0.250000 0.500000
O O16 0.276100 0.000000 0.373423
O O17 0.620772 0.500000 0.016174
#
# Coordination Sequence:
#
# PCOD9188782 Si02
#       6
#     8   8   8   8   8   8
#     4  10  20  36  59  88 119 155 200 248 297 351
#     4  10  19  36  61  90 118 153 203 252 297 353
#     4  11  25  42  59  87 128 164 198 247 303 364
#     4  11  21  39  66  89 116 159 203 251 309 362
#     4  11  24  40  60  90 127 165 204 249 303 363
#     4   9  18  34  59  89 120 151 196 251 299 350
#
# _framework density 18.869955000000001
#
# number of rings (size 3 to 8) (size 9 to 14) (size 15 to 20)
#    0.000    1.667    3.333    1.500    0.000    3.667 
#    0.000    2.500    0.000    0.000    0.000    0.000 
#    0.000    0.000    0.000    0.000    0.000    0.000 
#
# Total GULP energy -134016.505164 kJ/mol
# GULP energy per Si atom -5584.021049 kJ/mol
# Density = 1.882701 g / cm^3
# Si number density = 18.869955 Si / 1000 Ang^3
#
#
#
# Elastic Constant Matrix: (Units=GPa)
#
#
# Indices 1 2 3 4 5 6 
#
# 1 202.1061 31.0738 77.7457 0.0000 5.2608 0.0000
# 2 31.0738 28.8589 26.2389 0.0000 3.5402 0.0000
# 3 77.7457 26.2389 130.7372 0.0000 7.1752 0.0000
# 4 0.0000 0.0000 0.0000 20.9458 0.0000 -4.9347
# 5 5.2608 3.5402 7.1752 0.0000 30.4240 0.0000
# 6 0.0000 0.0000 0.0000 -4.9347 0.0000 28.5465
#
#
#
# Elastic Compliance Matrix: (Units=1/GPa)
#
#
# Indices 1 2 3 4 5 6 
#
# 1 0.006862 -0.004508 -0.003181 0.000000 0.000088 0.000000
# 2 -0.004508 0.045612 -0.006307 0.000000 -0.003041 0.000000
# 3 -0.003181 -0.006307 0.010877 0.000000 -0.001281 0.000000
# 4 0.000000 0.000000 0.000000 0.049769 0.000000 0.008603
# 5 0.000088 -0.003041 -0.001281 0.000000 0.033510 0.000000
# 6 0.000000 0.000000 0.000000 0.008603 0.000000 0.036518
#
#
# Mechanical properties :
#
#
# Convention : Reuss Voigt Hill
#
# Bulk Modulus (GPa) = 28.28037 70.20210 49.24124
# Shear Modulus (GPa) = 22.42902 31.09285 26.76094
#
# Velocity S-wave (km/s) = 3.45136 4.06364 3.76995
# Velocity P-wave (km/s) = 5.55896 7.70075 6.71579
#
# Compressibility (1/GPa) = 0.03536021
#
# Stress axis : x y z
#
# Youngs Moduli (GPa) = 145.72379 21.92394 91.93975
#
# Poissons Ratio (x) = 0.09882 0.29246
# Poissons Ratio (y) = 0.65686 0.57986
# Poissons Ratio (z) = 0.46354 0.13827
#
# Static dielectric constant tensor:
#      x y z
#    x 1.617770 0.000000 -0.005400 
#    y 0.000000 1.657460 0.000000 
#    z -0.005400 0.000000 1.615430 
# 
# From -- ./inp_files/108661.got.cif
#   From: 2010.05.17/outbox.cif.g08.bks.cpg/sg12_55_cif.got.tgz:108661.got - 2010.06.03 13:09:07.
