data_PCOD9188810
_publ_section_title
;
Structure prediction by ZEFSAII (Michael W. Deem and Ramdas Pophale) SiO2 
 PCOD9188810
Probable space group: C 2/M
;
_chemical_formula_sum "Si O2"
_cell_formula_units_Z 40
_cell_length_a 22.312802
_cell_length_b 11.966804
_cell_length_c 7.093458
_cell_angle_alpha 90.000000
_cell_angle_beta 107.844957
_cell_angle_gamma 90.000000
_cell_volume 1802.921041
_symmetry_space_group_name_H-M "C 2/M"
_symmetry_group_IT_number 12
_symmetry_cell_setting 'monoclinic'
loop_
_space_group_symop_operation_xyz
x,y,z
-x,y,-z
-x,-y,-z
x,-y,z
1/2+x,1/2+y,z
1/2-x,1/2+y,-z
1/2-x,1/2-y,-z
1/2+x,1/2-y,z
loop_
_atom_site_type_symbol
_atom_site_label
_atom_site_fract_x
_atom_site_fract_y
_atom_site_fract_z
Si Si1 0.152145 0.872600 0.088579
Si Si2 0.665744 0.000000 0.139438
Si Si3 0.500000 0.220417 0.500000
Si Si4 0.060341 0.318170 0.924229
Si Si5 0.385428 0.628801 0.504369
Si Si6 0.755711 0.212794 0.287338
O O1 0.136047 0.872892 0.297428
O O2 0.219401 0.809529 0.136577
O O3 0.156232 0.000000 0.028155
O O4 0.095094 0.801742 0.946640
O O5 0.718443 0.901672 0.225031
O O6 0.611700 0.902908 0.052339
O O7 0.464339 0.150862 0.306508
O O8 0.551590 0.299556 0.451799
O O9 0.000000 0.313275 0.000000
O O10 0.394124 0.500000 0.454804
O O11 0.329518 0.688792 0.333540
O O12 0.750000 0.250000 0.500000
#
# Coordination Sequence:
#
# PCOD9188810 Si02
#       6
#     8   4   4   8   8   8
#     4   9  19  36  63  95 127 167 215 267 319 376
#     4  10  21  41  68  94 127 173 212 266 322 373
#     4  12  25  39  62  96 130 170 220 256 324 382
#     4  11  23  43  65  94 132 169 214 264 317 388
#     4  10  19  36  61  94 131 167 213 265 316 386
#     4   9  18  35  65  96 124 166 218 259 315 378
#
# _framework density 22.186219999999999
#
# number of rings (size 3 to 8) (size 9 to 14) (size 15 to 20)
#    0.000    2.000    3.000    0.600    1.400    2.400 
#    0.000    4.000    6.600    0.000    0.000    0.000 
#    0.000    0.000    0.000    0.000    0.000    0.000 
#
# Total GULP energy -111336.105768 kJ/mol
# GULP energy per Si atom -5566.805288 kJ/mol
# Density = 2.213572 g / cm^3
# Si number density = 22.186220 Si / 1000 Ang^3
#
#
#
# Elastic Constant Matrix: (Units=GPa)
#
#
# Indices 1 2 3 4 5 6 
#
# 1 101.8979 39.4758 25.7076 0.0000 22.7888 0.0000
# 2 39.4758 137.2599 13.3424 0.0000 17.2989 0.0000
# 3 25.7076 13.3424 78.7942 0.0000 14.3719 0.0000
# 4 0.0000 0.0000 0.0000 1.8155 0.0000 3.4662
# 5 22.7888 17.2989 14.3719 0.0000 41.7157 0.0000
# 6 0.0000 0.0000 0.0000 3.4662 0.0000 6.5263
#
#
#
# Elastic Compliance Matrix: (Units=1/GPa)
#
#
# Indices 1 2 3 4 5 6 
#
# 1 0.012664 -0.002765 -0.002786 0.000000 -0.004812 0.000000
# 2 -0.002765 0.008335 -0.000165 0.000000 -0.001889 0.000000
# 3 -0.002786 -0.000165 0.014232 0.000000 -0.003313 0.000000
# 4 0.000000 0.000000 0.000000-39.373720 0.000000 20.911789
# 5 -0.004812 -0.001889 -0.003313 0.000000 0.028525 0.000000
# 6 0.000000 0.000000 0.000000 20.911789 0.000000-10.953240
#
#
# Mechanical properties :
#
#
# Convention : Reuss Voigt Hill
#
# Bulk Modulus (GPa) = 42.01674 52.77820 47.39747
# Shear Modulus (GPa) = -0.09951 25.97324 12.93686
#
# Velocity S-wave (km/s) = -0.21202 3.42525 2.41737
# Velocity P-wave (km/s) = 4.34964 6.28359 5.40384
#
# Compressibility (1/GPa) = 0.02380004
#
# Stress axis : x y z
#
# Youngs Moduli (GPa) = 78.96501 119.97999 70.26212
#
# Poissons Ratio (x) = 0.33173 0.19574
# Poissons Ratio (y) = 0.21833 0.01157
# Poissons Ratio (z) = 0.21999 0.01976
#
# Static dielectric constant tensor:
#      x y z
#    x 1.809790 0.000000 -0.097480 
#    y 0.000000 1.781150 0.000000 
#    z -0.097480 0.000000 1.949740 
# 
# From -- ./inp_files/94670.got.cif
#   From: 2010.05.17/outbox.cif.g08.bks.cpg/sg12_48_cif.got.tgz:94670.got - 2010.06.03 13:09:07.
