data_PCOD9188439
_publ_section_title
;
Structure prediction by ZEFSAII (Michael W. Deem and Ramdas Pophale) SiO2 
 PCOD9188439
Probable space group: C 2/M
;
_chemical_formula_sum "Si O2"
_cell_formula_units_Z 52
_cell_length_a 15.285271
_cell_length_b 23.700153
_cell_length_c 9.129057
_cell_angle_alpha 90.000000
_cell_angle_beta 122.474240
_cell_angle_gamma 90.000000
_cell_volume 2789.996986
_symmetry_space_group_name_H-M "C 2/M"
_symmetry_group_IT_number 12
_symmetry_cell_setting 'monoclinic'
loop_
_space_group_symop_operation_xyz
x,y,z
-x,y,-z
-x,-y,-z
x,-y,z
1/2+x,1/2+y,z
1/2-x,1/2+y,-z
1/2-x,1/2-y,-z
1/2+x,1/2-y,z
loop_
_atom_site_type_symbol
_atom_site_label
_atom_site_fract_x
_atom_site_fract_y
_atom_site_fract_z
Si Si1 0.097086 0.435813 0.695600
Si Si2 0.687186 0.565384 0.287088
Si Si3 0.463229 0.269947 0.221041
Si Si4 0.516842 0.855503 0.850514
Si Si5 0.209647 0.343094 0.463401
Si Si6 0.000000 0.860820 0.000000
Si Si7 0.832597 0.240685 0.388339
O O1 0.081921 0.500000 0.735105
O O2 0.205389 0.433393 0.707445
O O3 0.000000 0.423817 0.500000
O O4 0.095475 0.392200 0.826790
O O5 0.661609 0.500000 0.293401
O O6 0.715291 0.603953 0.451976
O O7 0.595943 0.598608 0.124316
O O8 0.454906 0.210437 0.130065
O O9 0.471751 0.320374 0.112502
O O10 0.568965 0.267781 0.413460
O O11 0.371857 0.270198 0.260082
O O12 0.406446 0.861579 0.671167
O O13 0.500000 0.874764 0.000000
O O14 0.208540 0.303378 0.608363
O O15 0.246507 0.302836 0.365385
#
# Coordination Sequence:
#
# PCOD9188439 Si02
#       7
#     8   8   8   8   8   4   8
#     4  10  21  39  62  85 113 158 206 246 295 355
#     4  11  23  40  63  88 117 160 210 250 291 352
#     4  10  20  35  56  87 126 156 196 246 297 363
#     4  11  22  35  56  93 127 150 192 251 306 359
#     4  10  19  36  59  85 119 157 200 242 298 368
#     4  12  23  40  60  90 125 156 204 250 298 348
#     4   9  19  34  59  85 116 162 197 238 301 361
#
# _framework density 18.638012
#
# number of rings (size 3 to 8) (size 9 to 14) (size 15 to 20)
#    0.000    1.692    3.846    1.154    2.154    1.538 
#    0.000    2.308    0.000    2.769    0.000    0.000 
#    0.000    0.000    0.000    0.000    0.000    0.000 
#
# Total GULP energy -145117.279575 kJ/mol
# GULP energy per Si atom -5581.433830 kJ/mol
# Density = 1.859559 g / cm^3
# Si number density = 18.638012 Si / 1000 Ang^3
#
#
#
# Elastic Constant Matrix: (Units=GPa)
#
#
# Indices 1 2 3 4 5 6 
#
# 1 70.5666 22.7121 19.1309 0.0000 -7.9142 0.0000
# 2 22.7121 120.6833 48.6180 0.0000 -4.8310 0.0000
# 3 19.1309 48.6180 40.3928 0.0000 -6.2234 0.0000
# 4 0.0000 0.0000 0.0000 9.0895 0.0000 -11.5118
# 5 -7.9142 -4.8310 -6.2234 0.0000 27.2909 0.0000
# 6 0.0000 0.0000 0.0000 -11.5118 0.0000 11.9366
#
#
#
# Elastic Compliance Matrix: (Units=1/GPa)
#
#
# Indices 1 2 3 4 5 6 
#
# 1 0.016510 -0.000050 -0.007279 0.000000 0.003119 0.000000
# 2 -0.000050 0.016156 -0.019675 0.000000 -0.001641 0.000000
# 3 -0.007279 -0.019675 0.052882 0.000000 0.006465 0.000000
# 4 0.000000 0.000000 0.000000 -0.496890 0.000000 -0.479206
# 5 0.003119 -0.001641 0.006465 0.000000 0.038731 0.000000
# 6 0.000000 0.000000 0.000000 -0.479206 0.000000 -0.378375
#
#
# Mechanical properties :
#
#
# Convention : Reuss Voigt Hill
#
# Bulk Modulus (GPa) = 31.70535 45.84053 38.77294
# Shear Modulus (GPa) = -7.28370 19.07553 5.89591
#
# Velocity S-wave (km/s) = -1.97901 3.20265 1.78052
# Velocity P-wave (km/s) = 3.43891 6.19068 5.00753
#
# Compressibility (1/GPa) = 0.03154042
#
# Stress axis : x y z
#
# Youngs Moduli (GPa) = 60.56847 61.89582 18.90988
#
# Poissons Ratio (x) = 0.00309 0.13764
# Poissons Ratio (y) = 0.00302 0.37206
# Poissons Ratio (z) = 0.44087 1.21782
#
# Static dielectric constant tensor:
#      x y z
#    x 1.649150 0.000000 0.007530 
#    y 0.000000 1.659370 0.000000 
#    z 0.007530 0.000000 1.657330 
# 
# From -- ./inp_files/65498.got.cif
#   From: 2010.05.17/outbox.cif.g08.bks.cpg/sg12_33_cif.got.tgz:65498.got - 2010.06.03 13:09:07.
