data_PCOD9188639
_publ_section_title
;
Structure prediction by ZEFSAII (Michael W. Deem and Ramdas Pophale) SiO2 
 PCOD9188639
Probable space group: C 2/M
;
_chemical_formula_sum "Si O2"
_cell_formula_units_Z 48
_cell_length_a 17.159952
_cell_length_b 14.837133
_cell_length_c 19.429425
_cell_angle_alpha 90.000000
_cell_angle_beta 150.483538
_cell_angle_gamma 90.000000
_cell_volume 2437.167083
_symmetry_space_group_name_H-M "C 2/M"
_symmetry_group_IT_number 12
_symmetry_cell_setting 'monoclinic'
loop_
_space_group_symop_operation_xyz
x,y,z
-x,y,-z
-x,-y,-z
x,-y,z
1/2+x,1/2+y,z
1/2-x,1/2+y,-z
1/2-x,1/2-y,-z
1/2+x,1/2-y,z
loop_
_atom_site_type_symbol
_atom_site_label
_atom_site_fract_x
_atom_site_fract_y
_atom_site_fract_z
Si Si1 0.430243 0.500000 0.771890
Si Si2 0.383546 0.191697 0.567782
Si Si3 0.316054 0.691286 0.719814
Si Si4 0.253697 0.796073 0.178408
Si Si5 0.203904 0.500000 0.974648
Si Si6 0.293804 0.000000 0.186972
Si Si7 0.618271 0.200780 0.946149
Si Si8 0.132681 0.500000 0.443613
O O1 0.399598 0.592794 0.788802
O O2 0.604541 0.500000 0.873876
O O3 0.294580 0.500000 0.609909
O O4 0.250000 0.250000 0.500000
O O5 0.325636 0.181634 0.443893
O O6 0.565296 0.220287 0.706817
O O7 0.374689 0.095072 0.598555
O O8 0.261582 0.722741 0.752785
O O9 0.447800 0.760784 0.793617
O O10 0.217324 0.903375 0.142583
O O11 0.146724 0.737462 0.045441
O O12 0.173441 0.500000 0.869411
O O13 0.138851 0.593579 0.955240
O O14 0.465467 0.000000 0.357112
O O15 0.750000 0.250000 0.000000
#
# Coordination Sequence:
#
# PCOD9188639 Si02
#       8
#     4   8   8   8   4   4   8   4
#     4  10  19  36  60  89 119 150 186 244 302 348
#     4  10  21  37  60  89 120 155 194 238 289 350
#     4  11  22  38  60  90 124 155 192 241 300 353
#     4  11  22  38  60  90 124 155 192 241 300 353
#     4  12  24  38  60  84 118 152 202 250 286 346
#     4  10  19  36  60  89 119 150 186 244 302 348
#     4  12  23  40  59  86 115 157 203 245 285 346
#     4   8  20  32  55  86 119 142 184 232 298 334
#
# _framework density 19.694997999999998
#
# number of rings (size 3 to 8) (size 9 to 14) (size 15 to 20)
#    0.000    1.333    3.333    2.500    4.667    0.000 
#    0.000    9.167    0.000    0.000    0.000    3.500 
#    0.000    0.000    0.000    0.000    0.000    0.000 
#
# Total GULP energy -133925.379125 kJ/mol
# GULP energy per Si atom -5580.224130 kJ/mol
# Density = 1.965017 g / cm^3
# Si number density = 19.694998 Si / 1000 Ang^3
#
#
#
# Elastic Constant Matrix: (Units=GPa)
#
#
# Indices 1 2 3 4 5 6 
#
# 1 51.0277 17.2245 -3.7950 -0.0001 -4.5149 -0.0003
# 2 17.2245 107.4310 5.5649 0.0003 4.4597 0.0002
# 3 -3.7950 5.5649 88.4400 -0.0009 5.9240 -0.0004
# 4 -0.0001 0.0003 -0.0009 23.5605 -0.0001 3.2950
# 5 -4.5149 4.4597 5.9240 -0.0001 33.7615 0.0000
# 6 -0.0003 0.0002 -0.0004 3.2950 0.0000 13.8602
#
#
#
# Elastic Compliance Matrix: (Units=1/GPa)
#
#
# Indices 1 2 3 4 5 6 
#
# 1 0.021148 -0.003569 0.000922 0.000000 0.003138 0.000001
# 2 -0.003569 0.009985 -0.000669 0.000000 -0.001679 0.000000
# 3 0.000922 -0.000669 0.011510 0.000000 -0.001808 0.000000
# 4 0.000000 0.000000 0.000000 0.043904 0.000000 -0.010437
# 5 0.003138 -0.001679 -0.001808 0.000000 0.030578 0.000000
# 6 0.000001 0.000000 0.000000 -0.010437 0.000000 0.074630
#
#
# Mechanical properties :
#
#
# Convention : Reuss Voigt Hill
#
# Bulk Modulus (GPa) = 27.76922 31.65416 29.71169
# Shear Modulus (GPa) = 23.76543 29.43007 26.59775
#
# Velocity S-wave (km/s) = 3.47749 3.86980 3.67888
# Velocity P-wave (km/s) = 5.50038 6.00618 5.75883
#
# Compressibility (1/GPa) = 0.03601110
#
# Stress axis : x y z
#
# Youngs Moduli (GPa) = 47.28577 100.15215 86.88212
#
# Poissons Ratio (x) = 0.35741 -0.08009
# Poissons Ratio (y) = 0.16875 0.05812
# Poissons Ratio (z) = -0.04359 0.06700
#
# Static dielectric constant tensor:
#      x y z
#    x 1.691830 0.000000 -0.001060 
#    y 0.000000 1.724310 0.000000 
#    z -0.001060 0.000000 1.751080 
# 
# From -- ./inp_files/278287.got.cif
#   From: 2010.05.17/outbox.cif.g08.bks.cpg/sg12_140_cif.got.tgz:278287.got - 2010.06.03 13:09:07.
