data_PCOD9188084
_publ_section_title
;
Structure prediction by ZEFSAII (Michael W. Deem and Ramdas Pophale) SiO2 
 PCOD9188084
Probable space group: C 2/M
;
_chemical_formula_sum "Si O2"
_cell_formula_units_Z 64
_cell_length_a 23.443688
_cell_length_b 8.232382
_cell_length_c 25.003156
_cell_angle_alpha 90.000000
_cell_angle_beta 45.481337
_cell_angle_gamma 90.000000
_cell_volume 3440.719518
_symmetry_space_group_name_H-M "C 2/M"
_symmetry_group_IT_number 12
_symmetry_cell_setting 'monoclinic'
loop_
_space_group_symop_operation_xyz
x,y,z
-x,y,-z
-x,-y,-z
x,-y,z
1/2+x,1/2+y,z
1/2-x,1/2+y,-z
1/2-x,1/2-y,-z
1/2+x,1/2-y,z
loop_
_atom_site_type_symbol
_atom_site_label
_atom_site_fract_x
_atom_site_fract_y
_atom_site_fract_z
Si Si1 0.837877 0.808823 0.461995
Si Si2 0.094990 0.693903 0.293646
Si Si3 0.007250 0.693620 0.147648
Si Si4 0.315950 0.305582 0.998022
Si Si5 0.730504 0.698704 0.852013
Si Si6 0.464750 0.193874 0.292595
Si Si7 0.434711 0.304894 0.085998
Si Si8 0.531824 0.307164 0.537223
O O1 0.750000 0.750000 0.500000
O O2 0.897382 0.774953 0.373311
O O3 0.888345 0.744394 0.481938
O O4 0.829821 0.000000 0.476309
O O5 0.095504 0.500000 0.304686
O O6 0.185156 0.753893 0.227029
O O7 0.041536 0.777730 0.373850
O O8 0.048522 0.716178 0.268323
O O9 0.000968 0.500000 0.153192
O O10 0.974636 0.755399 0.225908
O O11 0.959291 0.760528 0.129083
O O12 0.098980 0.738336 0.076304
O O13 0.322388 0.500000 0.995503
O O14 0.288067 0.250670 0.075128
O O15 0.250000 0.250000 0.000000
O O16 0.733897 0.500000 0.849872
O O17 0.653894 0.753231 0.869057
O O18 0.448140 0.000000 0.302853
O O19 0.434255 0.500000 0.080986
O O20 0.500000 0.243242 0.000000
O O21 0.500000 0.243301 0.500000
O O22 0.545121 0.500000 0.521488
#
# Coordination Sequence:
#
# PCOD9188084 Si02
#       8
#     8   8   8   8   8   8   8   8
#     4  10  20  36  60  86 113 146 184 224 273 334
#     4   9  17  33  57  80 103 137 179 222 263 315
#     4  11  22  36  54  79 108 141 182 229 277 323
#     4  11  21  35  54  78 106 140 179 223 273 327
#     4   9  18  34  54  74 104 142 179 218 271 324
#     4   9  19  36  56  78 110 145 179 223 276 322
#     4  10  19  36  56  73 102 149 189 222 270 327
#     4   9  19  37  58  81 112 146 175 214 273 332
#
# _framework density 18.600760999999999
#
# number of rings (size 3 to 8) (size 9 to 14) (size 15 to 20)
#    0.000    2.250    1.250    1.875    0.000    4.000 
#    2.250    4.375    0.000    0.000    0.000    0.000 
#    0.000    0.000    0.000    0.000    0.000    0.000 
#
# Total GULP energy -178357.811381 kJ/mol
# GULP energy per Si atom -5573.681606 kJ/mol
# Density = 1.855842 g / cm^3
# Si number density = 18.600761 Si / 1000 Ang^3
#
#
#
# Elastic Constant Matrix: (Units=GPa)
#
#
# Indices 1 2 3 4 5 6 
#
# 1 160.3906 -9.5339 69.9764 -0.0006 -9.7829 0.0003
# 2 -9.5339 -44.1719 -4.2101 0.0014 -18.0837 0.0040
# 3 69.9764 -4.2101 83.5042 -0.0009 -4.2384 0.0002
# 4 -0.0006 0.0014 -0.0009 21.5171 -0.0002 -1.7188
# 5 -9.7829 -18.0837 -4.2384 -0.0002 38.3077 -0.0001
# 6 0.0003 0.0040 0.0002 -1.7188 -0.0001 23.4993
#
#
#
# Elastic Compliance Matrix: (Units=1/GPa)
#
#
# Indices 1 2 3 4 5 6 
#
# 1 0.009780 -0.001655 -0.008238 0.000000 0.000805 0.000000
# 2 -0.001655 -0.018526 -0.000013 0.000001 -0.009170 0.000003
# 3 -0.008238 -0.000013 0.018877 0.000001 -0.000021 0.000000
# 4 0.000000 0.000001 0.000001 0.046748 0.000001 0.003419
# 5 0.000805 -0.009170 -0.000021 0.000001 0.021979 0.000002
# 6 0.000000 0.000003 0.000000 0.003419 0.000002 0.042805
#
#
# Mechanical properties :
#
#
# Convention : Reuss Voigt Hill
#
# Bulk Modulus (GPa) = -103.29867 34.68751 -34.30558
# Shear Modulus (GPa) = 36.16753 26.23084 31.19918
#
# Velocity S-wave (km/s) = 4.41433 3.75934 4.09994
# Velocity P-wave (km/s) = 5.44733 6.12637 1.98230
#
# Compressibility (1/GPa) = -0.00968067
#
# Stress axis : x y z
#
# Youngs Moduli (GPa) = 102.25415 -53.97708 52.97436
#
# Poissons Ratio (x) = -0.08934 0.43639
# Poissons Ratio (y) = 0.16924 0.00066
# Poissons Ratio (z) = 0.84235 -0.00068
#
# Static dielectric constant tensor:
#      x y z
#    x 1.649320 0.000000 0.009430 
#    y 0.000000 1.663630 0.000000 
#    z 0.009430 0.000000 1.614750 
# 
# From -- ./inp_files/345938.got.cif
#   From: 2010.05.17/outbox.cif.g08.bks.cpg/sg12_173_cif.got.tgz:345938.got - 2010.06.03 13:09:07.
