data_PCOD9188110
_publ_section_title
;
Structure prediction by ZEFSAII (Michael W. Deem and Ramdas Pophale) SiO2 
 PCOD9188110
Probable space group: C 2/M
;
_chemical_formula_sum "Si O2"
_cell_formula_units_Z 40
_cell_length_a 17.869611
_cell_length_b 17.808192
_cell_length_c 8.711717
_cell_angle_alpha 90.000000
_cell_angle_beta 54.425342
_cell_angle_gamma 90.000000
_cell_volume 2254.864828
_symmetry_space_group_name_H-M "C 2/M"
_symmetry_group_IT_number 12
_symmetry_cell_setting 'monoclinic'
loop_
_space_group_symop_operation_xyz
x,y,z
-x,y,-z
-x,-y,-z
x,-y,z
1/2+x,1/2+y,z
1/2-x,1/2+y,-z
1/2-x,1/2-y,-z
1/2+x,1/2-y,z
loop_
_atom_site_type_symbol
_atom_site_label
_atom_site_fract_x
_atom_site_fract_y
_atom_site_fract_z
Si Si1 0.246312 0.304638 0.652557
Si Si2 0.228927 0.914735 0.629647
Si Si3 0.392232 0.917741 0.668993
Si Si4 0.399804 0.294243 0.046972
Si Si5 0.598581 0.750113 0.296996
O O1 0.250000 0.250000 0.500000
O O2 0.260937 0.384524 0.555649
O O3 0.149786 0.283435 0.844217
O O4 0.325194 0.282305 0.678326
O O5 0.328375 0.912022 0.594032
O O6 0.162192 0.860783 0.807692
O O7 0.195756 0.000000 0.673076
O O8 0.500000 0.919516 0.500000
O O9 0.377478 0.837666 0.768084
O O10 0.369758 0.000000 0.767575
O O11 0.500000 0.298305 0.000000
O O12 0.403757 0.294970 0.858683
O O13 0.500000 0.748294 0.500000
#
# Coordination Sequence:
#
# PCOD9188110 Si02
#       5
#     8   8   8   8   8
#     4  10  19  36  56  83 111 145 189 234 278 335
#     4  10  21  39  59  81 116 154 187 233 288 339
#     4   9  18  31  54  82 112 148 185 222 279 339
#     4  11  23  36  58  87 114 149 194 234 280 336
#     4  11  20  35  60  83 113 151 191 238 280 333
#
# _framework density 17.739422000000001
#
# number of rings (size 3 to 8) (size 9 to 14) (size 15 to 20)
#    0.000    1.800    4.000    3.000    2.800    0.400 
#    0.000    2.000    0.000    3.600    0.000    0.000 
#    0.000    0.000    0.000    0.000    0.000    0.000 
#
# Total GULP energy -111396.233389 kJ/mol
# GULP energy per Si atom -5569.811669 kJ/mol
# Density = 1.769905 g / cm^3
# Si number density = 17.739422 Si / 1000 Ang^3
#
#
#
# Elastic Constant Matrix: (Units=GPa)
#
#
# Indices 1 2 3 4 5 6 
#
# 1 153.4623 44.7362 54.1418 0.0000 -4.2020 0.0000
# 2 44.7362 118.9059 42.8762 0.0000 3.9242 0.0000
# 3 54.1418 42.8762 88.3284 0.0000 7.8886 0.0000
# 4 0.0000 0.0000 0.0000 11.4205 0.0000 7.5411
# 5 -4.2020 3.9242 7.8886 0.0000 28.8719 0.0000
# 6 0.0000 0.0000 0.0000 7.5411 0.0000 -36.7203
#
#
#
# Elastic Compliance Matrix: (Units=1/GPa)
#
#
# Indices 1 2 3 4 5 6 
#
# 1 0.008780 -0.001655 -0.004831 0.000000 0.002823 0.000000
# 2 -0.001655 0.010506 -0.004035 0.000000 -0.000566 0.000000
# 3 -0.004831 -0.004035 0.016662 0.000000 -0.004707 0.000000
# 4 0.000000 0.000000 0.000000 0.077106 0.000000 0.015835
# 5 0.002823 -0.000566 -0.004707 0.000000 0.036410 0.000000
# 6 0.000000 0.000000 0.000000 0.015835 0.000000 -0.023981
#
#
# Mechanical properties :
#
#
# Convention : Reuss Voigt Hill
#
# Bulk Modulus (GPa) = 67.08300 71.57834 69.33067
# Shear Modulus (GPa) = 33.00490 15.31058 24.15774
#
# Velocity S-wave (km/s) = 4.31808 2.94101 3.69428
# Velocity P-wave (km/s) = 7.92205 7.20904 7.57394
#
# Compressibility (1/GPa) = 0.01490691
#
# Stress axis : x y z
#
# Youngs Moduli (GPa) = 113.89243 95.18154 60.01823
#
# Poissons Ratio (x) = 0.15749 0.28994
# Poissons Ratio (y) = 0.18845 0.24218
# Poissons Ratio (z) = 0.55020 0.38407
#
# Static dielectric constant tensor:
#      x y z
#    x 1.590240 0.000000 -0.001310 
#    y 0.000000 1.659800 0.000000 
#    z -0.001310 0.000000 1.611660 
# 
# From -- ./inp_files/60878.got.cif
#   From: 2010.05.17/outbox.cif.g08.bks.cpg/sg12_31_cif.got.tgz:60878.got - 2010.06.03 13:09:07.
