data_PCOD9188977
_publ_section_title
;
Structure prediction by ZEFSAII (Michael W. Deem and Ramdas Pophale) SiO2 
 PCOD9188977
Probable space group: C 2/M
;
_chemical_formula_sum "Si O2"
_cell_formula_units_Z 56
_cell_length_a 16.418056
_cell_length_b 16.648294
_cell_length_c 11.595392
_cell_angle_alpha 90.000000
_cell_angle_beta 61.281443
_cell_angle_gamma 90.000000
_cell_volume 2779.532998
_symmetry_space_group_name_H-M "C 2/M"
_symmetry_group_IT_number 12
_symmetry_cell_setting 'monoclinic'
loop_
_space_group_symop_operation_xyz
x,y,z
-x,y,-z
-x,-y,-z
x,-y,z
1/2+x,1/2+y,z
1/2-x,1/2+y,-z
1/2-x,1/2-y,-z
1/2+x,1/2-y,z
loop_
_atom_site_type_symbol
_atom_site_label
_atom_site_fract_x
_atom_site_fract_y
_atom_site_fract_z
Si Si1 0.713076 0.407166 0.356428
Si Si2 0.682327 0.905256 0.372841
Si Si3 0.472613 0.597029 0.889904
Si Si4 0.599386 0.141118 0.662907
Si Si5 0.218693 0.098016 0.092442
Si Si6 0.137872 0.171028 0.634802
Si Si7 0.892929 0.402771 0.827629
O O1 0.682626 0.500000 0.381656
O O2 0.821779 0.403226 0.316564
O O3 0.702535 0.375188 0.234376
O O4 0.658807 0.358779 0.491251
O O5 0.609037 0.892006 0.525869
O O6 0.774402 0.857893 0.348581
O O7 0.642727 0.880683 0.276191
O O8 0.706087 0.000000 0.351464
O O9 0.477340 0.500000 0.882774
O O10 0.368336 0.621197 0.927336
O O11 0.545933 0.631619 0.749667
O O12 0.500000 0.622793 0.000000
O O13 0.627583 0.233933 0.643220
O O14 0.495669 0.129747 0.777704
O O15 0.221437 0.000000 0.093393
O O16 0.315785 0.124630 0.971618
O O17 0.897976 0.500000 0.827603
#
# Coordination Sequence:
#
# PCOD9188977 Si02
#       7
#     8   8   8   8   8   8   8
#     4  10  20  38  62  85 116 156 199 243 287 350
#     4  10  19  36  64  89 112 149 204 258 293 338
#     4  10  20  39  64  87 114 150 201 253 290 340
#     4  11  22  37  55  87 124 157 192 236 299 366
#     4   9  20  37  59  89 114 146 197 244 291 343
#     4  11  22  38  57  88 121 157 192 238 304 359
#     4  10  20  38  63  89 115 151 203 255 296 340
#
# _framework density 20.147269999999999
#
# number of rings (size 3 to 8) (size 9 to 14) (size 15 to 20)
#    0.000    1.857    0.000    6.429    0.000    4.571 
#   10.286    5.000    0.000    0.000    0.000    0.000 
#    0.000    0.000    0.000    0.000    0.000    0.000 
#
# Total GULP energy -156512.649994 kJ/mol
# GULP energy per Si atom -5589.737500 kJ/mol
# Density = 2.010141 g / cm^3
# Si number density = 20.147270 Si / 1000 Ang^3
#
#
#
# Elastic Constant Matrix: (Units=GPa)
#
#
# Indices 1 2 3 4 5 6 
#
# 1 51.3704 19.1522 54.1960 0.0000 -3.3694 0.0000
# 2 19.1522 47.1039 17.4215 0.0000 0.5724 0.0000
# 3 54.1960 17.4215 101.3375 0.0000 -8.2869 0.0000
# 4 0.0000 0.0000 0.0000 -52.5358 0.0000 -7.4697
# 5 -3.3694 0.5724 -8.2869 0.0000 39.9562 0.0000
# 6 0.0000 0.0000 0.0000 -7.4697 0.0000 -4.6770
#
#
#
# Elastic Compliance Matrix: (Units=1/GPa)
#
#
# Indices 1 2 3 4 5 6 
#
# 1 0.049546 -0.011012 -0.024668 0.000000 -0.000780 0.000000
# 2 -0.011012 0.025171 0.001482 0.000000 -0.000982 0.000000
# 3 -0.024668 0.001482 0.023025 0.000000 0.002674 0.000000
# 4 0.000000 0.000000 0.000000 -0.024627 0.000000 0.039332
# 5 -0.000780 -0.000982 0.002674 0.000000 0.025530 0.000000
# 6 0.000000 0.000000 0.000000 0.039332 0.000000 -0.276627
#
#
# Mechanical properties :
#
#
# Convention : Reuss Voigt Hill
#
# Bulk Modulus (GPa) = 34.07778 42.37236 38.22507
# Shear Modulus (GPa) = -50.09817 3.81814 -23.14002
#
# Velocity S-wave (km/s) = -4.99199 1.37813 -3.39269
# Velocity P-wave (km/s) = 4.03430 4.85894 1.91490
#
# Compressibility (1/GPa) = 0.02934463
#
# Stress axis : x y z
#
# Youngs Moduli (GPa) = 20.18330 39.72824 43.43173
#
# Poissons Ratio (x) = 0.43749 1.07138
# Poissons Ratio (y) = 0.22226 -0.06435
# Poissons Ratio (z) = 0.49788 -0.05887
#
# Static dielectric constant tensor:
#      x y z
#    x 1.697340 0.000000 0.000540 
#    y 0.000000 1.691700 0.000000 
#    z 0.000540 0.000000 1.701220 
# 
# From -- ./inp_files/146052.got.cif
#   From: 2010.05.17/outbox.cif.g08.bks.cpg/sg12_74_cif.got.tgz:146052.got - 2010.06.03 13:09:07.
