data_PCOD9188102
_publ_section_title
;
Structure prediction by ZEFSAII (Michael W. Deem and Ramdas Pophale) SiO2 
 PCOD9188102
Probable space group: C 2/M
;
_chemical_formula_sum "Si O2"
_cell_formula_units_Z 56
_cell_length_a 27.161351
_cell_length_b 17.030855
_cell_length_c 18.838234
_cell_angle_alpha 90.000000
_cell_angle_beta 19.344702
_cell_angle_gamma 90.000000
_cell_volume 2886.587563
_symmetry_space_group_name_H-M "C 2/M"
_symmetry_group_IT_number 12
_symmetry_cell_setting 'monoclinic'
loop_
_space_group_symop_operation_xyz
x,y,z
-x,y,-z
-x,-y,-z
x,-y,z
1/2+x,1/2+y,z
1/2-x,1/2+y,-z
1/2-x,1/2-y,-z
1/2+x,1/2-y,z
loop_
_atom_site_type_symbol
_atom_site_label
_atom_site_fract_x
_atom_site_fract_y
_atom_site_fract_z
Si Si1 0.171012 0.789968 0.500407
Si Si2 0.997277 0.346559 0.331021
Si Si3 0.876115 0.660833 0.984533
Si Si4 0.659326 0.197394 0.246859
Si Si5 0.936113 0.802536 0.204999
Si Si6 0.209851 0.093795 0.807817
Si Si7 0.338841 0.086567 0.181364
O O1 0.040051 0.742622 0.641480
O O2 0.122852 0.832894 0.638486
O O3 0.294560 0.724398 0.352613
O O4 0.238921 0.848053 0.352280
O O5 0.848045 0.384644 0.567542
O O6 0.123104 0.339054 0.219586
O O7 0.051026 0.380599 0.182819
O O8 0.749228 0.720943 0.129248
O O9 0.837672 0.600682 0.098808
O O10 0.985913 0.721043 0.877017
O O11 0.500000 0.211815 0.500000
O O12 0.740870 0.132127 0.184077
O O13 0.054507 0.859587 0.006844
O O14 0.190445 0.000000 0.835744
O O15 0.283468 0.000000 0.273302
O O16 0.500000 0.094134 0.000000
#
# Coordination Sequence:
#
# PCOD9188102 Si02
#       7
#     8   8   8   8   8   8   8
#     4  10  19  36  59  80 109 140 188 240 275 329
#     4  10  21  33  58  86 110 151 192 233 281 328
#     4  10  19  36  56  81 114 143 192 240 272 333
#     4   9  18  34  58  85 107 149 195 236 284 331
#     4   9  19  35  59  82 102 144 187 230 284 324
#     4  10  21  36  55  82 116 148 183 228 284 348
#     4  11  22  34  54  81 111 149 184 227 286 342
#
# _framework density 19.400069999999999
#
# number of rings (size 3 to 8) (size 9 to 14) (size 15 to 20)
#    0.000    2.143    1.429    3.000    0.000    3.714 
#    0.000    1.429    0.000    3.857    0.000    0.000 
#    0.000    0.000    0.000    0.000    0.000    0.000 
#
# Total GULP energy -156094.166936 kJ/mol
# GULP energy per Si atom -5574.791676 kJ/mol
# Density = 1.935591 g / cm^3
# Si number density = 19.400070 Si / 1000 Ang^3
#
#
#
# Elastic Constant Matrix: (Units=GPa)
#
#
# Indices 1 2 3 4 5 6 
#
# 1 92.3237 28.6223 35.5575 -0.0025 20.1068 -0.0019
# 2 28.6223 45.7229 22.0162 -0.0013 13.0043 -0.0007
# 3 35.5575 22.0162 66.8365 -0.0066 12.0401 -0.0056
# 4 -0.0025 -0.0013 -0.0066 277.2313 0.0048 295.1506
# 5 20.1068 13.0043 12.0401 0.0048 32.6644 0.0042
# 6 -0.0019 -0.0007 -0.0056 295.1506 0.0042 331.8146
#
#
#
# Elastic Compliance Matrix: (Units=1/GPa)
#
#
# Indices 1 2 3 4 5 6 
#
# 1 0.015965 -0.005731 -0.005619 0.000000 -0.005474 0.000000
# 2 -0.005731 0.029997 -0.005694 0.000001 -0.006316 -0.000001
# 3 -0.005619 -0.005694 0.020132 0.000002 -0.001695 -0.000001
# 4 0.000000 0.000001 0.000002 0.068057 -0.000003 -0.060537
# 5 -0.005474 -0.006316 -0.001695 -0.000003 0.037123 0.000002
# 6 0.000000 -0.000001 -0.000001 -0.060537 0.000002 0.056862
#
#
# Mechanical properties :
#
#
# Convention : Reuss Voigt Hill
#
# Bulk Modulus (GPa) = 31.24586 41.91946 36.58266
# Shear Modulus (GPa) = 18.32217 136.25455 77.28836
#
# Velocity S-wave (km/s) = 3.07651 8.38967 6.31868
# Velocity P-wave (km/s) = 5.36292 10.74726 8.49307
#
# Compressibility (1/GPa) = 0.03200424
#
# Stress axis : x y z
#
# Youngs Moduli (GPa) = 62.63845 33.33708 49.67111
#
# Poissons Ratio (x) = 0.19106 0.27912
# Poissons Ratio (y) = 0.35898 0.28284
# Poissons Ratio (z) = 0.35199 0.18983
#
# Static dielectric constant tensor:
#      x y z
#    x 1.713860 0.000000 0.020360 
#    y 0.000000 1.623930 0.000000 
#    z 0.020360 0.000000 1.740230 
# 
# From -- ./inp_files/293826.got.cif
#   From: 2010.05.17/outbox.cif.g08.bks.cpg/sg12_147_cif.got.tgz:293826.got - 2010.06.03 13:09:07.
