data_PCOD9188112
_publ_section_title
;
Structure prediction by ZEFSAII (Michael W. Deem and Ramdas Pophale) SiO2 
 PCOD9188112
Probable space group: C 2/M
;
_chemical_formula_sum "Si O2"
_cell_formula_units_Z 40
_cell_length_a 28.542918
_cell_length_b 10.109180
_cell_length_c 17.107508
_cell_angle_alpha 90.000000
_cell_angle_beta 157.065958
_cell_angle_gamma 90.000000
_cell_volume 1923.531749
_symmetry_space_group_name_H-M "C 2/M"
_symmetry_group_IT_number 12
_symmetry_cell_setting 'monoclinic'
loop_
_space_group_symop_operation_xyz
x,y,z
-x,y,-z
-x,-y,-z
x,-y,z
1/2+x,1/2+y,z
1/2-x,1/2+y,-z
1/2-x,1/2-y,-z
1/2+x,1/2-y,z
loop_
_atom_site_type_symbol
_atom_site_label
_atom_site_fract_x
_atom_site_fract_y
_atom_site_fract_z
Si Si1 0.248872 0.784415 0.668624
Si Si2 0.415870 0.500000 0.502379
Si Si3 0.500000 0.778523 0.000000
Si Si4 0.273493 0.000000 0.911131
Si Si5 0.834754 0.206908 0.955436
Si Si6 0.800430 0.000000 0.028969
Si Si7 0.402999 0.650616 0.695604
O O1 0.150101 0.878531 0.556189
O O2 0.274894 0.681367 0.778318
O O3 0.188707 0.755016 0.492366
O O4 0.381793 0.845734 0.855988
O O5 0.362261 0.500000 0.332456
O O6 0.558155 0.500000 0.729735
O O7 0.559776 0.692755 0.160526
O O8 0.330768 0.136021 0.966850
O O9 0.272593 0.000000 0.003101
O O10 0.776945 0.126825 0.937843
O O11 0.970566 0.158473 0.155498
O O12 0.356299 0.500000 0.622504
#
# Coordination Sequence:
#
# PCOD9188112 Si02
#       7
#     8   4   4   4   8   4   8
#     4  10  19  36  56  83 119 151 199 239 287 345
#     4  10  19  37  62  82 112 162 204 227 289 366
#     4  10  23  31  58  88 120 147 198 253 294 327
#     4  10  23  36  60  95 119 143 200 256 287 346
#     4  10  21  36  62  88 117 157 195 240 297 346
#     4  12  19  40  64  85 117 161 196 238 295 355
#     4  11  19  39  61  82 117 161 202 235 288 360
#
# _framework density 20.795081
#
# number of rings (size 3 to 8) (size 9 to 14) (size 15 to 20)
#    0.000    1.600    4.000    1.800    0.000    0.400 
#    0.000    2.000    0.000    1.200    0.000    0.000 
#    0.000    0.000    0.000    0.000    0.000    0.000 
#
# Total GULP energy -111360.955834 kJ/mol
# GULP energy per Si atom -5568.047792 kJ/mol
# Density = 2.074775 g / cm^3
# Si number density = 20.795081 Si / 1000 Ang^3
#
#
#
# Elastic Constant Matrix: (Units=GPa)
#
#
# Indices 1 2 3 4 5 6 
#
# 1 119.3173 17.9624 29.8940 0.0000 -35.4186 0.0000
# 2 17.9624 69.9501 8.3592 0.0000 -11.9597 0.0000
# 3 29.8940 8.3592 107.4791 0.0000 -33.1954 0.0000
# 4 0.0000 0.0000 0.0000 11.4926 0.0000 -2.6299
# 5 -35.4186 -11.9597 -33.1954 0.0000 47.9644 0.0000
# 6 0.0000 0.0000 0.0000 -2.6299 0.0000 2.8804
#
#
#
# Elastic Compliance Matrix: (Units=1/GPa)
#
#
# Indices 1 2 3 4 5 6 
#
# 1 0.010920 -0.001488 -0.000694 0.000000 0.007212 0.000000
# 2 -0.001488 0.015135 0.000080 0.000000 0.002730 0.000000
# 3 -0.000694 0.000080 0.011878 0.000000 0.007728 0.000000
# 4 0.000000 0.000000 0.000000 0.109994 0.000000 0.100429
# 5 0.007212 0.002730 0.007728 0.000000 0.032204 0.000000
# 6 0.000000 0.000000 0.000000 0.100429 0.000000 0.438869
#
#
# Mechanical properties :
#
#
# Convention : Reuss Voigt Hill
#
# Bulk Modulus (GPa) = 29.64811 45.46420 37.55616
# Shear Modulus (GPa) = 7.88088 28.50286 18.19187
#
# Velocity S-wave (km/s) = 1.94885 3.70625 2.96094
# Velocity P-wave (km/s) = 4.39912 6.34236 5.45792
#
# Compressibility (1/GPa) = 0.03372896
#
# Stress axis : x y z
#
# Youngs Moduli (GPa) = 91.57670 66.07074 84.19124
#
# Poissons Ratio (x) = 0.09832 0.05842
# Poissons Ratio (y) = 0.13627 -0.00674
# Poissons Ratio (z) = 0.06355 -0.00529
#
# Static dielectric constant tensor:
#      x y z
#    x 1.827540 0.000000 -0.046270 
#    y 0.000000 1.740270 0.000000 
#    z -0.046270 0.000000 1.757100 
# 
# From -- ./inp_files/296244.got.cif
#   From: 2010.05.17/outbox.cif.g08.bks.cpg/sg12_149_cif.got.tgz:296244.got - 2010.06.03 13:09:07.
