data_PCOD9188476
_publ_section_title
;
Structure prediction by ZEFSAII (Michael W. Deem and Ramdas Pophale) SiO2 
 PCOD9188476
Probable space group: C 2/M
;
_chemical_formula_sum "Si O2"
_cell_formula_units_Z 50
_cell_length_a 32.488734
_cell_length_b 8.048114
_cell_length_c 31.356287
_cell_angle_alpha 90.000000
_cell_angle_beta 164.114127
_cell_angle_gamma 90.000000
_cell_volume 2244.199036
_symmetry_space_group_name_H-M "C 2/M"
_symmetry_group_IT_number 12
_symmetry_cell_setting 'monoclinic'
loop_
_space_group_symop_operation_xyz
x,y,z
-x,y,-z
-x,-y,-z
x,-y,z
1/2+x,1/2+y,z
1/2-x,1/2+y,-z
1/2-x,1/2-y,-z
1/2+x,1/2-y,z
loop_
_atom_site_type_symbol
_atom_site_label
_atom_site_fract_x
_atom_site_fract_y
_atom_site_fract_z
Si Si1 0.405502 0.318816 0.453553
Si Si2 0.858211 0.190561 0.644430
Si Si3 0.705740 0.308021 0.324621
Si Si4 0.186229 0.311837 0.981716
Si Si5 0.000000 0.500000 0.500000
Si Si6 0.360732 0.801348 0.971339
Si Si7 0.675121 0.312530 0.159712
O O1 0.480154 0.500000 0.525845
O O2 0.328837 0.294785 0.422537
O O3 0.266758 0.308926 0.281542
O O4 0.496277 0.153377 0.532790
O O5 0.750000 0.250000 0.500000
O O6 0.770404 0.195886 0.601360
O O7 0.006718 0.299899 0.796792
O O8 0.908378 0.000000 0.687728
O O9 0.706642 0.500000 0.310449
O O10 0.538711 0.238465 0.150593
O O11 0.238825 0.500000 0.037929
O O12 0.208283 0.237203 0.051960
O O13 0.250000 0.250000 0.000000
O O14 0.339636 0.000000 0.948517
O O15 0.312496 0.725197 0.877956
O O16 0.739779 0.500000 0.233603
O O17 0.500000 0.311748 0.000000
#
# Coordination Sequence:
#
# PCOD9188476 Si02
#       7
#     8   8   8   8   2   8   8
#     4  12  24  41  66  89 120 167 207 256 309 366
#     4  10  21  37  62  91 123 157 205 261 312 365
#     4  10  19  36  59  89 121 156 201 254 310 370
#     4  10  21  38  60  87 124 162 205 251 310 380
#     4  12  26  48  58  82 124 164 222 250 300 374
#     4  10  20  33  56  92 123 154 200 249 306 380
#     4  11  21  35  59  93 127 153 194 254 309 363
#
# _framework density 22.279662999999999
#
# number of rings (size 3 to 8) (size 9 to 14) (size 15 to 20)
#    0.000    1.440    3.200    2.640    0.000    4.480 
#    0.000    1.600    3.520    3.840    0.000    0.000 
#    0.000    0.000    0.000    0.000    0.000    0.000 
#
# Total GULP energy -139404.464674 kJ/mol
# GULP energy per Si atom -5576.178587 kJ/mol
# Density = 2.222895 g / cm^3
# Si number density = 22.279663 Si / 1000 Ang^3
#
#
#
# Elastic Constant Matrix: (Units=GPa)
#
#
# Indices 1 2 3 4 5 6 
#
# 1 160.1390 39.6882 23.1171 -0.0127 4.0117 -0.0023
# 2 39.6882 131.1435 9.7560 -0.0135 7.3463 -0.0044
# 3 23.1171 9.7560 32.8784 -0.0199 -10.0023 -0.0084
# 4 -0.0127 -0.0135 -0.0199 23.8860 -0.0051 1.9046
# 5 4.0117 7.3463 -10.0023 -0.0051 43.7825 -0.0006
# 6 -0.0023 -0.0044 -0.0084 1.9046 -0.0006 33.1878
#
#
#
# Elastic Compliance Matrix: (Units=1/GPa)
#
#
# Indices 1 2 3 4 5 6 
#
# 1 0.007479 -0.001788 -0.005207 -0.000002 -0.001575 -0.000001
# 2 -0.001788 0.008387 -0.001730 0.000002 -0.001639 0.000000
# 3 -0.005207 -0.001730 0.037424 0.000029 0.009317 0.000007
# 4 -0.000002 0.000002 0.000029 0.042058 0.000011 -0.002414
# 5 -0.001575 -0.001639 0.009317 0.000011 0.025388 0.000002
# 6 -0.000001 0.000000 0.000007 -0.002414 0.000002 0.030270
#
#
# Mechanical properties :
#
#
# Convention : Reuss Voigt Hill
#
# Bulk Modulus (GPa) = 27.90194 52.14260 40.02227
# Shear Modulus (GPa) = 27.71587 36.94457 32.33022
#
# Velocity S-wave (km/s) = 3.53086 4.07654 3.81348
# Velocity P-wave (km/s) = 5.40124 6.75367 6.11496
#
# Compressibility (1/GPa) = 0.03583980
#
# Stress axis : x y z
#
# Youngs Moduli (GPa) = 133.71200 119.23557 26.72077
#
# Poissons Ratio (x) = 0.21316 0.13914
# Poissons Ratio (y) = 0.23904 0.04623
# Poissons Ratio (z) = 0.69624 0.20629
#
# Static dielectric constant tensor:
#      x y z
#    x 1.835650 0.000000 -0.033280 
#    y 0.000000 1.819090 0.000000 
#    z -0.033280 0.000000 1.617650 
# 
# From -- ./inp_files/384879.got.cif
#   From: 2010.05.17/outbox.cif.g08.bks.cpg/sg12_193_cif.got.tgz:384879.got - 2010.06.03 13:09:07.
