data_PCOD9188882
_publ_section_title
;
Structure prediction by ZEFSAII (Michael W. Deem and Ramdas Pophale) SiO2 
 PCOD9188882
Probable space group: C 2/M
;
_chemical_formula_sum "Si O2"
_cell_formula_units_Z 64
_cell_length_a 14.506450
_cell_length_b 15.745589
_cell_length_c 14.477477
_cell_angle_alpha 90.000000
_cell_angle_beta 48.909426
_cell_angle_gamma 90.000000
_cell_volume 2492.269773
_symmetry_space_group_name_H-M "C 2/M"
_symmetry_group_IT_number 12
_symmetry_cell_setting 'monoclinic'
loop_
_space_group_symop_operation_xyz
x,y,z
-x,y,-z
-x,-y,-z
x,-y,z
1/2+x,1/2+y,z
1/2-x,1/2+y,-z
1/2-x,1/2-y,-z
1/2+x,1/2-y,z
loop_
_atom_site_type_symbol
_atom_site_label
_atom_site_fract_x
_atom_site_fract_y
_atom_site_fract_z
Si Si1 0.864175 0.845357 0.486517
Si Si2 0.634462 0.138458 0.307104
Si Si3 0.500271 0.598391 0.231512
Si Si4 0.724789 0.669521 0.269278
Si Si5 0.023464 0.402985 0.873820
Si Si6 0.889580 0.099719 0.128119
Si Si7 0.637277 0.140370 0.515679
Si Si8 0.257272 0.153197 0.031369
O O1 0.855818 0.875001 0.597884
O O2 0.749141 0.885019 0.506626
O O3 0.852983 0.742987 0.498606
O O4 0.979651 0.860009 0.344231
O O5 0.666759 0.237758 0.294105
O O6 0.754640 0.105919 0.176619
O O7 0.638960 0.105116 0.410037
O O8 0.499770 0.122015 0.357875
O O9 0.482134 0.500000 0.261505
O O10 0.400020 0.634100 0.225657
O O11 0.628020 0.609756 0.093361
O O12 0.745304 0.640068 0.150922
O O13 0.863659 0.660719 0.219285
O O14 0.058702 0.500000 0.827119
O O15 0.891540 0.380253 0.917760
O O16 0.000000 0.400274 0.000000
O O17 0.915743 0.000000 0.120626
O O18 0.000000 0.141886 0.000000
O O19 0.250000 0.250000 0.000000
#
# Coordination Sequence:
#
# PCOD9188882 Si02
#       8
#     8   8   8   8   8   8   8   8
#     4  10  20  40  62  89 128 164 210 271 332 391
#     4  10  19  36  62  91 124 160 212 265 326 389
#     4  11  24  43  65  93 132 177 224 278 338 402
#     4  10  23  38  64  97 126 164 218 273 340 406
#     4   9  20  41  63  88 127 170 215 273 337 401
#     4  10  23  41  61  86 127 177 221 269 327 397
#     4   9  19  35  61  90 121 162 201 262 328 385
#     4  11  25  40  64  97 129 171 222 276 331 405
#
# _framework density 25.679404000000002
#
# number of rings (size 3 to 8) (size 9 to 14) (size 15 to 20)
#    0.000    2.000    1.250    1.125    3.500    4.000 
#    0.000    2.500    0.000    0.000    0.000    0.000 
#    0.000    0.000    0.000    0.000    0.000    0.000 
#
# Total GULP energy -178637.209527 kJ/mol
# GULP energy per Si atom -5582.412798 kJ/mol
# Density = 2.562096 g / cm^3
# Si number density = 25.679404 Si / 1000 Ang^3
#
#
#
# Elastic Constant Matrix: (Units=GPa)
#
#
# Indices 1 2 3 4 5 6 
#
# 1 116.9724 0.5119 41.8540 0.0000 -20.2331 0.0000
# 2 0.5119 58.5577 -1.0490 0.0000 -2.7946 0.0000
# 3 41.8540 -1.0490 152.3353 0.0000 -13.6677 0.0000
# 4 0.0000 0.0000 0.0000 309.5739 0.0000 -174.6940
# 5 -20.2331 -2.7946 -13.6677 0.0000 46.7899 0.0000
# 6 0.0000 0.0000 0.0000 -174.6940 0.0000 110.5414
#
#
#
# Elastic Compliance Matrix: (Units=1/GPa)
#
#
# Indices 1 2 3 4 5 6 
#
# 1 0.010049 0.000042 -0.002434 0.000000 0.003637 0.000000
# 2 0.000042 0.017133 0.000205 0.000000 0.001101 0.000000
# 3 -0.002434 0.000205 0.007334 0.000000 0.001102 0.000000
# 4 0.000000 0.000000 0.000000 0.029854 0.000000 0.047180
# 5 0.003637 0.001101 0.001102 0.000000 0.023332 0.000000
# 6 0.000000 0.000000 0.000000 0.047180 0.000000 0.083607
#
#
# Mechanical properties :
#
#
# Convention : Reuss Voigt Hill
#
# Bulk Modulus (GPa) = 33.17679 45.61105 39.39392
# Shear Modulus (GPa) = 26.92069 112.48425 69.70247
#
# Velocity S-wave (km/s) = 3.24132 6.62559 5.21558
# Velocity P-wave (km/s) = 5.19190 8.73679 7.18635
#
# Compressibility (1/GPa) = 0.03014155
#
# Stress axis : x y z
#
# Youngs Moduli (GPa) = 99.51278 58.36668 136.35929
#
# Poissons Ratio (x) = -0.00246 0.33195
# Poissons Ratio (y) = -0.00419 -0.02799
# Poissons Ratio (z) = 0.24225 -0.01198
#
# Static dielectric constant tensor:
#      x y z
#    x 2.131010 0.000000 0.046020 
#    y 0.000000 1.978600 0.000000 
#    z 0.046020 0.000000 2.093430 
# 
# From -- ./inp_files/216800.got.cif
#   From: 2010.05.17/outbox.cif.g08.bks.cpg/sg12_109_cif.got.tgz:216800.got - 2010.06.03 13:09:07.
