data_PCOD9188379
_publ_section_title
;
Structure prediction by ZEFSAII (Michael W. Deem and Ramdas Pophale) SiO2 
 PCOD9188379
Probable space group: C 2/M
;
_chemical_formula_sum "Si O2"
_cell_formula_units_Z 56
_cell_length_a 15.222614
_cell_length_b 7.772327
_cell_length_c 25.274858
_cell_angle_alpha 90.000000
_cell_angle_beta 116.200885
_cell_angle_gamma 90.000000
_cell_volume 2683.139426
_symmetry_space_group_name_H-M "C 2/M"
_symmetry_group_IT_number 12
_symmetry_cell_setting 'monoclinic'
loop_
_space_group_symop_operation_xyz
x,y,z
-x,y,-z
-x,-y,-z
x,-y,z
1/2+x,1/2+y,z
1/2-x,1/2+y,-z
1/2-x,1/2-y,-z
1/2+x,1/2-y,z
loop_
_atom_site_type_symbol
_atom_site_label
_atom_site_fract_x
_atom_site_fract_y
_atom_site_fract_z
Si Si1 0.151831 0.204457 0.006989
Si Si2 0.322549 0.206632 0.786619
Si Si3 0.739650 0.711116 0.653058
Si Si4 0.533865 0.795531 0.878556
Si Si5 0.774360 0.707615 0.133279
Si Si6 0.472432 0.702655 0.435149
Si Si7 0.670282 0.794629 0.433986
O O1 0.181624 0.269594 0.073071
O O2 0.140348 0.000000 0.006629
O O3 0.250000 0.250000 0.000000
O O4 0.062794 0.269258 0.947656
O O5 0.288685 0.271150 0.720376
O O6 0.428612 0.275069 0.833503
O O7 0.243994 0.244917 0.811369
O O8 0.330337 0.000000 0.785093
O O9 0.740996 0.500000 0.654806
O O10 0.627552 0.770589 0.616424
O O11 0.794952 0.765088 0.614369
O O12 0.624755 0.728604 0.866837
O O13 0.531515 0.000000 0.869451
O O14 0.775739 0.500000 0.129676
O O15 0.500000 0.778138 0.500000
O O16 0.453625 0.500000 0.438938
O O17 0.565863 0.722428 0.423053
O O18 0.750000 0.750000 0.500000
O O19 0.662789 0.000000 0.430340
#
# Coordination Sequence:
#
# PCOD9188379 Si02
#       7
#     8   8   8   8   8   8   8
#     4   9  17  31  53  79 107 140 178 223 275 323
#     4  10  21  37  56  77 104 146 190 222 261 327
#     4   9  20  38  56  77 111 148 181 220 275 328
#     4   9  19  35  54  77 108 143 180 223 273 323
#     4   9  19  35  53  76 108 141 175 226 282 320
#     4  10  19  36  59  82 111 147 178 219 276 323
#     4  11  21  36  59  86 112 142 179 222 272 326
#
# _framework density 20.871075000000001
#
# number of rings (size 3 to 8) (size 9 to 14) (size 15 to 20)
#    0.000    2.429    1.429    1.714    0.000    5.429 
#    0.000    6.429    0.000    0.000    0.000    0.000 
#    0.000    0.000    0.000    0.000    0.000    0.000 
#
# Total GULP energy -156249.309595 kJ/mol
# GULP energy per Si atom -5580.332486 kJ/mol
# Density = 2.082357 g / cm^3
# Si number density = 20.871075 Si / 1000 Ang^3
#
#
#
# Elastic Constant Matrix: (Units=GPa)
#
#
# Indices 1 2 3 4 5 6 
#
# 1 66.7571 -9.0148 30.4451 0.0000 0.8136 0.0000
# 2 -9.0148 22.3956 0.5430 0.0000 5.5600 0.0000
# 3 30.4451 0.5430 117.9992 0.0000 -10.1259 0.0000
# 4 0.0000 0.0000 0.0000 13.8696 0.0000 -6.3471
# 5 0.8136 5.5600 -10.1259 0.0000 36.0030 0.0000
# 6 0.0000 0.0000 0.0000 -6.3471 0.0000 20.7630
#
#
#
# Elastic Compliance Matrix: (Units=1/GPa)
#
#
# Indices 1 2 3 4 5 6 
#
# 1 0.018454 0.008328 -0.005068 0.000000 -0.003128 0.000000
# 2 0.008328 0.050273 -0.003138 0.000000 -0.008834 0.000000
# 3 -0.005068 -0.003138 0.010092 0.000000 0.003437 0.000000
# 4 0.000000 0.000000 0.000000 0.083827 0.000000 0.025625
# 5 -0.003128 -0.008834 0.003437 0.000000 0.030177 0.000000
# 6 0.000000 0.000000 0.000000 0.025625 0.000000 0.055996
#
#
# Mechanical properties :
#
#
# Convention : Reuss Voigt Hill
#
# Bulk Modulus (GPa) = 12.64840 27.89984 20.27412
# Shear Modulus (GPa) = 18.18648 26.47235 22.32941
#
# Velocity S-wave (km/s) = 2.95510 3.56529 3.27444
# Velocity P-wave (km/s) = 4.20915 5.50864 4.90214
#
# Compressibility (1/GPa) = 0.07906140
#
# Stress axis : x y z
#
# Youngs Moduli (GPa) = 54.18971 19.89139 99.09162
#
# Poissons Ratio (x) = -0.16565 0.50220
# Poissons Ratio (y) = -0.45127 0.31096
# Poissons Ratio (z) = 0.27464 0.06242
#
# Static dielectric constant tensor:
#      x y z
#    x 1.734420 0.000000 0.011200 
#    y 0.000000 1.683930 0.000000 
#    z 0.011200 0.000000 1.750730 
# 
# From -- ./inp_files/339028.got.cif
#   From: 2010.05.17/outbox.cif.g08.bks.cpg/sg12_170_cif.got.tgz:339028.got - 2010.06.03 13:09:07.
