data_PCOD9188008
_publ_section_title
;
Structure prediction by ZEFSAII (Michael W. Deem and Ramdas Pophale) SiO2 
 PCOD9188008
Probable space group: C 2/M
;
_chemical_formula_sum "Si O2"
_cell_formula_units_Z 48
_cell_length_a 16.374084
_cell_length_b 17.222574
_cell_length_c 12.659443
_cell_angle_alpha 90.000000
_cell_angle_beta 33.457583
_cell_angle_gamma 90.000000
_cell_volume 1968.217191
_symmetry_space_group_name_H-M "C 2/M"
_symmetry_group_IT_number 12
_symmetry_cell_setting 'monoclinic'
loop_
_space_group_symop_operation_xyz
x,y,z
-x,y,-z
-x,-y,-z
x,-y,z
1/2+x,1/2+y,z
1/2-x,1/2+y,-z
1/2-x,1/2-y,-z
1/2+x,1/2-y,z
loop_
_atom_site_type_symbol
_atom_site_label
_atom_site_fract_x
_atom_site_fract_y
_atom_site_fract_z
Si Si1 0.290730 0.377839 0.972790
Si Si2 0.415524 0.231633 0.903839
Si Si3 0.200137 0.500000 0.902073
Si Si4 0.221667 0.327849 0.600468
Si Si5 0.667653 0.762710 0.345453
Si Si6 0.340599 0.000000 0.308089
Si Si7 0.824304 0.915200 0.176868
O O1 0.426325 0.316397 0.838106
O O2 0.279557 0.429378 0.880017
O O3 0.140756 0.327350 0.123760
O O4 0.290871 0.417446 0.086970
O O5 0.551990 0.193074 0.814238
O O6 0.282048 0.243429 0.129090
O O7 0.203577 0.500000 0.770474
O O8 0.021754 0.500000 0.119897
O O9 0.250000 0.250000 0.500000
O O10 0.323893 0.311544 0.589456
O O11 0.220332 0.419219 0.576053
O O12 0.500000 0.778273 0.500000
O O13 0.735354 0.842827 0.319715
O O14 0.789221 0.000000 0.259430
O O15 0.000000 0.900896 0.000000
#
# Coordination Sequence:
#
# PCOD9188008 Si02
#       7
#     8   8   4   8   8   4   8
#     4  10  19  35  70 103 135 182 240 298 362 441
#     4  10  22  41  72 102 141 192 245 296 379 447
#     4  11  20  38  74 115 144 187 252 313 370 454
#     4  12  27  48  75 107 148 198 250 314 376 453
#     4  11  25  43  69 102 144 193 244 310 382 448
#     4  11  26  46  72 110 153 195 254 306 381 450
#     4  10  21  40  66 102 142 185 246 311 373 441
#
# _framework density 24.387553
#
# number of rings (size 3 to 8) (size 9 to 14) (size 15 to 20)
#    0.000    1.333    2.500    3.500    9.333    0.333 
#    1.500    1.250    0.000    0.000    0.000    0.000 
#    0.000    0.000    0.000    0.000    0.000    0.000 
#
# Total GULP energy -133859.853100 kJ/mol
# GULP energy per Si atom -5577.493879 kJ/mol
# Density = 2.433205 g / cm^3
# Si number density = 24.387553 Si / 1000 Ang^3
#
#
#
# Elastic Constant Matrix: (Units=GPa)
#
#
# Indices 1 2 3 4 5 6 
#
# 1 83.2489 46.7933 13.9714 -0.0003 13.8518 0.0001
# 2 46.7933 200.8792 43.1382 -0.0001 -12.0026 -0.0001
# 3 13.9714 43.1382 69.2773 0.0000 6.0696 -0.0001
# 4 -0.0003 -0.0001 0.0000 30.6917 0.0001 -3.5774
# 5 13.8518 -12.0026 6.0696 0.0001 23.0100 0.0001
# 6 0.0001 -0.0001 -0.0001 -3.5774 0.0001 46.5888
#
#
#
# Elastic Compliance Matrix: (Units=1/GPa)
#
#
# Indices 1 2 3 4 5 6 
#
# 1 0.016721 -0.004819 0.000748 0.000000 -0.012777 0.000000
# 2 -0.004819 0.007526 -0.004415 0.000000 0.007992 0.000000
# 3 0.000748 -0.004415 0.017683 0.000000 -0.007418 0.000000
# 4 0.000000 0.000000 0.000000 0.032876 0.000000 0.002524
# 5 -0.012777 0.007992 -0.007418 0.000000 0.057276 0.000000
# 6 0.000000 0.000000 0.000000 0.002524 0.000000 0.021658
#
#
# Mechanical properties :
#
#
# Convention : Reuss Voigt Hill
#
# Bulk Modulus (GPa) = 40.06631 62.35682 51.21156
# Shear Modulus (GPa) = 27.92781 36.69160 32.30970
#
# Velocity S-wave (km/s) = 3.38770 3.88302 3.64379
# Velocity P-wave (km/s) = 5.63620 6.76228 6.22476
#
# Compressibility (1/GPa) = 0.02495863
#
# Stress axis : x y z
#
# Youngs Moduli (GPa) = 59.80330 132.86763 56.55215
#
# Poissons Ratio (x) = 0.64032 -0.04230
# Poissons Ratio (y) = 0.28821 0.24967
# Poissons Ratio (z) = -0.04474 0.58658
#
# Static dielectric constant tensor:
#      x y z
#    x 2.064710 0.000000 0.030730 
#    y 0.000000 2.057480 0.000000 
#    z 0.030730 0.000000 1.969200 
# 
# From -- ./inp_files/226780.got.cif
#   From: 2010.05.17/outbox.cif.g08.bks.cpg/sg12_114_cif.got.tgz:226780.got - 2010.06.03 13:09:07.
