data_PCOD9188480
_publ_section_title
;
Structure prediction by ZEFSAII (Michael W. Deem and Ramdas Pophale) SiO2 
 PCOD9188480
Probable space group: C 2/M
;
_chemical_formula_sum "Si O2"
_cell_formula_units_Z 48
_cell_length_a 14.974635
_cell_length_b 28.184621
_cell_length_c 11.721824
_cell_angle_alpha 90.000000
_cell_angle_beta 150.994020
_cell_angle_gamma 90.000000
_cell_volume 2398.924794
_symmetry_space_group_name_H-M "C 2/M"
_symmetry_group_IT_number 12
_symmetry_cell_setting 'monoclinic'
loop_
_space_group_symop_operation_xyz
x,y,z
-x,y,-z
-x,-y,-z
x,-y,z
1/2+x,1/2+y,z
1/2-x,1/2+y,-z
1/2-x,1/2-y,-z
1/2+x,1/2-y,z
loop_
_atom_site_type_symbol
_atom_site_label
_atom_site_fract_x
_atom_site_fract_y
_atom_site_fract_z
Si Si1 0.515626 0.104476 0.889764
Si Si2 0.137364 0.899800 0.351641
Si Si3 0.527973 0.201233 0.799894
Si Si4 0.183987 0.649229 0.640858
Si Si5 0.589142 0.306607 0.900544
Si Si6 0.110044 0.944368 0.740747
O O1 0.335598 0.087913 0.623643
O O2 0.506480 0.161462 0.871671
O O3 0.500000 0.087125 0.000000
O O4 0.703581 0.085787 0.046878
O O5 0.191339 0.891110 0.279543
O O6 0.052516 0.848081 0.290106
O O7 0.999945 0.934568 0.264639
O O8 0.400448 0.183450 0.552072
O O9 0.495823 0.255139 0.800262
O O10 0.740827 0.197260 0.997205
O O11 0.000000 0.631004 0.500000
O O12 0.311567 0.677927 0.870972
O O13 0.000000 0.930893 0.500000
O O14 0.151214 0.000000 0.776608
#
# Coordination Sequence:
#
# PCOD9188480 Si02
#       6
#     8   8   8   8   8   8
#     4  11  22  37  59  94 127 160 204 262 313 377
#     4  11  22  38  65  89 122 171 209 245 318 385
#     4   9  20  35  57  90 128 168 217 255 303 362
#     4   9  20  37  57  90 125 169 209 258 306 363
#     4  10  19  36  59  89 128 172 212 256 304 366
#     4  11  24  44  67  93 125 160 208 265 332 389
#
# _framework density 20.008963000000001
#
# number of rings (size 3 to 8) (size 9 to 14) (size 15 to 20)
#    0.000    1.833    3.333    0.500    0.000    6.333 
#    0.000    1.667    0.000    2.500    0.000    0.000 
#    0.000    0.000    0.000    0.000    0.000    0.000 
#
# Total GULP energy -133747.126623 kJ/mol
# GULP energy per Si atom -5572.796943 kJ/mol
# Density = 1.996342 g / cm^3
# Si number density = 20.008963 Si / 1000 Ang^3
#
#
#
# Elastic Constant Matrix: (Units=GPa)
#
#
# Indices 1 2 3 4 5 6 
#
# 1 78.3995 -6.1751 14.2605 0.0000 -2.3410 0.0000
# 2 -6.1751 45.1733 12.9564 0.0000 -5.5417 0.0000
# 3 14.2605 12.9564 91.7538 0.0000 6.9003 0.0000
# 4 0.0000 0.0000 0.0000 -5.7006 0.0000 1.5944
# 5 -2.3410 -5.5417 6.9003 0.0000 20.7794 0.0000
# 6 0.0000 0.0000 0.0000 1.5944 0.0000 3.1705
#
#
#
# Elastic Compliance Matrix: (Units=1/GPa)
#
#
# Indices 1 2 3 4 5 6 
#
# 1 0.013602 0.003062 -0.002793 0.000000 0.003277 0.000000
# 2 0.003062 0.024933 -0.004639 0.000000 0.008535 0.000000
# 3 -0.002793 -0.004639 0.012415 0.000000 -0.005674 0.000000
# 4 0.000000 0.000000 0.000000 -0.153790 0.000000 0.077339
# 5 0.003277 0.008535 -0.005674 0.000000 0.052654 0.000000
# 6 0.000000 0.000000 0.000000 0.077339 0.000000 0.276514
#
#
# Mechanical properties :
#
#
# Convention : Reuss Voigt Hill
#
# Bulk Modulus (GPa) = 23.69014 28.60113 26.14564
# Shear Modulus (GPa) = 20.06932 16.60219 18.33576
#
# Velocity S-wave (km/s) = 3.17048 2.88364 3.03046
# Velocity P-wave (km/s) = 5.02673 5.04107 5.03391
#
# Compressibility (1/GPa) = 0.04221166
#
# Stress axis : x y z
#
# Youngs Moduli (GPa) = 73.51716 40.10744 80.55056
#
# Poissons Ratio (x) = -0.12283 0.22497
# Poissons Ratio (y) = -0.22514 0.37364
# Poissons Ratio (z) = 0.20533 0.18604
#
# Static dielectric constant tensor:
#      x y z
#    x 1.730400 0.000000 0.156810 
#    y 0.000000 1.688570 0.000000 
#    z 0.156810 0.000000 1.056270 
# 
# From -- ./inp_files/150319.got.cif
#   From: 2010.05.17/outbox.cif.g08.bks.cpg/sg12_76_cif.got.tgz:150319.got - 2010.06.03 13:09:07.
