data_PCOD9188975
_publ_section_title
;
Structure prediction by ZEFSAII (Michael W. Deem and Ramdas Pophale) SiO2 
 PCOD9188975
Probable space group: C 2/M
;
_chemical_formula_sum "Si O2"
_cell_formula_units_Z 40
_cell_length_a 18.967167
_cell_length_b 14.930152
_cell_length_c 12.632158
_cell_angle_alpha 90.000000
_cell_angle_beta 29.661777
_cell_angle_gamma 90.000000
_cell_volume 1770.285617
_symmetry_space_group_name_H-M "C 2/M"
_symmetry_group_IT_number 12
_symmetry_cell_setting 'monoclinic'
loop_
_space_group_symop_operation_xyz
x,y,z
-x,y,-z
-x,-y,-z
x,-y,z
1/2+x,1/2+y,z
1/2-x,1/2+y,-z
1/2-x,1/2-y,-z
1/2+x,1/2-y,z
loop_
_atom_site_type_symbol
_atom_site_label
_atom_site_fract_x
_atom_site_fract_y
_atom_site_fract_z
Si Si1 0.866382 0.109087 0.497961
Si Si2 0.308993 0.347723 0.943655
Si Si3 0.339323 0.890161 0.419421
Si Si4 0.851243 0.392371 0.643981
Si Si5 0.854725 0.600774 0.041392
O O1 0.790925 0.133590 0.486204
O O2 0.761821 0.141682 0.728039
O O3 0.025610 0.144173 0.297542
O O4 0.877045 0.000000 0.490593
O O5 0.215726 0.404444 0.982393
O O6 0.250000 0.250000 0.000000
O O7 0.273298 0.372826 0.110465
O O8 0.328368 0.859056 0.554675
O O9 0.346108 0.000000 0.411939
O O10 0.489384 0.857491 0.174307
O O11 0.863938 0.500000 0.620031
O O12 0.000000 0.358335 0.500000
O O13 0.878654 0.500000 0.051642
#
# Coordination Sequence:
#
# PCOD9188975 Si02
#       5
#     8   8   8   8   8
#     4  10  21  38  64  95 122 149 197 257 306 354
#     4  12  25  38  56  83 124 167 203 246 294 355
#     4   9  18  35  65  98 119 147 192 253 314 358
#     4  10  19  36  64  88 114 154 203 250 296 357
#     4  10  19  38  65  90 118 154 199 249 304 361
#
# _framework density 22.595224000000002
#
# number of rings (size 3 to 8) (size 9 to 14) (size 15 to 20)
#    0.000    1.800    2.000    3.000    0.000    6.400 
#    0.000    4.000    4.400    0.000    0.000    0.000 
#    0.000    0.000    0.000    0.000    0.000    0.000 
#
# Total GULP energy -111848.300505 kJ/mol
# GULP energy per Si atom -5592.415025 kJ/mol
# Density = 2.254380 g / cm^3
# Si number density = 22.595224 Si / 1000 Ang^3
#
#
#
# Elastic Constant Matrix: (Units=GPa)
#
#
# Indices 1 2 3 4 5 6 
#
# 1 80.2130 18.4742 26.2293 0.0000 -11.5328 0.0000
# 2 18.4742 41.8670 5.9114 0.0000 -2.1721 0.0000
# 3 26.2293 5.9114 58.5030 -0.0001 -2.6848 0.0000
# 4 0.0000 0.0000 -0.0001 -28.0780 0.0000 4.5220
# 5 -11.5328 -2.1721 -2.6848 0.0000 42.6308 0.0000
# 6 0.0000 0.0000 0.0000 4.5220 0.0000 3.6821
#
#
#
# Elastic Compliance Matrix: (Units=1/GPa)
#
#
# Indices 1 2 3 4 5 6 
#
# 1 0.016608 -0.006195 -0.006647 0.000000 0.003759 0.000000
# 2 -0.006195 0.026592 0.000076 0.000000 -0.000316 0.000000
# 3 -0.006647 0.000076 0.020041 0.000000 -0.000532 0.000000
# 4 0.000000 0.000000 0.000000 -0.029734 0.000000 0.036517
# 5 0.003759 -0.000316 -0.000532 0.000000 0.024424 0.000000
# 6 0.000000 0.000000 0.000000 0.036517 0.000000 0.226739
#
#
# Mechanical properties :
#
#
# Convention : Reuss Voigt Hill
#
# Bulk Modulus (GPa) = 26.51959 31.31256 28.91607
# Shear Modulus (GPa) = 15.49085 12.31151 13.90118
#
# Velocity S-wave (km/s) = 2.62120 2.33678 2.48307
# Velocity P-wave (km/s) = 4.57419 4.60096 4.58760
#
# Compressibility (1/GPa) = 0.03770797
#
# Stress axis : x y z
#
# Youngs Moduli (GPa) = 60.21337 37.60600 49.89679
#
# Poissons Ratio (x) = 0.23296 0.33169
# Poissons Ratio (y) = 0.37300 -0.00379
# Poissons Ratio (z) = 0.40026 -0.00285
#
# Static dielectric constant tensor:
#      x y z
#    x 1.818440 0.000000 0.036900 
#    y 0.000000 1.794880 0.000000 
#    z 0.036900 0.000000 1.810720 
# 
# From -- ./inp_files/46944.got.cif
#   From: 2010.05.17/outbox.cif.g08.bks.cpg/sg12_24_cif.got.tgz:46944.got - 2010.06.03 13:09:07.
