data_PCOD9188046
_publ_section_title
;
Structure prediction by ZEFSAII (Michael W. Deem and Ramdas Pophale) SiO2 
 PCOD9188046
Probable space group: C 2/M
;
_chemical_formula_sum "Si O2"
_cell_formula_units_Z 52
_cell_length_a 9.128123
_cell_length_b 29.093825
_cell_length_c 10.953277
_cell_angle_alpha 90.000000
_cell_angle_beta 98.521278
_cell_angle_gamma 90.000000
_cell_volume 2876.772373
_symmetry_space_group_name_H-M "C 2/M"
_symmetry_group_IT_number 12
_symmetry_cell_setting 'monoclinic'
loop_
_space_group_symop_operation_xyz
x,y,z
-x,y,-z
-x,-y,-z
x,-y,z
1/2+x,1/2+y,z
1/2-x,1/2+y,-z
1/2-x,1/2-y,-z
1/2+x,1/2-y,z
loop_
_atom_site_type_symbol
_atom_site_label
_atom_site_fract_x
_atom_site_fract_y
_atom_site_fract_z
Si Si1 0.160668 0.616797 0.299381
Si Si2 0.037138 0.800305 0.867510
Si Si3 0.499345 0.371124 0.644262
Si Si4 0.890089 0.297947 0.876596
Si Si5 0.500000 0.915637 0.500000
Si Si6 0.545677 0.054877 0.871973
Si Si7 0.262613 0.553133 0.697604
O O1 0.334689 0.611096 0.315177
O O2 0.107877 0.662590 0.224669
O O3 0.099624 0.616486 0.427567
O O4 0.084954 0.573313 0.227803
O O5 0.215779 0.793750 0.888096
O O6 0.986394 0.831682 0.746954
O O7 0.954557 0.751386 0.845474
O O8 0.000000 0.818487 0.000000
O O9 0.500000 0.356784 0.500000
O O10 0.381625 0.411196 0.659365
O O11 0.000000 0.312167 0.000000
O O12 0.382529 0.944555 0.407053
O O13 0.698739 0.068636 0.823006
O O14 0.550137 0.000000 0.875523
O O15 0.500000 0.071940 0.000000
O O16 0.314318 0.500000 0.709683
#
# Coordination Sequence:
#
# PCOD9188046 Si02
#       7
#     8   8   8   8   4   8   8
#     4  10  21  36  56  83 115 154 192 238 286 345
#     4  10  22  39  62  86 115 153 194 241 290 351
#     4  11  23  41  55  86 124 152 195 241 295 347
#     4  10  20  37  60  89 113 144 196 236 288 349
#     4  10  19  36  54  80 114 146 200 232 279 336
#     4   9  19  36  58  86 116 149 194 245 292 343
#     4  10  21  36  59  82 112 155 195 236 286 343
#
# _framework density 18.075814999999999
#
# number of rings (size 3 to 8) (size 9 to 14) (size 15 to 20)
#    0.000    2.000    1.538    2.538    0.000    8.923 
#    1.385    1.538    0.000    3.231    0.000    0.000 
#    0.000    0.000    0.000    0.000    0.000    0.000 
#
# Total GULP energy -144769.394160 kJ/mol
# GULP energy per Si atom -5568.053622 kJ/mol
# Density = 1.803467 g / cm^3
# Si number density = 18.075815 Si / 1000 Ang^3
#
#
#
# Elastic Constant Matrix: (Units=GPa)
#
#
# Indices 1 2 3 4 5 6 
#
# 1 96.7607 50.9489 49.5338 0.0000 -8.1272 0.0000
# 2 50.9489 47.5223 40.4682 0.0000 -5.6950 0.0000
# 3 49.5338 40.4682 107.0636 0.0000 -20.0946 0.0000
# 4 0.0000 0.0000 0.0000 -37.3966 0.0000 23.8532
# 5 -8.1272 -5.6950 -20.0946 0.0000 31.7127 0.0000
# 6 0.0000 0.0000 0.0000 23.8532 0.0000 2.7637
#
#
#
# Elastic Compliance Matrix: (Units=1/GPa)
#
#
# Indices 1 2 3 4 5 6 
#
# 1 0.024039 -0.024077 -0.001903 0.000000 0.000631 0.000000
# 2 -0.024077 0.055270 -0.010268 0.000000 -0.002751 0.000000
# 3 -0.001903 -0.010268 0.015509 0.000000 0.007495 0.000000
# 4 0.000000 0.000000 0.000000 -0.004111 0.000000 0.035479
# 5 0.000631 -0.002751 0.007495 0.000000 0.035950 0.000000
# 6 0.000000 0.000000 0.000000 0.035479 0.000000 0.055623
#
#
# Mechanical properties :
#
#
# Convention : Reuss Voigt Hill
#
# Bulk Modulus (GPa) = 44.79844 59.24983 52.02413
# Shear Modulus (GPa) = 19.06826 6.77568 12.92197
#
# Velocity S-wave (km/s) = 3.25145 1.93820 2.67662
# Velocity P-wave (km/s) = 6.23966 6.15293 6.19644
#
# Compressibility (1/GPa) = 0.02232221
#
# Stress axis : x y z
#
# Youngs Moduli (GPa) = 41.59843 18.09315 64.48020
#
# Poissons Ratio (x) = 0.43562 0.12271
# Poissons Ratio (y) = 1.00155 0.66209
# Poissons Ratio (z) = 0.07916 0.18578
#
# Static dielectric constant tensor:
#      x y z
#    x 1.639780 0.000000 -0.066370 
#    y 0.000000 1.600200 0.000000 
#    z -0.066370 0.000000 1.731670 
# 
# From -- ./inp_files/123662.got.cif
#   From: 2010.05.17/outbox.cif.g08.bks.cpg/sg12_62_cif.got.tgz:123662.got - 2010.06.03 13:09:07.
