data_PCOD9188357
_publ_section_title
;
Structure prediction by ZEFSAII (Michael W. Deem and Ramdas Pophale) SiO2 
 PCOD9188357
Probable space group: C 2/M
;
_chemical_formula_sum "Si O2"
_cell_formula_units_Z 56
_cell_length_a 31.206785
_cell_length_b 12.407697
_cell_length_c 15.329626
_cell_angle_alpha 90.000000
_cell_angle_beta 31.854953
_cell_angle_gamma 90.000000
_cell_volume 3132.687246
_symmetry_space_group_name_H-M "C 2/M"
_symmetry_group_IT_number 12
_symmetry_cell_setting 'monoclinic'
loop_
_space_group_symop_operation_xyz
x,y,z
-x,y,-z
-x,-y,-z
x,-y,z
1/2+x,1/2+y,z
1/2-x,1/2+y,-z
1/2-x,1/2-y,-z
1/2+x,1/2-y,z
loop_
_atom_site_type_symbol
_atom_site_label
_atom_site_fract_x
_atom_site_fract_y
_atom_site_fract_z
Si Si1 0.546854 0.243107 0.167068
Si Si2 0.063931 0.372151 0.959629
Si Si3 0.261452 0.230197 0.377743
Si Si4 0.146577 0.628376 0.146358
Si Si5 0.883571 0.873799 0.483259
Si Si6 0.702238 0.373923 0.840973
Si Si7 0.807321 0.221239 0.782958
O O1 0.585015 0.173369 0.179677
O O2 0.463761 0.302564 0.332414
O O3 0.537401 0.165982 0.100573
O O4 0.613365 0.331000 0.020937
O O5 0.062968 0.500000 0.957555
O O6 0.154948 0.333914 0.782463
O O7 0.000000 0.327746 0.000000
O O8 0.250000 0.250000 0.500000
O O9 0.186560 0.167457 0.461907
O O10 0.274548 0.337804 0.297119
O O11 0.136502 0.500000 0.179861
O O12 0.140057 0.708342 0.240577
O O13 0.238141 0.652185 0.952359
O O14 0.853500 0.853243 0.634212
O O15 0.898654 0.000000 0.442720
O O16 0.709023 0.500000 0.840929
O O17 0.761119 0.309251 0.803677
#
# Coordination Sequence:
#
# PCOD9188357 Si02
#       7
#     8   8   8   8   8   8   8
#     4  10  21  35  53  80 109 141 185 224 263 324
#     4  10  20  36  57  79 108 144 179 219 270 323
#     4  10  21  36  56  83 110 137 181 227 265 323
#     4  10  19  36  59  80 109 145 182 226 276 324
#     4  11  22  38  57  78 110 145 180 224 275 323
#     4   9  18  34  54  76 107 141 173 217 270 319
#     4   9  20  35  56  84 107 137 185 227 267 328
#
# _framework density 17.876026
#
# number of rings (size 3 to 8) (size 9 to 14) (size 15 to 20)
#    0.000    2.143    0.000    3.857    0.000    1.714 
#    0.000   12.143    0.000    4.714    0.000    0.000 
#    0.000    0.000    0.000    0.000    0.000    0.000 
#
# Total GULP energy -156202.242896 kJ/mol
# GULP energy per Si atom -5578.651532 kJ/mol
# Density = 1.783534 g / cm^3
# Si number density = 17.876026 Si / 1000 Ang^3
#
#
#
# Elastic Constant Matrix: (Units=GPa)
#
#
# Indices 1 2 3 4 5 6 
#
# 1 112.6630 13.4115 28.4035 0.0000 0.6124 0.0000
# 2 13.4115 75.3714 4.6164 0.0000 -10.2016 0.0000
# 3 28.4035 4.6164 55.4550 0.0000 -4.2933 0.0000
# 4 0.0000 0.0000 0.0000 2.0175 0.0000 5.1264
# 5 0.6124 -10.2016 -4.2933 0.0000 30.3385 0.0000
# 6 0.0000 0.0000 0.0000 5.1264 0.0000 14.0823
#
#
#
# Elastic Compliance Matrix: (Units=1/GPa)
#
#
# Indices 1 2 3 4 5 6 
#
# 1 0.010432 -0.001740 -0.005318 0.000000 -0.001548 0.000000
# 2 -0.001740 0.014226 0.000081 0.000000 0.004830 0.000000
# 3 -0.005318 0.000081 0.020990 0.000000 0.003105 0.000000
# 4 0.000000 0.000000 0.000000 6.607103 0.000000 -2.405201
# 5 -0.001548 0.004830 0.003105 0.000000 0.035056 0.000000
# 6 0.000000 0.000000 0.000000 -2.405201 0.000000 0.946583
#
#
# Mechanical properties :
#
#
# Convention : Reuss Voigt Hill
#
# Bulk Modulus (GPa) = 31.55204 37.37247 34.46226
# Shear Modulus (GPa) = 0.65283 22.42487 11.53885
#
# Velocity S-wave (km/s) = 0.60497 3.54569 2.54341
# Velocity P-wave (km/s) = 4.26342 6.14120 5.28636
#
# Compressibility (1/GPa) = 0.03169367
#
# Stress axis : x y z
#
# Youngs Moduli (GPa) = 95.85503 70.29336 47.64102
#
# Poissons Ratio (x) = 0.12232 0.25337
# Poissons Ratio (y) = 0.16680 -0.00386
# Poissons Ratio (z) = 0.50979 -0.00569
#
# Static dielectric constant tensor:
#      x y z
#    x 1.621360 0.000000 0.004520 
#    y 0.000000 1.572320 0.000000 
#    z 0.004520 0.000000 1.608110 
# 
# From -- ./inp_files/223125.got.cif
#   From: 2010.05.17/outbox.cif.g08.bks.cpg/sg12_112_cif.got.tgz:223125.got - 2010.06.03 13:09:07.
