data_PCOD9188722
_publ_section_title
;
Structure prediction by ZEFSAII (Michael W. Deem and Ramdas Pophale) SiO2 
 PCOD9188722
Probable space group: C 2/M
;
_chemical_formula_sum "Si O2"
_cell_formula_units_Z 44
_cell_length_a 9.364223
_cell_length_b 28.189963
_cell_length_c 11.796892
_cell_angle_alpha 90.000000
_cell_angle_beta 136.027452
_cell_angle_gamma 90.000000
_cell_volume 2162.168574
_symmetry_space_group_name_H-M "C 2/M"
_symmetry_group_IT_number 12
_symmetry_cell_setting 'monoclinic'
loop_
_space_group_symop_operation_xyz
x,y,z
-x,y,-z
-x,-y,-z
x,-y,z
1/2+x,1/2+y,z
1/2-x,1/2+y,-z
1/2-x,1/2-y,-z
1/2+x,1/2-y,z
loop_
_atom_site_type_symbol
_atom_site_label
_atom_site_fract_x
_atom_site_fract_y
_atom_site_fract_z
Si Si1 0.563799 0.899567 0.192650
Si Si2 0.551093 0.664630 0.653521
Si Si3 0.500000 0.735122 0.000000
Si Si4 0.195599 0.500000 0.235594
Si Si5 0.203310 0.311026 0.991670
Si Si6 0.328726 0.899180 0.490936
Si Si7 0.146266 0.000000 0.411527
O O1 0.781464 0.875577 0.283855
O O2 0.565813 0.952557 0.149732
O O3 0.387361 0.863515 0.055182
O O4 0.559195 0.902949 0.324789
O O5 0.500000 0.687327 0.500000
O O6 0.352853 0.638490 0.592459
O O7 0.648717 0.694202 0.813449
O O8 0.317975 0.700870 0.939929
O O9 0.518379 0.773361 0.906871
O O10 0.399085 0.500000 0.274506
O O11 0.281178 0.500000 0.414861
O O12 0.500000 0.884467 0.500000
O O13 0.233115 0.951140 0.409210
#
# Coordination Sequence:
#
# PCOD9188722 Si02
#       7
#     8   8   4   4   8   8   4
#     4  10  19  36  61  86 124 160 202 239 294 354
#     4  10  20  37  60  85 121 158 195 248 295 353
#     4  10  24  40  70  84 116 156 206 234 318 362
#     4   9  16  30  56  89 117 167 199 239 284 360
#     4  11  22  43  64  91 116 156 199 253 297 368
#     4  10  20  31  54  86 121 164 200 246 293 343
#     4   9  15  30  51  79 123 160 214 233 284 345
#
# _framework density 20.34994
#
# number of rings (size 3 to 8) (size 9 to 14) (size 15 to 20)
#    0.000    2.000    3.636    0.273    2.545    0.000 
#    0.000    3.636    0.000    0.545    0.000    0.000 
#    0.000    0.000    0.000    0.000    0.000    0.000 
#
# Total GULP energy -122511.534140 kJ/mol
# GULP energy per Si atom -5568.706097 kJ/mol
# Density = 2.030362 g / cm^3
# Si number density = 20.349940 Si / 1000 Ang^3
#
#
#
# Elastic Constant Matrix: (Units=GPa)
#
#
# Indices 1 2 3 4 5 6 
#
# 1 175.1279 32.5175 33.8193 0.0000 0.1529 0.0000
# 2 32.5175 92.7493 32.2021 0.0000 6.0431 0.0000
# 3 33.8193 32.2021 80.9739 0.0000 -8.8981 0.0000
# 4 0.0000 0.0000 0.0000 10.7582 0.0000 -5.1133
# 5 0.1529 6.0431 -8.8981 0.0000 17.1297 0.0000
# 6 0.0000 0.0000 0.0000 -5.1133 0.0000 10.2531
#
#
#
# Elastic Compliance Matrix: (Units=1/GPa)
#
#
# Indices 1 2 3 4 5 6 
#
# 1 0.006398 -0.001445 -0.002172 0.000000 -0.000675 0.000000
# 2 -0.001445 0.013793 -0.005743 0.000000 -0.007836 0.000000
# 3 -0.002172 -0.005743 0.016720 0.000000 0.010730 0.000000
# 4 0.000000 0.000000 0.000000 0.121830 0.000000 0.060758
# 5 -0.000675 -0.007836 0.010730 0.000000 0.066723 0.000000
# 6 0.000000 0.000000 0.000000 0.060758 0.000000 0.127831
#
#
# Mechanical properties :
#
#
# Convention : Reuss Voigt Hill
#
# Bulk Modulus (GPa) = 54.97080 60.65877 57.81479
# Shear Modulus (GPa) = 13.22476 24.31568 18.77022
#
# Velocity S-wave (km/s) = 2.55201 3.46045 3.04035
# Velocity P-wave (km/s) = 5.97956 6.77044 6.38725
#
# Compressibility (1/GPa) = 0.01819148
#
# Stress axis : x y z
#
# Youngs Moduli (GPa) = 156.28770 72.50150 59.80976
#
# Poissons Ratio (x) = 0.10478 0.12990
# Poissons Ratio (y) = 0.22587 0.34347
# Poissons Ratio (z) = 0.33943 0.41635
#
# Static dielectric constant tensor:
#      x y z
#    x 1.720750 0.000000 -0.004200 
#    y 0.000000 1.741210 0.000000 
#    z -0.004200 0.000000 1.788870 
# 
# From -- ./inp_files/125438.got.cif
#   From: 2010.05.17/outbox.cif.g08.bks.cpg/sg12_63_cif.got.tgz:125438.got - 2010.06.03 13:09:07.
