data_PCOD9188402
_publ_section_title
;
Structure prediction by ZEFSAII (Michael W. Deem and Ramdas Pophale) SiO2 
 PCOD9188402
Probable space group: C 2/M
;
_chemical_formula_sum "Si O2"
_cell_formula_units_Z 56
_cell_length_a 9.254082
_cell_length_b 18.001194
_cell_length_c 19.168805
_cell_angle_alpha 90.000000
_cell_angle_beta 113.286267
_cell_angle_gamma 90.000000
_cell_volume 2933.109779
_symmetry_space_group_name_H-M "C 2/M"
_symmetry_group_IT_number 12
_symmetry_cell_setting 'monoclinic'
loop_
_space_group_symop_operation_xyz
x,y,z
-x,y,-z
-x,-y,-z
x,-y,z
1/2+x,1/2+y,z
1/2-x,1/2+y,-z
1/2-x,1/2-y,-z
1/2+x,1/2-y,z
loop_
_atom_site_type_symbol
_atom_site_label
_atom_site_fract_x
_atom_site_fract_y
_atom_site_fract_z
Si Si1 0.168682 0.589066 0.997567
Si Si2 0.059966 0.169094 0.862904
Si Si3 0.062626 0.169200 0.440586
Si Si4 0.209494 0.671063 0.859030
Si Si5 0.565462 0.587263 0.297070
Si Si6 0.589755 0.913337 0.701493
Si Si7 0.078110 0.338190 0.448492
O O1 0.179044 0.500000 0.998343
O O2 0.185125 0.621538 0.923088
O O3 0.312150 0.622938 0.069154
O O4 0.000000 0.609547 0.000000
O O5 0.135260 0.248901 0.860845
O O6 0.894120 0.176091 0.872827
O O7 0.022417 0.127171 0.783437
O O8 0.029224 0.125988 0.363521
O O9 0.006093 0.255159 0.424356
O O10 0.246471 0.171490 0.491812
O O11 0.000000 0.134240 0.500000
O O12 0.120226 0.633300 0.776926
O O13 0.527891 0.500000 0.291668
O O14 0.751547 0.594598 0.314872
O O15 0.448952 0.882121 0.627569
O O16 0.569785 0.000000 0.714221
O O17 0.000000 0.377427 0.500000
#
# Coordination Sequence:
#
# PCOD9188402 Si02
#       7
#     8   8   8   8   8   8   8
#     4  11  24  43  66  95 130 161 196 245 301 358
#     4  11  23  41  66  92 121 162 206 250 301 358
#     4  10  21  36  56  84 118 153 197 245 299 360
#     4  11  23  41  65  92 124 160 206 251 297 360
#     4  10  21  38  59  85 119 155 197 247 301 360
#     4  10  21  37  60  88 115 152 202 250 297 354
#     4  10  19  36  59  83 113 154 199 244 295 354
#
# _framework density 19.092364
#
# number of rings (size 3 to 8) (size 9 to 14) (size 15 to 20)
#    0.000    1.571    1.429    3.429    0.000    3.429 
#    5.143    0.000    0.000    0.000    0.000    0.000 
#    0.000    0.000    0.000    0.000    0.000    0.000 
#
# Total GULP energy -156332.999006 kJ/mol
# GULP energy per Si atom -5583.321393 kJ/mol
# Density = 1.904891 g / cm^3
# Si number density = 19.092364 Si / 1000 Ang^3
#
#
#
# Elastic Constant Matrix: (Units=GPa)
#
#
# Indices 1 2 3 4 5 6 
#
# 1 75.9135 31.0683 48.2814 0.0000 -17.2519 0.0000
# 2 31.0683 103.5560 56.3032 0.0000 -13.1305 0.0000
# 3 48.2814 56.3032 138.1204 0.0000 -18.5284 0.0000
# 4 0.0000 0.0000 0.0000 110.1247 0.0000 14.6720
# 5 -17.2519 -13.1305 -18.5284 0.0000 34.2592 0.0000
# 6 0.0000 0.0000 0.0000 14.6720 0.0000 26.4695
#
#
#
# Elastic Compliance Matrix: (Units=1/GPa)
#
#
# Indices 1 2 3 4 5 6 
#
# 1 0.018433 -0.002198 -0.004761 0.000000 0.005865 0.000000
# 2 -0.002198 0.012821 -0.004256 0.000000 0.001505 0.000000
# 3 -0.004761 -0.004256 0.010889 0.000000 0.001860 0.000000
# 4 0.000000 0.000000 0.000000 0.009805 0.000000 -0.005435
# 5 0.005865 0.001505 0.001860 0.000000 0.033726 0.000000
# 6 0.000000 0.000000 0.000000 -0.005435 0.000000 0.040792
#
#
# Mechanical properties :
#
#
# Convention : Reuss Voigt Hill
#
# Bulk Modulus (GPa) = 50.72752 65.43286 58.08019
# Shear Modulus (GPa) = 32.16138 46.29981 39.23059
#
# Velocity S-wave (km/s) = 4.10874 4.92982 4.53788
# Velocity P-wave (km/s) = 7.00972 8.17008 7.61204
#
# Compressibility (1/GPa) = 0.01971316
#
# Stress axis : x y z
#
# Youngs Moduli (GPa) = 54.24986 77.99750 91.83856
#
# Poissons Ratio (x) = 0.17145 0.43721
# Poissons Ratio (y) = 0.11925 0.39086
# Poissons Ratio (z) = 0.25827 0.33196
#
# Static dielectric constant tensor:
#      x y z
#    x 1.571070 0.000000 -0.013740 
#    y 0.000000 1.652190 0.000000 
#    z -0.013740 0.000000 1.630270 
# 
# From -- ./inp_files/257176.got.cif
#   From: 2010.05.17/outbox.cif.g08.bks.cpg/sg12_129_cif.got.tgz:257176.got - 2010.06.03 13:09:07.
