data_PCOD9188691
_publ_section_title
;
Structure prediction by ZEFSAII (Michael W. Deem and Ramdas Pophale) SiO2 
 PCOD9188691
Probable space group: C 2/M
;
_chemical_formula_sum "Si O2"
_cell_formula_units_Z 34
_cell_length_a 16.861547
_cell_length_b 10.035553
_cell_length_c 20.103680
_cell_angle_alpha 90.000000
_cell_angle_beta 151.019401
_cell_angle_gamma 90.000000
_cell_volume 1648.238728
_symmetry_space_group_name_H-M "C 2/M"
_symmetry_group_IT_number 12
_symmetry_cell_setting 'monoclinic'
loop_
_space_group_symop_operation_xyz
x,y,z
-x,y,-z
-x,-y,-z
x,-y,z
1/2+x,1/2+y,z
1/2-x,1/2+y,-z
1/2-x,1/2-y,-z
1/2+x,1/2-y,z
loop_
_atom_site_type_symbol
_atom_site_label
_atom_site_fract_x
_atom_site_fract_y
_atom_site_fract_z
Si Si1 0.051517 0.658355 0.961964
Si Si2 0.654669 0.851884 0.819848
Si Si3 0.000481 0.269113 0.571168
Si Si4 0.161266 0.345459 0.317992
Si Si5 0.000000 0.000000 0.500000
O O1 0.079266 0.500000 0.974112
O O2 0.910830 0.695332 0.806122
O O3 0.213965 0.740858 0.065335
O O4 0.000000 0.684541 0.000000
O O5 0.600171 0.831490 0.703725
O O6 0.490629 0.843854 0.743635
O O7 0.724558 0.000000 0.880569
O O8 0.810838 0.244268 0.451165
O O9 0.000000 0.343082 0.500000
O O10 0.062351 0.120729 0.596798
O O11 0.227814 0.500000 0.359682
#
# Coordination Sequence:
#
# PCOD9188691 Si02
#       5
#     8   8   8   8   2
#     4  10  22  38  64  86 108 148 202 241 276 329
#     4  11  24  37  55  85 124 155 180 229 296 349
#     4  10  19  36  61  84 111 146 195 239 279 324
#     4  10  19  37  57  86 118 149 190 241 285 332
#     4   8  20  32  66  86 108 140 200 246 284 300
#
# _framework density 20.628079
#
# number of rings (size 3 to 8) (size 9 to 14) (size 15 to 20)
#    0.706    1.176    1.176    2.824    1.647    0.941 
#    0.000    2.353    0.000    0.000    0.000    0.000 
#    0.000    0.000    0.000    0.000    0.000    0.000 
#
# Total GULP energy -94704.619133 kJ/mol
# GULP energy per Si atom -5570.859949 kJ/mol
# Density = 2.058113 g / cm^3
# Si number density = 20.628079 Si / 1000 Ang^3
#
#
#
# Elastic Constant Matrix: (Units=GPa)
#
#
# Indices 1 2 3 4 5 6 
#
# 1 50.9025 9.1862 -0.9557 0.0003 -5.0586 0.0000
# 2 9.1862 49.2512 3.7337 0.0003 14.4967 0.0001
# 3 -0.9557 3.7337 64.1800 0.0007 7.7129 0.0001
# 4 0.0003 0.0003 0.0007 26.8106 0.0001 11.4185
# 5 -5.0586 14.4967 7.7129 0.0001 34.5084 0.0000
# 6 0.0000 0.0001 0.0001 11.4185 0.0000 9.1326
#
#
#
# Elastic Compliance Matrix: (Units=1/GPa)
#
#
# Indices 1 2 3 4 5 6 
#
# 1 0.021188 -0.005553 -0.000015 0.000000 0.005442 0.000001
# 2 -0.005553 0.024626 -0.000179 0.000000 -0.011119 0.000000
# 3 -0.000015 -0.000179 0.016013 -0.000001 -0.003506 0.000001
# 4 0.000000 0.000000 -0.000001 0.079783 0.000000 -0.099753
# 5 0.005442 -0.011119 -0.003506 0.000000 0.035231 0.000000
# 6 0.000001 0.000000 0.000001 -0.099753 0.000000 0.234220
#
#
# Mechanical properties :
#
#
# Convention : Reuss Voigt Hill
#
# Bulk Modulus (GPa) = 19.86780 20.91800 20.39290
# Shear Modulus (GPa) = 11.38089 24.24827 17.81458
#
# Velocity S-wave (km/s) = 2.35142 3.43227 2.94191
# Velocity P-wave (km/s) = 4.12608 5.08625 4.63112
#
# Compressibility (1/GPa) = 0.05033269
#
# Stress axis : x y z
#
# Youngs Moduli (GPa) = 47.19654 40.60725 62.45044
#
# Poissons Ratio (x) = 0.22547 0.00097
# Poissons Ratio (y) = 0.26206 0.01118
# Poissons Ratio (z) = 0.00073 0.00727
#
# Static dielectric constant tensor:
#      x y z
#    x 1.668430 0.000000 -0.083850 
#    y 0.000000 1.732690 0.000000 
#    z -0.083850 0.000000 1.651880 
# 
# From -- ./inp_files/314605.got.cif
#   From: 2010.05.17/outbox.cif.g08.bks.cpg/sg12_158_cif.got.tgz:314605.got - 2010.06.03 13:09:07.
