data_PCOD9188040
_publ_section_title
;
Structure prediction by ZEFSAII (Michael W. Deem and Ramdas Pophale) SiO2 
 PCOD9188040
Probable space group: C 2/M
;
_chemical_formula_sum "Si O2"
_cell_formula_units_Z 56
_cell_length_a 19.423307
_cell_length_b 19.909371
_cell_length_c 15.345405
_cell_angle_alpha 90.000000
_cell_angle_beta 30.747909
_cell_angle_gamma 90.000000
_cell_volume 3033.907582
_symmetry_space_group_name_H-M "C 2/M"
_symmetry_group_IT_number 12
_symmetry_cell_setting 'monoclinic'
loop_
_space_group_symop_operation_xyz
x,y,z
-x,y,-z
-x,-y,-z
x,-y,z
1/2+x,1/2+y,z
1/2-x,1/2+y,-z
1/2-x,1/2-y,-z
1/2+x,1/2-y,z
loop_
_atom_site_type_symbol
_atom_site_label
_atom_site_fract_x
_atom_site_fract_y
_atom_site_fract_z
Si Si1 0.227949 0.842466 0.469965
Si Si2 0.115508 0.421370 0.300984
Si Si3 0.603781 0.078273 0.961826
Si Si4 0.954140 0.577367 0.308805
Si Si5 0.425871 0.718020 0.214648
Si Si6 0.653087 0.338169 0.358326
Si Si7 0.205117 0.197830 0.822751
O O1 0.311082 0.890691 0.442853
O O2 0.339669 0.785646 0.324410
O O3 0.101325 0.818662 0.664736
O O4 0.178298 0.864035 0.429504
O O5 0.160827 0.500000 0.240698
O O6 0.043816 0.395357 0.290335
O O7 0.227866 0.368204 0.209026
O O8 0.000000 0.421710 0.500000
O O9 0.739103 0.120468 0.814428
O O10 0.631165 0.000000 0.911487
O O11 0.500000 0.103731 0.000000
O O12 0.533883 0.081786 0.131291
O O13 0.932570 0.500000 0.355327
O O14 0.355617 0.683467 0.207254
O O15 0.580836 0.724219 0.017801
O O16 0.500000 0.348883 0.500000
O O17 0.691337 0.259440 0.304830
#
# Coordination Sequence:
#
# PCOD9188040 Si02
#       7
#     8   8   8   8   8   8   8
#     4  10  19  36  54  78 113 140 191 235 275 339
#     4  10  21  37  57  81 112 148 190 240 286 334
#     4  10  20  37  60  83 112 152 191 229 277 337
#     4  10  20  35  60  85 106 148 197 233 275 340
#     4   9  20  34  56  80 104 151 187 230 284 338
#     4  11  23  35  56  86 117 151 186 237 292 335
#     4  10  20  37  56  79 114 148 190 234 288 339
#
# _framework density 18.458044000000001
#
# number of rings (size 3 to 8) (size 9 to 14) (size 15 to 20)
#    0.000    2.000    1.429    2.143    2.000    3.714 
#    0.000    4.286    0.000    0.000    0.000    0.000 
#    0.000    0.000    0.000    0.000    0.000    0.000 
#
# Total GULP energy -156064.411691 kJ/mol
# GULP energy per Si atom -5573.728989 kJ/mol
# Density = 1.841603 g / cm^3
# Si number density = 18.458044 Si / 1000 Ang^3
#
#
#
# Elastic Constant Matrix: (Units=GPa)
#
#
# Indices 1 2 3 4 5 6 
#
# 1 76.4150 22.5146 13.4286 0.0010 -9.7931 -0.0007
# 2 22.5146 34.2043 12.1066 0.0015 -8.0995 -0.0005
# 3 13.4286 12.1066 69.9673 0.0023 -8.6994 -0.0011
# 4 0.0010 0.0015 0.0023 5.6905 -0.0017 -10.6380
# 5 -9.7931 -8.0995 -8.6994 -0.0017 30.0382 0.0008
# 6 -0.0007 -0.0005 -0.0011 -10.6380 0.0008 25.8693
#
#
#
# Elastic Compliance Matrix: (Units=1/GPa)
#
#
# Indices 1 2 3 4 5 6 
#
# 1 0.016510 -0.009893 -0.001161 0.000005 0.002379 0.000002
# 2 -0.009893 0.038600 -0.004032 -0.000021 0.006015 -0.000009
# 3 -0.001161 -0.004032 0.015592 -0.000014 0.003050 -0.000005
# 4 0.000005 -0.000021 -0.000014 0.759890 0.000027 0.312482
# 5 0.002379 0.006015 0.003050 0.000027 0.036572 0.000010
# 6 0.000002 -0.000009 -0.000005 0.312482 0.000010 0.167155
#
#
# Mechanical properties :
#
#
# Convention : Reuss Voigt Hill
#
# Bulk Modulus (GPa) = 24.67399 30.74293 27.70846
# Shear Modulus (GPa) = 4.63821 21.15539 12.89680
#
# Velocity S-wave (km/s) = 1.58691 3.38913 2.64618
# Velocity P-wave (km/s) = 4.09321 5.65745 4.93766
#
# Compressibility (1/GPa) = 0.04052851
#
# Stress axis : x y z
#
# Youngs Moduli (GPa) = 60.56825 25.90679 64.13470
#
# Poissons Ratio (x) = 0.25631 0.07447
# Poissons Ratio (y) = 0.59923 0.25861
# Poissons Ratio (z) = 0.07033 0.10447
#
# Static dielectric constant tensor:
#      x y z
#    x 1.648250 0.000000 0.003430 
#    y 0.000000 1.685080 0.000000 
#    z 0.003430 0.000000 1.615340 
# 
# From -- ./inp_files/113392.got.cif
#   From: 2010.05.17/outbox.cif.g08.bks.cpg/sg12_57_cif.got.tgz:113392.got - 2010.06.03 13:09:07.
