data_PCOD9188781
_publ_section_title
;
Structure prediction by ZEFSAII (Michael W. Deem and Ramdas Pophale) SiO2 
 PCOD9188781
Probable space group: C 2/M
;
_chemical_formula_sum "Si O2"
_cell_formula_units_Z 64
_cell_length_a 20.369671
_cell_length_b 8.825125
_cell_length_c 19.446671
_cell_angle_alpha 90.000000
_cell_angle_beta 92.652820
_cell_angle_gamma 90.000000
_cell_volume 3492.082338
_symmetry_space_group_name_H-M "C 2/M"
_symmetry_group_IT_number 12
_symmetry_cell_setting 'monoclinic'
loop_
_space_group_symop_operation_xyz
x,y,z
-x,y,-z
-x,-y,-z
x,-y,z
1/2+x,1/2+y,z
1/2-x,1/2+y,-z
1/2-x,1/2-y,-z
1/2+x,1/2-y,z
loop_
_atom_site_type_symbol
_atom_site_label
_atom_site_fract_x
_atom_site_fract_y
_atom_site_fract_z
Si Si1 0.053021 0.317403 0.560880
Si Si2 0.980756 0.820823 0.293665
Si Si3 0.349619 0.319255 0.196985
Si Si4 0.296389 0.817615 0.443856
Si Si5 0.390459 0.819993 0.767716
Si Si6 0.242817 0.818692 0.291085
Si Si7 0.582851 0.316111 0.935316
Si Si8 0.930077 0.816730 0.910754
O O1 0.052108 0.500000 0.570921
O O2 0.127242 0.274005 0.543723
O O3 0.000000 0.279795 0.500000
O O4 0.034563 0.238233 0.631112
O O5 0.042712 0.734948 0.265040
O O6 0.916362 0.796563 0.243809
O O7 0.994736 0.000000 0.294441
O O8 0.336027 0.500000 0.195015
O O9 0.291328 0.236205 0.233289
O O10 0.366591 0.265409 0.120612
O O11 0.250000 0.750000 0.500000
O O12 0.272395 0.771339 0.366479
O O13 0.292826 0.000000 0.447288
O O14 0.328286 0.751705 0.725200
O O15 0.393005 0.757652 0.845683
O O16 0.386755 0.000000 0.767649
O O17 0.238559 0.000000 0.290186
O O18 0.583391 0.500000 0.934324
O O19 0.507686 0.274408 0.912517
O O20 0.595080 0.271011 0.014701
O O21 0.926553 0.000000 0.904824
#
# Coordination Sequence:
#
# PCOD9188781 Si02
#       8
#     8   8   8   8   8   8   8   8
#     4  10  22  41  62  89 123 156 192 241 295 347
#     4  11  22  38  63  90 119 154 198 246 290 348
#     4  10  19  36  61  90 117 152 195 239 291 349
#     4  10  23  41  61  86 119 156 194 236 289 351
#     4  12  25  39  58  86 121 158 198 249 299 347
#     4  11  24  42  61  84 117 157 200 244 289 349
#     4   8  15  30  58  88 118 153 192 237 291 351
#     4   9  16  33  58  86 118 155 195 239 292 349
#
# _framework density 18.327173999999999
#
# number of rings (size 3 to 8) (size 9 to 14) (size 15 to 20)
#    0.000    1.875    2.500    2.625    1.750    2.250 
#    0.000    2.500    0.000    0.000    0.000    0.000 
#    0.000    0.000    0.000    0.000    0.000    0.000 
#
# Total GULP energy -178706.834103 kJ/mol
# GULP energy per Si atom -5584.588566 kJ/mol
# Density = 1.828546 g / cm^3
# Si number density = 18.327174 Si / 1000 Ang^3
#
#
#
# Elastic Constant Matrix: (Units=GPa)
#
#
# Indices 1 2 3 4 5 6 
#
# 1 76.1898 33.0545 32.7958 0.0000 5.0310 0.0000
# 2 33.0545 39.0336 20.6466 0.0000 0.6288 0.0000
# 3 32.7958 20.6466 92.9981 0.0000 -10.3504 0.0000
# 4 0.0000 0.0000 0.0000 15.0021 0.0000 -15.3635
# 5 5.0310 0.6288 -10.3504 0.0000 29.7048 0.0000
# 6 0.0000 0.0000 0.0000 -15.3635 0.0000 21.5443
#
#
#
# Elastic Compliance Matrix: (Units=1/GPa)
#
#
# Indices 1 2 3 4 5 6 
#
# 1 0.022803 -0.016616 -0.004935 0.000000 -0.005230 0.000000
# 2 -0.016616 0.041390 -0.003239 0.000000 0.000809 0.000000
# 3 -0.004935 -0.003239 0.013850 0.000000 0.005730 0.000000
# 4 0.000000 0.000000 0.000000 0.247146 0.000000 0.176243
# 5 -0.005230 0.000809 0.005730 0.000000 0.036530 0.000000
# 6 0.000000 0.000000 0.000000 0.176243 0.000000 0.172098
#
#
# Mechanical properties :
#
#
# Convention : Reuss Voigt Hill
#
# Bulk Modulus (GPa) = 35.13283 42.35727 38.74505
# Shear Modulus (GPa) = 8.43334 21.36519 14.89927
#
# Velocity S-wave (km/s) = 2.14745 3.41804 2.85434
# Velocity P-wave (km/s) = 5.03589 6.22408 5.66124
#
# Compressibility (1/GPa) = 0.02846340
#
# Stress axis : x y z
#
# Youngs Moduli (GPa) = 43.85325 24.16041 72.20161
#
# Poissons Ratio (x) = 0.40145 0.35630
# Poissons Ratio (y) = 0.72866 0.23389
# Poissons Ratio (z) = 0.21641 0.07827
#
# Static dielectric constant tensor:
#      x y z
#    x 1.607450 0.000000 -0.001010 
#    y 0.000000 1.612270 0.000000 
#    z -0.001010 0.000000 1.627140 
# 
# From -- ./inp_files/314064.got.cif
#   From: 2010.05.17/outbox.cif.g08.bks.cpg/sg12_158_cif.got.tgz:314064.got - 2010.06.03 13:09:07.
