data_PCOD9189060
_publ_section_title
;
Structure prediction by ZEFSAII (Michael W. Deem and Ramdas Pophale) SiO2 
 PCOD9189060
Probable space group: C 2/M
;
_chemical_formula_sum "Si O2"
_cell_formula_units_Z 56
_cell_length_a 26.450777
_cell_length_b 17.697852
_cell_length_c 27.122007
_cell_angle_alpha 90.000000
_cell_angle_beta 163.983336
_cell_angle_gamma 90.000000
_cell_volume 3503.153349
_symmetry_space_group_name_H-M "C 2/M"
_symmetry_group_IT_number 12
_symmetry_cell_setting 'monoclinic'
loop_
_space_group_symop_operation_xyz
x,y,z
-x,y,-z
-x,-y,-z
x,-y,z
1/2+x,1/2+y,z
1/2-x,1/2+y,-z
1/2-x,1/2-y,-z
1/2+x,1/2-y,z
loop_
_atom_site_type_symbol
_atom_site_label
_atom_site_fract_x
_atom_site_fract_y
_atom_site_fract_z
Si Si1 0.736722 0.913216 0.139842
Si Si2 0.900779 0.134828 0.570708
Si Si3 0.779672 0.911466 0.293488
Si Si4 0.221892 0.913719 0.439929
Si Si5 0.465105 0.299565 0.149183
Si Si6 0.092979 0.671240 0.207908
Si Si7 0.532800 0.211772 0.744634
O O1 0.714899 0.895133 0.177137
O O2 0.944369 0.900918 0.318303
O O3 0.686136 0.000000 0.085928
O O4 0.608085 0.863788 0.984836
O O5 0.871834 0.090462 0.594080
O O6 0.715008 0.136830 0.365753
O O7 0.965442 0.219312 0.646721
O O8 0.693112 0.854349 0.251622
O O9 0.000000 0.905933 0.500000
O O10 0.734271 0.000000 0.262467
O O11 0.398418 0.858725 0.609681
O O12 0.075381 0.874943 0.266036
O O13 0.266052 0.000000 0.468861
O O14 0.559877 0.257770 0.191935
O O15 0.486600 0.244926 0.217787
O O16 0.246655 0.307727 0.937272
#
# Coordination Sequence:
#
# PCOD9189060 Si02
#       7
#     8   8   8   8   8   8   8
#     4  11  23  35  49  77 110 142 179 219 258 297
#     4  11  20  35  54  76 102 143 182 214 250 312
#     4  10  21  35  50  72 109 145 174 216 261 298
#     4  11  22  34  52  79 109 136 174 225 267 308
#     4  10  20  35  55  74 100 138 179 217 260 312
#     4  12  20  34  55  72  98 146 183 213 253 307
#     4  10  19  37  53  72 104 138 174 217 269 307
#
# _framework density 15.985598
#
# number of rings (size 3 to 8) (size 9 to 14) (size 15 to 20)
#    0.000    1.286    5.714    2.143    0.000    3.429 
#    0.000    0.000    0.000    0.000    0.000    0.000 
#    0.000    7.429    0.000    0.000    0.000    0.000 
#
# Total GULP energy -156246.125475 kJ/mol
# GULP energy per Si atom -5580.218767 kJ/mol
# Density = 1.594921 g / cm^3
# Si number density = 15.985598 Si / 1000 Ang^3
#
#
#
# Elastic Constant Matrix: (Units=GPa)
#
#
# Indices 1 2 3 4 5 6 
#
# 1 63.0172 22.4534 3.9181 -0.0064 1.4214 -0.0022
# 2 22.4534 84.7570 26.5445 -0.0243 -4.9923 -0.0105
# 3 3.9181 26.5445 76.6289 -0.0505 -6.7238 -0.0196
# 4 -0.0064 -0.0243 -0.0505 19.0992 -0.0121 0.0648
# 5 1.4214 -4.9923 -6.7238 -0.0121 25.7095 -0.0027
# 6 -0.0022 -0.0105 -0.0196 0.0648 -0.0027 15.7349
#
#
#
# Elastic Compliance Matrix: (Units=1/GPa)
#
#
# Indices 1 2 3 4 5 6 
#
# 1 0.017644 -0.004988 0.000671 0.000000 -0.001769 0.000000
# 2 -0.004988 0.014694 -0.004668 0.000006 0.001908 0.000004
# 3 0.000671 -0.004668 0.014891 0.000035 0.002951 0.000016
# 4 0.000000 0.000006 0.000035 0.052359 0.000035 -0.000215
# 5 -0.001769 0.001908 0.002951 0.000035 0.040136 0.000011
# 6 0.000000 0.000004 0.000016 -0.000215 0.000011 0.063554
#
#
# Mechanical properties :
#
#
# Convention : Reuss Voigt Hill
#
# Bulk Modulus (GPa) = 34.17736 36.69279 35.43507
# Shear Modulus (GPa) = 21.64474 23.54119 22.59296
#
# Velocity S-wave (km/s) = 3.68369 3.84168 3.76351
# Velocity P-wave (km/s) = 6.28643 6.53310 6.41095
#
# Compressibility (1/GPa) = 0.02925914
#
# Stress axis : x y z
#
# Youngs Moduli (GPa) = 56.67553 68.05417 67.15259
#
# Poissons Ratio (x) = 0.33949 -0.04504
# Poissons Ratio (y) = 0.28272 0.31344
# Poissons Ratio (z) = -0.03801 0.31765
#
# Static dielectric constant tensor:
#      x y z
#    x 1.534020 0.000000 0.008260 
#    y 0.000000 1.521180 -0.000010 
#    z 0.008260 -0.000010 1.562450 
# 
# From -- ./inp_files/349960.got.cif
#   From: 2010.05.17/outbox.cif.g08.bks.cpg/sg12_175_cif.got.tgz:349960.got - 2010.06.03 13:09:07.
