data_PCOD9189501
_publ_section_title
;
Structure prediction by ZEFSAII (Michael W. Deem and Ramdas Pophale) SiO2 
 PCOD9189501
Probable space group: C 2/M
;
_chemical_formula_sum "Si O2"
_cell_formula_units_Z 64
_cell_length_a 20.729535
_cell_length_b 8.440118
_cell_length_c 26.072942
_cell_angle_alpha 90.000000
_cell_angle_beta 133.398627
_cell_angle_gamma 90.000000
_cell_volume 3314.501443
_symmetry_space_group_name_H-M "C 2/M"
_symmetry_group_IT_number 12
_symmetry_cell_setting 'monoclinic'
loop_
_space_group_symop_operation_xyz
x,y,z
-x,y,-z
-x,-y,-z
x,-y,z
1/2+x,1/2+y,z
1/2-x,1/2+y,-z
1/2-x,1/2-y,-z
1/2+x,1/2-y,z
loop_
_atom_site_type_symbol
_atom_site_label
_atom_site_fract_x
_atom_site_fract_y
_atom_site_fract_z
Si Si1 0.695448 0.310593 0.811635
Si Si2 0.833758 0.692145 0.578805
Si Si3 0.217851 0.813178 0.037174
Si Si4 0.222861 0.310389 0.340924
Si Si5 0.161550 0.693585 0.196157
Si Si6 0.467192 0.191208 0.337440
Si Si7 0.476915 0.190312 0.046587
Si Si8 0.587713 0.190835 0.579675
O O1 0.694182 0.500000 0.808833
O O2 0.766820 0.254093 0.807457
O O3 0.598814 0.247533 0.743059
O O4 0.728667 0.259514 0.885625
O O5 0.832419 0.500000 0.576900
O O6 0.750000 0.750000 0.500000
O O7 0.822092 0.746616 0.631330
O O8 0.930633 0.744046 0.611850
O O9 0.114583 0.770362 0.988048
O O10 0.230242 0.000000 0.045443
O O11 0.250000 0.750000 0.000000
O O12 0.212832 0.500000 0.334594
O O13 0.185584 0.249773 0.266247
O O14 0.326148 0.267285 0.397932
O O15 0.163857 0.500000 0.197086
O O16 0.062520 0.740289 0.125971
O O17 0.426023 0.244298 0.369238
O O18 0.468110 0.000000 0.338047
O O19 0.465677 0.000000 0.045527
O O20 0.500000 0.222637 0.000000
O O21 0.500000 0.229558 0.500000
O O22 0.598212 0.000000 0.584911
#
# Coordination Sequence:
#
# PCOD9189501 Si02
#       8
#     8   8   8   8   8   8   8   8
#     4  11  21  39  64  90 122 160 199 247 306 367
#     4  10  22  39  59  82 117 157 201 247 301 363
#     4  12  26  43  63  92 128 164 207 256 304 361
#     4  10  20  36  57  84 111 147 195 242 288 346
#     4   9  18  34  59  88 121 156 194 242 300 359
#     4  10  21  37  57  86 119 157 200 247 304 362
#     4  10  19  37  64  92 122 162 204 245 303 366
#     4  10  20  34  54  81 115 152 191 239 293 348
#
# _framework density 19.309087000000002
#
# number of rings (size 3 to 8) (size 9 to 14) (size 15 to 20)
#    0.000    1.750    2.500    2.250    0.000    3.500 
#    0.000    3.125    0.000    0.000    0.000    0.000 
#    0.000    0.000    0.000    0.000    0.000    0.000 
#
# Total GULP energy -178749.541578 kJ/mol
# GULP energy per Si atom -5585.923174 kJ/mol
# Density = 1.926514 g / cm^3
# Si number density = 19.309087 Si / 1000 Ang^3
#
#
#
# Elastic Constant Matrix: (Units=GPa)
#
#
# Indices 1 2 3 4 5 6 
#
# 1 74.4385 14.8738 7.1582 0.0000 1.2937 0.0000
# 2 14.8738 11.9610 3.5107 0.0000 -1.6597 0.0000
# 3 7.1582 3.5107 89.6261 0.0000 3.3590 0.0000
# 4 0.0000 0.0000 0.0000 27.9179 0.0000 3.0250
# 5 1.2937 -1.6597 3.3590 0.0000 35.2018 0.0000
# 6 0.0000 0.0000 0.0000 3.0250 0.0000 23.5187
#
#
#
# Elastic Compliance Matrix: (Units=1/GPa)
#
#
# Indices 1 2 3 4 5 6 
#
# 1 0.018001 -0.022471 -0.000495 0.000000 -0.001674 0.000000
# 2 -0.022471 0.113289 -0.002884 0.000000 0.006442 0.000000
# 3 -0.000495 -0.002884 0.011355 0.000000 -0.001201 0.000000
# 4 0.000000 0.000000 0.000000 0.036326 0.000000 -0.004672
# 5 -0.001674 0.006442 -0.001201 0.000000 0.028888 0.000000
# 6 0.000000 0.000000 0.000000 -0.004672 0.000000 0.043120
#
#
# Mechanical properties :
#
#
# Convention : Reuss Voigt Hill
#
# Bulk Modulus (GPa) = 10.99574 25.23456 18.11515
# Shear Modulus (GPa) = 15.01529 27.35985 21.18757
#
# Velocity S-wave (km/s) = 2.79162 3.76831 3.31612
# Velocity P-wave (km/s) = 4.01221 5.65957 4.90553
#
# Compressibility (1/GPa) = 0.09094431
#
# Stress axis : x y z
#
# Youngs Moduli (GPa) = 55.55366 8.82695 88.06706
#
# Poissons Ratio (x) = 0.19835 0.04357
# Poissons Ratio (y) = 1.24836 0.25402
# Poissons Ratio (z) = 0.02748 0.02546
#
# Static dielectric constant tensor:
#      x y z
#    x 1.549470 0.000000 0.076190 
#    y 0.000000 1.671240 0.000000 
#    z 0.076190 0.000000 1.592800 
# 
# From -- ./inp_files/346137.got.cif
#   From: 2010.05.17/outbox.cif.g08.bks.cpg/sg12_174_cif.got.tgz:346137.got - 2010.06.03 13:09:07.
