data_PCOD9189807
_publ_section_title
;
Structure prediction by ZEFSAII (Michael W. Deem and Ramdas Pophale) SiO2 
 PCOD9189807
Probable space group: C 2/M
;
_chemical_formula_sum "Si O2"
_cell_formula_units_Z 50
_cell_length_a 18.570971
_cell_length_b 12.525908
_cell_length_c 20.210889
_cell_angle_alpha 90.000000
_cell_angle_beta 28.114589
_cell_angle_gamma 90.000000
_cell_volume 2215.481603
_symmetry_space_group_name_H-M "C 2/M"
_symmetry_group_IT_number 12
_symmetry_cell_setting 'monoclinic'
loop_
_space_group_symop_operation_xyz
x,y,z
-x,y,-z
-x,-y,-z
x,-y,z
1/2+x,1/2+y,z
1/2-x,1/2+y,-z
1/2-x,1/2-y,-z
1/2+x,1/2-y,z
loop_
_atom_site_type_symbol
_atom_site_label
_atom_site_fract_x
_atom_site_fract_y
_atom_site_fract_z
Si Si1 0.321597 0.300933 0.337604
Si Si2 0.154107 0.236878 0.010675
Si Si3 0.584285 0.328628 0.601091
Si Si4 0.408400 0.114554 0.740074
Si Si5 0.238772 0.879957 0.194076
Si Si6 0.000000 0.000000 0.000000
Si Si7 0.248408 0.338536 0.260826
O O1 0.359790 0.368403 0.372763
O O2 0.223654 0.352701 0.358472
O O3 0.481017 0.276279 0.172448
O O4 0.395000 0.406800 0.121019
O O5 0.237998 0.136508 0.907282
O O6 0.179356 0.333127 0.938292
O O7 0.250000 0.250000 0.000000
O O8 0.513184 0.211701 0.676389
O O9 0.441634 0.382071 0.680256
O O10 0.726174 0.302070 0.439316
O O11 0.383277 0.122672 0.682109
O O12 0.464485 0.000000 0.715723
O O13 0.263249 0.787856 0.229184
O O14 0.286897 0.000000 0.172116
#
# Coordination Sequence:
#
# PCOD9189807 Si02
#       7
#     8   8   8   8   8   2   8
#     4  11  20  42  62  93 128 163 217 267 321 381
#     4  10  19  38  63  91 120 163 212 260 326 379
#     4   9  22  42  63  85 132 167 210 270 311 391
#     4  10  20  39  59  90 126 162 204 257 318 382
#     4  10  22  44  65  95 130 172 219 267 330 400
#     4  12  20  44  62 106 136 168 216 280 328 396
#     4  10  22  37  66  96 129 169 210 267 325 383
#
# _framework density 22.568456999999999
#
# number of rings (size 3 to 8) (size 9 to 14) (size 15 to 20)
#    0.000    2.240    4.000    1.920    0.000    3.200 
#    2.880   10.000    0.000    0.000    0.000    0.000 
#    0.000    0.000    0.000    0.000    0.000    0.000 
#
# Total GULP energy -139199.436403 kJ/mol
# GULP energy per Si atom -5567.977456 kJ/mol
# Density = 2.251709 g / cm^3
# Si number density = 22.568457 Si / 1000 Ang^3
#
#
#
# Elastic Constant Matrix: (Units=GPa)
#
#
# Indices 1 2 3 4 5 6 
#
# 1 96.0596 -0.4992 41.8064 0.0001 29.6291 0.0000
# 2 -0.4992 149.4128 7.3224 0.0001 3.8349 0.0001
# 3 41.8064 7.3224 114.0681 -0.0002 -18.9091 0.0002
# 4 0.0001 0.0001 -0.0002 0.0269 0.0002 -3.2701
# 5 29.6291 3.8349 -18.9091 0.0002 31.3153 0.0000
# 6 0.0000 0.0001 0.0002 -3.2701 0.0000 -9.4938
#
#
#
# Elastic Compliance Matrix: (Units=1/GPa)
#
#
# Indices 1 2 3 4 5 6 
#
# 1 0.030611 0.002012 -0.017991 -0.000001 -0.040072 0.000000
# 2 0.002012 0.006887 -0.001817 0.000000 -0.003845 0.000000
# 3 -0.017991 -0.001817 0.020375 0.000002 0.029548 0.000000
# 4 -0.000001 0.000000 0.000002 0.867046 -0.000002 -0.298654
# 5 -0.040072 -0.003845 0.029548 -0.000002 0.088161 0.000001
# 6 0.000000 0.000000 0.000000 -0.298654 0.000001 -0.002461
#
#
# Mechanical properties :
#
#
# Convention : Reuss Voigt Hill
#
# Bulk Modulus (GPa) = 44.87874 50.75552 47.81713
# Shear Modulus (GPa) = 4.74547 25.09709 14.92128
#
# Velocity S-wave (km/s) = 1.45164 3.33835 2.57409
# Velocity P-wave (km/s) = 4.76849 6.11538 5.48344
#
# Compressibility (1/GPa) = 0.02228227
#
# Stress axis : x y z
#
# Youngs Moduli (GPa) = 32.66835 145.19435 49.07915
#
# Poissons Ratio (x) = -0.29220 0.88298
# Poissons Ratio (y) = -0.06574 0.08918
# Poissons Ratio (z) = 0.58773 0.26383
#
# Static dielectric constant tensor:
#      x y z
#    x 1.911690 0.000000 -0.018810 
#    y 0.000000 1.846080 0.000000 
#    z -0.018810 0.000000 1.855170 
# 
# From -- ./inp_files/277569.got.cif
#   From: 2010.05.17/outbox.cif.g08.bks.cpg/sg12_139_cif.got.tgz:277569.got - 2010.06.03 13:09:07.
