data_PCOD9189835
_publ_section_title
;
Structure prediction by ZEFSAII (Michael W. Deem and Ramdas Pophale) SiO2 
 PCOD9189835
Probable space group: C 2/M
;
_chemical_formula_sum "Si O2"
_cell_formula_units_Z 58
_cell_length_a 20.504110
_cell_length_b 7.666666
_cell_length_c 23.730983
_cell_angle_alpha 90.000000
_cell_angle_beta 136.824493
_cell_angle_gamma 90.000000
_cell_volume 2552.517614
_symmetry_space_group_name_H-M "C 2/M"
_symmetry_group_IT_number 12
_symmetry_cell_setting 'monoclinic'
loop_
_space_group_symop_operation_xyz
x,y,z
-x,y,-z
-x,-y,-z
x,-y,z
1/2+x,1/2+y,z
1/2-x,1/2+y,-z
1/2-x,1/2-y,-z
1/2+x,1/2-y,z
loop_
_atom_site_type_symbol
_atom_site_label
_atom_site_fract_x
_atom_site_fract_y
_atom_site_fract_z
Si Si1 0.280184 0.286900 0.706540
Si Si2 0.870249 0.703260 0.943394
Si Si3 0.972947 0.203987 0.635941
Si Si4 0.000000 0.000000 0.000000
Si Si5 0.907498 0.703521 0.473646
Si Si6 0.694241 0.209797 0.771210
Si Si7 0.139414 0.293353 0.937982
Si Si8 0.038889 0.207815 0.246517
O O1 0.283695 0.500000 0.709435
O O2 0.193675 0.227764 0.611448
O O3 0.249853 0.232963 0.749912
O O4 0.381254 0.224644 0.746338
O O5 0.896120 0.500000 0.952853
O O6 0.757209 0.720148 0.862228
O O7 0.892787 0.772294 0.020632
O O8 0.921869 0.843609 0.936658
O O9 0.923614 0.285013 0.550330
O O10 0.948567 0.278024 0.682289
O O11 0.086776 0.224207 0.701699
O O12 0.948680 0.000000 0.619401
O O13 0.905366 0.500000 0.455668
O O14 0.000000 0.781320 0.500000
O O15 0.690197 0.000000 0.771196
O O16 0.132596 0.500000 0.936682
O O17 0.066753 0.234774 0.844307
O O18 0.250000 0.250000 0.000000
O O19 0.051945 0.000000 0.258941
#
# Coordination Sequence:
#
# PCOD9189835 Si02
#       8
#     8   8   8   2   8   8   8   8
#     4   9  20  38  63  91 121 162 217 266 314 388
#     4  11  26  43  64 100 133 169 226 281 327 401
#     4  11  23  38  59  92 129 164 206 263 324 390
#     4  12  26  44  68  94 132 186 218 262 358 398
#     4  10  19  38  64  91 119 160 213 262 314 386
#     4  11  21  39  66  93 122 169 219 265 328 387
#     4  11  25  43  67  94 129 170 221 279 330 395
#     4  10  23  41  63  89 125 167 210 260 323 395
#
# _framework density 22.722663000000001
#
# number of rings (size 3 to 8) (size 9 to 14) (size 15 to 20)
#    0.000    1.517    2.069    2.276    3.862    5.241 
#    0.000    1.379    0.000    0.000    0.000    0.000 
#    0.000    0.000    0.000    0.000    0.000    0.000 
#
# Total GULP energy -161841.779263 kJ/mol
# GULP energy per Si atom -5580.751009 kJ/mol
# Density = 2.267095 g / cm^3
# Si number density = 22.722663 Si / 1000 Ang^3
#
#
#
# Elastic Constant Matrix: (Units=GPa)
#
#
# Indices 1 2 3 4 5 6 
#
# 1 82.6753 -0.5234 -2.7681 0.0000 -3.5806 0.0000
# 2 -0.5234 67.6238 -6.7970 0.0000 4.4663 0.0002
# 3 -2.7681 -6.7970 71.2526 0.0000 -7.2561 0.0000
# 4 0.0000 0.0000 0.0000 24.2387 0.0000 -0.6832
# 5 -3.5806 4.4663 -7.2561 0.0000 37.1074 0.0000
# 6 0.0000 0.0002 0.0000 -0.6832 0.0000 8.9902
#
#
#
# Elastic Compliance Matrix: (Units=1/GPa)
#
#
# Indices 1 2 3 4 5 6 
#
# 1 0.012172 0.000071 0.000611 0.000000 0.001285 0.000000
# 2 0.000071 0.015019 0.001277 0.000000 -0.001551 0.000000
# 3 0.000611 0.001277 0.014458 0.000000 0.002732 0.000000
# 4 0.000000 0.000000 0.000000 0.041345 0.000000 0.003142
# 5 0.001285 -0.001551 0.002732 0.000000 0.027794 0.000000
# 6 0.000000 0.000000 0.000000 0.003142 0.000000 0.111471
#
#
# Mechanical properties :
#
#
# Convention : Reuss Voigt Hill
#
# Bulk Modulus (GPa) = 21.94571 22.37496 22.16033
# Shear Modulus (GPa) = 21.41042 29.50994 25.46018
#
# Velocity S-wave (km/s) = 3.07294 3.60766 3.35098
# Velocity P-wave (km/s) = 4.71907 5.21747 4.97451
#
# Compressibility (1/GPa) = 0.04556699
#
# Stress axis : x y z
#
# Youngs Moduli (GPa) = 82.15531 66.58191 69.16382
#
# Poissons Ratio (x) = -0.00471 -0.04223
# Poissons Ratio (y) = -0.00581 -0.08836
# Poissons Ratio (z) = -0.05016 -0.08506
#
# Static dielectric constant tensor:
#      x y z
#    x 1.903470 0.000000 -0.023650 
#    y 0.000000 1.850220 0.000000 
#    z -0.023650 0.000000 1.853400 
# 
# From -- ./inp_files/346575.got.cif
#   From: 2010.05.17/outbox.cif.g08.bks.cpg/sg12_174_cif.got.tgz:346575.got - 2010.06.03 13:09:07.
