data_PCOD9189716
_publ_section_title
;
Structure prediction by ZEFSAII (Michael W. Deem and Ramdas Pophale) SiO2 
 PCOD9189716
Probable space group: C 2/M
;
_chemical_formula_sum "Si O2"
_cell_formula_units_Z 64
_cell_length_a 16.385398
_cell_length_b 17.265675
_cell_length_c 13.902275
_cell_angle_alpha 90.000000
_cell_angle_beta 131.316241
_cell_angle_gamma 90.000000
_cell_volume 2954.002823
_symmetry_space_group_name_H-M "C 2/M"
_symmetry_group_IT_number 12
_symmetry_cell_setting 'monoclinic'
loop_
_space_group_symop_operation_xyz
x,y,z
-x,y,-z
-x,-y,-z
x,-y,z
1/2+x,1/2+y,z
1/2-x,1/2+y,-z
1/2-x,1/2-y,-z
1/2+x,1/2-y,z
loop_
_atom_site_type_symbol
_atom_site_label
_atom_site_fract_x
_atom_site_fract_y
_atom_site_fract_z
Si Si1 0.238791 0.827630 0.609573
Si Si2 0.707441 0.410958 0.067604
Si Si3 0.044323 0.182870 0.813885
Si Si4 0.529182 0.586296 0.411711
Si Si5 0.920215 0.588772 0.852173
Si Si6 0.146203 0.330053 0.502565
Si Si7 0.845581 0.089643 0.750672
Si Si8 0.546111 0.138189 0.764798
O O1 0.156252 0.893101 0.508795
O O2 0.314903 0.857623 0.754138
O O3 0.167756 0.751011 0.573760
O O4 0.316190 0.812249 0.578417
O O5 0.685895 0.500000 0.022426
O O6 0.665056 0.400784 0.143317
O O7 0.835220 0.394507 0.162465
O O8 0.643576 0.353247 0.948894
O O9 0.051971 0.274446 0.810652
O O10 0.036717 0.147447 0.701455
O O11 0.934281 0.149515 0.778088
O O12 0.500000 0.589952 0.500000
O O13 0.508257 0.500000 0.358996
O O14 0.886896 0.500000 0.846296
O O15 0.985495 0.591054 0.802095
O O16 0.000000 0.614422 0.000000
O O17 0.229193 0.390602 0.613140
O O18 0.024757 0.358566 0.388618
O O19 0.875743 0.000000 0.754769
#
# Coordination Sequence:
#
# PCOD9189716 Si02
#       8
#     8   8   8   8   8   8   8   8
#     4  10  19  38  61  87 124 166 213 269 320 378
#     4  11  26  44  65  97 135 176 217 267 331 399
#     4  12  23  44  68  94 131 171 219 275 332 387
#     4  11  23  37  60  93 124 164 214 269 331 384
#     4  10  22  38  62  94 129 176 224 269 323 392
#     4  10  20  38  64  93 124 165 217 268 319 386
#     4  11  23  40  68  99 129 173 221 268 327 388
#     4  11  24  43  64  94 132 172 218 268 335 394
#
# _framework density 21.665517000000001
#
# number of rings (size 3 to 8) (size 9 to 14) (size 15 to 20)
#    0.000    1.250    2.500    4.125    0.000    8.000 
#    0.000    2.500    0.000    0.000    0.000    0.000 
#    0.000    0.000    0.000    0.000    0.000    0.000 
#
# Total GULP energy -178930.495827 kJ/mol
# GULP energy per Si atom -5591.577995 kJ/mol
# Density = 2.161621 g / cm^3
# Si number density = 21.665517 Si / 1000 Ang^3
#
#
#
# Elastic Constant Matrix: (Units=GPa)
#
#
# Indices 1 2 3 4 5 6 
#
# 1 33.9874 -2.5176 -2.7075 0.0000 -1.5084 0.0000
# 2 -2.5176 64.8611 4.0880 0.0000 -7.1515 0.0000
# 3 -2.7075 4.0880 124.2204 0.0000 4.8890 0.0000
# 4 0.0000 0.0000 0.0000 28.4683 0.0000 9.0519
# 5 -1.5084 -7.1515 4.8890 0.0000 25.5124 0.0000
# 6 0.0000 0.0000 0.0000 9.0519 0.0000 58.0769
#
#
#
# Elastic Compliance Matrix: (Units=1/GPa)
#
#
# Indices 1 2 3 4 5 6 
#
# 1 0.029654 0.001342 0.000522 0.000000 0.002029 0.000000
# 2 0.001342 0.016031 -0.000683 0.000000 0.004704 0.000000
# 3 0.000522 -0.000683 0.008152 0.000000 -0.001723 0.000000
# 4 0.000000 0.000000 0.000000 0.036958 0.000000 -0.005760
# 5 0.002029 0.004704 -0.001723 0.000000 0.040965 0.000000
# 6 0.000000 0.000000 0.000000 -0.005760 0.000000 0.018116
#
#
# Mechanical properties :
#
#
# Convention : Reuss Voigt Hill
#
# Bulk Modulus (GPa) = 17.79410 24.53273 21.16341
# Shear Modulus (GPa) = 30.07546 37.35859 33.71703
#
# Velocity S-wave (km/s) = 3.72986 4.15702 3.94922
# Velocity P-wave (km/s) = 5.17495 5.86421 5.53033
#
# Compressibility (1/GPa) = 0.05619841
#
# Stress axis : x y z
#
# Youngs Moduli (GPa) = 33.72257 62.37763 122.67090
#
# Poissons Ratio (x) = -0.08370 -0.06407
# Poissons Ratio (y) = -0.04525 0.08384
# Poissons Ratio (z) = -0.01761 0.04263
#
# Static dielectric constant tensor:
#      x y z
#    x 1.820660 0.000000 0.015530 
#    y 0.000000 1.782570 0.000000 
#    z 0.015530 0.000000 1.773830 
# 
# From -- ./inp_files/216810.got.cif
#   From: 2010.05.17/outbox.cif.g08.bks.cpg/sg12_109_cif.got.tgz:216810.got - 2010.06.03 13:09:07.
