data_PCOD9189130
_publ_section_title
;
Structure prediction by ZEFSAII (Michael W. Deem and Ramdas Pophale) SiO2 
 PCOD9189130
Probable space group: C 2/M
;
_chemical_formula_sum "Si O2"
_cell_formula_units_Z 64
_cell_length_a 12.554015
_cell_length_b 21.201219
_cell_length_c 23.668473
_cell_angle_alpha 90.000000
_cell_angle_beta 27.575287
_cell_angle_gamma 90.000000
_cell_volume 2916.176446
_symmetry_space_group_name_H-M "C 2/M"
_symmetry_group_IT_number 12
_symmetry_cell_setting 'monoclinic'
loop_
_space_group_symop_operation_xyz
x,y,z
-x,y,-z
-x,-y,-z
x,-y,z
1/2+x,1/2+y,z
1/2-x,1/2+y,-z
1/2-x,1/2-y,-z
1/2+x,1/2-y,z
loop_
_atom_site_type_symbol
_atom_site_label
_atom_site_fract_x
_atom_site_fract_y
_atom_site_fract_z
Si Si1 0.711580 0.929832 0.797818
Si Si2 0.235811 0.073369 0.363037
Si Si3 0.409499 0.875029 0.635180
Si Si4 0.207588 0.428439 0.200974
Si Si5 0.003004 0.755140 0.356282
Si Si6 0.871958 0.864031 0.343466
Si Si7 0.439007 0.686960 0.969816
Si Si8 0.544973 0.192987 0.844536
O O1 0.761796 0.926937 0.706380
O O2 0.554533 0.868149 0.880840
O O3 0.940190 0.915061 0.726023
O O4 0.621926 0.000000 0.852160
O O5 0.479854 0.095181 0.274109
O O6 0.000000 0.102165 0.500000
O O7 0.233338 0.000000 0.382311
O O8 0.365800 0.930989 0.698631
O O9 0.417589 0.816141 0.674522
O O10 0.647482 0.875650 0.488478
O O11 0.211409 0.867136 0.681527
O O12 0.265474 0.500000 0.154570
O O13 0.420393 0.378952 0.098310
O O14 0.750000 0.750000 0.500000
O O15 0.973312 0.794908 0.312664
O O16 0.194785 0.795583 0.300233
O O17 0.496174 0.740113 0.896899
O O18 0.500000 0.718174 0.000000
O O19 0.166257 0.677957 0.095941
#
# Coordination Sequence:
#
# PCOD9189130 Si02
#       8
#     8   8   8   8   8   8   8   8
#     4  10  20  37  60  88 122 160 209 260 311 374
#     4   9  18  34  58  90 128 166 205 254 317 387
#     4  10  19  37  57  88 131 166 211 256 314 387
#     4  11  23  39  62  93 125 163 212 272 328 384
#     4   9  18  37  61  91 126 158 203 261 316 374
#     4   9  20  34  58  89 126 174 209 250 312 393
#     4  11  24  43  66  87 119 164 213 264 318 380
#     4  10  22  41  62  91 116 160 208 255 318 380
#
# _framework density 21.946546000000001
#
# number of rings (size 3 to 8) (size 9 to 14) (size 15 to 20)
#    0.000    2.125    1.250    1.500    0.000    4.750 
#    4.500    1.250    0.000    0.375    0.000    0.000 
#    0.000    0.000    0.000    0.000    0.000    0.000 
#
# Total GULP energy -178162.529605 kJ/mol
# GULP energy per Si atom -5567.579050 kJ/mol
# Density = 2.189659 g / cm^3
# Si number density = 21.946546 Si / 1000 Ang^3
#
#
#
# Elastic Constant Matrix: (Units=GPa)
#
#
# Indices 1 2 3 4 5 6 
#
# 1 101.7653 21.1467 43.4885 0.0432 -29.8945 -0.0106
# 2 21.1467 122.6285 38.2722 -0.0043 -14.4367 -0.0116
# 3 43.4885 38.2722 85.3736 0.1350 -36.0815 -0.0119
# 4 0.0432 -0.0043 0.1350 25.3780 -0.0286 -0.9745
# 5 -29.8945 -14.4367 -36.0815 -0.0286 41.6617 0.0204
# 6 -0.0106 -0.0116 -0.0119 -0.9745 0.0204 19.3436
#
#
#
# Elastic Compliance Matrix: (Units=1/GPa)
#
#
# Indices 1 2 3 4 5 6 
#
# 1 0.013416 -0.000307 -0.004216 0.000006 0.005869 -0.000001
# 2 -0.000307 0.009499 -0.004423 0.000025 -0.000759 0.000005
# 3 -0.004216 -0.004423 0.021952 -0.000094 0.014454 -0.000012
# 4 0.000006 0.000025 -0.000094 0.039481 -0.000043 0.001989
# 5 0.005869 -0.000759 0.014454 -0.000043 0.040469 -0.000033
# 6 -0.000001 0.000005 -0.000012 0.001989 -0.000033 0.051797
#
#
# Mechanical properties :
#
#
# Convention : Reuss Voigt Hill
#
# Bulk Modulus (GPa) = 37.06975 57.28691 47.17833
# Shear Modulus (GPa) = 24.57033 31.06733 27.81883
#
# Velocity S-wave (km/s) = 3.34960 3.76652 3.56416
# Velocity P-wave (km/s) = 5.64689 6.71380 6.20333
#
# Compressibility (1/GPa) = 0.02697617
#
# Stress axis : x y z
#
# Youngs Moduli (GPa) = 74.53750 105.27902 45.55301
#
# Poissons Ratio (x) = 0.03229 0.19205
# Poissons Ratio (y) = 0.02286 0.20146
# Poissons Ratio (z) = 0.31425 0.46561
#
# Static dielectric constant tensor:
#      x y z
#    x 1.791430 0.000000 0.014300 
#    y 0.000000 1.873570 -0.000060 
#    z 0.014300 -0.000060 1.969960 
# 
# From -- ./inp_files/358981.got.cif
#   From: 2010.05.17/outbox.cif.g08.bks.cpg/sg12_180_cif.got.tgz:358981.got - 2010.06.03 13:09:07.
