data_PCOD9189305
_publ_section_title
;
Structure prediction by ZEFSAII (Michael W. Deem and Ramdas Pophale) SiO2 
 PCOD9189305
Probable space group: C 2/M
;
_chemical_formula_sum "Si O2"
_cell_formula_units_Z 64
_cell_length_a 32.307332
_cell_length_b 14.888982
_cell_length_c 8.210415
_cell_angle_alpha 90.000000
_cell_angle_beta 39.156555
_cell_angle_gamma 90.000000
_cell_volume 2493.815611
_symmetry_space_group_name_H-M "C 2/M"
_symmetry_group_IT_number 12
_symmetry_cell_setting 'monoclinic'
loop_
_space_group_symop_operation_xyz
x,y,z
-x,y,-z
-x,-y,-z
x,-y,z
1/2+x,1/2+y,z
1/2-x,1/2+y,-z
1/2-x,1/2-y,-z
1/2+x,1/2-y,z
loop_
_atom_site_type_symbol
_atom_site_label
_atom_site_fract_x
_atom_site_fract_y
_atom_site_fract_z
Si Si1 0.643892 0.145512 0.565106
Si Si2 0.056036 0.095570 0.687398
Si Si3 0.710219 0.185773 0.835760
Si Si4 0.469942 0.792369 0.277344
Si Si5 0.654617 0.351762 0.649639
Si Si6 0.237654 0.900816 0.013813
Si Si7 0.916970 0.400076 0.913671
Si Si8 0.176494 0.893134 0.902627
O O1 0.595560 0.151351 0.558118
O O2 0.649356 0.247018 0.619007
O O3 0.710811 0.105807 0.293489
O O4 0.614885 0.094746 0.807654
O O5 0.045548 0.190169 0.630108
O O6 0.122067 0.100720 0.596184
O O7 0.051161 0.000000 0.615065
O O8 0.000000 0.095871 0.000000
O O9 0.767411 0.130952 0.566305
O O10 0.639223 0.144134 0.024869
O O11 0.706103 0.289469 0.798064
O O12 0.738701 0.171861 0.929632
O O13 0.500000 0.790734 0.000000
O O14 0.519360 0.839645 0.248956
O O15 0.624081 0.379983 0.914942
O O16 0.170088 0.890770 0.119947
O O17 0.243337 0.000000 0.069238
O O18 0.932572 0.500000 0.809903
O O19 0.195145 0.000000 0.821559
#
# Coordination Sequence:
#
# PCOD9189305 Si02
#       8
#     8   8   8   8   8   8   8   8
#     4  10  19  37  61  86 120 160 199 250 304 354
#     4   9  18  33  57  88 121 152 190 245 304 360
#     4  12  24  41  60  87 131 165 196 257 304 358
#     4   8  18  34  55  84 120 153 199 251 303 351
#     4  11  21  38  63  93 123 155 197 252 311 362
#     4  11  24  39  58  88 123 167 210 244 300 369
#     4  11  22  37  61  92 122 159 205 254 307 363
#     4  11  23  39  61  88 119 161 208 250 304 368
#
# _framework density 25.663484
#
# number of rings (size 3 to 8) (size 9 to 14) (size 15 to 20)
#    0.000    1.625    2.500    3.375    0.000    5.750 
#    0.000    0.625    0.000    1.500    0.000    0.875 
#    0.000    7.250    0.000    0.000    0.000    0.000 
#
# Total GULP energy -178479.153517 kJ/mol
# GULP energy per Si atom -5577.473547 kJ/mol
# Density = 2.560507 g / cm^3
# Si number density = 25.663484 Si / 1000 Ang^3
#
#
#
# Elastic Constant Matrix: (Units=GPa)
#
#
# Indices 1 2 3 4 5 6 
#
# 1 157.1409 70.0223 23.4422 0.0000 1.0951 0.0000
# 2 70.0223 173.5932 29.3338 0.0000 -12.0900 0.0000
# 3 23.4422 29.3338 43.5051 0.0000 3.5478 0.0000
# 4 0.0000 0.0000 0.0000 19.5505 0.0000 3.1388
# 5 1.0951 -12.0900 3.5478 0.0000 43.7384 0.0000
# 6 0.0000 0.0000 0.0000 3.1388 0.0000 28.4833
#
#
#
# Elastic Compliance Matrix: (Units=1/GPa)
#
#
# Indices 1 2 3 4 5 6 
#
# 1 0.008002 -0.002897 -0.002292 0.000000 -0.000815 0.000000
# 2 -0.002897 0.007761 -0.003878 0.000000 0.002532 0.000000
# 3 -0.002292 -0.003878 0.027098 0.000000 -0.003213 0.000000
# 4 0.000000 0.000000 0.000000 0.052071 0.000000 -0.005738
# 5 -0.000815 0.002532 -0.003213 0.000000 0.023844 0.000000
# 6 0.000000 0.000000 0.000000 -0.005738 0.000000 0.035741
#
#
# Mechanical properties :
#
#
# Convention : Reuss Voigt Hill
#
# Bulk Modulus (GPa) = 40.44318 68.87064 54.65691
# Shear Modulus (GPa) = 27.64053 35.11718 31.37886
#
# Velocity S-wave (km/s) = 3.28538 3.70316 3.50051
# Velocity P-wave (km/s) = 5.49408 6.72152 6.13856
#
# Compressibility (1/GPa) = 0.02472605
#
# Stress axis : x y z
#
# Youngs Moduli (GPa) = 124.96246 128.84858 36.90349
#
# Poissons Ratio (x) = 0.37333 0.08458
# Poissons Ratio (y) = 0.36207 0.14312
# Poissons Ratio (z) = 0.28640 0.49971
#
# Static dielectric constant tensor:
#      x y z
#    x 2.092540 0.000000 0.002280 
#    y 0.000000 1.960720 0.000000 
#    z 0.002280 0.000000 2.197810 
# 
# From -- ./inp_files/111981.got.cif
#   From: 2010.05.17/outbox.cif.g08.bks.cpg/sg12_56_cif.got.tgz:111981.got - 2010.06.03 13:09:07.
