data_PCOD9189739
_publ_section_title
;
Structure prediction by ZEFSAII (Michael W. Deem and Ramdas Pophale) SiO2 
 PCOD9189739
Probable space group: C 2/M
;
_chemical_formula_sum "Si O2"
_cell_formula_units_Z 64
_cell_length_a 20.875783
_cell_length_b 7.634454
_cell_length_c 19.123336
_cell_angle_alpha 90.000000
_cell_angle_beta 97.626028
_cell_angle_gamma 90.000000
_cell_volume 3020.829021
_symmetry_space_group_name_H-M "C 2/M"
_symmetry_group_IT_number 12
_symmetry_cell_setting 'monoclinic'
loop_
_space_group_symop_operation_xyz
x,y,z
-x,y,-z
-x,-y,-z
x,-y,z
1/2+x,1/2+y,z
1/2-x,1/2+y,-z
1/2-x,1/2-y,-z
1/2+x,1/2-y,z
loop_
_atom_site_type_symbol
_atom_site_label
_atom_site_fract_x
_atom_site_fract_y
_atom_site_fract_z
Si Si1 0.973928 0.295436 0.799715
Si Si2 0.145984 0.287740 0.588344
Si Si3 0.971074 0.297253 0.337257
Si Si4 0.949414 0.787848 0.053045
Si Si5 0.184640 0.210637 0.031177
Si Si6 0.599459 0.293321 0.426123
Si Si7 0.786492 0.214947 0.660118
Si Si8 0.669999 0.702758 0.184662
O O1 0.958206 0.500000 0.786353
O O2 0.906986 0.208376 0.813463
O O3 0.002424 0.220579 0.731610
O O4 0.025383 0.278501 0.869198
O O5 0.145469 0.500000 0.590136
O O6 0.092673 0.221693 0.635944
O O7 0.124799 0.235402 0.507746
O O8 0.218108 0.229856 0.618275
O O9 0.955815 0.500000 0.319153
O O10 0.030285 0.290198 0.400208
O O11 0.949824 0.000000 0.056475
O O12 0.878542 0.726743 0.019766
O O13 0.000000 0.735880 0.000000
O O14 0.184645 0.280552 0.110717
O O15 0.177500 0.000000 0.034987
O O16 0.250000 0.250000 0.000000
O O17 0.591035 0.500000 0.413434
O O18 0.653473 0.228309 0.379224
O O19 0.796887 0.277270 0.740998
O O20 0.787593 0.000000 0.660323
O O21 0.690720 0.500000 0.184745
#
# Coordination Sequence:
#
# PCOD9189739 Si02
#       8
#     8   8   8   8   8   8   8   8
#     4  11  22  35  57  89 116 144 189 245 289 325
#     4  10  21  38  56  78 113 150 187 230 280 341
#     4  10  22  38  56  81 113 150 186 228 286 339
#     4  10  20  38  61  84 113 153 194 227 275 341
#     4  10  22  38  60  87 117 152 187 230 281 336
#     4  11  21  35  58  85 110 143 189 236 281 332
#     4   9  19  35  59  84 106 145 193 231 273 331
#     4  10  19  38  62  82 110 154 194 227 278 343
#
# _framework density 21.186236999999998
#
# number of rings (size 3 to 8) (size 9 to 14) (size 15 to 20)
#    0.000    1.875    2.500    1.500    0.000    4.750 
#    0.000    3.750    0.000    0.000    0.000    0.000 
#    0.000    0.000    0.000    0.000    0.000    0.000 
#
# Total GULP energy -178812.187894 kJ/mol
# GULP energy per Si atom -5587.880872 kJ/mol
# Density = 2.113802 g / cm^3
# Si number density = 21.186237 Si / 1000 Ang^3
#
#
#
# Elastic Constant Matrix: (Units=GPa)
#
#
# Indices 1 2 3 4 5 6 
#
# 1 80.8058 -10.3923 7.9287 0.0000 -5.1190 0.0000
# 2 -10.3923 43.2714 -8.7562 0.0000 -3.6889 0.0000
# 3 7.9287 -8.7562 106.6581 0.0000 0.1019 0.0000
# 4 0.0000 0.0000 0.0000 21.5454 0.0000 33.5107
# 5 -5.1190 -3.6889 0.1019 0.0000 29.2974 0.0000
# 6 0.0000 0.0000 0.0000 33.5107 0.0000 240.4517
#
#
#
# Elastic Compliance Matrix: (Units=1/GPa)
#
#
# Indices 1 2 3 4 5 6 
#
# 1 0.013028 0.003215 -0.000707 0.000000 0.002684 0.000000
# 2 0.003215 0.024552 0.001773 0.000000 0.003647 0.000000
# 3 -0.000707 0.001773 0.009574 0.000000 0.000066 0.000000
# 4 0.000000 0.000000 0.000000 0.059259 0.000000 -0.008259
# 5 0.002684 0.003647 0.000066 0.000000 0.035061 0.000000
# 6 0.000000 0.000000 0.000000 -0.008259 0.000000 0.005310
#
#
# Mechanical properties :
#
#
# Convention : Reuss Voigt Hill
#
# Bulk Modulus (GPa) = 17.94852 23.14396 20.54624
# Shear Modulus (GPa) = 31.88913 74.38924 53.13919
#
# Velocity S-wave (km/s) = 3.88388 5.93197 5.01362
# Velocity P-wave (km/s) = 5.34816 7.60694 6.57527
#
# Compressibility (1/GPa) = 0.05571491
#
# Stress axis : x y z
#
# Youngs Moduli (GPa) = 76.75680 40.73037 104.45145
#
# Poissons Ratio (x) = -0.13093 0.07386
# Poissons Ratio (y) = -0.24674 -0.18521
# Poissons Ratio (z) = 0.05428 -0.07222
#
# Static dielectric constant tensor:
#      x y z
#    x 1.720590 0.000000 -0.010430 
#    y 0.000000 1.819140 0.000000 
#    z -0.010430 0.000000 1.747380 
# 
# From -- ./inp_files/281359.got.cif
#   From: 2010.05.17/outbox.cif.g08.bks.cpg/sg12_141_cif.got.tgz:281359.got - 2010.06.03 13:09:07.
