data_PCOD9189629
_publ_section_title
;
Structure prediction by ZEFSAII (Michael W. Deem and Ramdas Pophale) SiO2 
 PCOD9189629
Probable space group: C 2/M
;
_chemical_formula_sum "Si O2"
_cell_formula_units_Z 64
_cell_length_a 20.423294
_cell_length_b 18.917782
_cell_length_c 11.710581
_cell_angle_alpha 90.000000
_cell_angle_beta 134.333153
_cell_angle_gamma 90.000000
_cell_volume 3236.351507
_symmetry_space_group_name_H-M "C 2/M"
_symmetry_group_IT_number 12
_symmetry_cell_setting 'monoclinic'
loop_
_space_group_symop_operation_xyz
x,y,z
-x,y,-z
-x,-y,-z
x,-y,z
1/2+x,1/2+y,z
1/2-x,1/2+y,-z
1/2-x,1/2-y,-z
1/2+x,1/2-y,z
loop_
_atom_site_type_symbol
_atom_site_label
_atom_site_fract_x
_atom_site_fract_y
_atom_site_fract_z
Si Si1 0.155120 0.352105 0.603745
Si Si2 0.643496 0.707611 0.471212
Si Si3 0.401483 0.420778 0.438439
Si Si4 0.209583 0.842173 0.889648
Si Si5 0.364772 0.211443 0.764222
Si Si6 0.429801 0.081859 0.711081
Si Si7 0.180886 0.786354 0.081346
Si Si8 0.387509 0.083955 0.212051
O O1 0.118856 0.275181 0.520349
O O2 0.143337 0.401068 0.478683
O O3 0.260516 0.340779 0.770364
O O4 0.104377 0.382966 0.652029
O O5 0.600701 0.635688 0.462998
O O6 0.615945 0.731485 0.311140
O O7 0.754172 0.700265 0.617629
O O8 0.500000 0.422560 0.500000
O O9 0.375370 0.500000 0.441861
O O10 0.335232 0.390724 0.259706
O O11 0.243851 0.770198 0.872280
O O12 0.147215 0.822239 0.923574
O O13 0.298845 0.880530 0.048254
O O14 0.411754 0.137811 0.789086
O O15 0.383729 0.242976 0.912366
O O16 0.525844 0.096002 0.763915
O O17 0.425872 0.000000 0.741288
O O18 0.375638 0.000000 0.209676
#
# Coordination Sequence:
#
# PCOD9189629 Si02
#       8
#     8   8   8   8   8   8   8   8
#     4   9  16  31  53  77 107 147 186 231 270 303
#     4   9  18  34  55  80 111 143 179 229 273 320
#     4  11  23  38  60  87 108 134 181 239 290 330
#     4  10  19  38  58  78 106 143 180 231 284 322
#     4   9  17  34  55  78 115 149 183 218 259 320
#     4  10  20  31  48  83 121 152 186 218 256 324
#     4   9  18  35  57  81 106 141 187 231 266 321
#     4  10  20  32  50  78 116 152 183 219 268 329
#
# _framework density 19.775354
#
# number of rings (size 3 to 8) (size 9 to 14) (size 15 to 20)
#    0.000    2.375    2.500    1.875    0.000    3.500 
#    0.000    0.625    0.000    3.000    0.000    1.750 
#    0.000    0.000    0.000    0.000    0.000    0.000 
#
# Total GULP energy -178572.967680 kJ/mol
# GULP energy per Si atom -5580.405240 kJ/mol
# Density = 1.973034 g / cm^3
# Si number density = 19.775354 Si / 1000 Ang^3
#
#
#
# Elastic Constant Matrix: (Units=GPa)
#
#
# Indices 1 2 3 4 5 6 
#
# 1 76.0225 59.8663 21.1211 0.0000 -26.1936 0.0000
# 2 59.8663 119.0414 14.7430 0.0000 -15.0688 0.0000
# 3 21.1211 14.7430 40.6057 0.0000 -15.5815 0.0000
# 4 0.0000 0.0000 0.0000 -24.2999 0.0000 12.9827
# 5 -26.1936 -15.0688 -15.5815 0.0000 24.2807 0.0000
# 6 0.0000 0.0000 0.0000 12.9827 0.0000 32.2469
#
#
#
# Elastic Compliance Matrix: (Units=1/GPa)
#
#
# Indices 1 2 3 4 5 6 
#
# 1 0.033054 -0.013026 -0.002498 0.000000 0.025971 0.000000
# 2 -0.013026 0.014320 -0.000538 0.000000 -0.005510 0.000000
# 3 -0.002498 -0.000538 0.033114 0.000000 0.018221 0.000000
# 4 0.000000 0.000000 0.000000 -0.033868 0.000000 0.013635
# 5 0.025971 -0.005510 0.018221 0.000000 0.077475 0.000000
# 6 0.000000 0.000000 0.000000 0.013635 0.000000 0.025521
#
#
# Mechanical properties :
#
#
# Convention : Reuss Voigt Hill
#
# Bulk Modulus (GPa) = 20.67670 47.45895 34.06782
# Shear Modulus (GPa) = 25.26998 15.77484 20.52241
#
# Velocity S-wave (km/s) = 3.57858 2.82743 3.22495
# Velocity P-wave (km/s) = 5.24914 5.89154 5.57960
#
# Compressibility (1/GPa) = 0.04836363
#
# Stress axis : x y z
#
# Youngs Moduli (GPa) = 30.25330 69.83005 30.19896
#
# Poissons Ratio (x) = 0.90962 0.07543
# Poissons Ratio (y) = 0.39408 0.01626
# Poissons Ratio (z) = 0.07557 0.03759
#
# Static dielectric constant tensor:
#      x y z
#    x 1.727980 0.000000 -0.004600 
#    y 0.000000 1.686490 0.000000 
#    z -0.004600 0.000000 1.729480 
# 
# From -- ./inp_files/168809.got.cif
#   From: 2010.05.17/outbox.cif.g08.bks.cpg/sg12_85_cif.got.tgz:168809.got - 2010.06.03 13:09:07.
