data_PCOD9189202
_publ_section_title
;
Structure prediction by ZEFSAII (Michael W. Deem and Ramdas Pophale) SiO2 
 PCOD9189202
Probable space group: C 2/M
;
_chemical_formula_sum "Si O2"
_cell_formula_units_Z 64
_cell_length_a 31.221582
_cell_length_b 7.552756
_cell_length_c 17.549771
_cell_angle_alpha 90.000000
_cell_angle_beta 43.526170
_cell_angle_gamma 90.000000
_cell_volume 2850.053122
_symmetry_space_group_name_H-M "C 2/M"
_symmetry_group_IT_number 12
_symmetry_cell_setting 'monoclinic'
loop_
_space_group_symop_operation_xyz
x,y,z
-x,y,-z
-x,-y,-z
x,-y,z
1/2+x,1/2+y,z
1/2-x,1/2+y,-z
1/2-x,1/2-y,-z
1/2+x,1/2-y,z
loop_
_atom_site_type_symbol
_atom_site_label
_atom_site_fract_x
_atom_site_fract_y
_atom_site_fract_z
Si Si1 0.996970 0.785914 0.592476
Si Si2 0.677679 0.708945 0.589186
Si Si3 0.358063 0.794088 0.805430
Si Si4 0.447510 0.216122 0.958785
Si Si5 0.628527 0.717705 0.491088
Si Si6 0.079067 0.708477 0.837481
Si Si7 0.664373 0.217621 0.998672
Si Si8 0.283837 0.298135 0.755760
O O1 0.059614 0.727746 0.554193
O O2 0.000000 0.730431 0.500000
O O3 0.932628 0.721073 0.711231
O O4 0.995325 0.000000 0.595809
O O5 0.670302 0.500000 0.595098
O O6 0.750000 0.750000 0.500000
O O7 0.646856 0.780020 0.551457
O O8 0.641561 0.768153 0.710699
O O9 0.330462 0.724819 0.920468
O O10 0.331874 0.700650 0.764364
O O11 0.341260 0.000000 0.819052
O O12 0.519286 0.276154 0.867059
O O13 0.401241 0.274811 0.952513
O O14 0.446333 0.000000 0.956469
O O15 0.421847 0.274892 0.074764
O O16 0.628878 0.500000 0.488592
O O17 0.679811 0.779260 0.363228
O O18 0.068114 0.500000 0.859816
O O19 0.666114 0.000000 0.998087
O O20 0.720521 0.279273 0.872150
O O21 0.268033 0.500000 0.754346
#
# Coordination Sequence:
#
# PCOD9189202 Si02
#       8
#     8   8   8   8   8   8   8   8
#     4  10  19  37  61  81 105 145 196 232 264 329
#     4  11  24  40  59  86 118 149 188 234 286 339
#     4  11  22  34  51  84 120 144 174 228 290 331
#     4   8  16  33  57  85 109 142 189 229 271 334
#     4   9  20  37  59  84 106 142 194 236 269 325
#     4   9  18  35  61  85 110 144 185 230 278 332
#     4   9  19  32  54  82 110 144 187 229 269 325
#     4  10  19  37  60  77 102 150 197 228 263 322
#
# _framework density 22.455722000000002
#
# number of rings (size 3 to 8) (size 9 to 14) (size 15 to 20)
#    0.000    2.375    1.250    1.875    3.500    0.250 
#    0.000    3.750    0.000    2.250    0.000    0.000 
#    0.000    0.000    0.000    0.000    0.000    0.000 
#
# Total GULP energy -178761.354112 kJ/mol
# GULP energy per Si atom -5586.292316 kJ/mol
# Density = 2.240461 g / cm^3
# Si number density = 22.455722 Si / 1000 Ang^3
#
#
#
# Elastic Constant Matrix: (Units=GPa)
#
#
# Indices 1 2 3 4 5 6 
#
# 1 56.7327 -7.3433 -13.3385 0.0038 -4.3909 -0.0012
# 2 -7.3433 52.6242 -12.9813 0.0154 4.0945 -0.0063
# 3 -13.3385 -12.9813 70.6649 0.0096 -12.6760 -0.0038
# 4 0.0038 0.0154 0.0096 11.9141 -0.0001 1.3936
# 5 -4.3909 4.0945 -12.6760 -0.0001 23.4046 -0.0004
# 6 -0.0012 -0.0063 -0.0038 1.3936 -0.0004 5.2939
#
#
#
# Elastic Compliance Matrix: (Units=1/GPa)
#
#
# Indices 1 2 3 4 5 6 
#
# 1 0.019866 0.003659 0.005511 -0.000018 0.006072 0.000018
# 2 0.003659 0.020637 0.004383 -0.000036 -0.000550 0.000038
# 3 0.005511 0.004383 0.017771 -0.000025 0.009892 0.000026
# 4 -0.000018 -0.000036 -0.000025 0.086601 -0.000010 -0.022797
# 5 0.006072 -0.000550 0.009892 -0.000010 0.049320 0.000014
# 6 0.000018 0.000038 0.000026 -0.022797 0.000014 0.194899
#
#
# Mechanical properties :
#
#
# Convention : Reuss Voigt Hill
#
# Bulk Modulus (GPa) = 11.71215 12.52174 12.11694
# Shear Modulus (GPa) = 12.80584 22.36817 17.58701
#
# Velocity S-wave (km/s) = 2.39062 3.15953 2.80158
# Velocity P-wave (km/s) = 3.58429 4.34724 3.98407
#
# Compressibility (1/GPa) = 0.08538144
#
# Stress axis : x y z
#
# Youngs Moduli (GPa) = 50.33768 48.45593 56.27075
#
# Poissons Ratio (x) = -0.17731 -0.31012
# Poissons Ratio (y) = -0.18420 -0.24664
# Poissons Ratio (z) = -0.27742 -0.21239
#
# Static dielectric constant tensor:
#      x y z
#    x 1.803140 0.000000 -0.000710 
#    y 0.000000 1.876110 0.000000 
#    z -0.000710 0.000000 1.795830 
# 
# From -- ./inp_files/295448.got.cif
#   From: 2010.05.17/outbox.cif.g08.bks.cpg/sg12_148_cif.got.tgz:295448.got - 2010.06.03 13:09:07.
