data_PCOD9189416
_publ_section_title
;
Structure prediction by ZEFSAII (Michael W. Deem and Ramdas Pophale) SiO2 
 PCOD9189416
Probable space group: C 2/M
;
_chemical_formula_sum "Si O2"
_cell_formula_units_Z 58
_cell_length_a 19.744348
_cell_length_b 8.026290
_cell_length_c 22.205747
_cell_angle_alpha 90.000000
_cell_angle_beta 126.742515
_cell_angle_gamma 90.000000
_cell_volume 2819.911647
_symmetry_space_group_name_H-M "C 2/M"
_symmetry_group_IT_number 12
_symmetry_cell_setting 'monoclinic'
loop_
_space_group_symop_operation_xyz
x,y,z
-x,y,-z
-x,-y,-z
x,-y,z
1/2+x,1/2+y,z
1/2-x,1/2+y,-z
1/2-x,1/2-y,-z
1/2+x,1/2-y,z
loop_
_atom_site_type_symbol
_atom_site_label
_atom_site_fract_x
_atom_site_fract_y
_atom_site_fract_z
Si Si1 0.092592 0.700564 0.569203
Si Si2 0.749598 0.803043 0.429822
Si Si3 0.500000 0.000000 0.000000
Si Si4 0.592381 0.801349 0.706548
Si Si5 0.789754 0.194517 0.124714
Si Si6 0.603390 0.308237 0.032741
Si Si7 0.062300 0.199684 0.296213
Si Si8 0.941805 0.199857 0.127443
O O1 0.087825 0.500000 0.568337
O O2 0.169157 0.742269 0.564904
O O3 0.105172 0.755898 0.644899
O O4 0.000000 0.763270 0.500000
O O5 0.750000 0.750000 0.500000
O O6 0.659788 0.746509 0.354612
O O7 0.752220 0.000000 0.429643
O O8 0.430185 0.849648 0.948338
O O9 0.657721 0.712171 0.785754
O O10 0.498175 0.767384 0.682532
O O11 0.606838 0.000000 0.717470
O O12 0.703448 0.292746 0.080117
O O13 0.854593 0.263651 0.109474
O O14 0.771896 0.000000 0.103091
O O15 0.586049 0.500000 0.042642
O O16 0.562213 0.272301 0.945214
O O17 0.018934 0.259221 0.210327
O O18 0.056701 0.000000 0.295753
O O19 0.940413 0.000000 0.134157
#
# Coordination Sequence:
#
# PCOD9189416 Si02
#       8
#     8   8   2   8   8   8   8   8
#     4  10  22  41  63  88 121 159 201 250 301 363
#     4  12  25  41  62  90 120 158 202 247 302 365
#     4  12  26  44  56  90 124 168 216 254 314 378
#     4  10  20  36  60  93 127 163 201 247 310 368
#     4  10  19  37  62  92 124 156 207 263 308 361
#     4  11  22  42  63  87 123 168 212 257 314 373
#     4  10  20  39  63  91 125 159 199 253 305 362
#     4   8  18  36  63  92 121 156 200 256 313 360
#
# _framework density 20.568020000000001
#
# number of rings (size 3 to 8) (size 9 to 14) (size 15 to 20)
#    0.000    1.793    0.690    4.759    0.000    2.483 
#    9.931    0.000    0.000    0.000    0.000    0.000 
#    0.000    0.000    0.000    0.000    0.000    0.000 
#
# Total GULP energy -161582.913800 kJ/mol
# GULP energy per Si atom -5571.824614 kJ/mol
# Density = 2.052121 g / cm^3
# Si number density = 20.568020 Si / 1000 Ang^3
#
#
#
# Elastic Constant Matrix: (Units=GPa)
#
#
# Indices 1 2 3 4 5 6 
#
# 1 125.4283 27.8643 51.0569 0.0000 24.8870 0.0000
# 2 27.8643 80.6323 19.9369 0.0000 -2.2693 0.0000
# 3 51.0569 19.9369 32.7712 0.0000 17.3355 0.0000
# 4 0.0000 0.0000 0.0000 24.6883 0.0000 10.0804
# 5 24.8870 -2.2693 17.3355 0.0000 31.9195 0.0000
# 6 0.0000 0.0000 0.0000 10.0804 0.0000 25.3221
#
#
#
# Elastic Compliance Matrix: (Units=1/GPa)
#
#
# Indices 1 2 3 4 5 6 
#
# 1 0.022041 0.001580 -0.036859 0.000000 0.002945 0.000000
# 2 0.001580 0.016431 -0.017431 0.000000 0.009403 0.000000
# 3 -0.036859 -0.017431 0.117857 0.000000 -0.036509 0.000000
# 4 0.000000 0.000000 0.000000 0.048367 0.000000 -0.019254
# 5 0.002945 0.009403 -0.036509 0.000000 0.049529 0.000000
# 6 0.000000 0.000000 0.000000 -0.019254 0.000000 0.047156
#
#
# Mechanical properties :
#
#
# Convention : Reuss Voigt Hill
#
# Bulk Modulus (GPa) = 19.64303 48.50533 34.07418
# Shear Modulus (GPa) = 11.79885 25.71755 18.75820
#
# Velocity S-wave (km/s) = 2.39770 3.53989 3.02322
# Velocity P-wave (km/s) = 4.15166 6.35152 5.36554
#
# Compressibility (1/GPa) = 0.05090863
#
# Stress axis : x y z
#
# Youngs Moduli (GPa) = 45.36987 60.86160 8.48486
#
# Poissons Ratio (x) = -0.09614 0.31274
# Poissons Ratio (y) = -0.07167 0.14790
# Poissons Ratio (z) = 1.67227 1.06089
#
# Static dielectric constant tensor:
#      x y z
#    x 1.771440 0.000000 -0.009690 
#    y 0.000000 1.717440 0.000000 
#    z -0.009690 0.000000 1.735180 
# 
# From -- ./inp_files/314860.got.cif
#   From: 2010.05.17/outbox.cif.g08.bks.cpg/sg12_158_cif.got.tgz:314860.got - 2010.06.03 13:09:07.
