data_PCOD9189587
_publ_section_title
;
Structure prediction by ZEFSAII (Michael W. Deem and Ramdas Pophale) SiO2 
 PCOD9189587
Probable space group: C 2/M
;
_chemical_formula_sum "Si O2"
_cell_formula_units_Z 32
_cell_length_a 30.635684
_cell_length_b 7.835605
_cell_length_c 23.121825
_cell_angle_alpha 90.000000
_cell_angle_beta 164.152392
_cell_angle_gamma 90.000000
_cell_volume 1515.694254
_symmetry_space_group_name_H-M "C 2/M"
_symmetry_group_IT_number 12
_symmetry_cell_setting 'monoclinic'
loop_
_space_group_symop_operation_xyz
x,y,z
-x,y,-z
-x,-y,-z
x,-y,z
1/2+x,1/2+y,z
1/2-x,1/2+y,-z
1/2-x,1/2-y,-z
1/2+x,1/2-y,z
loop_
_atom_site_type_symbol
_atom_site_label
_atom_site_fract_x
_atom_site_fract_y
_atom_site_fract_z
Si Si1 0.811370 0.000000 0.256031
Si Si2 0.514454 0.700538 0.334476
Si Si3 0.526693 0.000000 0.966058
Si Si4 0.276808 0.191818 0.127622
Si Si5 0.183709 0.195873 0.352310
O O1 0.763435 0.833746 0.158824
O O2 0.000000 0.000000 0.500000
O O3 0.714087 0.000000 0.190958
O O4 0.548612 0.500000 0.386264
O O5 0.436110 0.776148 0.292452
O O6 0.669407 0.789820 0.505773
O O7 0.373382 0.712066 0.106921
O O8 0.445181 0.833912 0.833097
O O9 0.500000 0.000000 0.000000
O O10 0.277455 0.000000 0.151323
O O11 0.250000 0.250000 0.500000
O O12 0.126559 0.000000 0.282341
#
# Coordination Sequence:
#
# PCOD9189587 Si02
#       5
#     4   8   4   8   8
#     4  12  28  46  70  92 142 191 234 274 347 423
#     4  10  19  37  69 106 141 171 222 294 357 405
#     4  12  30  50  72 106 153 191 236 299 363 433
#     4  10  22  39  66 103 137 176 230 290 343 409
#     4  12  24  43  74 107 142 189 241 296 359 427
#
# _framework density 21.112438000000001
#
# number of rings (size 3 to 8) (size 9 to 14) (size 15 to 20)
#    0.000    1.000    3.750    2.250    7.000    4.000 
#    0.000    0.000    0.000    0.000    0.000    0.000 
#    0.000    0.000    0.000    0.000    0.000    0.000 
#
# Total GULP energy -89558.667992 kJ/mol
# GULP energy per Si atom -5597.416749 kJ/mol
# Density = 2.106439 g / cm^3
# Si number density = 21.112438 Si / 1000 Ang^3
#
#
#
# Elastic Constant Matrix: (Units=GPa)
#
#
# Indices 1 2 3 4 5 6 
#
# 1 115.2870 38.4894 39.5869 0.0002 15.8585 0.0000
# 2 38.4894 170.4256 36.4176 0.0001 -11.8823 0.0001
# 3 39.5869 36.4176 73.4651 0.0005 16.6607 -0.0001
# 4 0.0002 0.0001 0.0005 22.4647 0.0003 5.1379
# 5 15.8585 -11.8823 16.6607 0.0003 39.8228 -0.0001
# 6 0.0000 0.0001 -0.0001 5.1379 -0.0001 -6.9293
#
#
#
# Elastic Compliance Matrix: (Units=1/GPa)
#
#
# Indices 1 2 3 4 5 6 
#
# 1 0.011238 -0.001808 -0.004443 0.000000 -0.003156 0.000000
# 2 -0.001808 0.007377 -0.003696 0.000000 0.004468 0.000000
# 3 -0.004443 -0.003696 0.019541 0.000000 -0.007509 0.000000
# 4 0.000000 0.000000 0.000000 0.038060 0.000000 0.028220
# 5 -0.003156 0.004468 -0.007509 0.000000 0.030842 0.000000
# 6 0.000000 0.000000 0.000000 0.028220 0.000000 -0.123389
#
#
# Mechanical properties :
#
#
# Convention : Reuss Voigt Hill
#
# Bulk Modulus (GPa) = 54.76130 65.35170 60.05650
# Shear Modulus (GPa) = 518.08540 27.38389 272.73464
#
# Velocity S-wave (km/s) = 15.68203 3.60537 11.37816
# Velocity P-wave (km/s) = 18.81212 6.95362 14.18183
#
# Compressibility (1/GPa) = 0.01826107
#
# Stress axis : x y z
#
# Youngs Moduli (GPa) = 88.98706 135.55094 51.17446
#
# Poissons Ratio (x) = 0.24514 0.22738
# Poissons Ratio (y) = 0.16093 0.18912
# Poissons Ratio (z) = 0.39539 0.50095
#
# Static dielectric constant tensor:
#      x y z
#    x 1.740180 0.000000 0.009790 
#    y 0.000000 1.751770 0.000000 
#    z 0.009790 0.000000 1.713840 
# 
# From -- ./inp_files/327109.got.cif
#   From: 2010.05.17/outbox.cif.g08.bks.cpg/sg12_164_cif.got.tgz:327109.got - 2010.06.03 13:09:07.
