data_PCOD9189106
_publ_section_title
;
Structure prediction by ZEFSAII (Michael W. Deem and Ramdas Pophale) SiO2 
 PCOD9189106
Probable space group: C 2/M
;
_chemical_formula_sum "Si O2"
_cell_formula_units_Z 64
_cell_length_a 8.938875
_cell_length_b 27.653189
_cell_length_c 13.847001
_cell_angle_alpha 90.000000
_cell_angle_beta 100.313113
_cell_angle_gamma 90.000000
_cell_volume 3367.519282
_symmetry_space_group_name_H-M "C 2/M"
_symmetry_group_IT_number 12
_symmetry_cell_setting 'monoclinic'
loop_
_space_group_symop_operation_xyz
x,y,z
-x,y,-z
-x,-y,-z
x,-y,z
1/2+x,1/2+y,z
1/2-x,1/2+y,-z
1/2-x,1/2-y,-z
1/2+x,1/2-y,z
loop_
_atom_site_type_symbol
_atom_site_label
_atom_site_fract_x
_atom_site_fract_y
_atom_site_fract_z
Si Si1 0.122832 0.198174 0.923579
Si Si2 0.146137 0.362452 0.949490
Si Si3 0.195552 0.347908 0.737195
Si Si4 0.982329 0.880129 0.231629
Si Si5 0.139181 0.056127 0.938876
Si Si6 0.103962 0.813222 0.596422
Si Si7 0.951255 0.290589 0.632805
Si Si8 0.358348 0.249215 0.819543
O O1 0.039290 0.152232 0.867896
O O2 0.236472 0.217298 0.857102
O O3 0.990947 0.236909 0.907039
O O4 0.230160 0.180677 0.021361
O O5 0.125910 0.365425 0.831834
O O6 0.227623 0.409515 0.004374
O O7 0.000000 0.352868 0.000000
O O8 0.337224 0.382475 0.727210
O O9 0.279293 0.295901 0.763089
O O10 0.069567 0.335035 0.641979
O O11 0.908340 0.928123 0.176604
O O12 0.908362 0.849206 0.311718
O O13 0.183456 0.000000 0.944049
O O14 0.000000 0.061374 0.000000
O O15 0.277995 0.802854 0.582784
O O16 0.000000 0.834981 0.500000
O O17 0.025996 0.760227 0.607273
O O18 0.932724 0.281410 0.744141
#
# Coordination Sequence:
#
# PCOD9189106 Si02
#       8
#     8   8   8   8   8   8   8   8
#     4  10  20  32  46  68 104 151 186 229 259 304
#     4  11  24  35  50  80 113 145 188 226 273 323
#     4  11  20  33  52  71 108 153 185 229 270 310
#     4  10  19  37  57  78 110 139 184 229 282 332
#     4  10  21  40  65  87 109 141 180 224 279 348
#     4  12  23  36  56  80 111 152 195 239 281 321
#     4  12  19  35  49  74 110 149 195 231 270 311
#     4  11  17  31  48  62 101 149 190 225 261 298
#
# _framework density 19.005085999999999
#
# number of rings (size 3 to 8) (size 9 to 14) (size 15 to 20)
#    0.000    1.125    7.500    1.125    1.750    0.750 
#    2.250    0.000    0.000    0.375    0.000    0.000 
#    0.000    1.000    0.000    0.000    0.000    0.000 
#
# Total GULP energy -178332.940900 kJ/mol
# GULP energy per Si atom -5572.904403 kJ/mol
# Density = 1.896183 g / cm^3
# Si number density = 19.005086 Si / 1000 Ang^3
#
#
#
# Elastic Constant Matrix: (Units=GPa)
#
#
# Indices 1 2 3 4 5 6 
#
# 1 101.3645 20.9588 19.3120 0.0000 9.5071 0.0000
# 2 20.9588 55.5926 18.2181 0.0000 3.4478 0.0000
# 3 19.3120 18.2181 54.6048 0.0000 14.0805 0.0000
# 4 0.0000 0.0000 0.0000 19.3746 0.0000 6.3126
# 5 9.5071 3.4478 14.0805 0.0000 23.7851 0.0000
# 6 0.0000 0.0000 0.0000 6.3126 0.0000 20.9257
#
#
#
# Elastic Compliance Matrix: (Units=1/GPa)
#
#
# Indices 1 2 3 4 5 6 
#
# 1 0.011225 -0.003360 -0.002145 0.000000 -0.002730 0.000000
# 2 -0.003360 0.021233 -0.006430 0.000000 0.002072 0.000000
# 3 -0.002145 -0.006430 0.024495 0.000000 -0.012711 0.000000
# 4 0.000000 0.000000 0.000000 0.057240 0.000000 -0.017267
# 5 -0.002730 0.002072 -0.012711 0.000000 0.050359 0.000000
# 6 0.000000 0.000000 0.000000 -0.017267 0.000000 0.052997
#
#
# Mechanical properties :
#
#
# Convention : Reuss Voigt Hill
#
# Bulk Modulus (GPa) = 30.22644 36.50441 33.36543
# Shear Modulus (GPa) = 19.80616 23.02195 21.41405
#
# Velocity S-wave (km/s) = 3.23174 3.48423 3.36036
# Velocity P-wave (km/s) = 5.46484 5.95281 5.71403
#
# Compressibility (1/GPa) = 0.03308362
#
# Stress axis : x y z
#
# Youngs Moduli (GPa) = 89.08896 47.09573 40.82437
#
# Poissons Ratio (x) = 0.15822 0.08757
# Poissons Ratio (y) = 0.29930 0.26251
# Poissons Ratio (z) = 0.19110 0.30284
#
# Static dielectric constant tensor:
#      x y z
#    x 1.784800 0.000000 -0.024230 
#    y 0.000000 1.666250 0.000000 
#    z -0.024230 0.000000 1.779500 
# 
# From -- ./inp_files/199854.got.cif
#   From: 2010.05.17/outbox.cif.g08.bks.cpg/sg12_100_cif.got.tgz:199854.got - 2010.06.03 13:09:07.
