data_PCOD9189600
_publ_section_title
;
Structure prediction by ZEFSAII (Michael W. Deem and Ramdas Pophale) SiO2 
 PCOD9189600
Probable space group: C 2/M
;
_chemical_formula_sum "Si O2"
_cell_formula_units_Z 40
_cell_length_a 15.291545
_cell_length_b 29.613852
_cell_length_c 5.294409
_cell_angle_alpha 90.000000
_cell_angle_beta 50.044095
_cell_angle_gamma 90.000000
_cell_volume 1837.798785
_symmetry_space_group_name_H-M "C 2/M"
_symmetry_group_IT_number 12
_symmetry_cell_setting 'monoclinic'
loop_
_space_group_symop_operation_xyz
x,y,z
-x,y,-z
-x,-y,-z
x,-y,z
1/2+x,1/2+y,z
1/2-x,1/2+y,-z
1/2-x,1/2-y,-z
1/2+x,1/2-y,z
loop_
_atom_site_type_symbol
_atom_site_label
_atom_site_fract_x
_atom_site_fract_y
_atom_site_fract_z
Si Si1 0.429163 0.813283 0.379597
Si Si2 0.372444 0.288131 0.464850
Si Si3 0.130181 0.826769 0.034920
Si Si4 0.282187 0.099959 0.822084
Si Si5 0.367268 0.946786 0.178220
O O1 0.500000 0.800645 0.500000
O O2 0.378483 0.764399 0.395688
O O3 0.357589 0.856312 0.605573
O O4 0.500000 0.827460 0.000000
O O5 0.500210 0.309400 0.253982
O O6 0.315820 0.297920 0.837844
O O7 0.320115 0.315954 0.332353
O O8 0.155359 0.878308 0.060923
O O9 0.298288 0.065937 0.559590
O O10 0.324379 0.080315 0.010693
O O11 0.357413 0.000000 0.140968
O O12 0.500000 0.937654 0.000000
#
# Coordination Sequence:
#
# PCOD9189600 Si02
#       5
#     8   8   8   8   8
#     4  12  21  36  54  79 123 162 200 238 281 334
#     4  10  19  38  54  77 120 175 195 225 294 329
#     4  10  20  36  56  83 119 157 207 234 281 339
#     4  12  24  36  62  96 113 148 207 251 281 342
#     4  11  24  45  65  86 119 152 185 238 317 367
#
# _framework density 21.765167999999999
#
# number of rings (size 3 to 8) (size 9 to 14) (size 15 to 20)
#    0.000    1.000    4.000    5.400    0.000    3.200 
#    0.000    0.000    0.000    0.000    0.000   56.000 
#    0.000    0.000    0.000    0.000    0.000    0.000 
#
# Total GULP energy -111666.200881 kJ/mol
# GULP energy per Si atom -5583.310044 kJ/mol
# Density = 2.171563 g / cm^3
# Si number density = 21.765168 Si / 1000 Ang^3
#
#
#
# Elastic Constant Matrix: (Units=GPa)
#
#
# Indices 1 2 3 4 5 6 
#
# 1 112.6168 60.4127 46.9207 0.0000 35.3035 0.0000
# 2 60.4127 120.3927 23.9235 0.0000 6.4199 0.0000
# 3 46.9207 23.9235 77.4155 0.0000 32.1093 0.0000
# 4 0.0000 0.0000 0.0000 42.6151 0.0000 10.3596
# 5 35.3035 6.4199 32.1093 0.0000 52.6446 0.0000
# 6 0.0000 0.0000 0.0000 10.3596 0.0000 30.3722
#
#
#
# Elastic Compliance Matrix: (Units=1/GPa)
#
#
# Indices 1 2 3 4 5 6 
#
# 1 0.017264 -0.007250 -0.005071 0.000000 -0.007601 0.000000
# 2 -0.007250 0.011919 -0.000941 0.000000 0.003982 0.000000
# 3 -0.005071 -0.000941 0.019843 0.000000 -0.008588 0.000000
# 4 0.000000 0.000000 0.000000 0.025588 0.000000 -0.008728
# 5 -0.007601 0.003982 -0.008588 0.000000 0.028844 0.000000
# 6 0.000000 0.000000 0.000000 -0.008728 0.000000 0.035902
#
#
# Mechanical properties :
#
#
# Convention : Reuss Voigt Hill
#
# Bulk Modulus (GPa) = 44.43841 63.65986 54.04913
# Shear Modulus (GPa) = 28.83761 37.07091 32.95426
#
# Velocity S-wave (km/s) = 3.64393 4.13149 3.89534
# Velocity P-wave (km/s) = 6.17785 7.21602 6.71702
#
# Compressibility (1/GPa) = 0.02250306
#
# Stress axis : x y z
#
# Youngs Moduli (GPa) = 57.92274 83.90044 50.39507
#
# Poissons Ratio (x) = 0.60830 0.25554
# Poissons Ratio (y) = 0.41996 0.04740
# Poissons Ratio (z) = 0.29371 0.07892
#
# Static dielectric constant tensor:
#      x y z
#    x 2.149580 0.000000 0.434520 
#    y 0.000000 1.768380 0.000000 
#    z 0.434520 0.000000 3.107150 
# 
# From -- ./inp_files/17289.got.cif
#   From: 2010.05.17/outbox.cif.g08.bks.cpg/sg12_9_cif.got.tgz:17289.got - 2010.06.03 13:09:07.
