data_PCOD9189047
_publ_section_title
;
Structure prediction by ZEFSAII (Michael W. Deem and Ramdas Pophale) SiO2 
 PCOD9189047
Probable space group: C 2/M
;
_chemical_formula_sum "Si O2"
_cell_formula_units_Z 40
_cell_length_a 22.401979
_cell_length_b 18.435422
_cell_length_c 11.677764
_cell_angle_alpha 90.000000
_cell_angle_beta 23.528369
_cell_angle_gamma 90.000000
_cell_volume 1925.276250
_symmetry_space_group_name_H-M "C 2/M"
_symmetry_group_IT_number 12
_symmetry_cell_setting 'monoclinic'
loop_
_space_group_symop_operation_xyz
x,y,z
-x,y,-z
-x,-y,-z
x,-y,z
1/2+x,1/2+y,z
1/2-x,1/2+y,-z
1/2-x,1/2-y,-z
1/2+x,1/2-y,z
loop_
_atom_site_type_symbol
_atom_site_label
_atom_site_fract_x
_atom_site_fract_y
_atom_site_fract_z
Si Si1 0.175066 0.638004 0.194046
Si Si2 0.347751 0.697560 0.696100
Si Si3 0.082180 0.810821 0.692146
Si Si4 0.616123 0.850732 0.703927
Si Si5 0.191008 0.081204 0.821961
O O1 0.201392 0.718760 0.201554
O O2 0.262701 0.586650 0.126220
O O3 0.000000 0.622590 0.500000
O O4 0.232976 0.645242 0.962746
O O5 0.500000 0.690948 0.500000
O O6 0.378296 0.682742 0.510990
O O7 0.228539 0.834153 0.504349
O O8 0.050224 0.726669 0.777561
O O9 0.940702 0.861072 0.967498
O O10 0.665873 0.897224 0.506990
O O11 0.500000 0.882716 0.000000
O O12 0.141970 0.000000 0.879831
#
# Coordination Sequence:
#
# PCOD9189047 Si02
#       5
#     8   8   8   8   8
#     4  10  22  36  63  97 130 169 212 270 325 386
#     4  10  19  36  66  99 123 161 221 272 319 386
#     4  11  22  42  67 100 131 170 221 277 325 392
#     4  11  25  40  68  97 129 170 229 282 319 381
#     4  12  26  45  66  95 140 179 215 268 340 405
#
# _framework density 20.776240000000001
#
# number of rings (size 3 to 8) (size 9 to 14) (size 15 to 20)
#    0.000    1.200    4.000    3.000    2.800    2.400 
#    0.000    2.000    0.000    0.000    0.000    0.000 
#    0.000    0.000    0.000    0.000    0.000    0.000 
#
# Total GULP energy -111856.299234 kJ/mol
# GULP energy per Si atom -5592.814962 kJ/mol
# Density = 2.072895 g / cm^3
# Si number density = 20.776240 Si / 1000 Ang^3
#
#
#
# Elastic Constant Matrix: (Units=GPa)
#
#
# Indices 1 2 3 4 5 6 
#
# 1 83.0827 24.4339 25.2455 -0.0002 21.2523 0.0009
# 2 24.4339 69.4278 33.6330 0.0003 -4.5050 -0.0011
# 3 25.2455 33.6330 119.4014 -0.0001 24.1061 -0.0010
# 4 -0.0002 0.0003 -0.0001 8.6149 0.0000 -16.7569
# 5 21.2523 -4.5050 24.1061 0.0000 42.9117 -0.0005
# 6 0.0009 -0.0011 -0.0010 -16.7569 -0.0005 -14.0985
#
#
#
# Elastic Compliance Matrix: (Units=1/GPa)
#
#
# Indices 1 2 3 4 5 6 
#
# 1 0.016067 -0.006279 0.000125 0.000001 -0.008687 0.000000
# 2 -0.006279 0.020121 -0.006085 -0.000001 0.008640 0.000000
# 3 0.000125 -0.006085 0.011509 0.000000 -0.007166 0.000000
# 4 0.000001 -0.000001 0.000000 0.035049 -0.000001 -0.041658
# 5 -0.008687 0.008640 -0.007166 -0.000001 0.032539 0.000000
# 6 0.000000 0.000000 0.000000 -0.041658 0.000000 -0.021417
#
#
# Mechanical properties :
#
#
# Convention : Reuss Voigt Hill
#
# Bulk Modulus (GPa) = 43.06386 48.72631 45.89509
# Shear Modulus (GPa) = 39.65584 20.05891 29.85738
#
# Velocity S-wave (km/s) = 4.37362 3.11058 3.79501
# Velocity P-wave (km/s) = 6.80273 6.03363 6.42969
#
# Compressibility (1/GPa) = 0.02322133
#
# Stress axis : x y z
#
# Youngs Moduli (GPa) = 62.24058 49.69848 86.88590
#
# Poissons Ratio (x) = 0.31204 -0.01089
# Poissons Ratio (y) = 0.39079 0.52867
# Poissons Ratio (z) = -0.00780 0.30240
#
# Static dielectric constant tensor:
#      x y z
#    x 1.736090 0.000000 0.015240 
#    y 0.000000 1.744850 0.000000 
#    z 0.015240 0.000000 1.770300 
# 
# From -- ./inp_files/177838.got.cif
#   From: 2010.05.17/outbox.cif.g08.bks.cpg/sg12_89_cif.got.tgz:177838.got - 2010.06.03 13:09:07.
