data_PCOD9189510
_publ_section_title
;
Structure prediction by ZEFSAII (Michael W. Deem and Ramdas Pophale) SiO2 
 PCOD9189510
Probable space group: C 2/M
;
_chemical_formula_sum "Si O2"
_cell_formula_units_Z 56
_cell_length_a 28.763808
_cell_length_b 16.810736
_cell_length_c 8.949941
_cell_angle_alpha 90.000000
_cell_angle_beta 39.040722
_cell_angle_gamma 90.000000
_cell_volume 2725.875279
_symmetry_space_group_name_H-M "C 2/M"
_symmetry_group_IT_number 12
_symmetry_cell_setting 'monoclinic'
loop_
_space_group_symop_operation_xyz
x,y,z
-x,y,-z
-x,-y,-z
x,-y,z
1/2+x,1/2+y,z
1/2-x,1/2+y,-z
1/2-x,1/2-y,-z
1/2+x,1/2-y,z
loop_
_atom_site_type_symbol
_atom_site_label
_atom_site_fract_x
_atom_site_fract_y
_atom_site_fract_z
Si Si1 0.774276 0.827883 0.531882
Si Si2 0.526669 0.820708 0.099535
Si Si3 0.113166 0.406569 0.435767
Si Si4 0.560977 0.325423 0.225038
Si Si5 0.163032 0.409791 0.635332
Si Si6 0.420560 0.591463 0.121753
Si Si7 0.811106 0.280924 0.962557
O O1 0.750000 0.750000 0.500000
O O2 0.741882 0.899208 0.512883
O O3 0.860714 0.844935 0.330762
O O4 0.733705 0.819626 0.789598
O O5 0.470047 0.885411 0.306751
O O6 0.529412 0.747706 0.204912
O O7 0.500000 0.798392 0.000000
O O8 0.607115 0.856944 0.871149
O O9 0.120883 0.500000 0.381364
O O10 0.160506 0.386795 0.467520
O O11 0.138974 0.348181 0.241155
O O12 0.500000 0.347332 0.500000
O O13 0.635312 0.289863 0.113982
O O14 0.575094 0.393034 0.066959
O O15 0.136279 0.500000 0.707472
O O16 0.399283 0.500000 0.206878
O O17 0.500000 0.604101 0.000000
O O18 0.750000 0.250000 0.000000
#
# Coordination Sequence:
#
# PCOD9189510 Si02
#       7
#     8   8   8   8   8   8   8
#     4  12  23  43  69  96 126 170 226 281 335 394
#     4  10  19  37  64  97 133 173 216 260 318 398
#     4  10  22  39  61  95 138 175 212 267 335 405
#     4  12  24  43  69  99 129 176 220 273 335 401
#     4  10  20  36  61  93 129 173 218 265 324 390
#     4  11  27  49  72 100 133 177 233 290 339 395
#     4  12  26  42  64  98 135 175 220 271 341 408
#
# _framework density 20.543859999999999
#
# number of rings (size 3 to 8) (size 9 to 14) (size 15 to 20)
#    0.000    1.000    4.286    2.143    2.000    5.429 
#    0.000    0.714    0.000    0.000    0.000    0.000 
#    0.000    0.000    0.000    0.000    0.000    0.000 
#
# Total GULP energy -156533.671462 kJ/mol
# GULP energy per Si atom -5590.488267 kJ/mol
# Density = 2.049710 g / cm^3
# Si number density = 20.543860 Si / 1000 Ang^3
#
#
#
# Elastic Constant Matrix: (Units=GPa)
#
#
# Indices 1 2 3 4 5 6 
#
# 1 98.5466 20.9997 35.7564 0.0000 -13.2745 0.0000
# 2 20.9997 68.0988 24.2666 0.0000 1.8169 0.0000
# 3 35.7564 24.2666 110.9901 0.0000 5.4497 0.0000
# 4 0.0000 0.0000 0.0000 27.9954 0.0000 -0.3174
# 5 -13.2745 1.8169 5.4497 0.0000 37.4898 0.0000
# 6 0.0000 0.0000 0.0000 -0.3174 0.0000 25.5649
#
#
#
# Elastic Compliance Matrix: (Units=1/GPa)
#
#
# Indices 1 2 3 4 5 6 
#
# 1 0.012807 -0.002740 -0.003783 0.000000 0.005217 0.000000
# 2 -0.002740 0.016514 -0.002660 0.000000 -0.001384 0.000000
# 3 -0.003783 -0.002660 0.010948 0.000000 -0.002802 0.000000
# 4 0.000000 0.000000 0.000000 0.035725 0.000000 0.000444
# 5 0.005217 -0.001384 -0.002802 0.000000 0.028996 0.000000
# 6 0.000000 0.000000 0.000000 0.000444 0.000000 0.039122
#
#
# Mechanical properties :
#
#
# Convention : Reuss Voigt Hill
#
# Bulk Modulus (GPa) = 45.65686 48.85344 47.25515
# Shear Modulus (GPa) = 29.45014 31.31752 30.38383
#
# Velocity S-wave (km/s) = 3.79030 3.90862 3.84992
# Velocity P-wave (km/s) = 6.43642 6.64842 6.54328
#
# Compressibility (1/GPa) = 0.02190251
#
# Stress axis : x y z
#
# Youngs Moduli (GPa) = 78.08346 60.55330 91.34419
#
# Poissons Ratio (x) = 0.16594 0.34554
# Poissons Ratio (y) = 0.21398 0.24296
# Poissons Ratio (z) = 0.29538 0.16106
#
# Static dielectric constant tensor:
#      x y z
#    x 1.751500 0.000000 -0.020340 
#    y 0.000000 1.790960 0.000000 
#    z -0.020340 0.000000 1.727380 
# 
# From -- ./inp_files/75843.got.cif
#   From: 2010.05.17/outbox.cif.g08.bks.cpg/sg12_38_cif.got.tgz:75843.got - 2010.06.03 13:09:07.
