data_PCOD9189355
_publ_section_title
;
Structure prediction by ZEFSAII (Michael W. Deem and Ramdas Pophale) SiO2 
 PCOD9189355
Probable space group: C 2/M
;
_chemical_formula_sum "Si O2"
_cell_formula_units_Z 56
_cell_length_a 9.503258
_cell_length_b 17.594432
_cell_length_c 18.413060
_cell_angle_alpha 90.000000
_cell_angle_beta 71.667810
_cell_angle_gamma 90.000000
_cell_volume 2922.495500
_symmetry_space_group_name_H-M "C 2/M"
_symmetry_group_IT_number 12
_symmetry_cell_setting 'monoclinic'
loop_
_space_group_symop_operation_xyz
x,y,z
-x,y,-z
-x,-y,-z
x,-y,z
1/2+x,1/2+y,z
1/2-x,1/2+y,-z
1/2-x,1/2-y,-z
1/2+x,1/2-y,z
loop_
_atom_site_type_symbol
_atom_site_label
_atom_site_fract_x
_atom_site_fract_y
_atom_site_fract_z
Si Si1 0.077761 0.412490 0.179385
Si Si2 0.387283 0.412831 0.216549
Si Si3 0.085329 0.090237 0.058488
Si Si4 0.669794 0.083752 0.500271
Si Si5 0.577488 0.842441 0.658168
Si Si6 0.254515 0.811886 0.639910
Si Si7 0.642537 0.177165 0.024754
O O1 0.044932 0.500000 0.161659
O O2 0.239767 0.414488 0.190693
O O3 0.091141 0.352148 0.112056
O O4 0.965771 0.384187 0.260080
O O5 0.421497 0.500000 0.231480
O O6 0.513938 0.378941 0.143956
O O7 0.347935 0.363898 0.292344
O O8 0.061055 0.000000 0.065029
O O9 0.255971 0.109512 0.023009
O O10 0.000000 0.118096 0.000000
O O11 0.500000 0.080505 0.500000
O O12 0.656418 0.103032 0.586989
O O13 0.742115 0.149851 0.440292
O O14 0.735756 0.000000 0.476672
O O15 0.420863 0.815845 0.646715
O O16 0.684660 0.771114 0.651578
O O17 0.500000 0.191306 0.000000
O O18 0.750000 0.250000 0.000000
#
# Coordination Sequence:
#
# PCOD9189355 Si02
#       7
#     8   8   8   8   8   8   8
#     4  10  21  39  61  84 112 149 192 236 282 340
#     4   9  18  34  60  85 110 148 192 231 277 337
#     4  10  19  37  62  84 112 149 190 235 284 344
#     4   9  17  33  58  86 111 144 193 235 272 328
#     4  10  21  35  58  84 116 150 186 230 282 336
#     4  10  20  34  56  84 118 147 185 232 282 330
#     4  12  27  40  59  83 115 149 193 240 292 342
#
# _framework density 19.161705999999999
#
# number of rings (size 3 to 8) (size 9 to 14) (size 15 to 20)
#    0.000    2.000    1.429    2.143    2.000    5.714 
#    0.000    0.000    0.000    3.429    0.000    0.000 
#    0.000    0.000    0.000    0.000    0.000    0.000 
#
# Total GULP energy -156193.685253 kJ/mol
# GULP energy per Si atom -5578.345902 kJ/mol
# Density = 1.911809 g / cm^3
# Si number density = 19.161706 Si / 1000 Ang^3
#
#
#
# Elastic Constant Matrix: (Units=GPa)
#
#
# Indices 1 2 3 4 5 6 
#
# 1 44.2448 12.6082 20.0097 0.0000 -5.6336 0.0000
# 2 12.6082 77.5495 37.6996 0.0000 8.9376 0.0000
# 3 20.0097 37.6996 126.9865 0.0000 -3.4705 0.0000
# 4 0.0000 0.0000 0.0000 16.8501 0.0000 -12.3687
# 5 -5.6336 8.9376 -3.4705 0.0000 14.5569 0.0000
# 6 0.0000 0.0000 0.0000 -12.3687 0.0000 24.0529
#
#
#
# Elastic Compliance Matrix: (Units=1/GPa)
#
#
# Indices 1 2 3 4 5 6 
#
# 1 0.026622 -0.004553 -0.002502 0.000000 0.012502 0.000000
# 2 -0.004553 0.017589 -0.004879 0.000000 -0.013725 0.000000
# 3 -0.002502 -0.004879 0.009837 0.000000 0.004373 0.000000
# 4 0.000000 0.000000 0.000000 0.095331 0.000000 0.049022
# 5 0.012502 -0.013725 0.004373 0.000000 0.083004 0.000000
# 6 0.000000 0.000000 0.000000 0.049022 0.000000 0.066783
#
#
# Mechanical properties :
#
#
# Convention : Reuss Voigt Hill
#
# Bulk Modulus (GPa) = 33.13431 43.26844 38.20137
# Shear Modulus (GPa) = 15.01077 22.98954 19.00015
#
# Velocity S-wave (km/s) = 2.80192 3.46752 3.15233
# Velocity P-wave (km/s) = 5.27230 6.21782 5.76448
#
# Compressibility (1/GPa) = 0.03018020
#
# Stress axis : x y z
#
# Youngs Moduli (GPa) = 37.56270 56.85335 101.65541
#
# Poissons Ratio (x) = 0.25886 0.25430
# Poissons Ratio (y) = 0.17103 0.49603
# Poissons Ratio (z) = 0.09396 0.27741
#
# Static dielectric constant tensor:
#      x y z
#    x 1.637330 0.000000 -0.003090 
#    y 0.000000 1.703630 0.000000 
#    z -0.003090 0.000000 1.686430 
# 
# From -- ./inp_files/257071.got.cif
#   From: 2010.05.17/outbox.cif.g08.bks.cpg/sg12_129_cif.got.tgz:257071.got - 2010.06.03 13:09:07.
