data_PCOD9189869
_publ_section_title
;
Structure prediction by ZEFSAII (Michael W. Deem and Ramdas Pophale) SiO2 
 PCOD9189869
Probable space group: C 2/M
;
_chemical_formula_sum "Si O2"
_cell_formula_units_Z 40
_cell_length_a 24.259490
_cell_length_b 8.538559
_cell_length_c 9.819950
_cell_angle_alpha 90.000000
_cell_angle_beta 75.480877
_cell_angle_gamma 90.000000
_cell_volume 1969.153654
_symmetry_space_group_name_H-M "C 2/M"
_symmetry_group_IT_number 12
_symmetry_cell_setting 'monoclinic'
loop_
_space_group_symop_operation_xyz
x,y,z
-x,y,-z
-x,-y,-z
x,-y,z
1/2+x,1/2+y,z
1/2-x,1/2+y,-z
1/2-x,1/2-y,-z
1/2+x,1/2-y,z
loop_
_atom_site_type_symbol
_atom_site_label
_atom_site_fract_x
_atom_site_fract_y
_atom_site_fract_z
Si Si1 0.733700 0.687156 0.861591
Si Si2 0.449880 0.812136 0.637884
Si Si3 0.018055 0.814261 0.837241
Si Si4 0.328680 0.190813 0.587922
Si Si5 0.142945 0.313408 0.727448
O O1 0.736002 0.500000 0.865182
O O2 0.778913 0.744214 0.719270
O O3 0.672820 0.739715 0.840659
O O4 0.750000 0.750000 0.000000
O O5 0.500000 0.776936 0.500000
O O6 0.467905 0.731102 0.765748
O O7 0.389304 0.763382 0.615082
O O8 0.448593 0.000000 0.658403
O O9 0.076502 0.729003 0.760664
O O10 0.028190 0.000000 0.826850
O O11 0.000000 0.768555 0.000000
O O12 0.327627 0.244114 0.431585
O O13 0.327244 0.000000 0.585435
O O14 0.148938 0.500000 0.730988
#
# Coordination Sequence:
#
# PCOD9189869 Si02
#       5
#     8   8   8   8   8
#     4  11  24  42  62  91 126 161 202 252 304 360
#     4  10  19  38  65  92 120 156 202 249 296 361
#     4  11  25  41  58  90 130 163 197 247 305 363
#     4   9  20  39  64  91 121 158 203 250 300 358
#     4  11  22  42  67  90 117 159 208 253 303 360
#
# _framework density 20.313296000000001
#
# number of rings (size 3 to 8) (size 9 to 14) (size 15 to 20)
#    0.000    1.600    2.000    2.400    2.800    2.000 
#    0.000    4.000    0.000    0.000    0.000    0.000 
#    0.000    0.000    0.000    0.000    0.000    0.000 
#
# Total GULP energy -111791.641841 kJ/mol
# GULP energy per Si atom -5589.582092 kJ/mol
# Density = 2.026706 g / cm^3
# Si number density = 20.313296 Si / 1000 Ang^3
#
#
#
# Elastic Constant Matrix: (Units=GPa)
#
#
# Indices 1 2 3 4 5 6 
#
# 1 70.4969 0.7738 15.9345 0.0000 23.4639 0.0000
# 2 0.7738 19.9224 26.6735 0.0000 5.5237 0.0000
# 3 15.9345 26.6735 118.0877 0.0000 27.8680 0.0000
# 4 0.0000 0.0000 0.0000 19.9568 0.0000 -6.2977
# 5 23.4639 5.5237 27.8680 0.0000 39.4574 0.0000
# 6 0.0000 0.0000 0.0000 -6.2977 0.0000 9.7665
#
#
#
# Elastic Compliance Matrix: (Units=1/GPa)
#
#
# Indices 1 2 3 4 5 6 
#
# 1 0.017814 0.003033 -0.000587 0.000000 -0.010603 0.000000
# 2 0.003033 0.072566 -0.016773 0.000000 -0.000116 0.000000
# 3 -0.000587 -0.016773 0.014040 0.000000 -0.007219 0.000000
# 4 0.000000 0.000000 0.000000 0.062909 0.000000 0.040566
# 5 -0.010603 -0.000116 -0.007219 0.000000 0.036764 0.000000
# 6 0.000000 0.000000 0.000000 0.040566 0.000000 0.128549
#
#
# Mechanical properties :
#
#
# Convention : Reuss Voigt Hill
#
# Bulk Modulus (GPa) = 13.19840 32.80783 23.00311
# Shear Modulus (GPa) = 12.93496 24.84451 18.88973
#
# Velocity S-wave (km/s) = 2.52617 3.50103 3.05277
# Velocity P-wave (km/s) = 3.87560 5.70341 4.87592
#
# Compressibility (1/GPa) = 0.07576678
#
# Stress axis : x y z
#
# Youngs Moduli (GPa) = 56.13714 13.78059 71.22636
#
# Poissons Ratio (x) = -0.04180 0.04178
# Poissons Ratio (y) = -0.17028 1.19468
# Poissons Ratio (z) = 0.03293 0.23114
#
# Static dielectric constant tensor:
#      x y z
#    x 1.697170 0.000000 -0.011910 
#    y 0.000000 1.689460 0.000000 
#    z -0.011910 0.000000 1.719100 
# 
# From -- ./inp_files/92790.got.cif
#   From: 2010.05.17/outbox.cif.g08.bks.cpg/sg12_47_cif.got.tgz:92790.got - 2010.06.03 13:09:07.
