data_PCOD9189558
_publ_section_title
;
Structure prediction by ZEFSAII (Michael W. Deem and Ramdas Pophale) SiO2 
 PCOD9189558
Probable space group: C 2/M
;
_chemical_formula_sum "Si O2"
_cell_formula_units_Z 36
_cell_length_a 10.789724
_cell_length_b 14.550523
_cell_length_c 11.448043
_cell_angle_alpha 90.000000
_cell_angle_beta 103.650024
_cell_angle_gamma 90.000000
_cell_volume 1746.534317
_symmetry_space_group_name_H-M "C 2/M"
_symmetry_group_IT_number 12
_symmetry_cell_setting 'monoclinic'
loop_
_space_group_symop_operation_xyz
x,y,z
-x,y,-z
-x,-y,-z
x,-y,z
1/2+x,1/2+y,z
1/2-x,1/2+y,-z
1/2-x,1/2-y,-z
1/2+x,1/2-y,z
loop_
_atom_site_type_symbol
_atom_site_label
_atom_site_fract_x
_atom_site_fract_y
_atom_site_fract_z
Si Si1 0.067440 0.603602 0.824220
Si Si2 0.604311 0.859482 0.428093
Si Si3 0.149907 0.102543 0.183097
Si Si4 0.612354 0.362410 0.439101
Si Si5 0.000000 0.749782 0.000000
O O1 0.067605 0.500000 0.873531
O O2 0.197225 0.614279 0.778857
O O3 0.948675 0.614342 0.710532
O O4 0.065166 0.681721 0.921501
O O5 0.500000 0.891325 0.500000
O O6 0.608781 0.748704 0.436168
O O7 0.747388 0.891611 0.486329
O O8 0.095801 0.107994 0.301677
O O9 0.124566 0.000000 0.129802
O O10 0.093683 0.182662 0.090863
O O11 0.500000 0.393034 0.500000
#
# Coordination Sequence:
#
# PCOD9189558 Si02
#       5
#     8   8   8   8   4
#     4  11  24  42  68  98 126 167 221 272 320 380
#     4  10  19  37  66  95 127 171 210 261 335 392
#     4  11  24  43  67  95 129 172 217 265 324 387
#     4  10  21  37  65  98 133 166 209 263 329 391
#     4  12  24  44  66  90 130 174 218 270 320 378
#
# _framework density 20.612248999999998
#
# number of rings (size 3 to 8) (size 9 to 14) (size 15 to 20)
#    0.000    1.333    4.444    1.333    0.000    1.778 
#    4.000    0.000    0.000    0.000    0.000    0.000 
#    0.000    0.000    0.000    0.000    0.000    0.000 
#
# Total GULP energy -100597.156666 kJ/mol
# GULP energy per Si atom -5588.730926 kJ/mol
# Density = 2.056533 g / cm^3
# Si number density = 20.612249 Si / 1000 Ang^3
#
#
#
# Elastic Constant Matrix: (Units=GPa)
#
#
# Indices 1 2 3 4 5 6 
#
# 1 121.9304 42.6118 52.6929 0.0000 -0.5339 0.0000
# 2 42.6118 137.3653 46.5708 0.0000 1.4704 0.0000
# 3 52.6929 46.5708 118.2346 0.0000 0.4362 0.0000
# 4 0.0000 0.0000 0.0000 -14.7684 0.0000 0.5918
# 5 -0.5339 1.4704 0.4362 0.0000 35.4734 0.0000
# 6 0.0000 0.0000 0.0000 0.5918 0.0000 6.8423
#
#
#
# Elastic Compliance Matrix: (Units=1/GPa)
#
#
# Indices 1 2 3 4 5 6 
#
# 1 0.010592 -0.001948 -0.003954 0.000000 0.000289 0.000000
# 2 -0.001948 0.008764 -0.002582 0.000000 -0.000361 0.000000
# 3 -0.003954 -0.002582 0.011237 0.000000 -0.000091 0.000000
# 4 0.000000 0.000000 0.000000 -0.067478 0.000000 0.005836
# 5 0.000289 -0.000361 -0.000091 0.000000 0.028211 0.000000
# 6 0.000000 0.000000 0.000000 0.005836 0.000000 0.145646
#
#
# Mechanical properties :
#
#
# Convention : Reuss Voigt Hill
#
# Bulk Modulus (GPa) = 73.40103 73.47570 73.43836
# Shear Modulus (GPa) = 31.54927 21.21978 26.38453
#
# Velocity S-wave (km/s) = 3.91654 3.21202 3.58165
# Velocity P-wave (km/s) = 7.49267 7.03421 7.26706
#
# Compressibility (1/GPa) = 0.01362379
#
# Stress axis : x y z
#
# Youngs Moduli (GPa) = 94.40696 114.10904 88.98795
#
# Poissons Ratio (x) = 0.22232 0.35189
# Poissons Ratio (y) = 0.18394 0.22978
# Poissons Ratio (z) = 0.37331 0.29465
#
# Static dielectric constant tensor:
#      x y z
#    x 1.720960 0.000000 -0.000200 
#    y 0.000000 1.751580 0.000000 
#    z -0.000200 0.000000 1.704840 
# 
# From -- ./inp_files/129041.got.cif
#   From: 2010.05.17/outbox.cif.g08.bks.cpg/sg12_65_cif.got.tgz:129041.got - 2010.06.03 13:09:07.
