data_PCOD9189760
_publ_section_title
;
Structure prediction by ZEFSAII (Michael W. Deem and Ramdas Pophale) SiO2 
 PCOD9189760
Probable space group: C 2/M
;
_chemical_formula_sum "Si O2"
_cell_formula_units_Z 40
_cell_length_a 10.572452
_cell_length_b 28.182999
_cell_length_c 4.855596
_cell_angle_alpha 90.000000
_cell_angle_beta 92.755916
_cell_angle_gamma 90.000000
_cell_volume 1445.116596
_symmetry_space_group_name_H-M "C 2/M"
_symmetry_group_IT_number 12
_symmetry_cell_setting 'monoclinic'
loop_
_space_group_symop_operation_xyz
x,y,z
-x,y,-z
-x,-y,-z
x,-y,z
1/2+x,1/2+y,z
1/2-x,1/2+y,-z
1/2-x,1/2-y,-z
1/2+x,1/2-y,z
loop_
_atom_site_type_symbol
_atom_site_label
_atom_site_fract_x
_atom_site_fract_y
_atom_site_fract_z
Si Si1 0.000000 0.575462 0.000000
Si Si2 0.188783 0.852591 0.145416
Si Si3 0.654177 0.254182 0.240741
Si Si4 0.357823 0.548700 0.593268
Si Si5 0.637062 0.154571 0.335930
Si Si6 0.783045 0.500000 0.934169
O O1 0.117759 0.542201 0.930441
O O2 0.948046 0.611122 0.763503
O O3 0.101207 0.807496 0.217784
O O4 0.142625 0.904236 0.229129
O O5 0.312988 0.846467 0.349200
O O6 0.235157 0.849608 0.838093
O O7 0.750000 0.250000 0.500000
O O8 0.576388 0.205852 0.257433
O O9 0.750000 0.250000 0.000000
O O10 0.500000 0.545281 0.500000
O O11 0.328456 0.500000 0.792514
O O12 0.272538 0.540316 0.317149
#
# Coordination Sequence:
#
# PCOD9189760 Si02
#       6
#     4   8   8   8   8   4
#     4  11  20  36  64  92 138 172 205 262 320 396
#     4  10  19  38  62  88 123 161 212 263 312 372
#     4   8  16  31  58  83 116 158 200 251 305 365
#     4   9  18  38  64  88 120 164 219 270 315 374
#     4  10  20  36  60  93 125 169 205 254 318 381
#     4   9  19  38  59  94 131 170 216 262 326 379
#
# _framework density 27.679431000000001
#
# number of rings (size 3 to 8) (size 9 to 14) (size 15 to 20)
#    0.600    2.000    2.000    0.000    0.000    0.800 
#    3.600    2.000   26.400    3.600    0.000    0.000 
#    0.000    0.000    0.000    0.000    0.000    0.000 
#
# Total GULP energy -111517.620145 kJ/mol
# GULP energy per Si atom -5575.881007 kJ/mol
# Density = 2.761643 g / cm^3
# Si number density = 27.679431 Si / 1000 Ang^3
#
#
#
# Elastic Constant Matrix: (Units=GPa)
#
#
# Indices 1 2 3 4 5 6 
#
# 1 92.0341 50.7752 29.3980 0.0000 0.2018 0.0000
# 2 50.7752 279.9554 19.2177 0.0000 -26.2677 0.0000
# 3 29.3980 19.2177 146.3581 0.0000 -5.8891 0.0000
# 4 0.0000 0.0000 0.0000 31.2070 0.0000 14.3895
# 5 0.2018 -26.2677 -5.8891 0.0000 63.5504 0.0000
# 6 0.0000 0.0000 0.0000 14.3895 0.0000 -29.4602
#
#
#
# Elastic Compliance Matrix: (Units=1/GPa)
#
#
# Indices 1 2 3 4 5 6 
#
# 1 0.012876 -0.002288 -0.002334 0.000000 -0.001203 0.000000
# 2 -0.002288 0.004150 -0.000016 0.000000 0.001721 0.000000
# 3 -0.002334 -0.000016 0.007331 0.000000 0.000680 0.000000
# 4 0.000000 0.000000 0.000000 0.026154 0.000000 0.012775
# 5 -0.001203 0.001721 0.000680 0.000000 0.016514 0.000000
# 6 0.000000 0.000000 0.000000 0.012775 0.000000 -0.027704
#
#
# Mechanical properties :
#
#
# Convention : Reuss Voigt Hill
#
# Bulk Modulus (GPa) = 66.31342 79.68103 72.99723
# Shear Modulus (GPa) = 93.24399 40.98988 67.11694
#
# Velocity S-wave (km/s) = 5.81036 3.85239 4.92956
# Velocity P-wave (km/s) = 8.30803 6.97406 7.67010
#
# Compressibility (1/GPa) = 0.01507990
#
# Stress axis : x y z
#
# Youngs Moduli (GPa) = 77.66347 240.99104 136.40877
#
# Poissons Ratio (x) = 0.55137 0.31842
# Poissons Ratio (y) = 0.17769 0.00219
# Poissons Ratio (z) = 0.18129 0.00387
#
# Static dielectric constant tensor:
#      x y z
#    x 2.142710 0.000000 -0.084590 
#    y 0.000000 2.414970 0.000000 
#    z -0.084590 0.000000 2.188390 
# 
# From -- ./inp_files/11898.got.cif
#   From: 2010.05.17/outbox.cif.g08.bks.cpg/sg12_6_cif.got.tgz:11898.got - 2010.06.03 13:09:07.
