data_PCOD9189591
_publ_section_title
;
Structure prediction by ZEFSAII (Michael W. Deem and Ramdas Pophale) SiO2 
 PCOD9189591
Probable space group: C 2/M
;
_chemical_formula_sum "Si O2"
_cell_formula_units_Z 60
_cell_length_a 12.766837
_cell_length_b 16.141666
_cell_length_c 14.091552
_cell_angle_alpha 90.000000
_cell_angle_beta 114.422263
_cell_angle_gamma 90.000000
_cell_volume 2644.121785
_symmetry_space_group_name_H-M "C 2/M"
_symmetry_group_IT_number 12
_symmetry_cell_setting 'monoclinic'
loop_
_space_group_symop_operation_xyz
x,y,z
-x,y,-z
-x,-y,-z
x,-y,z
1/2+x,1/2+y,z
1/2-x,1/2+y,-z
1/2-x,1/2-y,-z
1/2+x,1/2-y,z
loop_
_atom_site_type_symbol
_atom_site_label
_atom_site_fract_x
_atom_site_fract_y
_atom_site_fract_z
Si Si1 0.666709 0.000000 0.716232
Si Si2 0.829100 0.900930 0.519607
Si Si3 0.278067 0.863548 0.102361
Si Si4 0.997058 0.275894 0.884871
Si Si5 0.058055 0.091318 0.917472
Si Si6 0.751897 0.279185 0.771675
Si Si7 0.131148 0.339505 0.573465
Si Si8 0.081316 0.097485 0.662044
O O1 0.708469 0.070931 0.808989
O O2 0.628334 0.073398 0.627529
O O3 0.717985 0.853448 0.517091
O O4 0.862837 0.891076 0.422051
O O5 0.948398 0.874953 0.615656
O O6 0.813067 0.000000 0.530535
O O7 0.400390 0.833529 0.111693
O O8 0.227598 0.780691 0.131376
O O9 0.192663 0.896669 0.990419
O O10 0.879027 0.308526 0.794928
O O11 0.010378 0.178693 0.860890
O O12 0.000000 0.280701 0.000000
O O13 0.033393 0.000000 0.864006
O O14 0.000000 0.086957 0.000000
O O15 0.690394 0.225922 0.666728
O O16 0.665899 0.353463 0.761539
O O17 0.000000 0.314768 0.500000
O O18 0.081753 0.000000 0.677440
#
# Coordination Sequence:
#
# PCOD9189591 Si02
#       8
#     4   8   8   8   8   8   8   8
#     4  10  23  42  66  95 130 171 221 257 341 392
#     4   9  19  40  67  91 127 173 218 274 321 383
#     4  11  22  43  67  92 136 166 212 279 327 393
#     4  11  24  44  67  94 132 176 214 274 337 385
#     4  10  19  37  70  95 122 163 211 261 327 385
#     4  11  25  41  63 101 126 171 226 268 326 394
#     4  11  24  40  65  98 137 169 218 279 330 389
#     4   9  21  42  66  90 128 179 222 263 327 393
#
# _framework density 22.691842999999999
#
# number of rings (size 3 to 8) (size 9 to 14) (size 15 to 20)
#    0.000    1.733    4.000    1.400    3.733    2.667 
#    3.600    1.000    0.000    0.000    0.000    0.000 
#    0.000    0.000    0.000    0.000    0.000    0.000 
#
# Total GULP energy -167144.285320 kJ/mol
# GULP energy per Si atom -5571.476177 kJ/mol
# Density = 2.264020 g / cm^3
# Si number density = 22.691843 Si / 1000 Ang^3
#
#
#
# Elastic Constant Matrix: (Units=GPa)
#
#
# Indices 1 2 3 4 5 6 
#
# 1 145.8627 8.8495 35.6524 0.0000 31.6932 0.0000
# 2 8.8495 60.6516 2.3348 0.0000 22.3481 0.0000
# 3 35.6524 2.3348 77.3107 0.0000 9.2265 0.0000
# 4 0.0000 0.0000 0.0000 12.6357 0.0000 7.4209
# 5 31.6932 22.3481 9.2265 0.0000 23.7549 0.0000
# 6 0.0000 0.0000 0.0000 7.4209 0.0000 9.6810
#
#
#
# Elastic Compliance Matrix: (Units=1/GPa)
#
#
# Indices 1 2 3 4 5 6 
#
# 1 0.011495 0.005576 -0.003160 0.000000 -0.019356 0.000000
# 2 0.005576 0.028293 0.000670 0.000000 -0.034317 0.000000
# 3 -0.003160 0.000670 0.014622 0.000000 -0.002093 0.000000
# 4 0.000000 0.000000 0.000000 0.143942 0.000000 -0.110337
# 5 -0.019356 -0.034317 -0.002093 0.000000 0.101018 0.000000
# 6 0.000000 0.000000 0.000000 -0.110337 0.000000 0.187873
#
#
# Mechanical properties :
#
#
# Convention : Reuss Voigt Hill
#
# Bulk Modulus (GPa) = 16.50649 41.94428 29.22538
# Shear Modulus (GPa) = 9.97477 25.01354 17.49416
#
# Velocity S-wave (km/s) = 2.09888 3.32371 2.77960
# Velocity P-wave (km/s) = 3.62818 5.76662 4.81755
#
# Compressibility (1/GPa) = 0.06058222
#
# Stress axis : x y z
#
# Youngs Moduli (GPa) = 86.99181 35.34446 68.39232
#
# Poissons Ratio (x) = -0.19709 0.21609
# Poissons Ratio (y) = -0.48509 -0.04579
# Poissons Ratio (z) = 0.27486 -0.02366
#
# Static dielectric constant tensor:
#      x y z
#    x 1.925630 0.000000 -0.067740 
#    y 0.000000 1.826520 0.000000 
#    z -0.067740 0.000000 1.888960 
# 
# From -- ./inp_files/206734.got.cif
#   From: 2010.05.17/outbox.cif.g08.bks.cpg/sg12_104_cif.got.tgz:206734.got - 2010.06.03 13:09:07.
