data_PCOD9189137
_publ_section_title
;
Structure prediction by ZEFSAII (Michael W. Deem and Ramdas Pophale) SiO2 
 PCOD9189137
Probable space group: C 2/M
;
_chemical_formula_sum "Si O2"
_cell_formula_units_Z 58
_cell_length_a 14.051733
_cell_length_b 7.500380
_cell_length_c 20.521481
_cell_angle_alpha 90.000000
_cell_angle_beta 81.434127
_cell_angle_gamma 90.000000
_cell_volume 2138.701618
_symmetry_space_group_name_H-M "C 2/M"
_symmetry_group_IT_number 12
_symmetry_cell_setting 'monoclinic'
loop_
_space_group_symop_operation_xyz
x,y,z
-x,y,-z
-x,-y,-z
x,-y,z
1/2+x,1/2+y,z
1/2-x,1/2+y,-z
1/2-x,1/2-y,-z
1/2+x,1/2-y,z
loop_
_atom_site_type_symbol
_atom_site_label
_atom_site_fract_x
_atom_site_fract_y
_atom_site_fract_z
Si Si1 0.505513 0.295693 0.763294
Si Si2 0.529525 0.190314 0.902849
Si Si3 0.556854 0.295777 0.619929
Si Si4 0.141692 0.213639 0.483959
Si Si5 0.735514 0.280939 0.349211
Si Si6 0.692142 0.714979 0.070982
Si Si7 0.000000 0.000000 0.000000
Si Si8 0.776153 0.203585 0.795160
O O1 0.539945 0.500000 0.755259
O O2 0.552770 0.216578 0.823498
O O3 0.514975 0.211819 0.690453
O O4 0.392265 0.300944 0.787543
O O5 0.412145 0.194185 0.917594
O O6 0.567339 0.000000 0.921261
O O7 0.551723 0.346698 0.949565
O O8 0.519055 0.500000 0.619396
O O9 0.566849 0.217327 0.546113
O O10 0.668962 0.295729 0.628824
O O11 0.250000 0.250000 0.500000
O O12 0.147966 0.269403 0.407096
O O13 0.128522 0.000000 0.485920
O O14 0.738034 0.500000 0.348862
O O15 0.739222 0.216697 0.274474
O O16 0.671222 0.500000 0.076160
O O17 0.749359 0.772003 0.130566
O O18 0.750000 0.750000 0.000000
O O19 0.741974 0.000000 0.794847
#
# Coordination Sequence:
#
# PCOD9189137 Si02
#       8
#     8   8   8   8   8   8   2   8
#     4   9  17  35  54  71 103 144 180 220 270 331
#     4  11  22  39  62  85 112 152 188 228 283 343
#     4   9  17  29  48  72 101 138 174 215 274 326
#     4   8  14  25  43  67  97 133 171 213 266 325
#     4   9  16  29  47  72 101 130 175 228 267 317
#     4  10  19  37  58  80 110 145 189 234 282 343
#     4  12  22  44  60  86 120 144 188 230 288 336
#     4   8  16  31  52  71  97 138 175 218 275 321
#
# _framework density 27.119259
#
# number of rings (size 3 to 8) (size 9 to 14) (size 15 to 20)
#    0.000    2.759    1.379    1.448    0.000    0.552 
#    2.483    4.138    0.000    4.138    0.000    0.000 
#    0.000   15.448    0.000    0.000    0.000    0.000 
#
# Total GULP energy -161769.290515 kJ/mol
# GULP energy per Si atom -5578.251397 kJ/mol
# Density = 2.705753 g / cm^3
# Si number density = 27.119259 Si / 1000 Ang^3
#
#
#
# Elastic Constant Matrix: (Units=GPa)
#
#
# Indices 1 2 3 4 5 6 
#
# 1 58.5409 7.1462 36.2617 0.0000 -3.4118 0.0000
# 2 7.1462 134.3329 40.0965 0.0000 4.1742 0.0000
# 3 36.2617 40.0965 304.7681 0.0000 -14.4926 0.0000
# 4 0.0000 0.0000 0.0000 60.9744 0.0000 -16.7212
# 5 -3.4118 4.1742 -14.4926 0.0000 51.9351 0.0000
# 6 0.0000 0.0000 0.0000 -16.7212 0.0000 14.6288
#
#
#
# Elastic Compliance Matrix: (Units=1/GPa)
#
#
# Indices 1 2 3 4 5 6 
#
# 1 0.018478 -0.000371 -0.002119 0.000000 0.000652 0.000000
# 2 -0.000371 0.007799 -0.001027 0.000000 -0.000938 0.000000
# 3 -0.002119 -0.001027 0.003715 0.000000 0.000980 0.000000
# 4 0.000000 0.000000 0.000000 0.023888 0.000000 0.027305
# 5 0.000652 -0.000938 0.000980 0.000000 0.019647 0.000000
# 6 0.000000 0.000000 0.000000 0.027305 0.000000 0.099569
#
#
# Mechanical properties :
#
#
# Convention : Reuss Voigt Hill
#
# Bulk Modulus (GPa) = 43.55420 73.85008 58.70214
# Shear Modulus (GPa) = 26.62670 53.11683 39.87177
#
# Velocity S-wave (km/s) = 3.13683 4.43045 3.83853
# Velocity P-wave (km/s) = 5.40506 7.31181 6.42951
#
# Compressibility (1/GPa) = 0.02295990
#
# Stress axis : x y z
#
# Youngs Moduli (GPa) = 54.11914 128.21358 269.18384
#
# Poissons Ratio (x) = 0.04755 0.57032
# Poissons Ratio (y) = 0.02007 0.27634
# Poissons Ratio (z) = 0.11466 0.13162
#
# Static dielectric constant tensor:
#      x y z
#    x 2.199750 0.000000 0.049120 
#    y 0.000000 6.157900 0.000000 
#    z 0.049120 0.000000 2.272880 
# 
# From -- ./inp_files/281106.got.cif
#   From: 2010.05.17/outbox.cif.g08.bks.cpg/sg12_141_cif.got.tgz:281106.got - 2010.06.03 13:09:07.
