data_PCOD9189919
_publ_section_title
;
Structure prediction by ZEFSAII (Michael W. Deem and Ramdas Pophale) SiO2 
 PCOD9189919
Probable space group: C 2/M
;
_chemical_formula_sum "Si O2"
_cell_formula_units_Z 52
_cell_length_a 15.464547
_cell_length_b 8.799793
_cell_length_c 33.192281
_cell_angle_alpha 90.000000
_cell_angle_beta 34.647994
_cell_angle_gamma 90.000000
_cell_volume 2568.044072
_symmetry_space_group_name_H-M "C 2/M"
_symmetry_group_IT_number 12
_symmetry_cell_setting 'monoclinic'
loop_
_space_group_symop_operation_xyz
x,y,z
-x,y,-z
-x,-y,-z
x,-y,z
1/2+x,1/2+y,z
1/2-x,1/2+y,-z
1/2-x,1/2-y,-z
1/2+x,1/2-y,z
loop_
_atom_site_type_symbol
_atom_site_label
_atom_site_fract_x
_atom_site_fract_y
_atom_site_fract_z
Si Si1 0.453289 0.500000 0.563429
Si Si2 0.697832 0.181507 0.809842
Si Si3 0.112468 0.000000 0.579653
Si Si4 0.451895 0.171374 0.661807
Si Si5 0.819588 0.500000 0.567541
Si Si6 0.974548 0.319112 0.821396
Si Si7 0.753869 0.219746 0.335789
Si Si8 0.657135 0.817887 0.919590
O O1 0.500000 0.500000 0.500000
O O2 0.597954 0.500000 0.537403
O O3 0.344394 0.364477 0.616425
O O4 0.838855 0.284087 0.741589
O O5 0.560656 0.211027 0.830817
O O6 0.656999 0.211687 0.871690
O O7 0.735839 0.000000 0.791105
O O8 0.274538 0.000000 0.538517
O O9 0.041613 0.166156 0.620231
O O10 0.345376 0.154229 0.663060
O O11 0.521399 0.000000 0.641652
O O12 0.748445 0.634787 0.620974
O O13 0.000000 0.500000 0.500000
O O14 0.974335 0.500000 0.815911
O O15 0.805558 0.255668 0.882649
O O16 0.080262 0.247861 0.745858
O O17 0.668032 0.000000 0.920652
O O18 0.500000 0.765889 0.000000
#
# Coordination Sequence:
#
# PCOD9189919 Si02
#       8
#     4   8   4   8   4   8   8   8
#     4  10  20  44  72  96 129 173 214 272 333 391
#     4   9  19  37  61  88 130 170 208 266 328 379
#     4  10  24  42  68  96 134 173 215 275 336 383
#     4  10  19  38  67  98 126 167 223 276 323 390
#     4  12  26  44  64  94 136 178 208 265 339 398
#     4  10  21  38  63  92 123 166 217 267 323 380
#     4  10  21  40  66  93 129 167 219 270 322 391
#     4  10  23  40  60  90 130 171 213 262 323 392
#
# _framework density 20.248873
#
# number of rings (size 3 to 8) (size 9 to 14) (size 15 to 20)
#    0.000    2.000    2.308    0.462    3.231    2.154 
#    1.385    6.923    0.000    0.000    0.000    0.000 
#    0.000    0.000    0.000    0.000    0.000    0.000 
#
# Total GULP energy -144884.094014 kJ/mol
# GULP energy per Si atom -5572.465154 kJ/mol
# Density = 2.020279 g / cm^3
# Si number density = 20.248873 Si / 1000 Ang^3
#
#
#
# Elastic Constant Matrix: (Units=GPa)
#
#
# Indices 1 2 3 4 5 6 
#
# 1 89.5324 30.8548 26.6797 -0.0021 -4.8878 0.0001
# 2 30.8548 95.8235 32.0980 -0.0086 1.5860 0.0012
# 3 26.6797 32.0980 67.3294 -0.0011 -1.9507 0.0005
# 4 -0.0021 -0.0086 -0.0011 -23.4192 -0.0002 15.3973
# 5 -4.8878 1.5860 -1.9507 -0.0002 33.2848 0.0001
# 6 0.0001 0.0012 0.0005 15.3973 0.0001 14.3125
#
#
#
# Elastic Compliance Matrix: (Units=1/GPa)
#
#
# Indices 1 2 3 4 5 6 
#
# 1 0.013474 -0.003094 -0.003809 0.000000 0.001903 0.000000
# 2 -0.003094 0.013159 -0.005087 -0.000003 -0.001380 0.000002
# 3 -0.003809 -0.005087 0.018810 0.000001 0.000785 -0.000001
# 4 0.000000 -0.000003 0.000001 -0.025010 0.000000 0.026906
# 5 0.001903 -0.001380 0.000785 0.000000 0.030435 0.000000
# 6 0.000000 0.000002 -0.000001 0.026906 0.000000 0.040924
#
#
# Mechanical properties :
#
#
# Convention : Reuss Voigt Hill
#
# Bulk Modulus (GPa) = 46.59363 47.99447 47.29405
# Shear Modulus (GPa) = 40.67459 15.70579 28.19019
#
# Velocity S-wave (km/s) = 4.48675 2.78805 3.73525
# Velocity P-wave (km/s) = 7.06411 5.84106 6.48150
#
# Compressibility (1/GPa) = 0.02146216
#
# Stress axis : x y z
#
# Youngs Moduli (GPa) = 74.21453 75.99315 53.16406
#
# Poissons Ratio (x) = 0.23514 0.20251
# Poissons Ratio (y) = 0.22964 0.27045
# Poissons Ratio (z) = 0.28269 0.38659
#
# Static dielectric constant tensor:
#      x y z
#    x 1.723540 0.000000 0.002170 
#    y 0.000000 1.712620 0.000000 
#    z 0.002170 0.000000 1.687820 
# 
# From -- ./inp_files/375351.got.cif
#   From: 2010.05.17/outbox.cif.g08.bks.cpg/sg12_188_cif.got.tgz:375351.got - 2010.06.03 13:09:07.
