data_PCOD9189050
_publ_section_title
;
Structure prediction by ZEFSAII (Michael W. Deem and Ramdas Pophale) SiO2 
 PCOD9189050
Probable space group: C 2/M
;
_chemical_formula_sum "Si O2"
_cell_formula_units_Z 56
_cell_length_a 9.074642
_cell_length_b 29.154059
_cell_length_c 19.804951
_cell_angle_alpha 90.000000
_cell_angle_beta 150.131873
_cell_angle_gamma 90.000000
_cell_volume 2609.374229
_symmetry_space_group_name_H-M "C 2/M"
_symmetry_group_IT_number 12
_symmetry_cell_setting 'monoclinic'
loop_
_space_group_symop_operation_xyz
x,y,z
-x,y,-z
-x,-y,-z
x,-y,z
1/2+x,1/2+y,z
1/2-x,1/2+y,-z
1/2-x,1/2-y,-z
1/2+x,1/2-y,z
loop_
_atom_site_type_symbol
_atom_site_label
_atom_site_fract_x
_atom_site_fract_y
_atom_site_fract_z
Si Si1 0.156381 0.918152 0.629644
Si Si2 0.227184 0.834428 0.306089
Si Si3 0.722652 0.159102 0.213408
Si Si4 0.047715 0.572427 0.443250
Si Si5 0.053157 0.852642 0.944352
Si Si6 0.775079 0.050073 0.817440
Si Si7 0.437029 0.734126 0.402442
O O1 0.251219 0.881178 0.721674
O O2 0.455183 0.943776 0.726671
O O3 0.000000 0.898408 0.500000
O O4 0.873246 0.942896 0.549599
O O5 0.493368 0.871567 0.420194
O O6 0.275267 0.782557 0.348998
O O7 0.952364 0.849893 0.243921
O O8 0.157119 0.833626 0.198285
O O9 0.789833 0.203605 0.286042
O O10 0.385534 0.159168 0.055311
O O11 0.000000 0.557538 0.500000
O O12 0.809928 0.554437 0.295323
O O13 0.984128 0.907187 0.917442
O O14 0.000000 0.835795 0.000000
O O15 0.899736 0.000000 0.881591
O O16 0.500000 0.710980 0.500000
O O17 0.750000 0.750000 0.500000
#
# Coordination Sequence:
#
# PCOD9189050 Si02
#       7
#     8   8   8   8   8   8   8
#     4  10  20  36  63  95 126 170 206 264 328 391
#     4  11  24  43  63  94 135 174 215 271 319 378
#     4  12  23  42  65  91 132 173 221 262 323 376
#     4  10  19  36  67  94 132 171 211 256 332 400
#     4  11  25  43  68  93 119 176 226 264 318 386
#     4  10  23  43  65  96 129 162 218 279 327 386
#     4  12  25  41  66 102 135 168 210 270 322 379
#
# _framework density 21.461084
#
# number of rings (size 3 to 8) (size 9 to 14) (size 15 to 20)
#    0.000    1.143    4.286    2.143    2.000    3.714 
#    0.000    0.000    0.000    6.857    0.000    0.000 
#    0.000    0.000    0.000    0.000    0.000    0.000 
#
# Total GULP energy -156336.369184 kJ/mol
# GULP energy per Si atom -5583.441757 kJ/mol
# Density = 2.141224 g / cm^3
# Si number density = 21.461084 Si / 1000 Ang^3
#
#
#
# Elastic Constant Matrix: (Units=GPa)
#
#
# Indices 1 2 3 4 5 6 
#
# 1 129.1435 2.6749 17.5069 -0.0096 -12.2103 -0.0157
# 2 2.6749 71.2267 8.1332 0.0153 -3.5682 0.0222
# 3 17.5069 8.1332 69.6673 -0.1619 -2.5613 -0.2487
# 4 -0.0096 0.0153 -0.1619 45.7868 0.0094 73.5725
# 5 -12.2103 -3.5682 -2.5613 0.0094 43.3484 0.0162
# 6 -0.0157 0.0222 -0.2487 73.5725 0.0162 103.6106
#
#
#
# Elastic Compliance Matrix: (Units=1/GPa)
#
#
# Indices 1 2 3 4 5 6 
#
# 1 0.008220 0.000029 -0.001988 -0.000003 0.002200 -0.000002
# 2 0.000029 0.014280 -0.001634 -0.000005 0.001087 -0.000004
# 3 -0.001988 -0.001634 0.015052 0.000034 0.000195 0.000012
# 4 -0.000003 -0.000005 0.000034 -0.154893 -0.000007 0.109988
# 5 0.002200 0.001087 0.000195 -0.000007 0.023790 0.000002
# 6 -0.000002 -0.000004 0.000012 0.109988 0.000002 -0.068449
#
#
# Mechanical properties :
#
#
# Convention : Reuss Voigt Hill
#
# Bulk Modulus (GPa) = 32.93399 36.29640 34.61520
# Shear Modulus (GPa) = -34.55606 54.66399 10.05397
#
# Velocity S-wave (km/s) = -4.01705 5.05238 2.16678
# Velocity P-wave (km/s) = 2.47717 7.14036 4.73542
#
# Compressibility (1/GPa) = 0.03036377
#
# Stress axis : x y z
#
# Youngs Moduli (GPa) = 121.65024 70.02963 66.43801
#
# Poissons Ratio (x) = -0.00200 0.13209
# Poissons Ratio (y) = -0.00347 0.10858
# Poissons Ratio (z) = 0.24186 0.11445
#
# Static dielectric constant tensor:
#      x y z
#    x 1.807790 0.000010 0.002490 
#    y 0.000010 1.884520 0.000000 
#    z 0.002490 0.000000 1.795110 
# 
# From -- ./inp_files/303082.got.cif
#   From: 2010.05.17/outbox.cif.g08.bks.cpg/sg12_152_cif.got.tgz:303082.got - 2010.06.03 13:09:07.
