data_PCOD9189354
_publ_section_title
;
Structure prediction by ZEFSAII (Michael W. Deem and Ramdas Pophale) SiO2 
 PCOD9189354
Probable space group: C 2/M
;
_chemical_formula_sum "Si O2"
_cell_formula_units_Z 40
_cell_length_a 24.584863
_cell_length_b 7.717009
_cell_length_c 18.619683
_cell_angle_alpha 90.000000
_cell_angle_beta 30.596733
_cell_angle_gamma 90.000000
_cell_volume 1798.044040
_symmetry_space_group_name_H-M "C 2/M"
_symmetry_group_IT_number 12
_symmetry_cell_setting 'monoclinic'
loop_
_space_group_symop_operation_xyz
x,y,z
-x,y,-z
-x,-y,-z
x,-y,z
1/2+x,1/2+y,z
1/2-x,1/2+y,-z
1/2-x,1/2-y,-z
1/2+x,1/2-y,z
loop_
_atom_site_type_symbol
_atom_site_label
_atom_site_fract_x
_atom_site_fract_y
_atom_site_fract_z
Si Si1 0.720251 0.699350 0.870167
Si Si2 0.192468 0.295784 0.738900
Si Si3 0.014209 0.210161 0.836006
Si Si4 0.393133 0.711666 0.419169
Si Si5 0.042673 0.797731 0.376367
O O1 0.727896 0.500000 0.884181
O O2 0.711169 0.708511 0.794088
O O3 0.830003 0.785524 0.769779
O O4 0.608088 0.772296 0.026157
O O5 0.209638 0.500000 0.731344
O O6 0.279947 0.234422 0.581175
O O7 0.077160 0.266276 0.835367
O O8 0.078167 0.271603 0.693102
O O9 0.011250 0.000000 0.839866
O O10 0.392903 0.500000 0.415859
O O11 0.482890 0.771053 0.374171
O O12 0.000000 0.719768 0.500000
O O13 0.011741 0.000000 0.413145
#
# Coordination Sequence:
#
# PCOD9189354 Si02
#       5
#     8   8   8   8   8
#     4  11  23  37  56  84 117 150 184 228 281 334
#     4  11  21  37  61  85 110 147 194 234 272 327
#     4  10  22  39  56  81 118 152 182 226 285 335
#     4   9  19  37  60  83 111 148 186 230 281 329
#     4  10  19  37  62  84 109 145 189 232 276 329
#
# _framework density 22.246395
#
# number of rings (size 3 to 8) (size 9 to 14) (size 15 to 20)
#    0.000    1.800    2.000    2.400    0.000    5.200 
#    0.000    2.000    0.000    0.000    0.000    0.000 
#    0.000    0.000    0.000    0.000    0.000    0.000 
#
# Total GULP energy -111791.687533 kJ/mol
# GULP energy per Si atom -5589.584377 kJ/mol
# Density = 2.219576 g / cm^3
# Si number density = 22.246395 Si / 1000 Ang^3
#
#
#
# Elastic Constant Matrix: (Units=GPa)
#
#
# Indices 1 2 3 4 5 6 
#
# 1 67.4605 -8.1341 -14.6760 -0.0001 -12.6428 0.0000
# 2 -8.1341 34.5879 -5.5294 -0.0060 3.1111 0.0042
# 3 -14.6760 -5.5294 70.3389 -0.0072 -4.7045 0.0039
# 4 -0.0001 -0.0060 -0.0072 23.4180 0.0024 -10.2900
# 5 -12.6428 3.1111 -4.7045 0.0024 36.9807 -0.0012
# 6 0.0000 0.0042 0.0039 -10.2900 -0.0012 20.9454
#
#
#
# Elastic Compliance Matrix: (Units=1/GPa)
#
#
# Indices 1 2 3 4 5 6 
#
# 1 0.017445 0.004249 0.004386 0.000002 0.006165 -0.000001
# 2 0.004249 0.030492 0.003237 0.000008 -0.000701 -0.000003
# 3 0.004386 0.003237 0.015601 0.000005 0.003212 -0.000001
# 4 0.000002 0.000008 0.000005 0.054458 -0.000002 0.026754
# 5 0.006165 -0.000701 0.003212 -0.000002 0.029616 0.000000
# 6 -0.000001 -0.000003 -0.000001 0.026754 0.000000 0.060887
#
#
# Mechanical properties :
#
#
# Convention : Reuss Voigt Hill
#
# Bulk Modulus (GPa) = 11.45694 12.85647 12.15670
# Shear Modulus (GPa) = 23.38095 29.65061 26.51578
#
# Velocity S-wave (km/s) = 3.24543 3.65475 3.45616
# Velocity P-wave (km/s) = 4.38234 4.85812 4.62635
#
# Compressibility (1/GPa) = 0.08728336
#
# Stress axis : x y z
#
# Youngs Moduli (GPa) = 57.32163 32.79584 64.09701
#
# Poissons Ratio (x) = -0.13936 -0.28115
# Poissons Ratio (y) = -0.24358 -0.20747
# Poissons Ratio (z) = -0.25143 -0.10615
#
# Static dielectric constant tensor:
#      x y z
#    x 1.766060 0.000000 0.011220 
#    y 0.000000 1.837880 0.000000 
#    z 0.011220 0.000000 1.821120 
# 
# From -- ./inp_files/151618.got.cif
#   From: 2010.05.17/outbox.cif.g08.bks.cpg/sg12_76_cif.got.tgz:151618.got - 2010.06.03 13:09:07.
