data_PCOD9189596
_publ_section_title
;
Structure prediction by ZEFSAII (Michael W. Deem and Ramdas Pophale) SiO2 
 PCOD9189596
Probable space group: C 2/M
;
_chemical_formula_sum "Si O2"
_cell_formula_units_Z 44
_cell_length_a 11.735287
_cell_length_b 34.746118
_cell_length_c 5.260759
_cell_angle_alpha 90.000000
_cell_angle_beta 87.624118
_cell_angle_gamma 90.000000
_cell_volume 2143.260295
_symmetry_space_group_name_H-M "C 2/M"
_symmetry_group_IT_number 12
_symmetry_cell_setting 'monoclinic'
loop_
_space_group_symop_operation_xyz
x,y,z
-x,y,-z
-x,-y,-z
x,-y,z
1/2+x,1/2+y,z
1/2-x,1/2+y,-z
1/2-x,1/2-y,-z
1/2+x,1/2-y,z
loop_
_atom_site_type_symbol
_atom_site_label
_atom_site_fract_x
_atom_site_fract_y
_atom_site_fract_z
Si Si1 0.872808 0.717133 0.783049
Si Si2 0.130206 0.316283 0.712470
Si Si3 0.633351 0.582386 0.903487
Si Si4 0.420578 0.500000 0.253982
Si Si5 0.781531 0.878251 0.615350
Si Si6 0.427942 0.696060 0.760466
O O1 0.816005 0.708660 0.519526
O O2 0.879062 0.761902 0.839113
O O3 0.000350 0.698776 0.746182
O O4 0.819496 0.693382 0.017076
O O5 0.153995 0.360271 0.635539
O O6 0.646461 0.539811 0.778708
O O7 0.675141 0.609141 0.666372
O O8 0.500000 0.587098 0.000000
O O9 0.699683 0.590897 0.160711
O O10 0.500000 0.500000 0.500000
O O11 0.500000 0.500000 0.000000
O O12 0.854897 0.840973 0.690265
O O13 0.500000 0.705292 0.500000
O O14 0.500000 0.684208 0.000000
#
# Coordination Sequence:
#
# PCOD9189596 Si02
#       6
#     8   8   8   4   8   8
#     4  10  19  38  53  66 103 140 197 224 271 319
#     4  10  20  36  53  74  99 144 181 240 262 318
#     4  11  22  40  55  83 114 144 172 213 257 330
#     4  10  20  36  64  80 106 152 182 192 252 332
#     4  12  24  33  55  83 113 133 184 230 275 306
#     4  12  21  35  50  71 101 150 178 228 274 307
#
# _framework density 20.529472999999999
#
# number of rings (size 3 to 8) (size 9 to 14) (size 15 to 20)
#    0.000    1.091    3.636    6.545    0.000    1.455 
#    0.000    0.000    0.000    0.000    0.000    0.000 
#    0.000   58.182    0.000    0.000    0.000    0.000 
#
# Total GULP energy -122698.157493 kJ/mol
# GULP energy per Si atom -5577.188977 kJ/mol
# Density = 2.048275 g / cm^3
# Si number density = 20.529473 Si / 1000 Ang^3
#
#
#
# Elastic Constant Matrix: (Units=GPa)
#
#
# Indices 1 2 3 4 5 6 
#
# 1 44.0646 24.3027 9.6147 0.0000 -3.7109 0.0000
# 2 24.3027 95.5365 22.4885 0.0000 -10.6122 0.0000
# 3 9.6147 22.4885 161.8624 0.0000 -6.4307 0.0000
# 4 0.0000 0.0000 0.0000 42.4120 0.0000 2.4407
# 5 -3.7109 -10.6122 -6.4307 0.0000 22.5021 0.0000
# 6 0.0000 0.0000 0.0000 2.4407 0.0000 29.1704
#
#
#
# Elastic Compliance Matrix: (Units=1/GPa)
#
#
# Indices 1 2 3 4 5 6 
#
# 1 0.026493 -0.006464 -0.000630 0.000000 0.001140 0.000000
# 2 -0.006464 0.012919 -0.001225 0.000000 0.004677 0.000000
# 3 -0.000630 -0.001225 0.006432 0.000000 0.001156 0.000000
# 4 0.000000 0.000000 0.000000 0.023692 0.000000 -0.001982
# 5 0.001140 0.004677 0.001156 0.000000 0.047164 0.000000
# 6 0.000000 0.000000 0.000000 -0.001982 0.000000 0.034447
#
#
# Mechanical properties :
#
#
# Convention : Reuss Voigt Hill
#
# Bulk Modulus (GPa) = 34.24133 46.03059 40.13596
# Shear Modulus (GPa) = 28.16554 35.15408 31.65981
#
# Velocity S-wave (km/s) = 3.70801 4.14257 3.93130
# Velocity P-wave (km/s) = 5.92012 6.73436 6.34032
#
# Compressibility (1/GPa) = 0.02920448
#
# Stress axis : x y z
#
# Youngs Moduli (GPa) = 37.74632 77.40255 155.48018
#
# Poissons Ratio (x) = 0.50035 0.09799
# Poissons Ratio (y) = 0.24400 0.19049
# Poissons Ratio (z) = 0.02379 0.09483
#
# Static dielectric constant tensor:
#      x y z
#    x 2.056970 0.000000 0.108320 
#    y 0.000000 1.769680 0.000000 
#    z 0.108320 0.000000 1.794950 
# 
# From -- ./inp_files/12083.got.cif
#   From: 2010.05.17/outbox.cif.g08.bks.cpg/sg12_7_cif.got.tgz:12083.got - 2010.06.03 13:09:07.
