data_PCOD9189979
_publ_section_title
;
Structure prediction by ZEFSAII (Michael W. Deem and Ramdas Pophale) SiO2 
 PCOD9189979
Probable space group: C 2/M
;
_chemical_formula_sum "Si O2"
_cell_formula_units_Z 64
_cell_length_a 24.528792
_cell_length_b 26.552894
_cell_length_c 9.416853
_cell_angle_alpha 90.000000
_cell_angle_beta 29.574920
_cell_angle_gamma 90.000000
_cell_volume 3027.156258
_symmetry_space_group_name_H-M "C 2/M"
_symmetry_group_IT_number 12
_symmetry_cell_setting 'monoclinic'
loop_
_space_group_symop_operation_xyz
x,y,z
-x,y,-z
-x,-y,-z
x,-y,z
1/2+x,1/2+y,z
1/2-x,1/2+y,-z
1/2-x,1/2-y,-z
1/2+x,1/2-y,z
loop_
_atom_site_type_symbol
_atom_site_label
_atom_site_fract_x
_atom_site_fract_y
_atom_site_fract_z
Si Si1 0.027027 0.628929 0.775401
Si Si2 0.281823 0.385804 0.147857
Si Si3 0.325473 0.556688 0.769398
Si Si4 0.833958 0.556421 0.117941
Si Si5 0.880245 0.795136 0.763792
Si Si6 0.831052 0.158556 0.604146
Si Si7 0.122077 0.895903 0.758334
Si Si8 0.419492 0.185302 0.801461
O O1 0.152241 0.612005 0.473525
O O2 0.993584 0.680868 0.773390
O O3 0.000000 0.633230 0.000000
O O4 0.941637 0.589256 0.901263
O O5 0.351418 0.388620 0.136072
O O6 0.314393 0.428144 0.958675
O O7 0.299160 0.332315 0.028882
O O8 0.374118 0.500000 0.641951
O O9 0.209268 0.554756 0.946969
O O10 0.375485 0.606957 0.579896
O O11 0.859859 0.500000 0.104477
O O12 0.726066 0.573872 0.454478
O O13 0.857810 0.795222 0.646678
O O14 0.890514 0.741035 0.812083
O O15 0.000000 0.820029 0.500000
O O16 0.872765 0.155320 0.349147
O O17 0.697871 0.158957 0.907612
O O18 0.000000 0.917665 0.000000
O O19 0.500000 0.161764 0.500000
#
# Coordination Sequence:
#
# PCOD9189979 Si02
#       8
#     8   8   8   8   8   8   8   8
#     4  12  23  42  63  94 137 172 212 271 330 389
#     4  11  23  40  64  99 132 170 216 269 328 391
#     4   9  19  37  62  91 125 163 210 265 318 378
#     4  10  22  42  65  94 133 177 220 268 328 385
#     4  10  22  39  61  93 125 162 218 267 321 385
#     4  10  19  39  61  87 127 164 213 268 316 383
#     4  11  22  41  66  91 129 178 217 263 325 389
#     4  11  21  38  65  92 122 169 215 265 329 386
#
# _framework density 21.141953999999998
#
# number of rings (size 3 to 8) (size 9 to 14) (size 15 to 20)
#    0.000    1.500    3.750    2.625    0.000    2.500 
#    0.000    6.875    0.000   18.750    0.000    0.000 
#    0.000    0.000    0.000    0.000    0.000    0.000 
#
# Total GULP energy -178270.500349 kJ/mol
# GULP energy per Si atom -5570.953136 kJ/mol
# Density = 2.109383 g / cm^3
# Si number density = 21.141954 Si / 1000 Ang^3
#
#
#
# Elastic Constant Matrix: (Units=GPa)
#
#
# Indices 1 2 3 4 5 6 
#
# 1 135.2475 20.2232 25.0988 -0.0002 13.5073 0.0001
# 2 20.2232 81.5901 1.9975 0.0000 2.9774 0.0001
# 3 25.0988 1.9975 89.5026 -0.0008 -9.1764 0.0002
# 4 -0.0002 0.0000 -0.0008 16.7855 0.0003 -6.3996
# 5 13.5073 2.9774 -9.1764 0.0003 39.8546 -0.0001
# 6 0.0001 0.0001 0.0002 -6.3996 -0.0001 19.4316
#
#
#
# Elastic Compliance Matrix: (Units=1/GPa)
#
#
# Indices 1 2 3 4 5 6 
#
# 1 0.008516 -0.001922 -0.002690 0.000000 -0.003362 0.000000
# 2 -0.001922 0.012736 0.000229 0.000000 -0.000247 0.000000
# 3 -0.002690 0.000229 0.012304 0.000001 0.003728 0.000000
# 4 0.000000 0.000000 0.000001 0.068130 0.000000 0.022438
# 5 -0.003362 -0.000247 0.003728 0.000000 0.027107 0.000000
# 6 0.000000 0.000000 0.000000 0.022438 0.000000 0.058852
#
#
# Mechanical properties :
#
#
# Convention : Reuss Voigt Hill
#
# Bulk Modulus (GPa) = 40.33697 44.55324 42.44510
# Shear Modulus (GPa) = 24.42897 32.48240 28.45568
#
# Velocity S-wave (km/s) = 3.40291 3.92394 3.67268
# Velocity P-wave (km/s) = 5.87880 6.45359 6.17289
#
# Compressibility (1/GPa) = 0.02479115
#
# Stress axis : x y z
#
# Youngs Moduli (GPa) = 117.42247 78.51594 81.27274
#
# Poissons Ratio (x) = 0.15093 0.21862
# Poissons Ratio (y) = 0.22572 -0.01865
# Poissons Ratio (z) = 0.31586 -0.01802
#
# Static dielectric constant tensor:
#      x y z
#    x 1.836290 0.000000 -0.010720 
#    y 0.000000 1.814350 0.000000 
#    z -0.010720 0.000000 1.791990 
# 
# From -- ./inp_files/100207.got.cif
#   From: 2010.05.17/outbox.cif.g08.bks.cpg/sg12_51_cif.got.tgz:100207.got - 2010.06.03 13:09:07.
