data_PCOD9189888
_publ_section_title
;
Structure prediction by ZEFSAII (Michael W. Deem and Ramdas Pophale) SiO2 
 PCOD9189888
Probable space group: C 2/M
;
_chemical_formula_sum "Si O2"
_cell_formula_units_Z 64
_cell_length_a 20.508239
_cell_length_b 17.883830
_cell_length_c 18.436258
_cell_angle_alpha 90.000000
_cell_angle_beta 28.200209
_cell_angle_gamma 90.000000
_cell_volume 3195.310783
_symmetry_space_group_name_H-M "C 2/M"
_symmetry_group_IT_number 12
_symmetry_cell_setting 'monoclinic'
loop_
_space_group_symop_operation_xyz
x,y,z
-x,y,-z
-x,-y,-z
x,-y,z
1/2+x,1/2+y,z
1/2-x,1/2+y,-z
1/2-x,1/2-y,-z
1/2+x,1/2-y,z
loop_
_atom_site_type_symbol
_atom_site_label
_atom_site_fract_x
_atom_site_fract_y
_atom_site_fract_z
Si Si1 0.790245 0.847496 0.288896
Si Si2 0.027926 0.127603 0.157375
Si Si3 0.161826 0.916591 0.329029
Si Si4 0.007933 0.696283 0.357608
Si Si5 0.391604 0.181988 0.168353
Si Si6 0.638680 0.643659 0.196696
Si Si7 0.557409 0.193236 0.144743
Si Si8 0.239382 0.415354 0.186355
O O1 0.638326 0.821663 0.462858
O O2 0.867260 0.770921 0.190940
O O3 0.787766 0.899911 0.221034
O O4 0.877558 0.882508 0.269554
O O5 0.054862 0.103519 0.214042
O O6 0.051617 0.217160 0.140427
O O7 0.138420 0.095757 0.991958
O O8 0.249732 0.857945 0.288172
O O9 0.178696 0.904767 0.226740
O O10 0.000000 0.907512 0.500000
O O11 0.204199 0.000000 0.308658
O O12 0.055703 0.783274 0.307879
O O13 0.005838 0.673703 0.275087
O O14 0.124416 0.646868 0.282135
O O15 0.458610 0.161277 0.179414
O O16 0.500000 0.161607 0.000000
O O17 0.784256 0.670113 0.020317
O O18 0.185880 0.500000 0.232488
#
# Coordination Sequence:
#
# PCOD9189888 Si02
#       8
#     8   8   8   8   8   8   8   8
#     4  11  24  37  60  94 124 154 199 253 310 352
#     4  10  21  39  63  90 120 152 200 253 299 355
#     4  11  25  41  59  90 125 157 196 243 302 365
#     4  11  22  39  63  92 120 157 201 253 306 356
#     4  11  21  39  64  91 119 156 199 248 300 362
#     4  11  19  40  68  89 117 157 201 251 302 353
#     4  10  19  38  66  91 118 148 203 253 296 353
#     4  12  24  41  61  85 123 171 211 244 292 363
#
# _framework density 20.029350000000001
#
# number of rings (size 3 to 8) (size 9 to 14) (size 15 to 20)
#    0.000    1.125    3.750    4.500    0.000    8.250 
#    0.000    0.625    0.000    0.000    0.000    0.000 
#    0.000    0.000    0.000    0.000    0.000    0.000 
#
# Total GULP energy -178785.484087 kJ/mol
# GULP energy per Si atom -5587.046378 kJ/mol
# Density = 1.998376 g / cm^3
# Si number density = 20.029350 Si / 1000 Ang^3
#
#
#
# Elastic Constant Matrix: (Units=GPa)
#
#
# Indices 1 2 3 4 5 6 
#
# 1 120.0386 18.3169 -2.3229 -0.0014 2.1691 0.0007
# 2 18.3169 24.3716 4.4130 0.0008 1.4020 0.0002
# 3 -2.3229 4.4130 45.1998 -0.0012 -3.3879 0.0009
# 4 -0.0014 0.0008 -0.0012 4.1381 0.0005 0.5120
# 5 2.1691 1.4020 -3.3879 0.0005 25.0915 -0.0006
# 6 0.0007 0.0002 0.0009 0.5120 -0.0006 -10.5639
#
#
#
# Elastic Compliance Matrix: (Units=1/GPa)
#
#
# Indices 1 2 3 4 5 6 
#
# 1 0.009475 -0.007321 0.001183 0.000005 -0.000250 0.000001
# 2 -0.007321 0.047638 -0.005232 -0.000013 -0.002735 0.000000
# 3 0.001183 -0.005232 0.022942 0.000007 0.003288 0.000002
# 4 0.000005 -0.000013 0.000007 0.240218 -0.000003 0.011642
# 5 -0.000250 -0.002735 0.003288 -0.000003 0.040473 -0.000002
# 6 0.000001 0.000000 0.000002 0.011642 -0.000002 -0.094097
#
#
# Mechanical properties :
#
#
# Convention : Reuss Voigt Hill
#
# Bulk Modulus (GPa) = 17.44751 25.60266 21.52509
# Shear Modulus (GPa) = 16.20773 15.01333 15.61053
#
# Velocity S-wave (km/s) = 2.84773 2.74079 2.79477
# Velocity P-wave (km/s) = 4.42070 4.77768 4.60266
#
# Compressibility (1/GPa) = 0.05731475
#
# Stress axis : x y z
#
# Youngs Moduli (GPa) = 105.53870 20.99150 43.58802
#
# Poissons Ratio (x) = 0.15368 -0.05156
# Poissons Ratio (y) = 0.77265 0.22807
# Poissons Ratio (z) = -0.12485 0.10984
#
# Static dielectric constant tensor:
#      x y z
#    x 1.744720 0.000000 0.013870 
#    y 0.000000 1.687410 0.000000 
#    z 0.013870 0.000000 1.689370 
# 
# From -- ./inp_files/285170.got.cif
#   From: 2010.05.17/outbox.cif.g08.bks.cpg/sg12_143_cif.got.tgz:285170.got - 2010.06.03 13:09:07.
