data_PCOD9189382
_publ_section_title
;
Structure prediction by ZEFSAII (Michael W. Deem and Ramdas Pophale) SiO2 
 PCOD9189382
Probable space group: C 2/M
;
_chemical_formula_sum "Si O2"
_cell_formula_units_Z 64
_cell_length_a 10.103626
_cell_length_b 20.486769
_cell_length_c 22.460424
_cell_angle_alpha 90.000000
_cell_angle_beta 50.610121
_cell_angle_gamma 90.000000
_cell_volume 3593.035171
_symmetry_space_group_name_H-M "C 2/M"
_symmetry_group_IT_number 12
_symmetry_cell_setting 'monoclinic'
loop_
_space_group_symop_operation_xyz
x,y,z
-x,y,-z
-x,-y,-z
x,-y,z
1/2+x,1/2+y,z
1/2-x,1/2+y,-z
1/2-x,1/2-y,-z
1/2+x,1/2-y,z
loop_
_atom_site_type_symbol
_atom_site_label
_atom_site_fract_x
_atom_site_fract_y
_atom_site_fract_z
Si Si1 0.510801 0.571891 0.068552
Si Si2 0.300453 0.427340 0.575259
Si Si3 0.648114 0.713888 0.583451
Si Si4 0.992009 0.309398 0.151997
Si Si5 0.130884 0.204115 0.907232
Si Si6 0.913358 0.422860 0.961825
Si Si7 0.253157 0.300954 0.664896
Si Si8 0.687852 0.926060 0.475133
O O1 0.465635 0.500000 0.105854
O O2 0.393235 0.633342 0.117350
O O3 0.500000 0.566866 0.000000
O O4 0.708754 0.586942 0.026159
O O5 0.500000 0.418483 0.500000
O O6 0.283371 0.500000 0.605341
O O7 0.253151 0.371226 0.633564
O O8 0.190030 0.423254 0.546399
O O9 0.750000 0.750000 0.500000
O O10 0.447637 0.716722 0.626140
O O11 0.688703 0.750454 0.633320
O O12 0.704364 0.637964 0.573013
O O13 0.922470 0.259813 0.122662
O O14 0.864341 0.306146 0.243771
O O15 0.179262 0.289131 0.121835
O O16 0.016213 0.378699 0.111723
O O17 0.000000 0.205917 0.000000
O O18 0.941010 0.500000 0.942778
O O19 0.000000 0.405512 0.000000
O O20 0.500000 0.920443 0.500000
O O21 0.753658 0.000000 0.441475
#
# Coordination Sequence:
#
# PCOD9189382 Si02
#       8
#     8   8   8   8   8   8   8   8
#     4   9  17  34  61  87 109 142 199 248 281 332
#     4  10  19  37  62  87 114 150 200 242 285 352
#     4  12  22  40  63  86 114 160 204 244 289 359
#     4  12  25  39  57  88 126 155 193 246 308 356
#     4  11  22  39  62  86 111 160 202 244 287 348
#     4  10  21  38  62  90 117 153 202 249 290 352
#     4  12  25  39  57  89 124 157 191 247 308 353
#     4  10  20  35  61  91 114 144 198 250 284 336
#
# _framework density 17.812238000000001
#
# number of rings (size 3 to 8) (size 9 to 14) (size 15 to 20)
#    0.000    1.250    5.000    2.625    1.750    0.500 
#    0.000    0.000    0.000    0.750    0.000    0.000 
#    0.000    0.000    0.000    0.000    0.000    0.000 
#
# Total GULP energy -178581.567979 kJ/mol
# GULP energy per Si atom -5580.673999 kJ/mol
# Density = 1.777170 g / cm^3
# Si number density = 17.812238 Si / 1000 Ang^3
#
#
#
# Elastic Constant Matrix: (Units=GPa)
#
#
# Indices 1 2 3 4 5 6 
#
# 1 166.6089 52.3340 56.9865 0.0000 -8.3853 -0.0001
# 2 52.3340 123.9530 52.9647 0.0000 15.0992 0.0000
# 3 56.9865 52.9647 92.7599 -0.0001 1.3751 0.0000
# 4 0.0000 0.0000 -0.0001 0.8108 -0.0001 -0.3914
# 5 -8.3853 15.0992 1.3751 -0.0001 19.2183 0.0001
# 6 -0.0001 0.0000 0.0000 -0.3914 0.0001 33.0797
#
#
#
# Elastic Compliance Matrix: (Units=1/GPa)
#
#
# Indices 1 2 3 4 5 6 
#
# 1 0.008432 -0.002709 -0.003724 0.000000 0.006074 0.000000
# 2 -0.002709 0.012913 -0.005547 -0.000001 -0.010930 0.000000
# 3 -0.003724 -0.005547 0.016212 0.000002 0.001573 0.000000
# 4 0.000000 -0.000001 0.000002 1.240483 0.000006 0.014677
# 5 0.006074 -0.010930 0.001573 0.000006 0.063159 0.000000
# 6 0.000000 0.000000 0.000000 0.014677 0.000000 0.030404
#
#
# Mechanical properties :
#
#
# Convention : Reuss Voigt Hill
#
# Bulk Modulus (GPa) = 73.53832 78.65470 76.09651
# Shear Modulus (GPa) = 3.57119 25.35752 14.46435
#
# Velocity S-wave (km/s) = 1.41748 3.77716 2.85273
# Velocity P-wave (km/s) = 6.63731 7.95463 7.32564
#
# Compressibility (1/GPa) = 0.01359835
#
# Stress axis : x y z
#
# Youngs Moduli (GPa) = 118.59124 77.44156 61.68300
#
# Poissons Ratio (x) = 0.20979 0.22968
# Poissons Ratio (y) = 0.32127 0.34215
# Poissons Ratio (z) = 0.44158 0.42956
#
# Static dielectric constant tensor:
#      x y z
#    x 1.610860 0.000000 -0.011880 
#    y 0.000000 1.659290 0.000000 
#    z -0.011880 0.000000 1.581110 
# 
# From -- ./inp_files/333707.got.cif
#   From: 2010.05.17/outbox.cif.g08.bks.cpg/sg12_167_cif.got.tgz:333707.got - 2010.06.03 13:09:07.
