data_PCOD9189747
_publ_section_title
;
Structure prediction by ZEFSAII (Michael W. Deem and Ramdas Pophale) SiO2 
 PCOD9189747
Probable space group: C 2/M
;
_chemical_formula_sum "Si O2"
_cell_formula_units_Z 64
_cell_length_a 20.776211
_cell_length_b 8.563932
_cell_length_c 20.685198
_cell_angle_alpha 90.000000
_cell_angle_beta 114.284351
_cell_angle_gamma 90.000000
_cell_volume 3354.774736
_symmetry_space_group_name_H-M "C 2/M"
_symmetry_group_IT_number 12
_symmetry_cell_setting 'monoclinic'
loop_
_space_group_symop_operation_xyz
x,y,z
-x,y,-z
-x,-y,-z
x,-y,z
1/2+x,1/2+y,z
1/2-x,1/2+y,-z
1/2-x,1/2-y,-z
1/2+x,1/2-y,z
loop_
_atom_site_type_symbol
_atom_site_label
_atom_site_fract_x
_atom_site_fract_y
_atom_site_fract_z
Si Si1 0.936764 0.687573 0.860826
Si Si2 0.179574 0.188544 0.684705
Si Si3 0.673550 0.187402 0.446832
Si Si4 0.331951 0.311136 0.926996
Si Si5 0.335517 0.810050 0.704385
Si Si6 0.593326 0.313274 0.911847
Si Si7 0.826153 0.686735 0.176561
Si Si8 0.418983 0.311200 0.475669
O O1 0.940544 0.500000 0.863078
O O2 0.888316 0.743645 0.899924
O O3 0.897068 0.739024 0.778512
O O4 0.014922 0.755954 0.895913
O O5 0.259358 0.240116 0.700566
O O6 0.157922 0.252204 0.745308
O O7 0.127925 0.237077 0.605422
O O8 0.179444 0.000000 0.687096
O O9 0.750000 0.250000 0.500000
O O10 0.657440 0.240709 0.366911
O O11 0.616144 0.244884 0.474318
O O12 0.676283 0.000000 0.447993
O O13 0.334388 0.500000 0.924446
O O14 0.253105 0.259749 0.875649
O O15 0.354359 0.263818 0.008482
O O16 0.335093 0.000000 0.704105
O O17 0.593764 0.500000 0.908958
O O18 0.620142 0.246204 0.855261
O O19 0.826716 0.500000 0.177180
O O20 0.500000 0.263499 0.500000
O O21 0.416391 0.500000 0.478176
#
# Coordination Sequence:
#
# PCOD9189747 Si02
#       8
#     8   8   8   8   8   8   8   8
#     4  11  22  38  61  88 117 153 197 242 291 346
#     4  10  19  38  62  84 118 158 192 233 294 351
#     4  11  21  37  61  88 118 153 195 241 289 342
#     4  10  22  40  61  86 117 153 195 242 291 349
#     4   9  19  36  59  86 117 153 191 238 291 344
#     4  11  24  41  59  83 120 159 192 237 299 351
#     4  11  23  39  61  90 118 149 199 247 285 342
#     4  10  22  40  61  88 122 157 195 238 288 348
#
# _framework density 19.077285
#
# number of rings (size 3 to 8) (size 9 to 14) (size 15 to 20)
#    0.000    1.625    2.500    2.250    0.000    4.750 
#    0.000    5.000    0.000    0.000    0.000    0.000 
#    0.000    0.000    0.000    0.000    0.000    0.000 
#
# Total GULP energy -178841.866851 kJ/mol
# GULP energy per Si atom -5588.808339 kJ/mol
# Density = 1.903386 g / cm^3
# Si number density = 19.077285 Si / 1000 Ang^3
#
#
#
# Elastic Constant Matrix: (Units=GPa)
#
#
# Indices 1 2 3 4 5 6 
#
# 1 55.8985 4.6200 -20.1020 0.0000 -12.8958 0.0000
# 2 4.6200 15.9089 6.7943 0.0000 -3.1745 0.0000
# 3 -20.1020 6.7943 61.7100 0.0000 -19.0302 0.0000
# 4 0.0000 0.0000 0.0000 22.4026 0.0000 -6.9351
# 5 -12.8958 -3.1745 -19.0302 0.0000 34.8569 0.0000
# 6 0.0000 0.0000 0.0000 -6.9351 0.0000 32.2467
#
#
#
# Elastic Compliance Matrix: (Units=1/GPa)
#
#
# Indices 1 2 3 4 5 6 
#
# 1 0.029160 -0.011807 0.016587 0.000000 0.018768 0.000000
# 2 -0.011807 0.070915 -0.013238 0.000000 -0.005137 0.000000
# 3 0.016587 -0.013238 0.029563 0.000000 0.021071 0.000000
# 4 0.000000 0.000000 0.000000 0.047822 0.000000 0.010285
# 5 0.018768 -0.005137 0.021071 0.000000 0.046668 0.000000
# 6 0.000000 0.000000 0.000000 0.010285 0.000000 0.033223
#
#
# Mechanical properties :
#
#
# Convention : Reuss Voigt Hill
#
# Bulk Modulus (GPa) = 8.87135 12.90464 10.88800
# Shear Modulus (GPa) = 16.03381 27.38158 21.70769
#
# Velocity S-wave (km/s) = 2.90222 3.79264 3.37691
# Velocity P-wave (km/s) = 3.98633 5.09489 4.57432
#
# Compressibility (1/GPa) = 0.11272241
#
# Stress axis : x y z
#
# Youngs Moduli (GPa) = 34.29350 14.10138 33.82576
#
# Poissons Ratio (x) = 0.16649 -0.56105
# Poissons Ratio (y) = 0.40489 0.44778
# Poissons Ratio (z) = -0.56881 0.18667
#
# Static dielectric constant tensor:
#      x y z
#    x 1.620470 0.000000 0.007660 
#    y 0.000000 1.650370 0.000000 
#    z 0.007660 0.000000 1.656200 
# 
# From -- ./inp_files/320096.got.cif
#   From: 2010.05.17/outbox.cif.g08.bks.cpg/sg12_161_cif.got.tgz:320096.got - 2010.06.03 13:09:07.
