data_PCOD9189271
_publ_section_title
;
Structure prediction by ZEFSAII (Michael W. Deem and Ramdas Pophale) SiO2 
 PCOD9189271
Probable space group: C 2/M
;
_chemical_formula_sum "Si O2"
_cell_formula_units_Z 64
_cell_length_a 20.363557
_cell_length_b 8.607923
_cell_length_c 20.228005
_cell_angle_alpha 90.000000
_cell_angle_beta 83.012329
_cell_angle_gamma 90.000000
_cell_volume 3519.388742
_symmetry_space_group_name_H-M "C 2/M"
_symmetry_group_IT_number 12
_symmetry_cell_setting 'monoclinic'
loop_
_space_group_symop_operation_xyz
x,y,z
-x,y,-z
-x,-y,-z
x,-y,z
1/2+x,1/2+y,z
1/2-x,1/2+y,-z
1/2-x,1/2-y,-z
1/2+x,1/2-y,z
loop_
_atom_site_type_symbol
_atom_site_label
_atom_site_fract_x
_atom_site_fract_y
_atom_site_fract_z
Si Si1 0.515173 0.810466 0.313020
Si Si2 0.793898 0.185529 0.053836
Si Si3 0.437894 0.187493 0.051073
Si Si4 0.059115 0.683021 0.545514
Si Si5 0.689339 0.683347 0.465337
Si Si6 0.924315 0.312655 0.204073
Si Si7 0.279540 0.687667 0.206635
Si Si8 0.665471 0.188161 0.321917
O O1 0.470774 0.764084 0.381134
O O2 0.477622 0.759987 0.251451
O O3 0.591029 0.759080 0.312538
O O4 0.516955 0.000000 0.312943
O O5 0.869180 0.240606 0.035884
O O6 0.772590 0.238242 0.130643
O O7 0.790614 0.000000 0.053510
O O8 0.750000 0.250000 0.000000
O O9 0.445786 0.229682 0.127141
O O10 0.432806 0.000000 0.047613
O O11 0.500000 0.237572 0.000000
O O12 0.077191 0.500000 0.548177
O O13 0.122056 0.775069 0.512173
O O14 0.000000 0.695003 0.500000
O O15 0.696788 0.500000 0.458029
O O16 0.750000 0.750000 0.500000
O O17 0.684243 0.755822 0.392768
O O18 0.920288 0.500000 0.208109
O O19 0.850632 0.246990 0.223219
O O20 0.280698 0.500000 0.206828
O O21 0.219712 0.738815 0.261197
O O22 0.664903 0.000000 0.322708
#
# Coordination Sequence:
#
# PCOD9189271 Si02
#       8
#     8   8   8   8   8   8   8   8
#     4   9  18  33  56  81 106 140 179 219 269 327
#     4  10  20  35  55  82 113 149 188 228 277 329
#     4   9  18  33  54  80 111 146 185 229 272 322
#     4  10  19  37  61  82 109 145 182 224 276 331
#     4  12  26  41  58  83 113 146 187 232 278 330
#     4   9  18  33  54  80 108 142 183 223 269 328
#     4   9  20  36  56  80 110 145 183 229 276 325
#     4  10  20  39  60  81 110 146 185 227 276 328
#
# _framework density 18.184975999999999
#
# number of rings (size 3 to 8) (size 9 to 14) (size 15 to 20)
#    0.000    2.250    1.250    1.500    1.750    2.500 
#    0.000    4.375    0.000    0.000    0.000    0.000 
#    0.000    0.000    0.000    0.000    0.000    0.000 
#
# Total GULP energy -178590.899491 kJ/mol
# GULP energy per Si atom -5580.965609 kJ/mol
# Density = 1.814359 g / cm^3
# Si number density = 18.184976 Si / 1000 Ang^3
#
#
#
# Elastic Constant Matrix: (Units=GPa)
#
#
# Indices 1 2 3 4 5 6 
#
# 1 149.7679 31.1015 122.9149 0.0000 -3.0726 0.0000
# 2 31.1015 19.1812 28.5661 0.0000 -0.5116 0.0000
# 3 122.9149 28.5661 149.7119 0.0000 3.9650 0.0000
# 4 0.0000 0.0000 0.0000 19.8433 0.0000 0.4131
# 5 -3.0726 -0.5116 3.9650 0.0000 40.0883 0.0000
# 6 0.0000 0.0000 0.0000 0.4131 0.0000 29.2435
#
#
#
# Elastic Compliance Matrix: (Units=1/GPa)
#
#
# Indices 1 2 3 4 5 6 
#
# 1 0.022831 -0.012420 -0.016460 0.000000 0.003219 0.000000
# 2 -0.012420 0.079801 -0.005044 0.000000 0.000565 0.000000
# 3 -0.016460 -0.005044 0.021246 0.000000 -0.003427 0.000000
# 4 0.000000 0.000000 0.000000 0.050410 0.000000 -0.000712
# 5 0.003219 0.000565 -0.003427 0.000000 0.025538 0.000000
# 6 0.000000 0.000000 0.000000 -0.000712 0.000000 0.034206
#
#
# Mechanical properties :
#
#
# Convention : Reuss Voigt Hill
#
# Bulk Modulus (GPa) = 17.84778 75.98065 46.91422
# Shear Modulus (GPa) = 15.59787 26.90692 21.25240
#
# Velocity S-wave (km/s) = 2.93189 3.85076 3.42230
# Velocity P-wave (km/s) = 4.61488 7.85137 6.43976
#
# Compressibility (1/GPa) = 0.05602938
#
# Stress axis : x y z
#
# Youngs Moduli (GPa) = 43.80044 12.53117 47.06690
#
# Poissons Ratio (x) = 0.15564 0.77471
# Poissons Ratio (y) = 0.54401 0.23743
# Poissons Ratio (z) = 0.72094 0.06321
#
# Static dielectric constant tensor:
#      x y z
#    x 1.590110 0.000000 0.002790 
#    y 0.000000 1.622630 0.000000 
#    z 0.002790 0.000000 1.603780 
# 
# From -- ./inp_files/314034.got.cif
#   From: 2010.05.17/outbox.cif.g08.bks.cpg/sg12_158_cif.got.tgz:314034.got - 2010.06.03 13:09:07.
