data_PCOD9189479
_publ_section_title
;
Structure prediction by ZEFSAII (Michael W. Deem and Ramdas Pophale) SiO2 
 PCOD9189479
Probable space group: C 2/M
;
_chemical_formula_sum "Si O2"
_cell_formula_units_Z 56
_cell_length_a 14.357457
_cell_length_b 25.168843
_cell_length_c 13.776225
_cell_angle_alpha 90.000000
_cell_angle_beta 30.845234
_cell_angle_gamma 90.000000
_cell_volume 2552.419021
_symmetry_space_group_name_H-M "C 2/M"
_symmetry_group_IT_number 12
_symmetry_cell_setting 'monoclinic'
loop_
_space_group_symop_operation_xyz
x,y,z
-x,y,-z
-x,-y,-z
x,-y,z
1/2+x,1/2+y,z
1/2-x,1/2+y,-z
1/2-x,1/2-y,-z
1/2+x,1/2-y,z
loop_
_atom_site_type_symbol
_atom_site_label
_atom_site_fract_x
_atom_site_fract_y
_atom_site_fract_z
Si Si1 0.409410 0.394824 0.475620
Si Si2 0.077505 0.339635 0.539081
Si Si3 0.637944 0.558407 0.108391
Si Si4 0.492438 0.224857 0.890017
Si Si5 0.996444 0.841430 0.886466
Si Si6 0.488679 0.887282 0.816307
Si Si7 0.082155 0.222789 0.534101
O O1 0.500000 0.400239 0.500000
O O2 0.493324 0.435304 0.324357
O O3 0.190769 0.397152 0.677145
O O4 0.460841 0.335538 0.388387
O O5 0.294262 0.342168 0.335016
O O6 0.014928 0.380076 0.677007
O O7 0.024344 0.280221 0.624525
O O8 0.000000 0.347027 0.500000
O O9 0.623877 0.500000 0.076627
O O10 0.601307 0.607166 0.068369
O O11 0.839387 0.568540 0.969749
O O12 0.416152 0.283048 0.931856
O O13 0.414961 0.169006 0.923740
O O14 0.700683 0.224836 0.667278
O O15 0.500000 0.222942 0.000000
O O16 0.000000 0.843800 0.000000
O O17 0.000000 0.222363 0.500000
#
# Coordination Sequence:
#
# PCOD9189479 Si02
#       7
#     8   8   8   8   8   8   8
#     4  10  23  44  68  94 128 171 215 271 328 384
#     4  10  19  37  63  99 140 169 206 260 328 400
#     4  12  28  45  65  93 128 175 232 275 317 382
#     4   9  20  34  61  99 135 166 207 261 327 399
#     4  10  21  42  66  97 135 171 215 269 329 394
#     4  11  24  40  67 100 133 171 215 269 331 391
#     4   8  17  31  58  92 131 164 200 250 318 394
#
# _framework density 21.939972000000001
#
# number of rings (size 3 to 8) (size 9 to 14) (size 15 to 20)
#    0.000    2.000    1.429    0.857    8.000    4.571 
#    0.000    0.714    0.000    1.714    0.000    0.000 
#    0.000    0.000    0.000    0.000    0.000    0.000 
#
# Total GULP energy -156432.952623 kJ/mol
# GULP energy per Si atom -5586.891165 kJ/mol
# Density = 2.189004 g / cm^3
# Si number density = 21.939972 Si / 1000 Ang^3
#
#
#
# Elastic Constant Matrix: (Units=GPa)
#
#
# Indices 1 2 3 4 5 6 
#
# 1 105.0603 28.9219 12.4739 0.0020 -6.6044 -0.0009
# 2 28.9219 103.4380 34.2184 -0.0006 -4.4126 0.0009
# 3 12.4739 34.2184 67.5618 0.0065 -14.3257 -0.0034
# 4 0.0020 -0.0006 0.0065 8.3719 -0.0026 6.0838
# 5 -6.6044 -4.4126 -14.3257 -0.0026 33.6231 0.0019
# 6 -0.0009 0.0009 -0.0034 6.0838 0.0019 1.1104
#
#
#
# Elastic Compliance Matrix: (Units=1/GPa)
#
#
# Indices 1 2 3 4 5 6 
#
# 1 0.010406 -0.002785 -0.000170 0.000002 0.001606 -0.000006
# 2 -0.002785 0.012394 -0.006084 -0.000009 -0.001513 0.000020
# 3 -0.000170 -0.006084 0.019499 0.000017 0.007476 -0.000042
# 4 0.000002 -0.000009 0.000017 -0.040063 -0.000009 0.219502
# 5 0.001606 -0.001513 0.007476 -0.000009 0.033044 0.000018
# 6 -0.000006 0.000020 -0.000042 0.219502 0.000018 -0.302057
#
#
# Mechanical properties :
#
#
# Convention : Reuss Voigt Hill
#
# Bulk Modulus (GPa) = 41.28544 47.47650 44.38097
# Shear Modulus (GPa) = -20.77930 21.98416 0.60243
#
# Velocity S-wave (km/s) = -3.08083 3.16889 0.52457
# Velocity P-wave (km/s) = 2.49057 5.92245 4.54304
#
# Compressibility (1/GPa) = 0.02422162
#
# Stress axis : x y z
#
# Youngs Moduli (GPa) = 96.09713 80.68166 51.28378
#
# Poissons Ratio (x) = 0.22468 0.00874
# Poissons Ratio (y) = 0.26761 0.31201
# Poissons Ratio (z) = 0.01637 0.49087
#
# Static dielectric constant tensor:
#      x y z
#    x 1.556320 0.000000 0.106430 
#    y 0.000000 1.811180 0.000000 
#    z 0.106430 0.000000 1.750360 
# 
# From -- ./inp_files/79145.got.cif
#   From: 2010.05.17/outbox.cif.g08.bks.cpg/sg12_40_cif.got.tgz:79145.got - 2010.06.03 13:09:07.
