data_PCOD9189638
_publ_section_title
;
Structure prediction by ZEFSAII (Michael W. Deem and Ramdas Pophale) SiO2 
 PCOD9189638
Probable space group: C 2/M
;
_chemical_formula_sum "Si O2"
_cell_formula_units_Z 60
_cell_length_a 20.754089
_cell_length_b 11.885104
_cell_length_c 23.681457
_cell_angle_alpha 90.000000
_cell_angle_beta 32.070885
_cell_angle_gamma 90.000000
_cell_volume 3101.583402
_symmetry_space_group_name_H-M "C 2/M"
_symmetry_group_IT_number 12
_symmetry_cell_setting 'monoclinic'
loop_
_space_group_symop_operation_xyz
x,y,z
-x,y,-z
-x,-y,-z
x,-y,z
1/2+x,1/2+y,z
1/2-x,1/2+y,-z
1/2-x,1/2-y,-z
1/2+x,1/2-y,z
loop_
_atom_site_type_symbol
_atom_site_label
_atom_site_fract_x
_atom_site_fract_y
_atom_site_fract_z
Si Si1 0.609134 0.126612 0.304576
Si Si2 0.500000 0.794525 0.500000
Si Si3 0.793163 0.703345 0.028509
Si Si4 0.791916 0.126341 0.618043
Si Si5 0.459522 0.294355 0.743519
Si Si6 0.022235 0.627450 0.800021
Si Si7 0.701202 0.623149 0.522399
Si Si8 0.870672 0.866978 0.070778
O O1 0.540269 0.137453 0.414861
O O2 0.557097 0.215510 0.298894
O O3 0.755041 0.146965 0.198498
O O4 0.594365 0.000000 0.293115
O O5 0.385711 0.715036 0.571895
O O6 0.911555 0.632121 0.926026
O O7 0.750000 0.750000 0.000000
O O8 0.671153 0.651496 0.145733
O O9 0.834515 0.800939 0.040903
O O10 0.651043 0.155949 0.732513
O O11 0.806482 0.123076 0.539513
O O12 0.815218 0.000000 0.622804
O O13 0.495520 0.213240 0.769052
O O14 0.569555 0.375798 0.648853
O O15 0.033300 0.500000 0.769529
O O16 0.760365 0.500000 0.494039
O O17 0.750000 0.750000 0.500000
O O18 0.881564 0.000000 0.050338
O O19 0.000000 0.829324 0.000000
#
# Coordination Sequence:
#
# PCOD9189638 Si02
#       8
#     8   4   8   8   8   8   8   8
#     4  10  21  35  55  86 119 153 197 247 305 362
#     4  12  22  36  56  82 116 154 198 248 300 350
#     4   9  20  34  57  86 117 150 199 249 301 357
#     4  10  22  38  57  79 110 152 198 239 293 362
#     4  10  19  38  58  86 117 157 190 245 302 364
#     4  10  20  36  60  84 113 152 198 246 298 360
#     4  11  22  39  61  88 117 153 201 249 300 358
#     4   9  19  37  59  82 114 160 201 246 308 376
#
# _framework density 19.344958999999999
#
# number of rings (size 3 to 8) (size 9 to 14) (size 15 to 20)
#    0.000    2.000    2.667    0.800    1.867    4.267 
#    0.000    2.000    0.000    0.400    0.000    0.000 
#    0.000    0.000    0.000    0.000    0.000    0.000 
#
# Total GULP energy -167157.823995 kJ/mol
# GULP energy per Si atom -5571.927466 kJ/mol
# Density = 1.930093 g / cm^3
# Si number density = 19.344959 Si / 1000 Ang^3
#
#
#
# Elastic Constant Matrix: (Units=GPa)
#
#
# Indices 1 2 3 4 5 6 
#
# 1 48.6336 23.5494 23.5258 0.0000 -8.7037 0.0000
# 2 23.5494 81.6587 31.5383 0.0001 -13.2268 0.0000
# 3 23.5258 31.5383 133.0926 0.0001 -11.8740 -0.0001
# 4 0.0000 0.0001 0.0001 32.0851 0.0000 12.0586
# 5 -8.7037 -13.2268 -11.8740 0.0000 32.0467 0.0000
# 6 0.0000 0.0000 -0.0001 12.0586 0.0000 44.0240
#
#
#
# Elastic Compliance Matrix: (Units=1/GPa)
#
#
# Indices 1 2 3 4 5 6 
#
# 1 0.025281 -0.005635 -0.002822 0.000000 0.003495 0.000000
# 2 -0.005635 0.015403 -0.002299 0.000000 0.003975 0.000000
# 3 -0.002822 -0.002299 0.008691 0.000000 0.001505 0.000000
# 4 0.000000 0.000000 0.000000 0.034744 0.000000 -0.009517
# 5 0.003495 0.003975 0.001505 0.000000 0.034352 0.000000
# 6 0.000000 0.000000 0.000000 -0.009517 0.000000 0.025322
#
#
# Mechanical properties :
#
#
# Convention : Reuss Voigt Hill
#
# Bulk Modulus (GPa) = 35.88895 46.73466 41.31181
# Shear Modulus (GPa) = 28.63819 33.94925 31.29372
#
# Velocity S-wave (km/s) = 3.85176 4.19375 4.02639
# Velocity P-wave (km/s) = 6.19466 6.90370 6.55877
#
# Compressibility (1/GPa) = 0.02786373
#
# Stress axis : x y z
#
# Youngs Moduli (GPa) = 39.55568 64.92232 115.05546
#
# Poissons Ratio (x) = 0.36583 0.32465
# Poissons Ratio (y) = 0.22289 0.26455
# Poissons Ratio (z) = 0.11161 0.14928
#
# Static dielectric constant tensor:
#      x y z
#    x 1.647240 0.000000 -0.029880 
#    y 0.000000 1.684560 0.000000 
#    z -0.029880 0.000000 1.721600 
# 
# From -- ./inp_files/347138.got.cif
#   From: 2010.05.17/outbox.cif.g08.bks.cpg/sg12_174_cif.got.tgz:347138.got - 2010.06.03 13:09:07.
