data_PCOD9189379
_publ_section_title
;
Structure prediction by ZEFSAII (Michael W. Deem and Ramdas Pophale) SiO2 
 PCOD9189379
Probable space group: C 2/M
;
_chemical_formula_sum "Si O2"
_cell_formula_units_Z 50
_cell_length_a 24.640905
_cell_length_b 7.546268
_cell_length_c 15.230634
_cell_angle_alpha 90.000000
_cell_angle_beta 127.649520
_cell_angle_gamma 90.000000
_cell_volume 2242.340284
_symmetry_space_group_name_H-M "C 2/M"
_symmetry_group_IT_number 12
_symmetry_cell_setting 'monoclinic'
loop_
_space_group_symop_operation_xyz
x,y,z
-x,y,-z
-x,-y,-z
x,-y,z
1/2+x,1/2+y,z
1/2-x,1/2+y,-z
1/2-x,1/2-y,-z
1/2+x,1/2-y,z
loop_
_atom_site_type_symbol
_atom_site_label
_atom_site_fract_x
_atom_site_fract_y
_atom_site_fract_z
Si Si1 0.500000 0.500000 0.000000
Si Si2 0.924998 0.204127 0.689994
Si Si3 0.425951 0.703667 0.403440
Si Si4 0.598207 0.786198 0.005990
Si Si5 0.319173 0.283392 0.438868
Si Si6 0.668752 0.211025 0.250548
Si Si7 0.077162 0.300103 0.795962
O O1 0.538675 0.656545 0.979671
O O2 0.863834 0.271252 0.567010
O O3 0.894658 0.211079 0.757677
O O4 0.996580 0.297674 0.743186
O O5 0.938154 0.000000 0.679494
O O6 0.500000 0.786277 0.500000
O O7 0.430504 0.500000 0.438438
O O8 0.363024 0.776091 0.397753
O O9 0.415014 0.704947 0.288817
O O10 0.614501 0.738792 0.921371
O O11 0.581212 0.000000 0.991226
O O12 0.657819 0.757708 0.136644
O O13 0.314319 0.500000 0.435438
O O14 0.241219 0.219774 0.357189
O O15 0.665462 0.000000 0.261233
O O16 0.098786 0.500000 0.799621
#
# Coordination Sequence:
#
# PCOD9189379 Si02
#       7
#     2   8   8   8   8   8   8
#     4  12  22  36  68  86 122 164 204 244 304 350
#     4  11  21  34  57  88 117 150 196 242 291 361
#     4  10  19  37  62  87 114 148 197 252 296 352
#     4  10  24  40  57  89 125 160 204 251 296 359
#     4   9  19  37  59  84 115 157 195 240 301 357
#     4  10  21  39  58  80 121 162 194 235 299 362
#     4  11  23  38  57  85 122 154 194 247 308 354
#
# _framework density 22.298131999999999
#
# number of rings (size 3 to 8) (size 9 to 14) (size 15 to 20)
#    0.000    1.760    1.600    2.640    5.600    2.880 
#    0.000    2.400    0.000    0.000    0.000    0.000 
#    0.000    0.000    0.000    0.000    0.000    0.000 
#
# Total GULP energy -139371.652835 kJ/mol
# GULP energy per Si atom -5574.866113 kJ/mol
# Density = 2.224738 g / cm^3
# Si number density = 22.298132 Si / 1000 Ang^3
#
#
#
# Elastic Constant Matrix: (Units=GPa)
#
#
# Indices 1 2 3 4 5 6 
#
# 1 46.6922 -13.5428 4.2642 0.0000 -10.6135 0.0000
# 2 -13.5428 59.0030 -2.2976 0.0000 -1.7315 0.0000
# 3 4.2642 -2.2976 100.4330 0.0000 -17.6880 0.0000
# 4 0.0000 0.0000 0.0000 11.7336 0.0000 -9.1264
# 5 -10.6135 -1.7315 -17.6880 0.0000 32.5065 0.0000
# 6 0.0000 0.0000 0.0000 -9.1264 0.0000 15.9497
#
#
#
# Elastic Compliance Matrix: (Units=1/GPa)
#
#
# Indices 1 2 3 4 5 6 
#
# 1 0.025132 0.006053 0.000634 0.000000 0.008873 0.000000
# 2 0.006053 0.018466 0.000760 0.000000 0.003373 0.000000
# 3 0.000634 0.000760 0.011050 0.000000 0.006260 0.000000
# 4 0.000000 0.000000 0.000000 0.153577 0.000000 0.087877
# 5 0.008873 0.003373 0.006260 0.000000 0.037246 0.000000
# 6 0.000000 0.000000 0.000000 0.087877 0.000000 0.112981
#
#
# Mechanical properties :
#
#
# Convention : Reuss Voigt Hill
#
# Bulk Modulus (GPa) = 14.37978 20.33067 17.35522
# Shear Modulus (GPa) = 13.63370 26.55158 20.09264
#
# Velocity S-wave (km/s) = 2.47539 3.45447 3.00507
# Velocity P-wave (km/s) = 3.82530 5.00486 4.45430
#
# Compressibility (1/GPa) = 0.06954212
#
# Stress axis : x y z
#
# Youngs Moduli (GPa) = 39.79053 54.15266 90.49887
#
# Poissons Ratio (x) = -0.32781 -0.05739
# Poissons Ratio (y) = -0.24087 -0.06874
# Poissons Ratio (z) = -0.02523 -0.04113
#
# Static dielectric constant tensor:
#      x y z
#    x 1.780710 0.000000 0.004230 
#    y 0.000000 1.840760 0.000000 
#    z 0.004230 0.000000 1.882470 
# 
# From -- ./inp_files/244370.got.cif
#   From: 2010.05.17/outbox.cif.g08.bks.cpg/sg12_123_cif.got.tgz:244370.got - 2010.06.03 13:09:07.
