data_PCOD9189383
_publ_section_title
;
Structure prediction by ZEFSAII (Michael W. Deem and Ramdas Pophale) SiO2 
 PCOD9189383
Probable space group: C 2/M
;
_chemical_formula_sum "Si O2"
_cell_formula_units_Z 64
_cell_length_a 20.093554
_cell_length_b 8.603207
_cell_length_c 23.782037
_cell_angle_alpha 90.000000
_cell_angle_beta 121.842182
_cell_angle_gamma 90.000000
_cell_volume 3492.463454
_symmetry_space_group_name_H-M "C 2/M"
_symmetry_group_IT_number 12
_symmetry_cell_setting 'monoclinic'
loop_
_space_group_symop_operation_xyz
x,y,z
-x,y,-z
-x,-y,-z
x,-y,z
1/2+x,1/2+y,z
1/2-x,1/2+y,-z
1/2-x,1/2-y,-z
1/2+x,1/2-y,z
loop_
_atom_site_type_symbol
_atom_site_label
_atom_site_fract_x
_atom_site_fract_y
_atom_site_fract_z
Si Si1 0.243448 0.186622 0.320358
Si Si2 0.710088 0.317190 0.537906
Si Si3 0.075816 0.688707 0.797106
Si Si4 0.922121 0.313201 0.795714
Si Si5 0.834901 0.686645 0.052232
Si Si6 0.105323 0.310161 0.684237
Si Si7 0.485696 0.313379 0.058085
Si Si8 0.960401 0.318890 0.543487
O O1 0.257658 0.240747 0.390519
O O2 0.161965 0.249843 0.259807
O O3 0.317343 0.239980 0.315106
O O4 0.242015 0.000000 0.318572
O O5 0.723945 0.500000 0.547239
O O6 0.750000 0.250000 0.500000
O O7 0.618106 0.279336 0.492343
O O8 0.074582 0.500000 0.794483
O O9 0.137503 0.733278 0.872743
O O10 0.099342 0.743703 0.745851
O O11 0.990019 0.736394 0.781494
O O12 0.920570 0.500000 0.795853
O O13 0.951509 0.253822 0.869547
O O14 0.835833 0.500000 0.049612
O O15 0.901316 0.753133 0.040765
O O16 0.750000 0.750000 0.000000
O O17 0.106644 0.500000 0.684379
O O18 0.026291 0.264801 0.616491
O O19 0.487983 0.500000 0.062394
O O20 0.500000 0.266721 0.000000
O O21 0.940164 0.500000 0.546769
O O22 0.000000 0.315566 0.500000
#
# Coordination Sequence:
#
# PCOD9189383 Si02
#       8
#     8   8   8   8   8   8   8   8
#     4  11  22  39  60  86 118 154 196 240 288 346
#     4  12  26  42  60  85 117 153 197 248 298 351
#     4   8  17  34  55  81 110 147 191 229 277 342
#     4  10  21  37  58  86 119 155 194 243 296 346
#     4  10  20  35  57  85 119 153 192 241 293 351
#     4   9  18  34  58  83 112 150 189 229 281 344
#     4  10  21  38  60  85 114 155 204 249 296 350
#     4  10  19  37  62  87 115 150 190 235 291 350
#
# _framework density 18.325172999999999
#
# number of rings (size 3 to 8) (size 9 to 14) (size 15 to 20)
#    0.000    2.000    1.250    3.375    1.750    2.250 
#    0.000    2.500    0.000    9.000    0.000    0.000 
#    0.000    0.000    0.000    0.000    0.000    0.000 
#
# Total GULP energy -178672.814683 kJ/mol
# GULP energy per Si atom -5583.525459 kJ/mol
# Density = 1.828346 g / cm^3
# Si number density = 18.325173 Si / 1000 Ang^3
#
#
#
# Elastic Constant Matrix: (Units=GPa)
#
#
# Indices 1 2 3 4 5 6 
#
# 1 117.3890 37.0869 116.4494 0.0000 -6.8720 0.0000
# 2 37.0869 56.7084 42.2158 0.0000 -0.8435 0.0000
# 3 116.4494 42.2158 178.1808 0.0000 -0.7639 0.0000
# 4 0.0000 0.0000 0.0000 30.7133 0.0000 5.1019
# 5 -6.8720 -0.8435 -0.7639 0.0000 40.4573 0.0000
# 6 0.0000 0.0000 0.0000 5.1019 0.0000 26.6213
#
#
#
# Elastic Compliance Matrix: (Units=1/GPa)
#
#
# Indices 1 2 3 4 5 6 
#
# 1 0.026048 -0.005239 -0.015765 0.000000 0.004018 0.000000
# 2 -0.005239 0.022469 -0.001901 0.000000 -0.000457 0.000000
# 3 -0.015765 -0.001901 0.016356 0.000000 -0.002409 0.000000
# 4 0.000000 0.000000 0.000000 0.033630 0.000000 -0.006445
# 5 0.004018 -0.000457 -0.002409 0.000000 0.025345 0.000000
# 6 0.000000 0.000000 0.000000 -0.006445 0.000000 0.038799
#
#
# Mechanical properties :
#
#
# Convention : Reuss Voigt Hill
#
# Bulk Modulus (GPa) = 52.46220 82.64250 67.55235
# Shear Modulus (GPa) = 23.27621 29.99344 26.63483
#
# Velocity S-wave (km/s) = 3.56782 4.05005 3.81656
# Velocity P-wave (km/s) = 6.75745 8.18940 7.50764
#
# Compressibility (1/GPa) = 0.01906134
#
# Stress axis : x y z
#
# Youngs Moduli (GPa) = 38.39077 44.50527 61.14134
#
# Poissons Ratio (x) = 0.23318 0.96389
# Poissons Ratio (y) = 0.20115 0.11625
# Poissons Ratio (z) = 0.60523 0.08462
#
# Static dielectric constant tensor:
#      x y z
#    x 1.610280 0.000000 -0.012260 
#    y 0.000000 1.629840 0.000000 
#    z -0.012260 0.000000 1.611040 
# 
# From -- ./inp_files/346177.got.cif
#   From: 2010.05.17/outbox.cif.g08.bks.cpg/sg12_174_cif.got.tgz:346177.got - 2010.06.03 13:09:07.
