data_PCOD9189294
_publ_section_title
;
Structure prediction by ZEFSAII (Michael W. Deem and Ramdas Pophale) SiO2 
 PCOD9189294
Probable space group: C 2/M
;
_chemical_formula_sum "Si O2"
_cell_formula_units_Z 64
_cell_length_a 19.656660
_cell_length_b 11.517797
_cell_length_c 17.625892
_cell_angle_alpha 90.000000
_cell_angle_beta 47.571816
_cell_angle_gamma 90.000000
_cell_volume 2945.501972
_symmetry_space_group_name_H-M "C 2/M"
_symmetry_group_IT_number 12
_symmetry_cell_setting 'monoclinic'
loop_
_space_group_symop_operation_xyz
x,y,z
-x,y,-z
-x,-y,-z
x,-y,z
1/2+x,1/2+y,z
1/2-x,1/2+y,-z
1/2-x,1/2-y,-z
1/2+x,1/2-y,z
loop_
_atom_site_type_symbol
_atom_site_label
_atom_site_fract_x
_atom_site_fract_y
_atom_site_fract_z
Si Si1 0.121919 0.862995 0.362116
Si Si2 0.815366 0.637855 0.428701
Si Si3 0.932089 0.779357 0.441881
Si Si4 0.170564 0.309100 0.110734
Si Si5 0.221071 0.770459 0.834145
Si Si6 0.605405 0.753086 0.783766
Si Si7 0.486157 0.624790 0.758966
Si Si8 0.425961 0.874036 0.964478
O O1 0.132299 0.826400 0.442376
O O2 0.210015 0.830998 0.246227
O O3 0.035144 0.787308 0.398333
O O4 0.100124 0.000000 0.373851
O O5 0.787615 0.500000 0.452801
O O6 0.750000 0.750000 0.500000
O O7 0.897276 0.661096 0.429128
O O8 0.850492 0.670825 0.317612
O O9 0.941569 0.866275 0.363880
O O10 0.220494 0.349457 0.150877
O O11 0.094643 0.215480 0.192414
O O12 0.112536 0.380844 0.093138
O O13 0.250000 0.250000 0.000000
O O14 0.176109 0.807432 0.788298
O O15 0.137386 0.718899 0.945785
O O16 0.542026 0.657085 0.791444
O O17 0.531742 0.834782 0.881946
O O18 0.442595 0.500000 0.795890
O O19 0.414025 0.000000 0.008466
#
# Coordination Sequence:
#
# PCOD9189294 Si02
#       8
#     8   8   8   8   8   8   8   8
#     4  11  21  34  58  96 133 166 216 274 329 381
#     4  11  25  44  67  95 131 175 221 268 325 395
#     4  10  21  37  59  90 127 166 207 265 323 380
#     4   9  20  35  54  81 114 149 196 255 310 370
#     4  11  21  36  58  88 127 159 209 267 324 377
#     4  10  23  39  60  92 127 164 205 266 325 381
#     4  10  19  37  61  85 118 166 213 251 311 391
#     4  10  21  38  60  84 115 163 208 254 320 388
#
# _framework density 21.728045000000002
#
# number of rings (size 3 to 8) (size 9 to 14) (size 15 to 20)
#    0.000    1.750    1.250    3.375    0.000    8.500 
#    0.000    1.875    0.000   11.250    0.000    0.000 
#    0.000    0.000    0.000    0.000    0.000    0.000 
#
# Total GULP energy -178204.052738 kJ/mol
# GULP energy per Si atom -5568.876648 kJ/mol
# Density = 2.167859 g / cm^3
# Si number density = 21.728045 Si / 1000 Ang^3
#
#
#
# Elastic Constant Matrix: (Units=GPa)
#
#
# Indices 1 2 3 4 5 6 
#
# 1 140.2735 5.7861 19.3158 0.0000 19.6296 0.0000
# 2 5.7861 63.1288 22.2125 0.0000 -2.2851 0.0000
# 3 19.3158 22.2125 97.4182 0.0000 -1.9427 0.0000
# 4 0.0000 0.0000 0.0000 5.5381 0.0000 -0.5458
# 5 19.6296 -2.2851 -1.9427 0.0000 37.3510 0.0000
# 6 0.0000 0.0000 0.0000 -0.5458 0.0000 -8.0982
#
#
#
# Elastic Compliance Matrix: (Units=1/GPa)
#
#
# Indices 1 2 3 4 5 6 
#
# 1 0.007961 -0.000325 -0.001590 0.000000 -0.004287 0.000000
# 2 -0.000325 0.017263 -0.003851 0.000000 0.001027 0.000000
# 3 -0.001590 -0.003851 0.011482 0.000000 0.001197 0.000000
# 4 0.000000 0.000000 0.000000 0.179375 0.000000 -0.012089
# 5 -0.004287 0.001027 0.001197 0.000000 0.029151 0.000000
# 6 0.000000 0.000000 0.000000 -0.012089 0.000000 -0.122670
#
#
# Mechanical properties :
#
#
# Convention : Reuss Voigt Hill
#
# Bulk Modulus (GPa) = 39.72456 43.93882 41.83169
# Shear Modulus (GPa) = 35.09113 23.85860 29.47487
#
# Velocity S-wave (km/s) = 4.02309 3.31729 3.68711
# Velocity P-wave (km/s) = 6.31685 5.91089 6.11724
#
# Compressibility (1/GPa) = 0.02517334
#
# Stress axis : x y z
#
# Youngs Moduli (GPa) = 125.61055 57.92848 87.09131
#
# Poissons Ratio (x) = 0.01885 0.13846
# Poissons Ratio (y) = 0.04088 0.33540
# Poissons Ratio (z) = 0.19969 0.22309
#
# Static dielectric constant tensor:
#      x y z
#    x 1.933220 0.000000 -0.035040 
#    y 0.000000 1.774300 0.000000 
#    z -0.035040 0.000000 1.933640 
# 
# From -- ./inp_files/283273.got.cif
#   From: 2010.05.17/outbox.cif.g08.bks.cpg/sg12_142_cif.got.tgz:283273.got - 2010.06.03 13:09:07.
