data_PCOD9189722
_publ_section_title
;
Structure prediction by ZEFSAII (Michael W. Deem and Ramdas Pophale) SiO2 
 PCOD9189722
Probable space group: C 2/M
;
_chemical_formula_sum "Si O2"
_cell_formula_units_Z 36
_cell_length_a 17.608405
_cell_length_b 14.092316
_cell_length_c 11.712544
_cell_angle_alpha 90.000000
_cell_angle_beta 37.904995
_cell_angle_gamma 90.000000
_cell_volume 1785.551208
_symmetry_space_group_name_H-M "C 2/M"
_symmetry_group_IT_number 12
_symmetry_cell_setting 'monoclinic'
loop_
_space_group_symop_operation_xyz
x,y,z
-x,y,-z
-x,-y,-z
x,-y,z
1/2+x,1/2+y,z
1/2-x,1/2+y,-z
1/2-x,1/2-y,-z
1/2+x,1/2-y,z
loop_
_atom_site_type_symbol
_atom_site_label
_atom_site_fract_x
_atom_site_fract_y
_atom_site_fract_z
Si Si1 0.228535 0.264736 0.333174
Si Si2 0.877649 0.276031 0.789697
Si Si3 0.500000 0.214575 0.000000
Si Si4 0.444814 0.394307 0.437188
Si Si5 0.068562 0.389798 0.685657
O O1 0.149954 0.285491 0.311838
O O2 0.373214 0.273213 0.136637
O O3 0.189787 0.154663 0.402821
O O4 0.178536 0.330264 0.494482
O O5 0.967530 0.187817 0.716201
O O6 0.947314 0.368246 0.752393
O O7 0.750000 0.250000 0.000000
O O8 0.471132 0.151578 0.145091
O O9 0.500000 0.402638 0.500000
O O10 0.446128 0.500000 0.385645
O O11 0.098152 0.500000 0.655679
#
# Coordination Sequence:
#
# PCOD9189722 Si02
#       5
#     8   8   4   8   8
#     4  10  22  40  64  88 126 163 207 258 314 369
#     4  10  19  38  61  90 122 161 210 259 307 370
#     4  12  23  42  65  88 128 172 209 256 307 378
#     4   8  16  31  54  83 113 148 193 251 303 348
#     4  11  24  41  65  95 126 164 210 261 315 370
#
# _framework density 20.161842
#
# number of rings (size 3 to 8) (size 9 to 14) (size 15 to 20)
#    0.000    2.000    2.222    3.000    0.000    4.444 
#    0.000    0.556    0.000    0.000    0.000    0.000 
#    0.000    0.000    0.000    0.000    0.000    0.000 
#
# Total GULP energy -100381.343740 kJ/mol
# GULP energy per Si atom -5576.741319 kJ/mol
# Density = 2.011595 g / cm^3
# Si number density = 20.161842 Si / 1000 Ang^3
#
#
#
# Elastic Constant Matrix: (Units=GPa)
#
#
# Indices 1 2 3 4 5 6 
#
# 1 86.8657 25.3097 43.1573 0.0000 0.2924 0.0000
# 2 25.3097 71.1384 37.9637 0.0000 15.8830 0.0000
# 3 43.1573 37.9637 135.8997 0.0000 -7.1547 0.0000
# 4 0.0000 0.0000 0.0000 10.0297 0.0000 -1.0074
# 5 0.2924 15.8830 -7.1547 0.0000 46.4782 0.0000
# 6 0.0000 0.0000 0.0000 -1.0074 0.0000 4.6334
#
#
#
# Elastic Compliance Matrix: (Units=1/GPa)
#
#
# Indices 1 2 3 4 5 6 
#
# 1 0.014242 -0.003258 -0.003588 0.000000 0.000471 0.000000
# 2 -0.003258 0.019403 -0.004772 0.000000 -0.007345 0.000000
# 3 -0.003588 -0.004772 0.009999 0.000000 0.003193 0.000000
# 4 0.000000 0.000000 0.000000 0.101930 0.000000 0.022161
# 5 0.000471 -0.007345 0.003193 0.000000 0.024514 0.000000
# 6 0.000000 0.000000 0.000000 0.022161 0.000000 0.220641
#
#
# Mechanical properties :
#
#
# Convention : Reuss Voigt Hill
#
# Bulk Modulus (GPa) = 49.00012 56.30726 52.65369
# Shear Modulus (GPa) = 11.88304 24.72647 18.30475
#
# Velocity S-wave (km/s) = 2.43035 3.50580 3.01639
# Velocity P-wave (km/s) = 5.67729 6.66151 6.18900
#
# Compressibility (1/GPa) = 0.02040811
#
# Stress axis : x y z
#
# Youngs Moduli (GPa) = 70.21377 51.53921 100.00932
#
# Poissons Ratio (x) = 0.16789 0.35884
# Poissons Ratio (y) = 0.22872 0.47728
# Poissons Ratio (z) = 0.25193 0.24596
#
# Static dielectric constant tensor:
#      x y z
#    x 1.792300 0.000000 -0.016420 
#    y 0.000000 1.703010 0.000000 
#    z -0.016420 0.000000 1.742300 
# 
# From -- ./inp_files/155039.got.cif
#   From: 2010.05.17/outbox.cif.g08.bks.cpg/sg12_78_cif.got.tgz:155039.got - 2010.06.03 13:09:07.
