data_PCOD9189151
_publ_section_title
;
Structure prediction by ZEFSAII (Michael W. Deem and Ramdas Pophale) SiO2 
 PCOD9189151
Probable space group: C 2/M
;
_chemical_formula_sum "Si O2"
_cell_formula_units_Z 56
_cell_length_a 18.382921
_cell_length_b 14.180992
_cell_length_c 15.325926
_cell_angle_alpha 90.000000
_cell_angle_beta 132.663444
_cell_angle_gamma 90.000000
_cell_volume 2937.921970
_symmetry_space_group_name_H-M "C 2/M"
_symmetry_group_IT_number 12
_symmetry_cell_setting 'monoclinic'
loop_
_space_group_symop_operation_xyz
x,y,z
-x,y,-z
-x,-y,-z
x,-y,z
1/2+x,1/2+y,z
1/2-x,1/2+y,-z
1/2-x,1/2-y,-z
1/2+x,1/2-y,z
loop_
_atom_site_type_symbol
_atom_site_label
_atom_site_fract_x
_atom_site_fract_y
_atom_site_fract_z
Si Si1 0.450235 0.105471 0.053659
Si Si2 0.339264 0.710718 0.015257
Si Si3 0.811457 0.393863 0.217862
Si Si4 0.022177 0.605647 0.299012
Si Si5 0.387965 0.282105 0.377078
Si Si6 0.539875 0.388154 0.735617
Si Si7 0.648802 0.279223 0.464404
O O1 0.524988 0.117142 0.196603
O O2 0.403998 0.000000 0.029454
O O3 0.500000 0.104147 0.000000
O O4 0.381754 0.197193 0.002175
O O5 0.416032 0.662914 0.143633
O O6 0.250000 0.750000 0.000000
O O7 0.289744 0.634660 0.911418
O O8 0.808542 0.500000 0.249386
O O9 0.836600 0.314331 0.307700
O O10 0.905501 0.387684 0.228246
O O11 0.055262 0.500000 0.348942
O O12 0.081424 0.684660 0.399122
O O13 0.500000 0.265805 0.500000
O O14 0.401817 0.348227 0.303164
O O15 0.333912 0.312926 0.421914
O O16 0.551281 0.500000 0.748910
O O17 0.424741 0.357998 0.634874
O O18 0.750000 0.250000 0.500000
#
# Coordination Sequence:
#
# PCOD9189151 Si02
#       7
#     8   8   8   8   8   8   8
#     4  10  21  37  62  91 123 160 198 245 303 363
#     4  12  20  39  63  91 127 161 201 252 311 366
#     4  11  21  36  62  93 120 155 207 255 302 365
#     4  10  19  37  58  85 119 152 197 249 301 357
#     4  10  20  39  60  90 117 158 204 258 309 354
#     4  11  23  42  64  91 125 164 206 258 318 372
#     4  11  23  40  62  85 120 162 203 249 309 366
#
# _framework density 19.061091999999999
#
# number of rings (size 3 to 8) (size 9 to 14) (size 15 to 20)
#    0.000    1.286    7.143    0.429    0.000    5.714 
#    0.000    0.000    0.000    0.857    0.000    0.000 
#    0.000    0.000    0.000    0.000    0.000    0.000 
#
# Total GULP energy -156081.265740 kJ/mol
# GULP energy per Si atom -5574.330919 kJ/mol
# Density = 1.901771 g / cm^3
# Si number density = 19.061092 Si / 1000 Ang^3
#
#
#
# Elastic Constant Matrix: (Units=GPa)
#
#
# Indices 1 2 3 4 5 6 
#
# 1 72.2179 24.6066 14.7724 0.0000 1.4351 0.0000
# 2 24.6066 132.2210 28.6471 0.0000 9.1455 0.0000
# 3 14.7724 28.6471 45.9698 0.0000 -3.3132 0.0000
# 4 0.0000 0.0000 0.0000 14.9342 0.0000 5.6952
# 5 1.4351 9.1455 -3.3132 0.0000 15.8006 0.0000
# 6 0.0000 0.0000 0.0000 5.6952 0.0000 10.6849
#
#
#
# Elastic Compliance Matrix: (Units=1/GPa)
#
#
# Indices 1 2 3 4 5 6 
#
# 1 0.015307 -0.001959 -0.003774 0.000000 -0.001048 0.000000
# 2 -0.001959 0.009659 -0.005868 0.000000 -0.006643 0.000000
# 3 -0.003774 -0.005868 0.027305 0.000000 0.009465 0.000000
# 4 0.000000 0.000000 0.000000 0.084044 0.000000 -0.044797
# 5 -0.001048 -0.006643 0.009465 0.000000 0.069214 0.000000
# 6 0.000000 0.000000 0.000000 -0.044797 0.000000 0.117468
#
#
# Mechanical properties :
#
#
# Convention : Reuss Voigt Hill
#
# Bulk Modulus (GPa) = 34.40052 42.94007 38.67030
# Shear Modulus (GPa) = 14.04936 20.44277 17.24607
#
# Velocity S-wave (km/s) = 2.71785 3.27844 3.01122
# Velocity P-wave (km/s) = 5.28542 6.07514 5.69399
#
# Compressibility (1/GPa) = 0.02906933
#
# Stress axis : x y z
#
# Youngs Moduli (GPa) = 65.32910 103.53562 36.62284
#
# Poissons Ratio (x) = 0.20278 0.13821
# Poissons Ratio (y) = 0.12795 0.21492
# Poissons Ratio (z) = 0.24655 0.60758
#
# Static dielectric constant tensor:
#      x y z
#    x 1.690460 0.000000 -0.024650 
#    y 0.000000 1.678640 0.000000 
#    z -0.024650 0.000000 1.695220 
# 
# From -- ./inp_files/225399.got.cif
#   From: 2010.05.17/outbox.cif.g08.bks.cpg/sg12_113_cif.got.tgz:225399.got - 2010.06.03 13:09:07.
