data_PCOD9189291
_publ_section_title
;
Structure prediction by ZEFSAII (Michael W. Deem and Ramdas Pophale) SiO2 
 PCOD9189291
Probable space group: C 2/M
;
_chemical_formula_sum "Si O2"
_cell_formula_units_Z 64
_cell_length_a 9.699157
_cell_length_b 26.874552
_cell_length_c 14.309106
_cell_angle_alpha 90.000000
_cell_angle_beta 63.739463
_cell_angle_gamma 90.000000
_cell_volume 3344.869297
_symmetry_space_group_name_H-M "C 2/M"
_symmetry_group_IT_number 12
_symmetry_cell_setting 'monoclinic'
loop_
_space_group_symop_operation_xyz
x,y,z
-x,y,-z
-x,-y,-z
x,-y,z
1/2+x,1/2+y,z
1/2-x,1/2+y,-z
1/2-x,1/2-y,-z
1/2+x,1/2-y,z
loop_
_atom_site_type_symbol
_atom_site_label
_atom_site_fract_x
_atom_site_fract_y
_atom_site_fract_z
Si Si1 0.673789 0.354171 0.970423
Si Si2 0.330897 0.943796 0.007913
Si Si3 0.152980 0.918553 0.246861
Si Si4 0.772989 0.785683 0.223957
Si Si5 0.817876 0.054852 0.400997
Si Si6 0.098189 0.368778 0.376650
Si Si7 0.611891 0.691380 0.189373
Si Si8 0.133456 0.442303 0.646848
O O1 0.715693 0.317862 0.874135
O O2 0.500000 0.371802 0.000000
O O3 0.784310 0.401276 0.949237
O O4 0.673606 0.323518 0.067624
O O5 0.208797 0.938690 0.129691
O O6 0.327468 0.000000 0.971545
O O7 0.500000 0.934754 0.000000
O O8 0.116482 0.860268 0.244319
O O9 0.287377 0.929249 0.279650
O O10 0.999444 0.943199 0.333091
O O11 0.651513 0.815997 0.322385
O O12 0.715278 0.731626 0.211323
O O13 0.939602 0.787886 0.223713
O O14 0.744859 0.097821 0.359994
O O15 0.758495 0.061932 0.524849
O O16 0.759887 0.000000 0.389620
O O17 0.000000 0.362917 0.500000
O O18 0.997876 0.402637 0.337348
O O19 0.081166 0.500000 0.662941
#
# Coordination Sequence:
#
# PCOD9189291 Si02
#       8
#     8   8   8   8   8   8   8   8
#     4   9  21  40  61  88 114 146 196 244 288 345
#     4  10  22  37  54  83 126 161 189 231 285 347
#     4  11  21  38  57  88 118 154 195 242 289 349
#     4  11  22  41  62  85 113 154 196 247 292 350
#     4  10  19  37  61  85 117 154 194 244 291 342
#     4  10  22  39  58  86 123 153 193 241 293 349
#     4  10  23  39  63  87 115 147 197 244 300 340
#     4  10  21  35  59  90 117 154 199 238 287 349
#
# _framework density 19.133783000000001
#
# number of rings (size 3 to 8) (size 9 to 14) (size 15 to 20)
#    0.000    1.875    1.250    2.250    3.500    3.750 
#    0.000    3.125    0.000    0.000    0.000    0.000 
#    0.000    0.000    0.000    0.000    0.000    0.000 
#
# Total GULP energy -178710.298016 kJ/mol
# GULP energy per Si atom -5584.696813 kJ/mol
# Density = 1.909023 g / cm^3
# Si number density = 19.133783 Si / 1000 Ang^3
#
#
#
# Elastic Constant Matrix: (Units=GPa)
#
#
# Indices 1 2 3 4 5 6 
#
# 1 41.0411 31.0018 -0.4655 0.0000 -3.6567 0.0000
# 2 31.0018 109.3387 0.2012 0.0000 -1.8149 0.0000
# 3 -0.4655 0.2012 16.1839 0.0000 0.0884 0.0000
# 4 0.0000 0.0000 0.0000 6.1102 0.0000 2.1153
# 5 -3.6567 -1.8149 0.0884 0.0000 19.5294 0.0000
# 6 0.0000 0.0000 0.0000 2.1153 0.0000 30.5339
#
#
#
# Elastic Compliance Matrix: (Units=1/GPa)
#
#
# Indices 1 2 3 4 5 6 
#
# 1 0.031517 -0.008854 0.000989 0.000000 0.005074 0.000000
# 2 -0.008854 0.011648 -0.000396 0.000000 -0.000574 0.000000
# 3 0.000989 -0.000396 0.061824 0.000000 -0.000132 0.000000
# 4 0.000000 0.000000 0.000000 0.167682 0.000000 -0.011616
# 5 0.005074 -0.000574 -0.000132 0.000000 0.052102 0.000000
# 6 0.000000 0.000000 0.000000 -0.011616 0.000000 0.033555
#
#
# Mechanical properties :
#
#
# Convention : Reuss Voigt Hill
#
# Bulk Modulus (GPa) = 11.30381 25.33762 18.32071
# Shear Modulus (GPa) = 12.36584 20.28978 16.32781
#
# Velocity S-wave (km/s) = 2.54497 3.25994 2.92438
# Velocity P-wave (km/s) = 3.81529 5.23839 4.58242
#
# Compressibility (1/GPa) = 0.08846578
#
# Stress axis : x y z
#
# Youngs Moduli (GPa) = 31.72864 85.85501 16.17499
#
# Poissons Ratio (x) = 0.76016 -0.01599
# Poissons Ratio (y) = 0.28092 0.00641
# Poissons Ratio (z) = -0.03137 0.03403
#
# Static dielectric constant tensor:
#      x y z
#    x 1.658990 0.000000 -0.012190 
#    y 0.000000 1.637210 0.000000 
#    z -0.012190 0.000000 1.664400 
# 
# From -- ./inp_files/199749.got.cif
#   From: 2010.05.17/outbox.cif.g08.bks.cpg/sg12_100_cif.got.tgz:199749.got - 2010.06.03 13:09:07.
