data_PCOD9189387
_publ_section_title
;
Structure prediction by ZEFSAII (Michael W. Deem and Ramdas Pophale) SiO2 
 PCOD9189387
Probable space group: C 2/M
;
_chemical_formula_sum "Si O2"
_cell_formula_units_Z 56
_cell_length_a 23.216059
_cell_length_b 9.063820
_cell_length_c 14.962870
_cell_angle_alpha 90.000000
_cell_angle_beta 66.279585
_cell_angle_gamma 90.000000
_cell_volume 2882.585423
_symmetry_space_group_name_H-M "C 2/M"
_symmetry_group_IT_number 12
_symmetry_cell_setting 'monoclinic'
loop_
_space_group_symop_operation_xyz
x,y,z
-x,y,-z
-x,-y,-z
x,-y,z
1/2+x,1/2+y,z
1/2-x,1/2+y,-z
1/2-x,1/2-y,-z
1/2+x,1/2-y,z
loop_
_atom_site_type_symbol
_atom_site_label
_atom_site_fract_x
_atom_site_fract_y
_atom_site_fract_z
Si Si1 0.476737 0.674082 0.116624
Si Si2 0.991523 0.824100 0.400177
Si Si3 0.932104 0.675370 0.799279
Si Si4 0.737717 0.175293 0.647811
Si Si5 0.347558 0.323213 0.450117
Si Si6 0.163844 0.174906 0.838716
Si Si7 0.817721 0.176061 0.965538
O O1 0.483524 0.500000 0.136430
O O2 0.517802 0.770547 0.157414
O O3 0.403168 0.713616 0.163594
O O4 0.500000 0.688925 0.000000
O O5 0.920372 0.783994 0.415600
O O6 0.000000 0.798257 0.500000
O O7 0.041142 0.735327 0.310570
O O8 0.999402 0.000000 0.379180
O O9 0.926170 0.500000 0.803249
O O10 0.866716 0.751107 0.867327
O O11 0.687979 0.242689 0.608237
O O12 0.806550 0.210041 0.564664
O O13 0.719970 0.241832 0.754364
O O14 0.731253 0.000000 0.654320
O O15 0.343843 0.500000 0.437336
O O16 0.172814 0.000000 0.821545
O O17 0.159564 0.203498 0.946825
O O18 0.814791 0.000000 0.954011
O O19 0.750000 0.250000 0.000000
#
# Coordination Sequence:
#
# PCOD9189387 Si02
#       7
#     8   8   8   8   8   8   8
#     4  10  19  37  62  87 118 160 203 246 298 358
#     4  10  22  41  64  86 112 155 208 253 299 360
#     4  12  25  40  61  93 127 159 197 251 312 364
#     4  10  20  33  55  86 118 150 191 241 293 350
#     4   9  19  37  57  81 114 152 193 239 297 357
#     4  10  21  37  59  86 118 156 197 238 295 359
#     4  11  24  44  64  86 118 160 204 246 295 357
#
# _framework density 19.427004
#
# number of rings (size 3 to 8) (size 9 to 14) (size 15 to 20)
#    0.000    1.714    1.429    3.000    0.000    8.000 
#    0.000    1.429    0.000    0.000    0.000    0.000 
#    0.000    0.000    0.000    0.000    0.000    0.000 
#
# Total GULP energy -156515.618460 kJ/mol
# GULP energy per Si atom -5589.843516 kJ/mol
# Density = 1.938279 g / cm^3
# Si number density = 19.427004 Si / 1000 Ang^3
#
#
#
# Elastic Constant Matrix: (Units=GPa)
#
#
# Indices 1 2 3 4 5 6 
#
# 1 77.9101 46.9997 38.2975 0.0000 -22.1407 0.0000
# 2 46.9997 73.3545 69.6604 0.0000 -14.9906 0.0000
# 3 38.2975 69.6604 133.8621 0.0000 -30.0096 0.0000
# 4 0.0000 0.0000 0.0000 34.0474 0.0000 -4.8071
# 5 -22.1407 -14.9906 -30.0096 0.0000 28.2478 0.0000
# 6 0.0000 0.0000 0.0000 -4.8071 0.0000 21.3246
#
#
#
# Elastic Compliance Matrix: (Units=1/GPa)
#
#
# Indices 1 2 3 4 5 6 
#
# 1 0.026263 -0.019450 0.006443 0.000000 0.017108 0.000000
# 2 -0.019450 0.041368 -0.018979 0.000000 -0.013454 0.000000
# 3 0.006443 -0.018979 0.018873 0.000000 0.015028 0.000000
# 4 0.000000 0.000000 0.000000 0.030336 0.000000 0.006839
# 5 0.017108 -0.013454 0.015028 0.000000 0.057636 0.000000
# 6 0.000000 0.000000 0.000000 0.006839 0.000000 0.048436
#
#
# Mechanical properties :
#
#
# Convention : Reuss Voigt Hill
#
# Bulk Modulus (GPa) = 44.38109 66.11577 55.24843
# Shear Modulus (GPa) = 16.98400 25.40189 21.19295
#
# Velocity S-wave (km/s) = 2.95997 3.61994 3.30646
# Velocity P-wave (km/s) = 5.88019 7.18183 6.56336
#
# Compressibility (1/GPa) = 0.02253212
#
# Stress axis : x y z
#
# Youngs Moduli (GPa) = 38.07608 24.17311 52.98659
#
# Poissons Ratio (x) = 0.47016 -0.34139
# Poissons Ratio (y) = 0.74057 1.00565
# Poissons Ratio (z) = -0.24532 0.45879
#
# Static dielectric constant tensor:
#      x y z
#    x 1.671430 0.000000 -0.003240 
#    y 0.000000 1.645360 0.000000 
#    z -0.003240 0.000000 1.693760 
# 
# From -- ./inp_files/238238.got.cif
#   From: 2010.05.17/outbox.cif.g08.bks.cpg/sg12_120_cif.got.tgz:238238.got - 2010.06.03 13:09:07.
