data_PCOD9189033
_publ_section_title
;
Structure prediction by ZEFSAII (Michael W. Deem and Ramdas Pophale) SiO2 
 PCOD9189033
Probable space group: C 2/M
;
_chemical_formula_sum "Si O2"
_cell_formula_units_Z 58
_cell_length_a 11.290704
_cell_length_b 18.418656
_cell_length_c 26.236162
_cell_angle_alpha 90.000000
_cell_angle_beta 152.496217
_cell_angle_gamma 90.000000
_cell_volume 2519.648396
_symmetry_space_group_name_H-M "C 2/M"
_symmetry_group_IT_number 12
_symmetry_cell_setting 'monoclinic'
loop_
_space_group_symop_operation_xyz
x,y,z
-x,y,-z
-x,-y,-z
x,-y,z
1/2+x,1/2+y,z
1/2-x,1/2+y,-z
1/2-x,1/2-y,-z
1/2+x,1/2-y,z
loop_
_atom_site_type_symbol
_atom_site_label
_atom_site_fract_x
_atom_site_fract_y
_atom_site_fract_z
Si Si1 0.578713 0.583587 0.472870
Si Si2 0.014308 0.918634 0.765320
Si Si3 0.500000 0.000000 0.000000
Si Si4 0.928507 0.660779 0.341177
Si Si5 0.188728 0.194238 0.754199
Si Si6 0.570653 0.922262 0.209558
Si Si7 0.793567 0.920612 0.835394
Si Si8 0.965701 0.784664 0.047122
O O1 0.500000 0.607814 0.500000
O O2 0.671435 0.500000 0.512867
O O3 0.329287 0.582035 0.342109
O O4 0.800957 0.633475 0.534479
O O5 0.820213 0.869206 0.724159
O O6 0.041782 0.873640 0.723247
O O7 0.903356 0.000000 0.714993
O O8 0.289947 0.936775 0.897910
O O9 0.921497 0.746721 0.327439
O O10 0.902737 0.616378 0.278242
O O11 0.427131 0.152078 0.819916
O O12 0.278055 0.244764 0.834438
O O13 0.340637 0.924895 0.161362
O O14 0.572009 0.000000 0.181054
O O15 0.028541 0.867970 0.932575
O O16 0.867071 0.000000 0.844651
O O17 0.750000 0.750000 0.000000
O O18 0.000000 0.778802 0.000000
#
# Coordination Sequence:
#
# PCOD9189033 Si02
#       8
#     8   8   2   8   8   8   8   8
#     4  10  19  36  66 101 134 171 223 275 337 412
#     4  10  23  44  67  93 130 175 238 271 337 406
#     4   8  24  44  72  92 118 184 240 280 304 428
#     4  11  23  38  67  99 132 176 220 282 334 410
#     4  11  26  40  67  91 138 179 215 281 352 401
#     4  10  21  41  67  97 132 172 222 276 341 412
#     4  10  21  39  66  93 127 167 215 280 343 399
#     4  11  26  43  65  95 131 175 227 283 344 421
#
# _framework density 23.019083999999999
#
# number of rings (size 3 to 8) (size 9 to 14) (size 15 to 20)
#    0.414    1.241    1.379    2.483    8.690    0.828 
#    0.000    1.379    0.000    2.897    0.000    0.000 
#    0.000    0.000    0.000    0.000    0.000    0.000 
#
# Total GULP energy -161527.441626 kJ/mol
# GULP energy per Si atom -5569.911780 kJ/mol
# Density = 2.296669 g / cm^3
# Si number density = 23.019084 Si / 1000 Ang^3
#
#
#
# Elastic Constant Matrix: (Units=GPa)
#
#
# Indices 1 2 3 4 5 6 
#
# 1 66.9970 41.1264 13.1683 0.0001 10.0203 0.0001
# 2 41.1264 168.0836 39.8300 -0.0004 9.0892 0.0002
# 3 13.1683 39.8300 65.3662 0.0005 17.9943 0.0011
# 4 0.0001 -0.0004 0.0005 19.9860 0.0000 -4.6689
# 5 10.0203 9.0892 17.9943 0.0000 26.3234 0.0003
# 6 0.0001 0.0002 0.0011 -4.6689 0.0003 34.6039
#
#
#
# Elastic Compliance Matrix: (Units=1/GPa)
#
#
# Indices 1 2 3 4 5 6 
#
# 1 0.018335 -0.004297 0.000539 0.000000 -0.005864 0.000000
# 2 -0.004297 0.007968 -0.004536 0.000000 0.001985 0.000000
# 3 0.000539 -0.004536 0.021654 -0.000001 -0.013441 -0.000001
# 4 0.000000 0.000000 -0.000001 0.051663 0.000000 0.006971
# 5 -0.005864 0.001985 -0.013441 0.000000 0.048724 0.000000
# 6 0.000000 0.000000 -0.000001 0.006971 0.000000 0.029839
#
#
# Mechanical properties :
#
#
# Convention : Reuss Voigt Hill
#
# Bulk Modulus (GPa) = 31.87870 54.29957 43.08913
# Shear Modulus (GPa) = 24.36311 29.93747 27.15029
#
# Velocity S-wave (km/s) = 3.25682 3.61023 3.43807
# Velocity P-wave (km/s) = 5.29352 6.40457 5.87536
#
# Compressibility (1/GPa) = 0.03136891
#
# Stress axis : x y z
#
# Youngs Moduli (GPa) = 54.54136 125.49694 46.18039
#
# Poissons Ratio (x) = 0.53922 -0.02488
# Poissons Ratio (y) = 0.23435 0.20949
# Poissons Ratio (z) = -0.02939 0.56929
#
# Static dielectric constant tensor:
#      x y z
#    x 1.874210 0.000000 -0.017090 
#    y 0.000000 1.917180 0.000000 
#    z -0.017090 0.000000 1.901780 
# 
# From -- ./inp_files/358806.got.cif
#   From: 2010.05.17/outbox.cif.g08.bks.cpg/sg12_180_cif.got.tgz:358806.got - 2010.06.03 13:09:07.
