data_PCOD9189597
_publ_section_title
;
Structure prediction by ZEFSAII (Michael W. Deem and Ramdas Pophale) SiO2 
 PCOD9189597
Probable space group: C 2/M
;
_chemical_formula_sum "Si O2"
_cell_formula_units_Z 60
_cell_length_a 5.780286
_cell_length_b 27.892766
_cell_length_c 23.574126
_cell_angle_alpha 90.000000
_cell_angle_beta 54.159359
_cell_angle_gamma 90.000000
_cell_volume 3081.124150
_symmetry_space_group_name_H-M "C 2/M"
_symmetry_group_IT_number 12
_symmetry_cell_setting 'monoclinic'
loop_
_space_group_symop_operation_xyz
x,y,z
-x,y,-z
-x,-y,-z
x,-y,z
1/2+x,1/2+y,z
1/2-x,1/2+y,-z
1/2-x,1/2-y,-z
1/2+x,1/2-y,z
loop_
_atom_site_type_symbol
_atom_site_label
_atom_site_fract_x
_atom_site_fract_y
_atom_site_fract_z
Si Si1 0.000000 0.855336 0.000000
Si Si2 0.451393 0.795695 0.073521
Si Si3 0.877689 0.892472 0.901369
Si Si4 0.014890 0.621981 0.772795
Si Si5 0.189940 0.051712 0.189540
Si Si6 0.317828 0.056953 0.472042
Si Si7 0.601454 0.765936 0.213001
Si Si8 0.528568 0.947346 0.317500
O O1 0.742293 0.820127 0.054613
O O2 0.131738 0.888225 0.029998
O O3 0.320658 0.755959 0.133839
O O4 0.237012 0.840664 0.101861
O O5 0.500000 0.781155 0.000000
O O6 0.205758 0.895424 0.837331
O O7 0.741905 0.935422 0.885497
O O8 0.218522 0.598529 0.789521
O O9 0.988714 0.678735 0.777016
O O10 0.091850 0.596133 0.702607
O O11 0.855967 0.048337 0.251739
O O12 0.320121 0.000000 0.186967
O O13 0.500000 0.075944 0.500000
O O14 0.499956 0.061515 0.388316
O O15 0.000000 0.075633 0.500000
O O16 0.275897 0.000000 0.489816
O O17 0.296907 0.740416 0.241731
O O18 0.390589 0.000000 0.325711
#
# Coordination Sequence:
#
# PCOD9189597 Si02
#       8
#     4   8   8   8   8   8   8   8
#     4  10  20  36  61  80 108 152 181 236 312 382
#     4  10  22  38  56  83 114 143 180 231 311 383
#     4  10  19  38  53  79 110 146 187 244 299 363
#     4  11  22  37  58  79 116 157 199 238 293 354
#     4  10  21  36  58  81 110 154 204 247 286 341
#     4   9  18  32  54  87 127 164 196 235 285 340
#     4  12  25  40  57  84 119 154 186 241 302 364
#     4   9  20  36  57  87 122 163 202 238 284 340
#
# _framework density 19.473413000000001
#
# number of rings (size 3 to 8) (size 9 to 14) (size 15 to 20)
#    0.000    1.867    1.333    2.800    5.600    1.067 
#    1.200    0.333    0.000    7.600    0.000    0.000 
#    0.000    3.200    0.000    0.000    0.000    0.000 
#
# Total GULP energy -167108.775642 kJ/mol
# GULP energy per Si atom -5570.292521 kJ/mol
# Density = 1.942909 g / cm^3
# Si number density = 19.473413 Si / 1000 Ang^3
#
#
#
# Elastic Constant Matrix: (Units=GPa)
#
#
# Indices 1 2 3 4 5 6 
#
# 1 97.5683 29.4909 23.6044 0.0000 11.2255 0.0000
# 2 29.4909 84.2627 37.6647 0.0000 10.4388 0.0000
# 3 23.6044 37.6647 62.9816 0.0000 16.3214 0.0000
# 4 0.0000 0.0000 0.0000 -28.0403 0.0000 24.8888
# 5 11.2255 10.4388 16.3214 0.0000 21.0061 0.0000
# 6 0.0000 0.0000 0.0000 24.8888 0.0000 13.9663
#
#
#
# Elastic Compliance Matrix: (Units=1/GPa)
#
#
# Indices 1 2 3 4 5 6 
#
# 1 0.011985 -0.002946 -0.001815 0.000000 -0.003530 0.000000
# 2 -0.002946 0.016929 -0.009075 0.000000 0.000213 0.000000
# 3 -0.001815 -0.009075 0.025750 0.000000 -0.014527 0.000000
# 4 0.000000 0.000000 0.000000 -0.013813 0.000000 0.024616
# 5 -0.003530 0.000213 -0.014527 0.000000 0.060674 0.000000
# 6 0.000000 0.000000 0.000000 0.024616 0.000000 0.027733
#
#
# Mechanical properties :
#
#
# Convention : Reuss Voigt Hill
#
# Bulk Modulus (GPa) = 37.04865 47.37029 42.20947
# Shear Modulus (GPa) = 30.13392 11.65659 20.89526
#
# Velocity S-wave (km/s) = 3.93802 2.44926 3.27924
# Velocity P-wave (km/s) = 6.30427 5.69008 6.00503
#
# Compressibility (1/GPa) = 0.02699154
#
# Stress axis : x y z
#
# Youngs Moduli (GPa) = 83.43791 59.07126 38.83541
#
# Poissons Ratio (x) = 0.17402 0.07049
# Poissons Ratio (y) = 0.24580 0.35243
# Poissons Ratio (z) = 0.15145 0.53607
#
# Static dielectric constant tensor:
#      x y z
#    x 1.816370 0.000000 0.031170 
#    y 0.000000 1.694580 0.000000 
#    z 0.031170 0.000000 1.697140 
# 
# From -- ./inp_files/355179.got.cif
#   From: 2010.05.17/outbox.cif.g08.bks.cpg/sg12_178_cif.got.tgz:355179.got - 2010.06.03 13:09:07.
