data_PCOD9189273
_publ_section_title
;
Structure prediction by ZEFSAII (Michael W. Deem and Ramdas Pophale) SiO2 
 PCOD9189273
Probable space group: C 2/M
;
_chemical_formula_sum "Si O2"
_cell_formula_units_Z 58
_cell_length_a 24.841107
_cell_length_b 9.199908
_cell_length_c 28.130358
_cell_angle_alpha 90.000000
_cell_angle_beta 31.107868
_cell_angle_gamma 90.000000
_cell_volume 3321.443634
_symmetry_space_group_name_H-M "C 2/M"
_symmetry_group_IT_number 12
_symmetry_cell_setting 'monoclinic'
loop_
_space_group_symop_operation_xyz
x,y,z
-x,y,-z
-x,-y,-z
x,-y,z
1/2+x,1/2+y,z
1/2-x,1/2+y,-z
1/2-x,1/2-y,-z
1/2+x,1/2-y,z
loop_
_atom_site_type_symbol
_atom_site_label
_atom_site_fract_x
_atom_site_fract_y
_atom_site_fract_z
Si Si1 0.966273 0.326737 0.384805
Si Si2 0.517181 0.326634 0.723803
Si Si3 0.743844 0.325370 0.592926
Si Si4 0.222602 0.673251 0.710350
Si Si5 0.500000 0.500000 0.000000
Si Si6 0.359119 0.326001 0.927469
Si Si7 0.582256 0.173424 0.395524
Si Si8 0.485760 0.660920 0.108546
O O1 0.970590 0.500000 0.374537
O O2 0.008369 0.248732 0.306442
O O3 0.845861 0.286201 0.485588
O O4 0.029431 0.293407 0.385055
O O5 0.510444 0.500000 0.723508
O O6 0.635869 0.291205 0.648523
O O7 0.441091 0.284082 0.824283
O O8 0.748446 0.500000 0.598339
O O9 0.745112 0.241337 0.641581
O O10 0.225389 0.500000 0.706832
O O11 0.312880 0.737654 0.675564
O O12 0.110287 0.732249 0.811501
O O13 0.506305 0.624433 0.038016
O O14 0.344059 0.500000 0.937257
O O15 0.414217 0.292005 0.936349
O O16 0.250000 0.250000 0.000000
O O17 0.500000 0.204431 0.500000
O O18 0.604649 0.000000 0.380585
O O19 0.454428 0.500000 0.153231
#
# Coordination Sequence:
#
# PCOD9189273 Si02
#       8
#     8   8   8   8   2   8   8   8
#     4  10  21  36  57  86 116 155 206 251 287 344
#     4  10  21  37  58  84 118 160 190 240 305 351
#     4  10  19  37  61  82 116 162 204 241 283 354
#     4  12  23  34  58  92 121 154 193 249 306 352
#     4   8  20  40  78  92 102 152 206 266 286 352
#     4  10  21  39  63  87 119 154 192 245 301 367
#     4  10  20  38  59  78 112 163 209 243 284 348
#     4   9  19  42  66  89 112 147 205 242 295 368
#
# _framework density 17.462285999999999
#
# number of rings (size 3 to 8) (size 9 to 14) (size 15 to 20)
#    0.414    1.517    2.759    1.655    0.000    3.034 
#    2.483    0.345    0.000    0.000    0.000    0.000 
#    0.000    0.000    0.000    0.000    0.000    0.000 
#
# Total GULP energy -161508.768722 kJ/mol
# GULP energy per Si atom -5569.267887 kJ/mol
# Density = 1.742254 g / cm^3
# Si number density = 17.462286 Si / 1000 Ang^3
#
#
#
# Elastic Constant Matrix: (Units=GPa)
#
#
# Indices 1 2 3 4 5 6 
#
# 1 131.8299 42.5015 70.1636 -0.0002 7.9932 0.0000
# 2 42.5015 34.6751 30.8818 -0.0007 -8.8245 0.0005
# 3 70.1636 30.8818 71.5074 -0.0005 -6.5613 0.0003
# 4 -0.0002 -0.0007 -0.0005 25.8531 0.0003 -0.5691
# 5 7.9932 -8.8245 -6.5613 0.0003 33.4254 -0.0001
# 6 0.0000 0.0005 0.0003 -0.5691 -0.0001 24.6880
#
#
#
# Elastic Compliance Matrix: (Units=1/GPa)
#
#
# Indices 1 2 3 4 5 6 
#
# 1 0.021848 -0.016009 -0.015673 0.000000 -0.012528 0.000000
# 2 -0.016009 0.061125 -0.009021 0.000001 0.018195 -0.000001
# 3 -0.015673 -0.009021 0.033997 0.000000 0.008040 0.000000
# 4 0.000000 0.000001 0.000000 0.038700 0.000000 0.000892
# 5 -0.012528 0.018195 0.008040 0.000000 0.039295 0.000000
# 6 0.000000 -0.000001 0.000000 0.000892 0.000000 0.040526
#
#
# Mechanical properties :
#
#
# Convention : Reuss Voigt Hill
#
# Bulk Modulus (GPa) = 28.11774 58.34514 43.23144
# Shear Modulus (GPa) = 15.20907 23.09101 19.15004
#
# Velocity S-wave (km/s) = 2.95442 3.64034 3.31517
# Velocity P-wave (km/s) = 5.27020 7.15221 6.28208
#
# Compressibility (1/GPa) = 0.03556473
#
# Stress axis : x y z
#
# Youngs Moduli (GPa) = 45.77074 16.35982 29.41454
#
# Poissons Ratio (x) = 0.26190 0.46102
# Poissons Ratio (y) = 0.73273 0.26534
# Poissons Ratio (z) = 0.71738 0.14758
#
# Static dielectric constant tensor:
#      x y z
#    x 1.594370 0.000000 -0.006940 
#    y 0.000000 1.585610 0.000000 
#    z -0.006940 0.000000 1.582290 
# 
# From -- ./inp_files/382013.got.cif
#   From: 2010.05.17/outbox.cif.g08.bks.cpg/sg12_192_cif.got.tgz:382013.got - 2010.06.03 13:09:07.
