data_PCOD9189129
_publ_section_title
;
Structure prediction by ZEFSAII (Michael W. Deem and Ramdas Pophale) SiO2 
 PCOD9189129
Probable space group: C 2/M
;
_chemical_formula_sum "Si O2"
_cell_formula_units_Z 48
_cell_length_a 9.441492
_cell_length_b 16.929925
_cell_length_c 14.453377
_cell_angle_alpha 90.000000
_cell_angle_beta 100.285388
_cell_angle_gamma 90.000000
_cell_volume 2273.157168
_symmetry_space_group_name_H-M "C 2/M"
_symmetry_group_IT_number 12
_symmetry_cell_setting 'monoclinic'
loop_
_space_group_symop_operation_xyz
x,y,z
-x,y,-z
-x,-y,-z
x,-y,z
1/2+x,1/2+y,z
1/2-x,1/2+y,-z
1/2-x,1/2-y,-z
1/2+x,1/2-y,z
loop_
_atom_site_type_symbol
_atom_site_label
_atom_site_fract_x
_atom_site_fract_y
_atom_site_fract_z
Si Si1 0.814659 0.805772 0.829251
Si Si2 0.426327 0.589690 0.676979
Si Si3 0.678280 0.705456 0.648311
Si Si4 0.078603 0.410561 0.294879
Si Si5 0.869774 0.373065 0.421536
Si Si6 0.972909 0.668199 0.100271
O O1 0.876424 0.875044 0.770617
O O2 0.725778 0.749224 0.748403
O O3 0.948000 0.753684 0.881881
O O4 0.696002 0.828562 0.892027
O O5 0.477392 0.500000 0.691156
O O6 0.544263 0.649584 0.651593
O O7 0.289588 0.593182 0.591784
O O8 0.813674 0.650082 0.641863
O O9 0.644675 0.778065 0.577200
O O10 0.129142 0.500000 0.308137
O O11 0.052836 0.385039 0.186514
O O12 0.926771 0.399296 0.327386
O O13 0.000000 0.401581 0.500000
O O14 0.000000 0.639313 0.000000
#
# Coordination Sequence:
#
# PCOD9189129 Si02
#       6
#     8   8   8   8   8   8
#     4  10  19  37  57  88 117 153 198 244 279 340
#     4  11  21  36  61  87 119 156 190 237 297 349
#     4  10  20  39  61  84 115 154 199 233 287 345
#     4  11  23  39  59  88 123 151 189 246 295 341
#     4  11  23  40  63  87 114 153 198 239 285 348
#     4  11  21  36  62  88 118 158 200 239 287 344
#
# _framework density 21.116005999999999
#
# number of rings (size 3 to 8) (size 9 to 14) (size 15 to 20)
#    0.000    1.333    5.000    3.500    0.000    4.333 
#    0.000    0.000    0.000    3.500    0.000    0.000 
#    0.000    0.000    0.000    0.000    0.000    0.000 
#
# Total GULP energy -134054.080678 kJ/mol
# GULP energy per Si atom -5585.586695 kJ/mol
# Density = 2.106794 g / cm^3
# Si number density = 21.116006 Si / 1000 Ang^3
#
#
#
# Elastic Constant Matrix: (Units=GPa)
#
#
# Indices 1 2 3 4 5 6 
#
# 1 59.0146 7.5561 -7.4284 0.0000 -9.0349 0.0000
# 2 7.5561 119.0591 2.9138 0.0000 -1.7364 0.0000
# 3 -7.4284 2.9138 42.6388 0.0000 9.2476 0.0000
# 4 0.0000 0.0000 0.0000 -0.5099 0.0000 13.0776
# 5 -9.0349 -1.7364 9.2476 0.0000 22.5955 0.0000
# 6 0.0000 0.0000 0.0000 13.0776 0.0000 -11.0317
#
#
#
# Elastic Compliance Matrix: (Units=1/GPa)
#
#
# Indices 1 2 3 4 5 6 
#
# 1 0.018313 -0.001113 0.001862 0.000000 0.006475 0.000000
# 2 -0.001113 0.008500 -0.000900 0.000000 0.000576 0.000000
# 3 0.001862 -0.000900 0.026000 0.000000 -0.009966 0.000000
# 4 0.000000 0.000000 0.000000 0.066698 0.000000 0.079068
# 5 0.006475 0.000576 -0.009966 0.000000 0.050969 0.000000
# 6 0.000000 0.000000 0.000000 0.079068 0.000000 0.003083
#
#
# Mechanical properties :
#
#
# Convention : Reuss Voigt Hill
#
# Bulk Modulus (GPa) = 19.04339 25.19950 22.12144
# Shear Modulus (GPa) = 26.12750 16.72217 21.42483
#
# Velocity S-wave (km/s) = 3.52139 2.81716 3.18877
# Velocity P-wave (km/s) = 5.05684 4.74780 4.90475
#
# Compressibility (1/GPa) = 0.05251166
#
# Stress axis : x y z
#
# Youngs Moduli (GPa) = 54.60539 117.64317 38.46137
#
# Poissons Ratio (x) = 0.13098 -0.07163
# Poissons Ratio (y) = 0.06080 0.03461
# Poissons Ratio (z) = -0.10169 0.10586
#
# Static dielectric constant tensor:
#      x y z
#    x 1.783960 0.000000 -0.002780 
#    y 0.000000 1.756020 0.000000 
#    z -0.002780 0.000000 1.792840 
# 
# From -- ./inp_files/195967.got.cif
#   From: 2010.05.17/outbox.cif.g08.bks.cpg/sg12_98_cif.got.tgz:195967.got - 2010.06.03 13:09:07.
