data_PCOD9189411
_publ_section_title
;
Structure prediction by ZEFSAII (Michael W. Deem and Ramdas Pophale) SiO2 
 PCOD9189411
Probable space group: C 2/M
;
_chemical_formula_sum "Si O2"
_cell_formula_units_Z 44
_cell_length_a 10.638176
_cell_length_b 28.779433
_cell_length_c 12.593223
_cell_angle_alpha 90.000000
_cell_angle_beta 145.484093
_cell_angle_gamma 90.000000
_cell_volume 2184.689432
_symmetry_space_group_name_H-M "C 2/M"
_symmetry_group_IT_number 12
_symmetry_cell_setting 'monoclinic'
loop_
_space_group_symop_operation_xyz
x,y,z
-x,y,-z
-x,-y,-z
x,-y,z
1/2+x,1/2+y,z
1/2-x,1/2+y,-z
1/2-x,1/2-y,-z
1/2+x,1/2-y,z
loop_
_atom_site_type_symbol
_atom_site_label
_atom_site_fract_x
_atom_site_fract_y
_atom_site_fract_z
Si Si1 0.881432 0.162834 0.523593
Si Si2 0.965644 0.000000 0.792392
Si Si3 0.138894 0.500000 0.768212
Si Si4 0.000000 0.649601 0.500000
Si Si5 0.279518 0.810004 0.917609
Si Si6 0.574277 0.207470 0.748329
Si Si7 0.770119 0.577899 0.492149
O O1 0.690916 0.199121 0.424107
O O2 0.781158 0.111177 0.443970
O O3 0.000000 0.179529 0.500000
O O4 0.079581 0.157180 0.745077
O O5 0.776039 0.000000 0.753019
O O6 0.919969 0.955297 0.686784
O O7 0.192557 0.000000 0.015927
O O8 0.979584 0.544707 0.658353
O O9 0.874803 0.681519 0.326444
O O10 0.162157 0.615784 0.549140
O O11 0.174999 0.758911 0.820492
O O12 0.500000 0.815815 0.000000
O O13 0.333208 0.814680 0.078776
#
# Coordination Sequence:
#
# PCOD9189411 Si02
#       7
#     8   4   4   4   8   8   8
#     4  11  23  41  64  87 122 170 206 253 310 364
#     4  10  19  37  64  88 124 157 187 245 323 367
#     4  10  19  37  62  90 123 160 186 247 313 380
#     4  10  20  37  62  94 124 158 200 261 306 362
#     4  11  23  42  61  89 121 165 218 262 308 362
#     4  10  24  40  63  88 125 164 210 265 307 367
#     4  10  20  38  60  91 126 150 204 247 304 375
#
# _framework density 20.140160999999999
#
# number of rings (size 3 to 8) (size 9 to 14) (size 15 to 20)
#    0.000    1.636    3.636    1.091    1.273    8.727 
#    0.000    1.818    0.000    1.091    0.000    0.000 
#    0.000    0.000    0.000    0.000    0.000    0.000 
#
# Total GULP energy -122727.622049 kJ/mol
# GULP energy per Si atom -5578.528275 kJ/mol
# Density = 2.009432 g / cm^3
# Si number density = 20.140161 Si / 1000 Ang^3
#
#
#
# Elastic Constant Matrix: (Units=GPa)
#
#
# Indices 1 2 3 4 5 6 
#
# 1 30.8846 7.0679 22.3951 0.0000 3.2766 0.0000
# 2 7.0679 80.7394 32.5726 0.0000 -2.1590 0.0000
# 3 22.3951 32.5726 126.9202 0.0000 -1.6442 0.0000
# 4 0.0000 0.0000 0.0000 6.4203 0.0000 6.1252
# 5 3.2766 -2.1590 -1.6442 0.0000 36.2701 0.0000
# 6 0.0000 0.0000 0.0000 6.1252 0.0000 7.7892
#
#
#
# Elastic Compliance Matrix: (Units=1/GPa)
#
#
# Indices 1 2 3 4 5 6 
#
# 1 0.037663 -0.000777 -0.006495 0.000000 -0.003743 0.000000
# 2 -0.000777 0.013848 -0.003407 0.000000 0.000740 0.000000
# 3 -0.006495 -0.003407 0.009910 0.000000 0.000833 0.000000
# 4 0.000000 0.000000 0.000000 0.623587 0.000000 -0.490368
# 5 -0.003743 0.000740 0.000833 0.000000 0.027991 0.000000
# 6 0.000000 0.000000 0.000000 -0.490368 0.000000 0.513991
#
#
# Mechanical properties :
#
#
# Convention : Reuss Voigt Hill
#
# Bulk Modulus (GPa) = 24.96051 40.29057 32.62554
# Shear Modulus (GPa) = 3.96290 21.86316 12.91303
#
# Velocity S-wave (km/s) = 1.40426 3.29834 2.53486
# Velocity P-wave (km/s) = 3.87937 5.87826 4.98014
#
# Compressibility (1/GPa) = 0.04006329
#
# Stress axis : x y z
#
# Youngs Moduli (GPa) = 26.55126 72.21308 100.90633
#
# Poissons Ratio (x) = 0.05611 0.65536
# Poissons Ratio (y) = 0.02063 0.34381
# Poissons Ratio (z) = 0.17244 0.24605
#
# Static dielectric constant tensor:
#      x y z
#    x 1.749600 0.000000 0.005610 
#    y 0.000000 1.718530 0.000000 
#    z 0.005610 0.000000 1.739320 
# 
# From -- ./inp_files/209751.got.cif
#   From: 2010.05.17/outbox.cif.g08.bks.cpg/sg12_105_cif.got.tgz:209751.got - 2010.06.03 13:09:07.
