data_PCOD9189256
_publ_section_title
;
Structure prediction by ZEFSAII (Michael W. Deem and Ramdas Pophale) SiO2 
 PCOD9189256
Probable space group: C 2/M
;
_chemical_formula_sum "Si O2"
_cell_formula_units_Z 48
_cell_length_a 28.444147
_cell_length_b 16.535194
_cell_length_c 9.593436
_cell_angle_alpha 90.000000
_cell_angle_beta 28.625037
_cell_angle_gamma 90.000000
_cell_volume 2161.624865
_symmetry_space_group_name_H-M "C 2/M"
_symmetry_group_IT_number 12
_symmetry_cell_setting 'monoclinic'
loop_
_space_group_symop_operation_xyz
x,y,z
-x,y,-z
-x,-y,-z
x,-y,z
1/2+x,1/2+y,z
1/2-x,1/2+y,-z
1/2-x,1/2-y,-z
1/2+x,1/2-y,z
loop_
_atom_site_type_symbol
_atom_site_label
_atom_site_fract_x
_atom_site_fract_y
_atom_site_fract_z
Si Si1 0.108821 0.908332 0.728412
Si Si2 0.359367 0.154138 0.731654
Si Si3 0.558825 0.644755 0.135036
Si Si4 0.642894 0.652140 0.225019
Si Si5 0.681572 0.903615 0.867201
Si Si6 0.530137 0.824406 0.083371
O O1 0.206876 0.868829 0.412669
O O2 0.101905 0.000000 0.694138
O O3 0.119607 0.906815 0.867010
O O4 0.000000 0.870951 0.000000
O O5 0.356083 0.251765 0.746818
O O6 0.442064 0.136087 0.402948
O O7 0.252024 0.121439 0.968608
O O8 0.376818 0.124156 0.843472
O O9 0.609844 0.643634 0.151686
O O10 0.445881 0.616309 0.451295
O O11 0.552105 0.735822 0.091766
O O12 0.688824 0.000000 0.846863
O O13 0.627605 0.873727 0.869223
O O14 0.500000 0.821328 0.000000
#
# Coordination Sequence:
#
# PCOD9189256 Si02
#       6
#     8   8   8   8   8   8
#     4  10  22  39  60  86 121 158 199 248 302 364
#     4  10  20  39  59  85 123 158 196 247 297 357
#     4  10  19  37  60  90 123 155 196 251 303 357
#     4   9  19  34  61  90 117 154 199 246 298 356
#     4  11  24  42  63  87 120 166 208 244 301 365
#     4  11  24  38  60  93 123 158 206 252 301 353
#
# _framework density 22.205517
#
# number of rings (size 3 to 8) (size 9 to 14) (size 15 to 20)
#    0.000    1.833    1.667    2.000    2.333    5.000 
#    0.000    2.500    0.000    0.000    0.000    0.000 
#    0.000    0.000    0.000    0.000    0.000    0.000 
#
# Total GULP energy -133984.393552 kJ/mol
# GULP energy per Si atom -5582.683065 kJ/mol
# Density = 2.215498 g / cm^3
# Si number density = 22.205517 Si / 1000 Ang^3
#
#
#
# Elastic Constant Matrix: (Units=GPa)
#
#
# Indices 1 2 3 4 5 6 
#
# 1 113.2522 2.7183 42.5127 0.0000 0.4065 0.0000
# 2 2.7183 30.5274 9.6310 0.0000 -0.5915 0.0000
# 3 42.5127 9.6310 105.2195 0.0000 -1.8676 0.0000
# 4 0.0000 0.0000 0.0000 13.5561 0.0000 2.8867
# 5 0.4065 -0.5915 -1.8676 0.0000 37.9211 0.0000
# 6 0.0000 0.0000 0.0000 2.8867 0.0000 21.5106
#
#
#
# Elastic Compliance Matrix: (Units=1/GPa)
#
#
# Indices 1 2 3 4 5 6 
#
# 1 0.010417 0.000408 -0.004252 0.000000 -0.000315 0.000000
# 2 0.000408 0.033753 -0.003248 0.000000 0.000362 0.000000
# 3 -0.004252 -0.003248 0.011529 0.000000 0.000563 0.000000
# 4 0.000000 0.000000 0.000000 0.075938 0.000000 -0.010191
# 5 -0.000315 0.000362 0.000563 0.000000 0.026407 0.000000
# 6 0.000000 0.000000 0.000000 -0.010191 0.000000 0.047856
#
#
# Mechanical properties :
#
#
# Convention : Reuss Voigt Hill
#
# Bulk Modulus (GPa) = 24.08749 39.85813 31.97281
# Shear Modulus (GPa) = 21.37456 27.54001 24.45729
#
# Velocity S-wave (km/s) = 3.10591 3.52551 3.32234
# Velocity P-wave (km/s) = 4.87169 5.87886 5.39881
#
# Compressibility (1/GPa) = 0.04151533
#
# Stress axis : x y z
#
# Youngs Moduli (GPa) = 95.99437 29.62712 86.73675
#
# Poissons Ratio (x) = -0.01208 0.36879
# Poissons Ratio (y) = -0.03914 0.28170
# Poissons Ratio (z) = 0.40816 0.09622
#
# Static dielectric constant tensor:
#      x y z
#    x 1.860270 0.000000 -0.026120 
#    y 0.000000 1.803360 0.000000 
#    z -0.026120 0.000000 1.862300 
# 
# From -- ./inp_files/77271.got.cif
#   From: 2010.05.17/outbox.cif.g08.bks.cpg/sg12_39_cif.got.tgz:77271.got - 2010.06.03 13:09:07.
