data_PCOD9189784
_publ_section_title
;
Structure prediction by ZEFSAII (Michael W. Deem and Ramdas Pophale) SiO2 
 PCOD9189784
Probable space group: C 2/M
;
_chemical_formula_sum "Si O2"
_cell_formula_units_Z 64
_cell_length_a 35.036875
_cell_length_b 7.902573
_cell_length_c 25.944343
_cell_angle_alpha 90.000000
_cell_angle_beta 24.662965
_cell_angle_gamma 90.000000
_cell_volume 2997.532215
_symmetry_space_group_name_H-M "C 2/M"
_symmetry_group_IT_number 12
_symmetry_cell_setting 'monoclinic'
loop_
_space_group_symop_operation_xyz
x,y,z
-x,y,-z
-x,-y,-z
x,-y,z
1/2+x,1/2+y,z
1/2-x,1/2+y,-z
1/2-x,1/2-y,-z
1/2+x,1/2-y,z
loop_
_atom_site_type_symbol
_atom_site_label
_atom_site_fract_x
_atom_site_fract_y
_atom_site_fract_z
Si Si1 0.100125 0.292807 0.860369
Si Si2 0.081862 0.695957 0.153163
Si Si3 0.242650 0.803510 0.256241
Si Si4 0.383538 0.207099 0.776305
Si Si5 0.619322 0.302480 0.614723
Si Si6 0.965196 0.299719 0.487720
Si Si7 0.678765 0.205407 0.654844
Si Si8 0.718572 0.303601 0.904813
O O1 0.099681 0.500000 0.862724
O O2 0.179444 0.233434 0.801668
O O3 0.124865 0.244628 0.771895
O O4 0.000000 0.235041 0.000000
O O5 0.108442 0.500000 0.115914
O O6 0.119026 0.767317 0.161711
O O7 0.972465 0.709031 0.288607
O O8 0.124309 0.786149 0.051441
O O9 0.142719 0.723995 0.384649
O O10 0.275913 0.787610 0.156493
O O11 0.230749 0.000000 0.283767
O O12 0.474158 0.264758 0.634366
O O13 0.297170 0.257690 0.847692
O O14 0.384005 0.000000 0.778768
O O15 0.606860 0.500000 0.618099
O O16 0.636623 0.279231 0.654495
O O17 0.714518 0.243477 0.472527
O O18 0.984174 0.500000 0.465945
O O19 0.000000 0.228264 0.500000
O O20 0.677308 0.000000 0.651815
O O21 0.737982 0.500000 0.869930
#
# Coordination Sequence:
#
# PCOD9189784 Si02
#       8
#     8   8   8   8   8   8   8   8
#     4   9  20  38  60  86 118 157 195 238 296 355
#     4  11  23  38  59  87 116 151 200 246 291 352
#     4  11  23  37  59  93 122 154 202 248 294 354
#     4   9  20  38  60  85 116 157 200 238 290 352
#     4  10  21  37  58  87 117 150 192 241 298 349
#     4  10  19  38  63  85 118 164 201 238 296 357
#     4   9  19  38  62  83 113 153 195 239 289 349
#     4  11  22  41  62  83 118 158 196 243 297 352
#
# _framework density 21.350895999999999
#
# number of rings (size 3 to 8) (size 9 to 14) (size 15 to 20)
#    0.000    2.000    1.250    1.875    3.500    0.750 
#    0.000    3.750    0.000    1.875    0.000    0.000 
#    0.000    0.000    0.000    0.000    0.000    0.000 
#
# Total GULP energy -178808.103823 kJ/mol
# GULP energy per Si atom -5587.753244 kJ/mol
# Density = 2.130230 g / cm^3
# Si number density = 21.350896 Si / 1000 Ang^3
#
#
#
# Elastic Constant Matrix: (Units=GPa)
#
#
# Indices 1 2 3 4 5 6 
#
# 1 29.3662 -6.4111 19.2542 -0.0076 -0.9770 -0.0061
# 2 -6.4111 19.5912 -4.9162 -0.0635 0.1337 -0.0044
# 3 19.2542 -4.9162 95.0015 -0.0628 9.4505 -0.0054
# 4 -0.0076 -0.0635 -0.0628 65.9206 0.0225 15.7095
# 5 -0.9770 0.1337 9.4505 0.0225 32.9642 0.0002
# 6 -0.0061 -0.0044 -0.0054 15.7095 0.0002 16.1365
#
#
#
# Elastic Compliance Matrix: (Units=1/GPa)
#
#
# Indices 1 2 3 4 5 6 
#
# 1 0.042164 0.011692 -0.008297 0.000004 0.003581 0.000012
# 2 0.011692 0.054989 0.000477 0.000065 -0.000013 -0.000044
# 3 -0.008297 0.000477 0.012617 0.000016 -0.003865 -0.000015
# 4 0.000004 0.000065 0.000016 0.019752 -0.000018 -0.019230
# 5 0.003581 -0.000013 -0.003865 -0.000018 0.031550 0.000017
# 6 0.000012 -0.000044 -0.000015 -0.019230 0.000017 0.080692
#
#
# Mechanical properties :
#
#
# Convention : Reuss Voigt Hill
#
# Bulk Modulus (GPa) = 8.50954 17.75696 13.13325
# Shear Modulus (GPa) = 18.30212 32.07306 25.18759
#
# Velocity S-wave (km/s) = 2.93098 3.88001 3.43840
# Velocity P-wave (km/s) = 3.93045 5.32986 4.68273
#
# Compressibility (1/GPa) = 0.11751511
#
# Stress axis : x y z
#
# Youngs Moduli (GPa) = 23.71678 18.18533 79.25906
#
# Poissons Ratio (x) = -0.21262 0.65759
# Poissons Ratio (y) = -0.27729 -0.03784
# Poissons Ratio (z) = 0.19677 -0.00868
#
# Static dielectric constant tensor:
#      x y z
#    x 1.745370 0.000000 0.000210 
#    y 0.000000 1.783380 0.000010 
#    z 0.000210 0.000010 1.750790 
# 
# From -- ./inp_files/353366.got.cif
#   From: 2010.05.17/outbox.cif.g08.bks.cpg/sg12_177_cif.got.tgz:353366.got - 2010.06.03 13:09:07.
