data_PCOD9189972
_publ_section_title
;
Structure prediction by ZEFSAII (Michael W. Deem and Ramdas Pophale) SiO2 
 PCOD9189972
Probable space group: C 2/M
;
_chemical_formula_sum "Si O2"
_cell_formula_units_Z 36
_cell_length_a 25.529620
_cell_length_b 10.436610
_cell_length_c 14.210695
_cell_angle_alpha 90.000000
_cell_angle_beta 148.179834
_cell_angle_gamma 90.000000
_cell_volume 1996.364062
_symmetry_space_group_name_H-M "C 2/M"
_symmetry_group_IT_number 12
_symmetry_cell_setting 'monoclinic'
loop_
_space_group_symop_operation_xyz
x,y,z
-x,y,-z
-x,-y,-z
x,-y,z
1/2+x,1/2+y,z
1/2-x,1/2+y,-z
1/2-x,1/2-y,-z
1/2+x,1/2-y,z
loop_
_atom_site_type_symbol
_atom_site_label
_atom_site_fract_x
_atom_site_fract_y
_atom_site_fract_z
Si Si1 0.754337 0.500000 0.888688
Si Si2 0.404595 0.500000 0.517090
Si Si3 0.115793 0.737881 0.979926
Si Si4 0.821850 0.147657 0.730367
Si Si5 0.632444 0.500000 0.889439
Si Si6 0.612560 0.742704 0.373609
O O1 0.660833 0.500000 0.675556
O O2 0.714695 0.500000 0.934297
O O3 0.818558 0.625342 0.962930
O O4 0.521981 0.500000 0.676364
O O5 0.380989 0.623524 0.544922
O O6 0.999240 0.705817 0.791323
O O7 0.137493 0.872051 0.960055
O O8 0.141701 0.764186 0.128459
O O9 0.703028 0.163518 0.536609
O O10 0.869502 0.191751 0.704759
O O11 0.848066 0.000000 0.789043
#
# Coordination Sequence:
#
# PCOD9189972 Si02
#       6
#     4   4   8   8   4   8
#     4  12  23  40  59  88 116 153 195 254 290 332
#     4  10  19  39  61  83 113 151 197 235 288 341
#     4  11  23  39  62  86 119 152 195 240 292 346
#     4  11  21  37  61  85 121 156 192 231 287 357
#     4  10  23  41  63  82 112 157 203 241 287 345
#     4  10  22  37  57  91 117 152 187 237 288 349
#
# _framework density 18.032782000000001
#
# number of rings (size 3 to 8) (size 9 to 14) (size 15 to 20)
#    0.000    1.333    4.444    1.667    1.556    0.889 
#    0.000    1.111    0.000    1.333    0.000    0.000 
#    0.000    0.000    0.000    0.000    0.000    0.000 
#
# Total GULP energy -100554.971344 kJ/mol
# GULP energy per Si atom -5586.387297 kJ/mol
# Density = 1.799174 g / cm^3
# Si number density = 18.032782 Si / 1000 Ang^3
#
#
#
# Elastic Constant Matrix: (Units=GPa)
#
#
# Indices 1 2 3 4 5 6 
#
# 1 55.9621 1.8212 5.1108 0.0000 -1.8350 0.0000
# 2 1.8212 58.4883 5.2995 0.0000 10.9497 0.0000
# 3 5.1108 5.2995 57.0789 0.0000 -3.4951 0.0000
# 4 0.0000 0.0000 0.0000 -6.6082 0.0000 -19.7894
# 5 -1.8350 10.9497 -3.4951 0.0000 18.4713 0.0000
# 6 0.0000 0.0000 0.0000 -19.7894 0.0000 6.2643
#
#
#
# Elastic Compliance Matrix: (Units=1/GPa)
#
#
# Indices 1 2 3 4 5 6 
#
# 1 0.018091 -0.000811 -0.001422 0.000000 0.002009 0.000000
# 2 -0.000811 0.019631 -0.002497 0.000000 -0.012190 0.000000
# 3 -0.001422 -0.002497 0.018171 0.000000 0.004777 0.000000
# 4 0.000000 0.000000 0.000000 -0.014467 0.000000 -0.045701
# 5 0.002009 -0.012190 0.004777 0.000000 0.062468 0.000000
# 6 0.000000 0.000000 0.000000 -0.045701 0.000000 0.015261
#
#
# Mechanical properties :
#
#
# Convention : Reuss Voigt Hill
#
# Bulk Modulus (GPa) = 21.53496 21.77693 21.65594
# Shear Modulus (GPa) = 34.70017 14.24533 24.47275
#
# Velocity S-wave (km/s) = 4.39142 2.81369 3.68792
# Velocity P-wave (km/s) = 6.13847 4.76007 5.49268
#
# Compressibility (1/GPa) = 0.04643612
#
# Stress axis : x y z
#
# Youngs Moduli (GPa) = 55.27517 50.93981 55.03219
#
# Poissons Ratio (x) = 0.04129 0.07823
# Poissons Ratio (y) = 0.04480 0.13739
# Poissons Ratio (z) = 0.07858 0.12717
#
# Static dielectric constant tensor:
#      x y z
#    x 1.584130 0.000000 0.011720 
#    y 0.000000 1.582790 0.000000 
#    z 0.011720 0.000000 1.611470 
# 
# From -- ./inp_files/140093.got.cif
#   From: 2010.05.17/outbox.cif.g08.bks.cpg/sg12_71_cif.got.tgz:140093.got - 2010.06.03 13:09:07.
