data_PCOD9189679
_publ_section_title
;
Structure prediction by ZEFSAII (Michael W. Deem and Ramdas Pophale) SiO2 
 PCOD9189679
Probable space group: C 2/M
;
_chemical_formula_sum "Si O2"
_cell_formula_units_Z 48
_cell_length_a 16.861343
_cell_length_b 19.685126
_cell_length_c 9.118470
_cell_angle_alpha 90.000000
_cell_angle_beta 126.750126
_cell_angle_gamma 90.000000
_cell_volume 2425.055775
_symmetry_space_group_name_H-M "C 2/M"
_symmetry_group_IT_number 12
_symmetry_cell_setting 'monoclinic'
loop_
_space_group_symop_operation_xyz
x,y,z
-x,y,-z
-x,-y,-z
x,-y,z
1/2+x,1/2+y,z
1/2-x,1/2+y,-z
1/2-x,1/2-y,-z
1/2+x,1/2-y,z
loop_
_atom_site_type_symbol
_atom_site_label
_atom_site_fract_x
_atom_site_fract_y
_atom_site_fract_z
Si Si1 0.248263 0.359735 0.116938
Si Si2 0.278649 0.210456 0.198432
Si Si3 0.939513 0.329042 0.582916
Si Si4 0.395309 0.923170 0.802850
Si Si5 0.449813 0.576403 0.285834
Si Si6 0.957491 0.209901 0.113701
O O1 0.307166 0.289697 0.215576
O O2 0.178522 0.380774 0.173621
O O3 0.331521 0.415244 0.176714
O O4 0.191205 0.339086 0.903623
O O5 0.329424 0.188418 0.402988
O O6 0.160315 0.212252 0.050360
O O7 0.921315 0.388585 0.677935
O O8 0.000000 0.343851 0.500000
O O9 0.994856 0.267074 0.727832
O O10 0.356689 0.000000 0.743033
O O11 0.500000 0.925919 0.000000
O O12 0.500000 0.586579 0.500000
O O13 0.473466 0.500000 0.261476
O O14 0.480310 0.636386 0.209473
O O15 0.000000 0.219719 0.000000
#
# Coordination Sequence:
#
# PCOD9189679 Si02
#       6
#     8   8   8   8   8   8
#     4  10  19  38  60  85 116 150 193 241 292 346
#     4  10  21  36  62  90 115 150 196 247 295 341
#     4  12  23  39  62  88 117 151 197 248 294 348
#     4  11  24  40  59  84 117 157 196 239 294 351
#     4  10  21  37  59  86 118 158 197 236 290 351
#     4  11  23  39  60  89 120 154 197 245 295 347
#
# _framework density 19.79336
#
# number of rings (size 3 to 8) (size 9 to 14) (size 15 to 20)
#    0.000    1.333    0.000    8.500    0.000    4.667 
#    0.000    4.167    0.000    0.000    0.000    0.000 
#    0.000    0.000    0.000    0.000    0.000    0.000 
#
# Total GULP energy -133861.041463 kJ/mol
# GULP energy per Si atom -5577.543394 kJ/mol
# Density = 1.974831 g / cm^3
# Si number density = 19.793360 Si / 1000 Ang^3
#
#
#
# Elastic Constant Matrix: (Units=GPa)
#
#
# Indices 1 2 3 4 5 6 
#
# 1 107.3867 39.3167 38.9382 0.0000 -30.0533 0.0000
# 2 39.3167 110.7531 60.7320 0.0000 -14.5534 0.0000
# 3 38.9382 60.7320 139.2882 0.0000 -10.4610 0.0000
# 4 0.0000 0.0000 0.0000 8.7639 0.0000 5.7486
# 5 -30.0533 -14.5534 -10.4610 0.0000 29.4668 0.0000
# 6 0.0000 0.0000 0.0000 5.7486 0.0000 16.2694
#
#
#
# Elastic Compliance Matrix: (Units=1/GPa)
#
#
# Indices 1 2 3 4 5 6 
#
# 1 0.014538 -0.002319 -0.002081 0.000000 0.012943 0.000000
# 2 -0.002319 0.012747 -0.004741 0.000000 0.002248 0.000000
# 3 -0.002081 -0.004741 0.009753 0.000000 -0.001001 0.000000
# 4 0.000000 0.000000 0.000000 0.148528 0.000000 -0.052481
# 5 0.012943 0.002248 -0.001001 0.000000 0.047892 0.000000
# 6 0.000000 0.000000 0.000000 -0.052481 0.000000 0.080009
#
#
# Mechanical properties :
#
#
# Convention : Reuss Voigt Hill
#
# Bulk Modulus (GPa) = 53.31462 70.60020 61.95741
# Shear Modulus (GPa) = 14.79282 25.46276 20.12779
#
# Velocity S-wave (km/s) = 2.73676 3.59057 3.19234
# Velocity P-wave (km/s) = 6.08116 7.27569 6.70508
#
# Compressibility (1/GPa) = 0.01875658
#
# Stress axis : x y z
#
# Youngs Moduli (GPa) = 68.78510 78.44718 102.53225
#
# Poissons Ratio (x) = 0.18192 0.21336
# Poissons Ratio (y) = 0.15952 0.48611
# Poissons Ratio (z) = 0.14313 0.37192
#
# Static dielectric constant tensor:
#      x y z
#    x 1.775980 0.000000 0.010490 
#    y 0.000000 1.707490 0.000000 
#    z 0.010490 0.000000 1.688240 
# 
# From -- ./inp_files/77679.got.cif
#   From: 2010.05.17/outbox.cif.g08.bks.cpg/sg12_39_cif.got.tgz:77679.got - 2010.06.03 13:09:07.
