data_PCOD9189242
_publ_section_title
;
Structure prediction by ZEFSAII (Michael W. Deem and Ramdas Pophale) SiO2 
 PCOD9189242
Probable space group: C 2/M
;
_chemical_formula_sum "Si O2"
_cell_formula_units_Z 44
_cell_length_a 10.021040
_cell_length_b 30.006455
_cell_length_c 7.462637
_cell_angle_alpha 90.000000
_cell_angle_beta 130.535529
_cell_angle_gamma 90.000000
_cell_volume 1705.434977
_symmetry_space_group_name_H-M "C 2/M"
_symmetry_group_IT_number 12
_symmetry_cell_setting 'monoclinic'
loop_
_space_group_symop_operation_xyz
x,y,z
-x,y,-z
-x,-y,-z
x,-y,z
1/2+x,1/2+y,z
1/2-x,1/2+y,-z
1/2-x,1/2-y,-z
1/2+x,1/2-y,z
loop_
_atom_site_type_symbol
_atom_site_label
_atom_site_fract_x
_atom_site_fract_y
_atom_site_fract_z
Si Si1 0.804889 0.175280 0.291320
Si Si2 0.500000 0.577328 0.000000
Si Si3 0.726588 0.500000 0.080460
Si Si4 0.696086 0.266762 0.152111
Si Si5 0.697083 0.142396 0.796865
Si Si6 0.871468 0.500000 0.615982
Si Si7 0.116171 0.403301 0.280097
O O1 0.695414 0.219095 0.250164
O O2 0.760462 0.133703 0.374773
O O3 0.000000 0.190293 0.500000
O O4 0.772940 0.157539 0.060714
O O5 0.400694 0.542807 0.049156
O O6 0.336743 0.610257 0.821199
O O7 0.805255 0.500000 0.352219
O O8 0.916750 0.500000 0.151853
O O9 0.813175 0.309198 0.305113
O O10 0.500000 0.284454 0.000000
O O11 0.750000 0.250000 0.000000
O O12 0.522293 0.114818 0.694279
O O13 0.808990 0.452348 0.628486
O O14 0.000000 0.404444 0.000000
#
# Coordination Sequence:
#
# PCOD9189242 Si02
#       7
#     8   4   4   8   8   4   8
#     4  10  22  38  58  87 120 151 197 254 294 344
#     4  11  20  40  60  86 116 158 196 239 298 358
#     4  10  24  36  59  85 124 152 193 254 292 359
#     4  10  19  37  60  86 118 160 198 241 296 362
#     4  10  20  37  64  84 115 160 199 232 298 369
#     4  11  21  40  58  88 119 156 202 247 303 342
#     4  10  21  40  62  85 119 160 199 242 302 358
#
# _framework density 25.799869000000001
#
# number of rings (size 3 to 8) (size 9 to 14) (size 15 to 20)
#    0.000    1.818    2.727    3.000    2.545    0.000 
#    0.000   10.455    0.000    0.000    0.000    0.000 
#    0.000    0.000    0.000    0.000    0.000    0.000 
#
# Total GULP energy -122889.933146 kJ/mol
# GULP energy per Si atom -5585.906052 kJ/mol
# Density = 2.574115 g / cm^3
# Si number density = 25.799869 Si / 1000 Ang^3
#
#
#
# Elastic Constant Matrix: (Units=GPa)
#
#
# Indices 1 2 3 4 5 6 
#
# 1 83.8879 34.5098 14.2276 0.0000 14.0093 0.0000
# 2 34.5098 228.0837 -4.1701 0.0000 -1.4854 0.0000
# 3 14.2276 -4.1701 47.2539 0.0000 -4.6326 0.0000
# 4 0.0000 0.0000 0.0000 -61.0310 0.0000 -137.6717
# 5 14.0093 -1.4854 -4.6326 0.0000 49.5238 0.0000
# 6 0.0000 0.0000 0.0000 -137.6717 0.0000 -284.2061
#
#
#
# Elastic Compliance Matrix: (Units=1/GPa)
#
#
# Indices 1 2 3 4 5 6 
#
# 1 0.014501 -0.002316 -0.005026 0.000000 -0.004642 0.000000
# 2 -0.002316 0.004763 0.001207 0.000000 0.000911 0.000000
# 3 -0.005026 0.001207 0.023137 0.000000 0.003622 0.000000
# 4 0.000000 0.000000 0.000000 0.176735 0.000000 -0.085612
# 5 -0.004642 0.000911 0.003622 0.000000 0.021871 0.000000
# 6 0.000000 0.000000 0.000000 -0.085612 0.000000 0.037952
#
#
# Mechanical properties :
#
#
# Convention : Reuss Voigt Hill
#
# Bulk Modulus (GPa) = 33.18796 49.81779 41.50287
# Shear Modulus (GPa) = 16.59624 -38.16544 -10.78460
#
# Velocity S-wave (km/s) = 2.53902 -3.85032 -2.04675
# Velocity P-wave (km/s) = 4.63542 0.64453 3.24589
#
# Compressibility (1/GPa) = 0.03013141
#
# Stress axis : x y z
#
# Youngs Moduli (GPa) = 68.96080 209.96067 43.22077
#
# Poissons Ratio (x) = 0.48630 0.21721
# Poissons Ratio (y) = 0.15972 -0.05217
# Poissons Ratio (z) = 0.34656 -0.25342
#
# Static dielectric constant tensor:
#      x y z
#    x 2.097860 0.000000 -0.080110 
#    y 0.000000 2.018310 0.000000 
#    z -0.080110 0.000000 2.112000 
# 
# From -- ./inp_files/53458.got.cif
#   From: 2010.05.17/outbox.cif.g08.bks.cpg/sg12_27_cif.got.tgz:53458.got - 2010.06.03 13:09:07.
