data_PCOD9189819
_publ_section_title
;
Structure prediction by ZEFSAII (Michael W. Deem and Ramdas Pophale) SiO2 
 PCOD9189819
Probable space group: C 2/M
;
_chemical_formula_sum "Si O2"
_cell_formula_units_Z 48
_cell_length_a 17.774996
_cell_length_b 28.167967
_cell_length_c 9.102482
_cell_angle_alpha 90.000000
_cell_angle_beta 32.872558
_cell_angle_gamma 90.000000
_cell_volume 2473.674081
_symmetry_space_group_name_H-M "C 2/M"
_symmetry_group_IT_number 12
_symmetry_cell_setting 'monoclinic'
loop_
_space_group_symop_operation_xyz
x,y,z
-x,y,-z
-x,-y,-z
x,-y,z
1/2+x,1/2+y,z
1/2-x,1/2+y,-z
1/2-x,1/2-y,-z
1/2+x,1/2-y,z
loop_
_atom_site_type_symbol
_atom_site_label
_atom_site_fract_x
_atom_site_fract_y
_atom_site_fract_z
Si Si1 0.712395 0.920677 0.223366
Si Si2 0.500000 0.841073 0.500000
Si Si3 0.424173 0.693591 0.461755
Si Si4 0.172352 0.500000 0.047727
Si Si5 0.518898 0.400444 0.796513
Si Si6 0.330778 0.500000 0.506041
Si Si7 0.370491 0.000000 0.416864
Si Si8 0.851848 0.268820 0.958758
O O1 0.617689 0.874789 0.372686
O O2 0.675023 0.954246 0.147525
O O3 0.688353 0.953583 0.404326
O O4 0.870334 0.905745 0.963708
O O5 0.437161 0.810094 0.735526
O O6 0.500000 0.689071 0.500000
O O7 0.410865 0.642969 0.404215
O O8 0.532470 0.728456 0.198043
O O9 0.266714 0.714205 0.732523
O O10 0.032191 0.500000 0.184871
O O11 0.300496 0.500000 0.728034
O O12 0.590792 0.451783 0.664827
O O13 0.500000 0.389541 0.000000
O O14 0.187545 0.500000 0.650486
O O15 0.750000 0.250000 0.000000
#
# Coordination Sequence:
#
# PCOD9189819 Si02
#       8
#     8   4   8   4   8   4   4   8
#     4  11  22  38  66  93 125 172 223 266 319 386
#     4  12  20  35  70 100 132 161 220 270 332 386
#     4  10  22  40  67  97 129 165 222 273 328 387
#     4  11  24  40  61  98 128 164 219 282 315 378
#     4  12  26  43  64  91 132 180 219 267 335 396
#     4  12  26  42  64  90 137 175 212 265 332 398
#     4  11  20  45  61  87 135 172 209 260 328 397
#     4  10  19  38  63  98 132 165 205 278 334 380
#
# _framework density 19.404333999999999
#
# number of rings (size 3 to 8) (size 9 to 14) (size 15 to 20)
#    0.000    1.000    5.833    4.000    4.667    0.667 
#    0.000    0.833    0.000    0.000    0.000    0.000 
#    0.000    0.000    0.000    0.000    0.000    0.000 
#
# Total GULP energy -133909.783960 kJ/mol
# GULP energy per Si atom -5579.574332 kJ/mol
# Density = 1.936017 g / cm^3
# Si number density = 19.404334 Si / 1000 Ang^3
#
#
#
# Elastic Constant Matrix: (Units=GPa)
#
#
# Indices 1 2 3 4 5 6 
#
# 1 43.2264 34.8642 35.0964 0.0000 -16.2182 -0.0001
# 2 34.8642 118.1828 47.7143 0.0000 -4.1730 0.0000
# 3 35.0964 47.7143 106.4585 0.0002 -8.5647 0.0000
# 4 0.0000 0.0000 0.0002 60.1781 -0.0001 8.1815
# 5 -16.2182 -4.1730 -8.5647 -0.0001 30.8731 0.0000
# 6 -0.0001 0.0000 0.0000 8.1815 0.0000 -1.0562
#
#
#
# Elastic Compliance Matrix: (Units=1/GPa)
#
#
# Indices 1 2 3 4 5 6 
#
# 1 0.045479 -0.008921 -0.009379 0.000000 0.020083 -0.000002
# 2 -0.008921 0.012081 -0.002781 0.000000 -0.003825 0.000001
# 3 -0.009379 -0.002781 0.013609 0.000000 -0.001528 0.000000
# 4 0.000000 0.000000 0.000000 0.008094 0.000000 0.062695
# 5 0.020083 -0.003825 -0.001528 0.000000 0.042000 -0.000001
# 6 -0.000002 0.000001 0.000000 0.062695 -0.000001 -0.461146
#
#
# Mechanical properties :
#
#
# Convention : Reuss Voigt Hill
#
# Bulk Modulus (GPa) = 34.47490 55.91305 45.19397
# Shear Modulus (GPa) = -17.35804 28.01184 5.32690
#
# Velocity S-wave (km/s) = -2.99414 3.80358 1.65867
# Velocity P-wave (km/s) = 2.41909 6.94024 5.19706
#
# Compressibility (1/GPa) = 0.02900661
#
# Stress axis : x y z
#
# Youngs Moduli (GPa) = 21.98800 82.77463 73.47971
#
# Poissons Ratio (x) = 0.73840 0.68919
# Poissons Ratio (y) = 0.19615 0.20438
# Poissons Ratio (z) = 0.20623 0.23024
#
# Static dielectric constant tensor:
#      x y z
#    x 1.639200 0.000000 0.010600 
#    y 0.000000 1.629460 0.000000 
#    z 0.010600 0.000000 1.700600 
# 
# From -- ./inp_files/80675.got.cif
#   From: 2010.05.17/outbox.cif.g08.bks.cpg/sg12_41_cif.got.tgz:80675.got - 2010.06.03 13:09:07.
