data_PCOD9189126
_publ_section_title
;
Structure prediction by ZEFSAII (Michael W. Deem and Ramdas Pophale) SiO2 
 PCOD9189126
Probable space group: C 2/M
;
_chemical_formula_sum "Si O2"
_cell_formula_units_Z 44
_cell_length_a 13.141129
_cell_length_b 25.754180
_cell_length_c 10.265905
_cell_angle_alpha 90.000000
_cell_angle_beta 33.183642
_cell_angle_gamma 90.000000
_cell_volume 1901.614061
_symmetry_space_group_name_H-M "C 2/M"
_symmetry_group_IT_number 12
_symmetry_cell_setting 'monoclinic'
loop_
_space_group_symop_operation_xyz
x,y,z
-x,y,-z
-x,-y,-z
x,-y,z
1/2+x,1/2+y,z
1/2-x,1/2+y,-z
1/2-x,1/2-y,-z
1/2+x,1/2-y,z
loop_
_atom_site_type_symbol
_atom_site_label
_atom_site_fract_x
_atom_site_fract_y
_atom_site_fract_z
Si Si1 0.006765 0.057056 0.781863
Si Si2 0.371871 0.109782 0.766053
Si Si3 0.779204 0.323731 0.223119
Si Si4 0.215085 0.209717 0.814135
Si Si5 0.781167 0.353054 0.503298
Si Si6 0.500000 0.589961 0.500000
O O1 0.129825 0.104019 0.707625
O O2 0.041641 0.059775 0.588068
O O3 0.059599 0.000000 0.773488
O O4 0.790371 0.068480 0.040727
O O5 0.500000 0.099700 0.500000
O O6 0.266693 0.165168 0.860420
O O7 0.524375 0.116240 0.715915
O O8 0.735066 0.268562 0.205720
O O9 0.715456 0.325716 0.442640
O O10 0.670945 0.372045 0.280166
O O11 0.000000 0.328718 0.000000
O O12 0.315819 0.190237 0.574940
O O13 0.000000 0.209385 0.000000
#
# Coordination Sequence:
#
# PCOD9189126 Si02
#       6
#     8   8   8   8   8   4
#     4  11  23  42  63  86 118 157 203 253 296 341
#     4  10  22  38  62  87 125 152 196 246 296 357
#     4  10  21  36  57  87 121 156 196 234 293 353
#     4  10  19  37  57  86 123 158 189 236 294 350
#     4  10  21  38  58  85 120 156 196 245 285 355
#     4  10  23  40  62  90 118 156 203 244 292 356
#
# _framework density 23.138238000000001
#
# number of rings (size 3 to 8) (size 9 to 14) (size 15 to 20)
#    0.000    1.818    1.818    1.909    3.818    1.091 
#    0.000    9.091    0.000    6.000    0.000    0.000 
#    0.000    0.000    0.000    0.000    0.000    0.000 
#
# Total GULP energy -122886.304428 kJ/mol
# GULP energy per Si atom -5585.741110 kJ/mol
# Density = 2.308557 g / cm^3
# Si number density = 23.138238 Si / 1000 Ang^3
#
#
#
# Elastic Constant Matrix: (Units=GPa)
#
#
# Indices 1 2 3 4 5 6 
#
# 1 37.0966 -0.4806 -6.8806 0.0000 -2.4306 0.0000
# 2 -0.4806 111.9502 28.3462 0.0000 -4.8890 0.0000
# 3 -6.8806 28.3462 93.4289 0.0000 -23.7235 0.0000
# 4 0.0000 0.0000 0.0000 12.9365 0.0000 -3.8095
# 5 -2.4306 -4.8890 -23.7235 0.0000 39.5814 0.0000
# 6 0.0000 0.0000 0.0000 -3.8095 0.0000 9.8853
#
#
#
# Elastic Compliance Matrix: (Units=1/GPa)
#
#
# Indices 1 2 3 4 5 6 
#
# 1 0.027751 -0.000509 0.003084 0.000000 0.003490 0.000000
# 2 -0.000509 0.009700 -0.003166 0.000000 -0.000731 0.000000
# 3 0.003084 -0.003166 0.013965 0.000000 0.008169 0.000000
# 4 0.000000 0.000000 0.000000 0.087196 0.000000 0.033603
# 5 0.003490 -0.000731 0.008169 0.000000 0.030284 0.000000
# 6 0.000000 0.000000 0.000000 0.033603 0.000000 0.114110
#
#
# Mechanical properties :
#
#
# Convention : Reuss Voigt Hill
#
# Bulk Modulus (GPa) = 19.90685 31.60507 25.75596
# Shear Modulus (GPa) = 16.61497 27.24667 21.93082
#
# Velocity S-wave (km/s) = 2.68260 3.43528 3.08200
# Velocity P-wave (km/s) = 4.26816 5.42437 4.88063
#
# Compressibility (1/GPa) = 0.05023397
#
# Stress axis : x y z
#
# Youngs Moduli (GPa) = 36.03498 103.09169 71.60646
#
# Poissons Ratio (x) = 0.05252 -0.22087
# Poissons Ratio (y) = 0.01836 0.22671
# Poissons Ratio (z) = -0.11115 0.32640
#
# Static dielectric constant tensor:
#      x y z
#    x 1.899570 0.000000 0.020810 
#    y 0.000000 1.817860 0.000000 
#    z 0.020810 0.000000 1.942530 
# 
# From -- ./inp_files/149391.got.cif
#   From: 2010.05.17/outbox.cif.g08.bks.cpg/sg12_75_cif.got.tgz:149391.got - 2010.06.03 13:09:07.
