data_PCOD9189247
_publ_section_title
;
Structure prediction by ZEFSAII (Michael W. Deem and Ramdas Pophale) SiO2 
 PCOD9189247
Probable space group: C 2/M
;
_chemical_formula_sum "Si O2"
_cell_formula_units_Z 48
_cell_length_a 22.386701
_cell_length_b 8.554360
_cell_length_c 12.487707
_cell_angle_alpha 90.000000
_cell_angle_beta 99.805605
_cell_angle_gamma 90.000000
_cell_volume 2356.508554
_symmetry_space_group_name_H-M "C 2/M"
_symmetry_group_IT_number 12
_symmetry_cell_setting 'monoclinic'
loop_
_space_group_symop_operation_xyz
x,y,z
-x,y,-z
-x,-y,-z
x,-y,z
1/2+x,1/2+y,z
1/2-x,1/2+y,-z
1/2-x,1/2-y,-z
1/2+x,1/2-y,z
loop_
_atom_site_type_symbol
_atom_site_label
_atom_site_fract_x
_atom_site_fract_y
_atom_site_fract_z
Si Si1 0.183149 0.814079 0.476373
Si Si2 0.480934 0.681788 0.373531
Si Si3 0.142699 0.317445 0.687875
Si Si4 0.312293 0.810017 0.072162
Si Si5 0.400644 0.316995 0.737314
Si Si6 0.569835 0.185483 0.026782
O O1 0.250000 0.750000 0.500000
O O2 0.152884 0.766249 0.578436
O O3 0.149706 0.754891 0.359916
O O4 0.181840 0.000000 0.468546
O O5 0.500000 0.728978 0.500000
O O6 0.460567 0.500000 0.373865
O O7 0.427846 0.787333 0.310261
O O8 0.538121 0.687888 0.313416
O O9 0.155136 0.500000 0.676672
O O10 0.181837 0.262145 0.801212
O O11 0.311477 0.000000 0.067995
O O12 0.250000 0.750000 0.000000
O O13 0.375151 0.756633 0.033182
O O14 0.388706 0.500000 0.760707
O O15 0.407685 0.220491 0.846801
O O16 0.565491 0.000000 0.005068
O O17 0.500000 0.248831 0.000000
#
# Coordination Sequence:
#
# PCOD9189247 Si02
#       6
#     8   8   8   8   8   8
#     4  11  24  42  61  88 125 163 203 251 306 365
#     4  10  19  37  60  87 123 161 196 241 304 365
#     4  11  23  40  63  92 123 158 204 254 305 367
#     4  10  24  43  63  90 123 163 208 258 312 369
#     4  10  22  39  62  90 123 158 200 251 304 365
#     4  10  22  42  65  90 124 162 206 259 312 365
#
# _framework density 20.369118
#
# number of rings (size 3 to 8) (size 9 to 14) (size 15 to 20)
#    0.000    1.667    1.667    2.000    2.333    6.000 
#    0.000    0.000    0.000    0.000    0.000    0.000 
#    0.000    0.000    0.000    0.000    0.000    0.000 
#
# Total GULP energy -133995.881840 kJ/mol
# GULP energy per Si atom -5583.161743 kJ/mol
# Density = 2.032276 g / cm^3
# Si number density = 20.369118 Si / 1000 Ang^3
#
#
#
# Elastic Constant Matrix: (Units=GPa)
#
#
# Indices 1 2 3 4 5 6 
#
# 1 83.1136 3.5746 25.0825 0.0000 20.2474 0.0000
# 2 3.5746 5.0993 5.4251 0.0000 3.3317 0.0000
# 3 25.0825 5.4251 112.0378 0.0000 23.8580 0.0000
# 4 0.0000 0.0000 0.0000 29.2429 0.0000 1.9609
# 5 20.2474 3.3317 23.8580 0.0000 32.8584 0.0000
# 6 0.0000 0.0000 0.0000 1.9609 0.0000 28.0385
#
#
#
# Elastic Compliance Matrix: (Units=1/GPa)
#
#
# Indices 1 2 3 4 5 6 
#
# 1 0.014452 -0.003692 -0.001467 0.000000 -0.007466 0.000000
# 2 -0.003692 0.215256 -0.006427 0.000000 -0.014884 0.000000
# 3 -0.001467 -0.006427 0.010923 0.000000 -0.006375 0.000000
# 4 0.000000 0.000000 0.000000 0.034357 0.000000 -0.002403
# 5 -0.007466 -0.014884 -0.006375 0.000000 0.041172 0.000000
# 6 0.000000 0.000000 0.000000 -0.002403 0.000000 0.035833
#
#
# Mechanical properties :
#
#
# Convention : Reuss Voigt Hill
#
# Bulk Modulus (GPa) = 4.59859 29.82390 17.21124
# Shear Modulus (GPa) = 11.16939 29.10585 20.13762
#
# Velocity S-wave (km/s) = 2.34423 3.78421 3.14767
# Velocity P-wave (km/s) = 3.09673 5.81095 4.65601
#
# Compressibility (1/GPa) = 0.21745807
#
# Stress axis : x y z
#
# Youngs Moduli (GPa) = 69.19469 4.64564 91.55199
#
# Poissons Ratio (x) = 0.01715 0.13429
# Poissons Ratio (y) = 0.25549 0.58841
# Poissons Ratio (z) = 0.10150 0.02986
#
# Static dielectric constant tensor:
#      x y z
#    x 1.813080 0.000000 -0.031640 
#    y 0.000000 1.708590 0.000000 
#    z -0.031640 0.000000 1.725800 
# 
# From -- ./inp_files/173075.got.cif
#   From: 2010.05.17/outbox.cif.g08.bks.cpg/sg12_87_cif.got.tgz:173075.got - 2010.06.03 13:09:07.
