data_PCOD9189884
_publ_section_title
;
Structure prediction by ZEFSAII (Michael W. Deem and Ramdas Pophale) SiO2 
 PCOD9189884
Probable space group: C 2/M
;
_chemical_formula_sum "Si O2"
_cell_formula_units_Z 48
_cell_length_a 20.952311
_cell_length_b 17.321668
_cell_length_c 9.120946
_cell_angle_alpha 90.000000
_cell_angle_beta 133.463814
_cell_angle_gamma 90.000000
_cell_volume 2402.613184
_symmetry_space_group_name_H-M "C 2/M"
_symmetry_group_IT_number 12
_symmetry_cell_setting 'monoclinic'
loop_
_space_group_symop_operation_xyz
x,y,z
-x,y,-z
-x,-y,-z
x,-y,z
1/2+x,1/2+y,z
1/2-x,1/2+y,-z
1/2-x,1/2-y,-z
1/2+x,1/2-y,z
loop_
_atom_site_type_symbol
_atom_site_label
_atom_site_fract_x
_atom_site_fract_y
_atom_site_fract_z
Si Si1 0.281512 0.090070 0.261201
Si Si2 0.580568 0.407774 0.441959
Si Si3 0.924419 0.592177 0.000180
Si Si4 0.252595 0.093933 0.548014
Si Si5 0.612562 0.358681 0.826381
Si Si6 0.086847 0.688550 0.728250
O O1 0.274416 0.118249 0.417495
O O2 0.349517 0.139264 0.274373
O O3 0.308022 0.000000 0.303759
O O4 0.186438 0.098458 0.035587
O O5 0.571202 0.500000 0.412543
O O6 0.658158 0.379736 0.458260
O O7 0.608801 0.390060 0.653874
O O8 0.485332 0.371132 0.265023
O O9 0.923207 0.500000 0.027050
O O10 0.830789 0.615059 0.781992
O O11 0.938928 0.637895 0.172182
O O12 0.000000 0.606722 0.000000
O O13 0.249899 0.000000 0.541751
O O14 0.631511 0.267801 0.849635
O O15 0.000000 0.710371 0.500000
#
# Coordination Sequence:
#
# PCOD9189884 Si02
#       6
#     8   8   8   8   8   8
#     4  11  23  40  65  93 122 162 211 258 305 366
#     4  10  19  38  66  87 120 167 209 254 302 366
#     4  10  21  40  64  89 122 166 214 257 302 367
#     4   9  20  38  61  93 121 153 207 261 305 355
#     4  11  22  40  59  91 127 160 204 255 311 372
#     4  12  24  41  61  91 129 163 201 258 314 369
#
# _framework density 19.978247
#
# number of rings (size 3 to 8) (size 9 to 14) (size 15 to 20)
#    0.000    1.500    1.667    5.000    0.000    4.667 
#    3.000    4.167    0.000    0.000    0.000    0.000 
#    0.000    0.000    0.000    0.000    0.000    0.000 
#
# Total GULP energy -134183.578181 kJ/mol
# GULP energy per Si atom -5590.982424 kJ/mol
# Density = 1.993278 g / cm^3
# Si number density = 19.978247 Si / 1000 Ang^3
#
#
#
# Elastic Constant Matrix: (Units=GPa)
#
#
# Indices 1 2 3 4 5 6 
#
# 1 98.0868 37.6232 -6.3971 0.0000 -6.1896 0.0000
# 2 37.6232 60.5280 -4.0663 0.0000 -6.5359 0.0000
# 3 -6.3971 -4.0663 29.4212 0.0000 -5.7050 0.0000
# 4 0.0000 0.0000 0.0000 14.4037 0.0000 23.8948
# 5 -6.1896 -6.5359 -5.7050 0.0000 27.2114 0.0000
# 6 0.0000 0.0000 0.0000 23.8948 0.0000 -25.2220
#
#
#
# Elastic Compliance Matrix: (Units=1/GPa)
#
#
# Indices 1 2 3 4 5 6 
#
# 1 0.013542 -0.008104 0.002131 0.000000 0.001581 0.000000
# 2 -0.008104 0.022117 0.002051 0.000000 0.003899 0.000000
# 3 0.002131 0.002051 0.036405 0.000000 0.008610 0.000000
# 4 0.000000 0.000000 0.000000 0.026997 0.000000 0.025576
# 5 0.001581 0.003899 0.008610 0.000000 0.039850 0.000000
# 6 0.000000 0.000000 0.000000 0.025576 0.000000 -0.015417
#
#
# Mechanical properties :
#
#
# Convention : Reuss Voigt Hill
#
# Bulk Modulus (GPa) = 15.57126 26.92843 21.24985
# Shear Modulus (GPa) = 32.73417 14.00369 23.36893
#
# Velocity S-wave (km/s) = 4.05222 2.65041 3.42383
# Velocity P-wave (km/s) = 5.45023 4.78272 5.12735
#
# Compressibility (1/GPa) = 0.06422087
#
# Stress axis : x y z
#
# Youngs Moduli (GPa) = 73.84372 45.21370 27.46848
#
# Poissons Ratio (x) = 0.36640 -0.05853
# Poissons Ratio (y) = 0.59841 -0.05633
# Poissons Ratio (z) = -0.15736 -0.09273
#
# Static dielectric constant tensor:
#      x y z
#    x 1.691250 0.000000 0.012070 
#    y 0.000000 1.683450 0.000000 
#    z 0.012070 0.000000 1.675300 
# 
# From -- ./inp_files/88143.got.cif
#   From: 2010.05.17/outbox.cif.g08.bks.cpg/sg12_45_cif.got.tgz:88143.got - 2010.06.03 13:09:07.
