data_PCOD9189911
_publ_section_title
;
Structure prediction by ZEFSAII (Michael W. Deem and Ramdas Pophale) SiO2 
 PCOD9189911
Probable space group: C 2/M
;
_chemical_formula_sum "Si O2"
_cell_formula_units_Z 46
_cell_length_a 22.293302
_cell_length_b 7.794530
_cell_length_c 17.269171
_cell_angle_alpha 90.000000
_cell_angle_beta 45.666560
_cell_angle_gamma 90.000000
_cell_volume 2146.421124
_symmetry_space_group_name_H-M "C 2/M"
_symmetry_group_IT_number 12
_symmetry_cell_setting 'monoclinic'
loop_
_space_group_symop_operation_xyz
x,y,z
-x,y,-z
-x,-y,-z
x,-y,z
1/2+x,1/2+y,z
1/2-x,1/2+y,-z
1/2-x,1/2-y,-z
1/2+x,1/2-y,z
loop_
_atom_site_type_symbol
_atom_site_label
_atom_site_fract_x
_atom_site_fract_y
_atom_site_fract_z
Si Si1 0.120592 0.305510 0.960216
Si Si2 0.197544 0.500000 0.354750
Si Si3 0.000000 0.500000 0.500000
Si Si4 0.430110 0.000000 0.743319
Si Si5 0.708173 0.695426 0.457408
Si Si6 0.240701 0.000000 0.876866
Si Si7 0.073371 0.203905 0.839095
Si Si8 0.457342 0.697992 0.302388
O O1 0.136103 0.500000 0.970907
O O2 0.121806 0.294641 0.865032
O O3 0.184069 0.168702 0.939102
O O4 0.025143 0.251020 0.064610
O O5 0.096807 0.500000 0.444372
O O6 0.226649 0.332898 0.375243
O O7 0.233661 0.500000 0.236734
O O8 0.038241 0.500000 0.374543
O O9 0.469691 0.168132 0.747354
O O10 0.329688 0.000000 0.839246
O O11 0.729340 0.500000 0.418208
O O12 0.750000 0.750000 0.500000
O O13 0.608875 0.702589 0.567824
O O14 0.090870 0.245196 0.733830
O O15 0.082994 0.000000 0.842655
O O16 0.485831 0.500000 0.267683
#
# Coordination Sequence:
#
# PCOD9189911 Si02
#       8
#     8   4   2   4   8   4   8   8
#     4  11  22  39  62  96 128 162 207 252 314 370
#     4  11  23  42  61  88 123 165 207 247 307 360
#     4  10  20  44  66  82 114 174 204 252 290 368
#     4  11  23  44  67  83 121 170 215 247 308 361
#     4  11  22  37  60  94 129 155 196 253 314 372
#     4  11  26  42  62  85 127 166 210 257 300 365
#     4  10  19  38  67  92 130 163 199 256 314 373
#     4  10  23  39  64  94 122 161 210 252 305 373
#
# _framework density 21.431023
#
# number of rings (size 3 to 8) (size 9 to 14) (size 15 to 20)
#    0.000    1.391    4.348    1.565    4.870    1.391 
#    0.000    4.348    0.000    0.000    0.000    0.000 
#    0.000    0.000    0.000    0.000    0.000    0.000 
#
# Total GULP energy -128372.370741 kJ/mol
# GULP energy per Si atom -5581.407424 kJ/mol
# Density = 2.138224 g / cm^3
# Si number density = 21.431023 Si / 1000 Ang^3
#
#
#
# Elastic Constant Matrix: (Units=GPa)
#
#
# Indices 1 2 3 4 5 6 
#
# 1 88.7487 40.1535 -6.7479 -0.0005 -22.1306 -0.0001
# 2 40.1535 135.9468 5.0258 -0.0031 -14.0317 0.0026
# 3 -6.7479 5.0258 51.1482 -0.0012 -6.9226 0.0012
# 4 -0.0005 -0.0031 -0.0012 9.4940 0.0011 -1.6688
# 5 -22.1306 -14.0317 -6.9226 0.0011 45.3157 -0.0003
# 6 -0.0001 0.0026 0.0012 -1.6688 -0.0003 13.6311
#
#
#
# Elastic Compliance Matrix: (Units=1/GPa)
#
#
# Indices 1 2 3 4 5 6 
#
# 1 0.014890 -0.003839 0.003232 -0.000001 0.006577 0.000001
# 2 -0.003839 0.008598 -0.001271 0.000002 0.000593 -0.000001
# 3 0.003232 -0.001271 0.020690 0.000002 0.004345 -0.000001
# 4 -0.000001 0.000002 0.000002 0.107646 -0.000002 0.013178
# 5 0.006577 0.000593 0.004345 -0.000002 0.026127 0.000000
# 6 0.000001 -0.000001 -0.000001 0.013178 0.000000 0.074975
#
#
# Mechanical properties :
#
#
# Convention : Reuss Voigt Hill
#
# Bulk Modulus (GPa) = 24.73840 39.18959 31.96399
# Shear Modulus (GPa) = 18.50781 29.51566 24.01173
#
# Velocity S-wave (km/s) = 2.94189 3.71514 3.35090
# Velocity P-wave (km/s) = 4.80708 6.06046 5.46979
#
# Compressibility (1/GPa) = 0.04042299
#
# Stress axis : x y z
#
# Youngs Moduli (GPa) = 67.15769 116.30812 48.33158
#
# Poissons Ratio (x) = 0.44647 -0.15620
# Poissons Ratio (y) = 0.25780 0.06143
# Poissons Ratio (z) = -0.21704 0.14782
#
# Static dielectric constant tensor:
#      x y z
#    x 1.767150 0.000000 -0.009610 
#    y 0.000000 1.745990 0.000000 
#    z -0.009610 0.000000 1.849100 
# 
# From -- ./inp_files/280844.got.cif
#   From: 2010.05.17/outbox.cif.g08.bks.cpg/sg12_141_cif.got.tgz:280844.got - 2010.06.03 13:09:07.
