data_PCOD9189401
_publ_section_title
;
Structure prediction by ZEFSAII (Michael W. Deem and Ramdas Pophale) SiO2 
 PCOD9189401
Probable space group: C 2/M
;
_chemical_formula_sum "Si O2"
_cell_formula_units_Z 50
_cell_length_a 14.493860
_cell_length_b 14.948615
_cell_length_c 18.194605
_cell_angle_alpha 90.000000
_cell_angle_beta 36.534364
_cell_angle_gamma 90.000000
_cell_volume 2346.751145
_symmetry_space_group_name_H-M "C 2/M"
_symmetry_group_IT_number 12
_symmetry_cell_setting 'monoclinic'
loop_
_space_group_symop_operation_xyz
x,y,z
-x,y,-z
-x,-y,-z
x,-y,z
1/2+x,1/2+y,z
1/2-x,1/2+y,-z
1/2-x,1/2-y,-z
1/2+x,1/2-y,z
loop_
_atom_site_type_symbol
_atom_site_label
_atom_site_fract_x
_atom_site_fract_y
_atom_site_fract_z
Si Si1 0.119121 0.897757 0.602699
Si Si2 0.524774 0.809467 0.110166
Si Si3 0.679934 0.139381 0.382915
Si Si4 0.000000 0.000000 0.500000
Si Si5 0.846669 0.834185 0.132631
Si Si6 0.238204 0.848794 0.371323
Si Si7 0.666808 0.294953 0.149939
O O1 0.222106 0.895547 0.610424
O O2 0.214221 0.856903 0.474187
O O3 0.959680 0.845632 0.720542
O O4 0.083771 0.000000 0.602329
O O5 0.416512 0.758002 0.121975
O O6 0.412550 0.866945 0.232674
O O7 0.585096 0.731626 0.126215
O O8 0.676294 0.847294 0.973063
O O9 0.500000 0.112995 0.500000
O O10 0.762023 0.115820 0.253218
O O11 0.690777 0.247678 0.381486
O O12 0.870713 0.921090 0.595769
O O13 0.725076 0.796931 0.150911
O O14 0.000000 0.879342 0.000000
#
# Coordination Sequence:
#
# PCOD9189401 Si02
#       7
#     8   8   8   2   8   8   8
#     4  12  25  39  57  87 126 163 204 253 305 359
#     4   9  20  36  61  90 117 155 206 251 303 369
#     4  11  22  38  63  85 113 160 205 248 298 367
#     4  12  24  40  64  90 128 152 200 262 314 368
#     4   9  18  33  59  91 116 147 198 250 297 362
#     4  11  22  40  60  90 121 156 200 249 310 366
#     4  10  19  37  62  89 118 155 201 256 304 360
#
# _framework density 21.306051
#
# number of rings (size 3 to 8) (size 9 to 14) (size 15 to 20)
#    0.000    1.600    4.800    1.440    4.480    0.320 
#    1.440    0.000    0.000    2.880    0.000    0.000 
#    0.000    0.000    0.000    0.000    0.000    0.000 
#
# Total GULP energy -139265.500413 kJ/mol
# GULP energy per Si atom -5570.620017 kJ/mol
# Density = 2.125756 g / cm^3
# Si number density = 21.306051 Si / 1000 Ang^3
#
#
#
# Elastic Constant Matrix: (Units=GPa)
#
#
# Indices 1 2 3 4 5 6 
#
# 1 46.3480 -4.1283 42.0443 -0.0001 -3.1050 0.0000
# 2 -4.1283 49.5435 -0.1534 -0.0005 -5.5193 0.0002
# 3 42.0443 -0.1534 217.2046 -0.0007 -9.8916 0.0002
# 4 -0.0001 -0.0005 -0.0007 -16.0160 0.0003 -8.2890
# 5 -3.1050 -5.5193 -9.8916 0.0003 41.2122 -0.0001
# 6 0.0000 0.0002 0.0002 -8.2890 -0.0001 16.6047
#
#
#
# Elastic Compliance Matrix: (Units=1/GPa)
#
#
# Indices 1 2 3 4 5 6 
#
# 1 0.026453 0.002310 -0.005069 0.000000 0.001086 0.000000
# 2 0.002310 0.020696 -0.000302 0.000000 0.002873 0.000000
# 3 -0.005069 -0.000302 0.005627 0.000000 0.000928 0.000000
# 4 0.000000 0.000000 0.000000 -0.049618 0.000000 -0.024769
# 5 0.001086 0.002873 0.000928 0.000000 0.024954 0.000000
# 6 0.000000 0.000000 0.000000 -0.024769 0.000000 0.047859
#
#
# Mechanical properties :
#
#
# Convention : Reuss Voigt Hill
#
# Bulk Modulus (GPa) = 21.43476 43.18013 32.30745
# Shear Modulus (GPa) = 51.20566 26.71574 38.96070
#
# Velocity S-wave (km/s) = 4.90770 3.54489 4.28088
# Velocity P-wave (km/s) = 6.49587 6.08815 6.29531
#
# Compressibility (1/GPa) = 0.04665318
#
# Stress axis : x y z
#
# Youngs Moduli (GPa) = 37.80284 48.31879 177.70479
#
# Poissons Ratio (x) = -0.11159 0.90086
# Poissons Ratio (y) = -0.08731 0.05359
# Poissons Ratio (z) = 0.19164 0.01457
#
# Static dielectric constant tensor:
#      x y z
#    x 1.398660 0.000000 -0.001960 
#    y 0.000000 1.717480 0.000000 
#    z -0.001960 0.000000 1.856860 
# 
# From -- ./inp_files/271137.got.cif
#   From: 2010.05.17/outbox.cif.g08.bks.cpg/sg12_136_cif.got.tgz:271137.got - 2010.06.03 13:09:07.
