data_PCOD9189430
_publ_section_title
;
Structure prediction by ZEFSAII (Michael W. Deem and Ramdas Pophale) SiO2 
 PCOD9189430
Probable space group: C 2/M
;
_chemical_formula_sum "Si O2"
_cell_formula_units_Z 64
_cell_length_a 33.183809
_cell_length_b 14.130627
_cell_length_c 8.736095
_cell_angle_alpha 90.000000
_cell_angle_beta 57.424792
_cell_angle_gamma 90.000000
_cell_volume 3451.997788
_symmetry_space_group_name_H-M "C 2/M"
_symmetry_group_IT_number 12
_symmetry_cell_setting 'monoclinic'
loop_
_space_group_symop_operation_xyz
x,y,z
-x,y,-z
-x,-y,-z
x,-y,z
1/2+x,1/2+y,z
1/2-x,1/2+y,-z
1/2-x,1/2-y,-z
1/2+x,1/2-y,z
loop_
_atom_site_type_symbol
_atom_site_label
_atom_site_fract_x
_atom_site_fract_y
_atom_site_fract_z
Si Si1 0.926284 0.610089 0.296438
Si Si2 0.507647 0.787873 0.308516
Si Si3 0.828690 0.609551 0.669137
Si Si4 0.106508 0.286058 0.944263
Si Si5 0.028017 0.891161 0.784279
Si Si6 0.368195 0.610065 0.285981
Si Si7 0.693857 0.111921 0.927160
Si Si8 0.277928 0.278302 0.597366
O O1 0.928556 0.500000 0.249491
O O2 0.884058 0.622378 0.507762
O O3 0.911604 0.671036 0.179443
O O4 0.975937 0.644678 0.265529
O O5 0.500000 0.811928 0.500000
O O6 0.488457 0.682925 0.308048
O O7 0.562827 0.792596 0.150102
O O8 0.816282 0.500000 0.658361
O O9 0.798158 0.683773 0.634496
O O10 0.819570 0.624862 0.867327
O O11 0.121282 0.177908 0.879888
O O12 0.151372 0.344993 0.912165
O O13 0.084283 0.884040 0.705975
O O14 0.016562 0.000000 0.769707
O O15 0.000000 0.867952 0.000000
O O16 0.361070 0.500000 0.261426
O O17 0.322468 0.654700 0.462737
O O18 0.741775 0.166767 0.782476
O O19 0.698898 0.000000 0.887620
O O20 0.250000 0.250000 0.500000
#
# Coordination Sequence:
#
# PCOD9189430 Si02
#       8
#     8   8   8   8   8   8   8   8
#     4  11  22  40  63  89 120 160 209 252 299 365
#     4  12  24  37  58  90 127 162 198 247 311 371
#     4  10  22  41  65  92 127 163 202 251 310 372
#     4  12  22  40  63  88 120 162 209 258 300 362
#     4  10  19  37  63  85 113 156 203 248 298 356
#     4  11  22  38  63  90 118 154 205 260 302 351
#     4  11  24  41  61  91 127 166 204 252 313 364
#     4  12  22  40  64  92 124 163 209 255 300 363
#
# _framework density 18.539988999999998
#
# number of rings (size 3 to 8) (size 9 to 14) (size 15 to 20)
#    0.000    0.875    5.000    2.250    0.000    4.000 
#    0.000    0.000    0.000    0.750    0.000    0.000 
#    0.000    0.000    0.000    0.000    0.000    0.000 
#
# Total GULP energy -178897.357394 kJ/mol
# GULP energy per Si atom -5590.542419 kJ/mol
# Density = 1.849779 g / cm^3
# Si number density = 18.539989 Si / 1000 Ang^3
#
#
#
# Elastic Constant Matrix: (Units=GPa)
#
#
# Indices 1 2 3 4 5 6 
#
# 1 55.5608 23.9702 14.2128 0.0000 -12.1919 0.0000
# 2 23.9702 99.3488 28.4001 0.0000 -3.7876 0.0000
# 3 14.2128 28.4001 110.4304 0.0000 -20.4600 0.0000
# 4 0.0000 0.0000 0.0000 29.5803 0.0000 -0.0768
# 5 -12.1919 -3.7876 -20.4600 0.0000 31.3347 0.0000
# 6 0.0000 0.0000 0.0000 -0.0768 0.0000 13.3394
#
#
#
# Elastic Compliance Matrix: (Units=1/GPa)
#
#
# Indices 1 2 3 4 5 6 
#
# 1 0.021883 -0.004956 -0.000086 0.000000 0.007859 0.000000
# 2 -0.004956 0.011996 -0.002885 0.000000 -0.002362 0.000000
# 3 -0.000086 -0.002885 0.011078 0.000000 0.006851 0.000000
# 4 0.000000 0.000000 0.000000 0.033807 0.000000 0.000195
# 5 0.007859 -0.002362 0.006851 0.000000 0.039159 0.000000
# 6 0.000000 0.000000 0.000000 0.000195 0.000000 0.074967
#
#
# Mechanical properties :
#
#
# Convention : Reuss Voigt Hill
#
# Bulk Modulus (GPa) = 34.35959 44.27846 39.31903
# Shear Modulus (GPa) = 22.88924 28.10135 25.49529
#
# Velocity S-wave (km/s) = 3.51748 3.89744 3.71233
# Velocity P-wave (km/s) = 5.92198 6.64740 6.29515
#
# Compressibility (1/GPa) = 0.02910396
#
# Stress axis : x y z
#
# Youngs Moduli (GPa) = 45.69805 83.36242 90.27084
#
# Poissons Ratio (x) = 0.41311 0.00775
# Poissons Ratio (y) = 0.22646 0.26041
# Poissons Ratio (z) = 0.00392 0.24049
#
# Static dielectric constant tensor:
#      x y z
#    x 1.608020 0.000000 -0.010730 
#    y 0.000000 1.637350 0.000000 
#    z -0.010730 0.000000 1.631560 
# 
# From -- ./inp_files/111990.got.cif
#   From: 2010.05.17/outbox.cif.g08.bks.cpg/sg12_56_cif.got.tgz:111990.got - 2010.06.03 13:09:07.
