data_PCOD9189873
_publ_section_title
;
Structure prediction by ZEFSAII (Michael W. Deem and Ramdas Pophale) SiO2 
 PCOD9189873
Probable space group: C 2/M
;
_chemical_formula_sum "Si O2"
_cell_formula_units_Z 48
_cell_length_a 8.147565
_cell_length_b 28.842329
_cell_length_c 11.394161
_cell_angle_alpha 90.000000
_cell_angle_beta 54.360214
_cell_angle_gamma 90.000000
_cell_volume 2176.049731
_symmetry_space_group_name_H-M "C 2/M"
_symmetry_group_IT_number 12
_symmetry_cell_setting 'monoclinic'
loop_
_space_group_symop_operation_xyz
x,y,z
-x,y,-z
-x,-y,-z
x,-y,z
1/2+x,1/2+y,z
1/2-x,1/2+y,-z
1/2-x,1/2-y,-z
1/2+x,1/2-y,z
loop_
_atom_site_type_symbol
_atom_site_label
_atom_site_fract_x
_atom_site_fract_y
_atom_site_fract_z
Si Si1 0.639460 0.105927 0.060920
Si Si2 0.805960 0.552540 0.319352
Si Si3 0.237849 0.797517 0.434546
Si Si4 0.035048 0.052516 0.196248
Si Si5 0.903030 0.292890 0.913555
Si Si6 0.221904 0.606524 0.448138
O O1 0.814514 0.069107 0.967369
O O2 0.500000 0.106692 0.000000
O O3 0.490869 0.086912 0.220732
O O4 0.708420 0.157984 0.060552
O O5 0.870833 0.500000 0.312956
O O6 0.672461 0.552499 0.257507
O O7 0.706341 0.573086 0.476371
O O8 0.250000 0.750000 0.500000
O O9 0.410031 0.792461 0.259540
O O10 0.280695 0.841492 0.500547
O O11 0.000000 0.803404 0.500000
O O12 0.873115 0.093136 0.281409
O O13 0.957425 0.000000 0.212897
O O14 0.750000 0.250000 0.000000
O O15 0.000000 0.297217 0.000000
O O16 0.000000 0.593533 0.500000
#
# Coordination Sequence:
#
# PCOD9189873 Si02
#       6
#     8   8   8   8   8   8
#     4   9  19  37  64  95 126 161 213 268 332 387
#     4  10  19  38  65  93 125 166 216 272 324 388
#     4  12  26  46  73 101 133 172 220 273 332 399
#     4  10  21  38  65  96 126 170 220 273 329 391
#     4  11  24  43  69 100 132 170 214 271 334 395
#     4  12  26  41  61  92 133 175 220 265 326 388
#
# _framework density 22.058319999999998
#
# number of rings (size 3 to 8) (size 9 to 14) (size 15 to 20)
#    0.000    1.333    1.667    4.000    7.000    4.667 
#    0.000    0.833    0.000    2.000    0.000    0.000 
#    0.000    0.000    0.000    0.000    0.000    0.000 
#
# Total GULP energy -133892.554025 kJ/mol
# GULP energy per Si atom -5578.856418 kJ/mol
# Density = 2.200811 g / cm^3
# Si number density = 22.058320 Si / 1000 Ang^3
#
#
#
# Elastic Constant Matrix: (Units=GPa)
#
#
# Indices 1 2 3 4 5 6 
#
# 1 30.3764 5.1769 1.1185 0.0000 -10.2971 0.0000
# 2 5.1769 155.6721 38.8990 0.0000 -5.5920 0.0000
# 3 1.1185 38.8990 132.5298 0.0000 -6.0024 0.0000
# 4 0.0000 0.0000 0.0000 32.1666 0.0000 3.6193
# 5 -10.2971 -5.5920 -6.0024 0.0000 21.4304 0.0000
# 6 0.0000 0.0000 0.0000 3.6193 0.0000 16.3008
#
#
#
# Elastic Compliance Matrix: (Units=1/GPa)
#
#
# Indices 1 2 3 4 5 6 
#
# 1 0.039459 -0.000823 0.000767 0.000000 0.018960 0.000000
# 2 -0.000823 0.006983 -0.002003 0.000000 0.000866 0.000000
# 3 0.000767 -0.002003 0.008224 0.000000 0.002149 0.000000
# 4 0.000000 0.000000 0.000000 0.031885 0.000000 -0.007079
# 5 0.018960 0.000866 0.002149 0.000000 0.056601 0.000000
# 6 0.000000 0.000000 0.000000 -0.007079 0.000000 0.062919
#
#
# Mechanical properties :
#
#
# Convention : Reuss Voigt Hill
#
# Bulk Modulus (GPa) = 19.78299 45.44078 32.61188
# Shear Modulus (GPa) = 22.02273 32.20514 27.11394
#
# Velocity S-wave (km/s) = 3.16315 3.82514 3.50979
# Velocity P-wave (km/s) = 4.72532 6.33671 5.58939
#
# Compressibility (1/GPa) = 0.05054848
#
# Stress axis : x y z
#
# Youngs Moduli (GPa) = 25.34254 143.20867 121.58992
#
# Poissons Ratio (x) = 0.11784 -0.09329
# Poissons Ratio (y) = 0.02085 0.24359
# Poissons Ratio (z) = -0.01944 0.28690
#
# Static dielectric constant tensor:
#      x y z
#    x 3.250070 0.000000 -0.101920 
#    y 0.000000 1.811800 0.000000 
#    z -0.101920 0.000000 1.807660 
# 
# From -- ./inp_files/200113.got.cif
#   From: 2010.05.17/outbox.cif.g08.bks.cpg/sg12_101_cif.got.tgz:200113.got - 2010.06.03 13:09:07.
