data_PCOD9189195
_publ_section_title
;
Structure prediction by ZEFSAII (Michael W. Deem and Ramdas Pophale) SiO2 
 PCOD9189195
Probable space group: C 2/M
;
_chemical_formula_sum "Si O2"
_cell_formula_units_Z 44
_cell_length_a 23.105929
_cell_length_b 14.659688
_cell_length_c 17.357627
_cell_angle_alpha 90.000000
_cell_angle_beta 22.360211
_cell_angle_gamma 90.000000
_cell_volume 2236.718115
_symmetry_space_group_name_H-M "C 2/M"
_symmetry_group_IT_number 12
_symmetry_cell_setting 'monoclinic'
loop_
_space_group_symop_operation_xyz
x,y,z
-x,y,-z
-x,-y,-z
x,-y,z
1/2+x,1/2+y,z
1/2-x,1/2+y,-z
1/2-x,1/2-y,-z
1/2+x,1/2-y,z
loop_
_atom_site_type_symbol
_atom_site_label
_atom_site_fract_x
_atom_site_fract_y
_atom_site_fract_z
Si Si1 0.279191 0.000000 0.855586
Si Si2 0.292597 0.334857 0.552844
Si Si3 0.445533 0.000000 0.385392
Si Si4 0.321188 0.000000 0.203425
Si Si5 0.346280 0.343625 0.878836
Si Si6 0.227815 0.500000 0.919570
Si Si7 0.957840 0.000000 0.964211
Si Si8 0.794949 0.859258 0.371296
O O1 0.215204 0.000000 0.848629
O O2 0.455141 0.000000 0.659844
O O3 0.208665 0.911271 0.985214
O O4 0.246995 0.411507 0.669714
O O5 0.475048 0.322128 0.333521
O O6 0.204824 0.239362 0.667711
O O7 0.252973 0.360538 0.513352
O O8 0.334749 0.084996 0.512816
O O9 0.568356 0.000000 0.163801
O O10 0.291581 0.000000 0.148222
O O11 0.500000 0.000000 0.000000
O O12 0.313091 0.408342 0.845160
O O13 0.250000 0.250000 0.000000
O O14 0.000000 0.000000 0.000000
O O15 0.045566 0.911131 0.826090
#
# Coordination Sequence:
#
# PCOD9189195 Si02
#       8
#     4   8   4   4   8   4   4   8
#     4  10  19  37  59  91 117 150 204 241 308 363
#     4  11  21  37  63  86 122 162 207 256 305 372
#     4   9  18  37  65  84 117 153 203 266 295 364
#     4  12  25  40  58  88 134 172 205 254 327 372
#     4  10  20  37  65  92 119 159 207 256 307 368
#     4  10  22  37  59  93 126 159 206 254 309 376
#     4  11  22  41  60  85 119 156 192 259 310 366
#     4  10  21  38  62  89 113 156 215 249 304 370
#
# _framework density 19.671679999999999
#
# number of rings (size 3 to 8) (size 9 to 14) (size 15 to 20)
#    0.000    1.818    1.818    5.455    0.000    3.636 
#    3.273    1.818    4.000    0.000    0.000    0.000 
#    0.000    0.000    0.000    0.000    0.000    0.000 
#
# Total GULP energy -122725.901272 kJ/mol
# GULP energy per Si atom -5578.450058 kJ/mol
# Density = 1.962691 g / cm^3
# Si number density = 19.671680 Si / 1000 Ang^3
#
#
#
# Elastic Constant Matrix: (Units=GPa)
#
#
# Indices 1 2 3 4 5 6 
#
# 1 155.7896 55.7984 29.5680 0.0001 -25.6509 -0.0001
# 2 55.7984 134.2141 28.1568 0.0003 -6.4252 -0.0001
# 3 29.5680 28.1568 63.4840 0.0003 -30.1070 -0.0002
# 4 0.0001 0.0003 0.0003 -214.4256 -0.0002 53.0177
# 5 -25.6509 -6.4252 -30.1070 -0.0002 38.8131 0.0001
# 6 -0.0001 -0.0001 -0.0002 53.0177 0.0001 -4.2367
#
#
#
# Elastic Compliance Matrix: (Units=1/GPa)
#
#
# Indices 1 2 3 4 5 6 
#
# 1 0.008413 -0.003229 -0.000163 0.000000 0.004899 0.000000
# 2 -0.003229 0.009589 -0.004759 0.000000 -0.004238 0.000000
# 3 -0.000163 -0.004759 0.027706 0.000000 0.020596 0.000000
# 4 0.000000 0.000000 0.000000 0.002227 0.000000 0.027869
# 5 0.004899 -0.004238 0.020596 0.000000 0.044277 0.000000
# 6 0.000000 0.000000 0.000000 0.027869 0.000000 0.112713
#
#
# Mechanical properties :
#
#
# Convention : Reuss Voigt Hill
#
# Bulk Modulus (GPa) = 34.00607 64.50379 49.25493
# Shear Modulus (GPa) = 21.64244 -19.97223 0.83510
#
# Velocity S-wave (km/s) = 3.32050 -3.18980 0.65226
# Velocity P-wave (km/s) = 5.65909 4.39260 5.06558
#
# Compressibility (1/GPa) = 0.02940652
#
# Stress axis : x y z
#
# Youngs Moduli (GPa) = 118.86420 104.29010 36.09322
#
# Poissons Ratio (x) = 0.33674 0.00588
# Poissons Ratio (y) = 0.38380 0.17176
# Poissons Ratio (z) = 0.01936 0.49629
#
# Static dielectric constant tensor:
#      x y z
#    x 1.724490 0.000000 0.035390 
#    y 0.000000 1.476430 0.000000 
#    z 0.035390 0.000000 1.710150 
# 
# From -- ./inp_files/290047.got.cif
#   From: 2010.05.17/outbox.cif.g08.bks.cpg/sg12_146_cif.got.tgz:290047.got - 2010.06.03 13:09:07.
