data_PCOD9189131
_publ_section_title
;
Structure prediction by ZEFSAII (Michael W. Deem and Ramdas Pophale) SiO2 
 PCOD9189131
Probable space group: C 2/M
;
_chemical_formula_sum "Si O2"
_cell_formula_units_Z 40
_cell_length_a 15.821235
_cell_length_b 18.754371
_cell_length_c 8.918567
_cell_angle_alpha 90.000000
_cell_angle_beta 136.676490
_cell_angle_gamma 90.000000
_cell_volume 1815.666551
_symmetry_space_group_name_H-M "C 2/M"
_symmetry_group_IT_number 12
_symmetry_cell_setting 'monoclinic'
loop_
_space_group_symop_operation_xyz
x,y,z
-x,y,-z
-x,-y,-z
x,-y,z
1/2+x,1/2+y,z
1/2-x,1/2+y,-z
1/2-x,1/2-y,-z
1/2+x,1/2-y,z
loop_
_atom_site_type_symbol
_atom_site_label
_atom_site_fract_x
_atom_site_fract_y
_atom_site_fract_z
Si Si1 0.450392 0.000000 0.241144
Si Si2 0.735534 0.213857 0.726079
Si Si3 0.807450 0.500000 0.766288
Si Si4 0.036487 0.122116 0.883760
Si Si5 0.763002 0.150637 0.437532
Si Si6 0.500000 0.869397 0.500000
Si Si7 0.328819 0.500000 0.114852
O O1 0.509456 0.926801 0.375830
O O2 0.422340 0.000000 0.029111
O O3 0.310885 0.000000 0.129443
O O4 0.713882 0.185153 0.527931
O O5 0.753969 0.298131 0.727547
O O6 0.619711 0.181306 0.665759
O O7 0.862827 0.182210 0.951336
O O8 0.793526 0.572656 0.657801
O O9 0.691541 0.500000 0.733855
O O10 0.100472 0.067305 0.856320
O O11 0.909636 0.147256 0.649653
O O12 0.000000 0.090150 0.000000
#
# Coordination Sequence:
#
# PCOD9189131 Si02
#       7
#     4   8   4   8   8   4   4
#     4   9  22  37  59  90 124 152 201 243 284 358
#     4  10  22  40  62  87 119 155 206 241 289 356
#     4  10  22  40  58  86 125 151 191 246 304 352
#     4  10  20  37  61  87 117 157 199 249 294 340
#     4  10  23  40  60  90 121 157 192 247 302 351
#     4  11  20  42  64  85 116 164 202 243 290 344
#     4  10  19  37  57  90 121 146 198 248 284 353
#
# _framework density 22.030477000000001
#
# number of rings (size 3 to 8) (size 9 to 14) (size 15 to 20)
#    0.600    1.400    2.000    0.900    0.000    8.800 
#    0.000    7.000    0.000    0.000    0.000    0.000 
#    0.000    0.000    0.000    0.000    0.000    0.000 
#
# Total GULP energy -111659.733247 kJ/mol
# GULP energy per Si atom -5582.986662 kJ/mol
# Density = 2.198033 g / cm^3
# Si number density = 22.030477 Si / 1000 Ang^3
#
#
#
# Elastic Constant Matrix: (Units=GPa)
#
#
# Indices 1 2 3 4 5 6 
#
# 1 63.9880 6.6641 -3.2696 0.0000 -0.0132 0.0000
# 2 6.6641 115.7908 15.6952 0.0000 -7.3503 0.0000
# 3 -3.2696 15.6952 59.2735 0.0000 -2.3663 0.0000
# 4 0.0000 0.0000 0.0000 2.6160 0.0000 -7.2363
# 5 -0.0132 -7.3503 -2.3663 0.0000 19.4102 0.0000
# 6 0.0000 0.0000 0.0000 -7.2363 0.0000 18.4484
#
#
#
# Elastic Compliance Matrix: (Units=1/GPa)
#
#
# Indices 1 2 3 4 5 6 
#
# 1 0.015799 -0.001081 0.001147 0.000000 -0.000259 0.000000
# 2 -0.001081 0.009224 -0.002374 0.000000 0.003203 0.000000
# 3 0.001147 -0.002374 0.017613 0.000000 0.001249 0.000000
# 4 0.000000 0.000000 0.000000 -4.496834 0.000000 -1.763861
# 5 -0.000259 0.003203 0.001249 0.000000 0.052884 0.000000
# 6 0.000000 0.000000 0.000000 -1.763861 0.000000 -0.637661
#
#
# Mechanical properties :
#
#
# Convention : Reuss Voigt Hill
#
# Bulk Modulus (GPa) = 26.30216 30.80351 28.55283
# Shear Modulus (GPa) = -0.99568 22.75909 10.88170
#
# Velocity S-wave (km/s) = -0.67301 3.21763 2.22488
# Velocity P-wave (km/s) = 3.37061 5.27416 4.42593
#
# Compressibility (1/GPa) = 0.03801969
#
# Stress axis : x y z
#
# Youngs Moduli (GPa) = 63.29466 108.41748 56.77698
#
# Poissons Ratio (x) = 0.11723 -0.06515
# Poissons Ratio (y) = 0.06844 0.13480
# Poissons Ratio (z) = -0.07263 0.25740
#
# Static dielectric constant tensor:
#      x y z
#    x 1.842720 0.000000 -0.038420 
#    y 0.000000 1.798350 0.000000 
#    z -0.038420 0.000000 1.830250 
# 
# From -- ./inp_files/131409.got.cif
#   From: 2010.05.17/outbox.cif.g08.bks.cpg/sg12_66_cif.got.tgz:131409.got - 2010.06.03 13:09:07.
