data_PCOD9189793
_publ_section_title
;
Structure prediction by ZEFSAII (Michael W. Deem and Ramdas Pophale) SiO2 
 PCOD9189793
Probable space group: C 2/M
;
_chemical_formula_sum "Si O2"
_cell_formula_units_Z 56
_cell_length_a 17.616663
_cell_length_b 13.046036
_cell_length_c 15.033215
_cell_angle_alpha 90.000000
_cell_angle_beta 132.984216
_cell_angle_gamma 90.000000
_cell_volume 2527.511193
_symmetry_space_group_name_H-M "C 2/M"
_symmetry_group_IT_number 12
_symmetry_cell_setting 'monoclinic'
loop_
_space_group_symop_operation_xyz
x,y,z
-x,y,-z
-x,-y,-z
x,-y,z
1/2+x,1/2+y,z
1/2-x,1/2+y,-z
1/2-x,1/2-y,-z
1/2+x,1/2-y,z
loop_
_atom_site_type_symbol
_atom_site_label
_atom_site_fract_x
_atom_site_fract_y
_atom_site_fract_z
Si Si1 0.514718 0.887720 0.376131
Si Si2 0.490521 0.114954 0.145479
Si Si3 0.376202 0.683047 0.090607
Si Si4 0.709178 0.187797 0.826501
Si Si5 0.099175 0.889156 0.307331
Si Si6 0.088643 0.828901 0.501355
Si Si7 0.307808 0.216213 0.737745
O O1 0.528013 0.881455 0.279435
O O2 0.390368 0.874355 0.285986
O O3 0.569433 0.792769 0.467231
O O4 0.548547 0.000000 0.433512
O O5 0.406689 0.205494 0.072721
O O6 0.591647 0.145460 0.170535
O O7 0.453636 0.000000 0.097949
O O8 0.339845 0.713534 0.160876
O O9 0.482692 0.621998 0.175964
O O10 0.282402 0.636967 0.959457
O O11 0.780948 0.219289 0.803087
O O12 0.085630 0.878578 0.402089
O O13 0.164920 0.796552 0.319040
O O14 0.143976 0.000000 0.320744
O O15 0.203211 0.843854 0.631123
O O16 0.000000 0.861703 0.500000
#
# Coordination Sequence:
#
# PCOD9189793 Si02
#       7
#     8   8   8   8   8   8   8
#     4  10  20  37  61  87 114 151 198 243 291 349
#     4   9  19  37  60  87 116 152 197 239 290 349
#     4   9  19  40  64  85 118 159 195 248 293 351
#     4  10  19  38  63  87 120 154 196 242 302 347
#     4  11  24  40  58  87 120 159 201 241 300 367
#     4  12  22  42  62  83 120 156 201 250 299 347
#     4  11  22  38  60  87 121 156 191 250 303 354
#
# _framework density 22.156182000000001
#
# number of rings (size 3 to 8) (size 9 to 14) (size 15 to 20)
#    0.000    1.714    5.714    0.429    0.000    5.143 
#    0.000    6.429    0.000    0.000    0.000    0.000 
#    0.000    0.000    0.000    0.000    0.000    0.000 
#
# Total GULP energy -156418.117034 kJ/mol
# GULP energy per Si atom -5586.361323 kJ/mol
# Density = 2.210575 g / cm^3
# Si number density = 22.156182 Si / 1000 Ang^3
#
#
#
# Elastic Constant Matrix: (Units=GPa)
#
#
# Indices 1 2 3 4 5 6 
#
# 1 113.9956 3.6428 2.2257 0.0000 -0.2672 0.0000
# 2 3.6428 79.7670 -6.1908 0.0000 -3.7019 0.0000
# 3 2.2257 -6.1908 35.7731 0.0000 10.4312 0.0000
# 4 0.0000 0.0000 0.0000 5.3351 0.0000 -0.0764
# 5 -0.2672 -3.7019 10.4312 0.0000 27.1173 0.0000
# 6 0.0000 0.0000 0.0000 -0.0764 0.0000 5.0114
#
#
#
# Elastic Compliance Matrix: (Units=1/GPa)
#
#
# Indices 1 2 3 4 5 6 
#
# 1 0.008801 -0.000443 -0.000712 0.000000 0.000300 0.000000
# 2 -0.000443 0.012754 0.001947 0.000000 0.000988 0.000000
# 3 -0.000712 0.001947 0.031830 0.000000 -0.011985 0.000000
# 4 0.000000 0.000000 0.000000 0.187478 0.000000 0.002860
# 5 0.000300 0.000988 -0.011985 0.000000 0.041625 0.000000
# 6 0.000000 0.000000 0.000000 0.002860 0.000000 0.199590
#
#
# Mechanical properties :
#
#
# Convention : Reuss Voigt Hill
#
# Bulk Modulus (GPa) = 18.19242 25.43234 21.81238
# Shear Modulus (GPa) = 10.02373 22.81663 16.42018
#
# Velocity S-wave (km/s) = 2.12931 3.21254 2.72529
# Velocity P-wave (km/s) = 3.77810 5.02635 4.44625
#
# Compressibility (1/GPa) = 0.05496795
#
# Stress axis : x y z
#
# Youngs Moduli (GPa) = 113.62298 78.40868 31.41694
#
# Poissons Ratio (x) = 0.03475 0.02236
# Poissons Ratio (y) = 0.05036 -0.06116
# Poissons Ratio (z) = 0.08087 -0.15263
#
# Static dielectric constant tensor:
#      x y z
#    x 1.812340 0.000000 -0.016350 
#    y 0.000000 1.812800 0.000000 
#    z -0.016350 0.000000 1.827360 
# 
# From -- ./inp_files/225410.got.cif
#   From: 2010.05.17/outbox.cif.g08.bks.cpg/sg12_113_cif.got.tgz:225410.got - 2010.06.03 13:09:07.
