data_PCOD9189491
_publ_section_title
;
Structure prediction by ZEFSAII (Michael W. Deem and Ramdas Pophale) SiO2 
 PCOD9189491
Probable space group: C 2/M
;
_chemical_formula_sum "Si O2"
_cell_formula_units_Z 64
_cell_length_a 31.690639
_cell_length_b 8.555018
_cell_length_c 12.382690
_cell_angle_alpha 90.000000
_cell_angle_beta 90.763145
_cell_angle_gamma 90.000000
_cell_volume 3356.822674
_symmetry_space_group_name_H-M "C 2/M"
_symmetry_group_IT_number 12
_symmetry_cell_setting 'monoclinic'
loop_
_space_group_symop_operation_xyz
x,y,z
-x,y,-z
-x,-y,-z
x,-y,z
1/2+x,1/2+y,z
1/2-x,1/2+y,-z
1/2-x,1/2-y,-z
1/2+x,1/2-y,z
loop_
_atom_site_type_symbol
_atom_site_label
_atom_site_fract_x
_atom_site_fract_y
_atom_site_fract_z
Si Si1 0.826837 0.188531 0.269740
Si Si2 0.949799 0.820547 0.988322
Si Si3 0.500262 0.311219 0.375458
Si Si4 0.423589 0.183923 0.764515
Si Si5 0.672404 0.187019 0.264147
Si Si6 0.202849 0.812733 0.491539
Si Si7 0.077961 0.809137 0.776457
Si Si8 0.750491 0.186330 0.877420
O O1 0.817944 0.225604 0.394433
O O2 0.874493 0.240628 0.247158
O O3 0.790721 0.257523 0.191048
O O4 0.824755 0.000000 0.257773
O O5 0.938049 0.717057 0.886554
O O6 0.934914 0.000000 0.969558
O O7 0.932593 0.762382 0.101842
O O8 0.000000 0.826402 0.000000
O O9 0.500000 0.257474 0.500000
O O10 0.498975 0.500000 0.376158
O O11 0.542705 0.262054 0.314607
O O12 0.458844 0.256863 0.307077
O O13 0.375442 0.242351 0.756733
O O14 0.423428 0.000000 0.741067
O O15 0.682625 0.233225 0.387057
O O16 0.707812 0.257457 0.185962
O O17 0.674157 0.000000 0.251240
O O18 0.250000 0.750000 0.500000
O O19 0.202233 0.000000 0.477694
O O20 0.077065 0.000000 0.773712
O O21 0.750522 0.000000 0.880987
O O22 0.750000 0.250000 0.000000
#
# Coordination Sequence:
#
# PCOD9189491 Si02
#       8
#     8   8   8   8   8   8   8   8
#     4  10  22  40  63  92 126 161 204 253 305 367
#     4  10  19  37  64  89 118 155 203 257 303 359
#     4  10  21  39  65  91 121 161 208 254 298 362
#     4  11  25  41  60  89 127 164 203 256 312 364
#     4  11  25  44  63  89 126 165 211 259 306 368
#     4  11  22  38  65  93 123 161 204 258 311 365
#     4   9  19  37  60  91 122 156 201 251 301 354
#     4  12  26  44  66  91 124 163 206 254 314 374
#
# _framework density 19.065647999999999
#
# number of rings (size 3 to 8) (size 9 to 14) (size 15 to 20)
#    0.000    1.500    2.500    2.250    3.500    3.000 
#    0.000    0.625    0.000    0.000    0.000    0.000 
#    0.000    0.000    0.000    0.000    0.000    0.000 
#
# Total GULP energy -178731.879472 kJ/mol
# GULP energy per Si atom -5585.371234 kJ/mol
# Density = 1.902225 g / cm^3
# Si number density = 19.065648 Si / 1000 Ang^3
#
#
#
# Elastic Constant Matrix: (Units=GPa)
#
#
# Indices 1 2 3 4 5 6 
#
# 1 177.7863 32.1488 99.1310 0.0000 -13.9477 0.0000
# 2 32.1488 33.1733 33.6380 0.0000 -6.4345 0.0000
# 3 99.1310 33.6380 164.6497 0.0000 -15.8452 0.0000
# 4 0.0000 0.0000 0.0000 14.6555 0.0000 -6.6938
# 5 -13.9477 -6.4345 -15.8452 0.0000 37.6532 0.0000
# 6 0.0000 0.0000 0.0000 -6.6938 0.0000 18.8971
#
#
#
# Elastic Compliance Matrix: (Units=1/GPa)
#
#
# Indices 1 2 3 4 5 6 
#
# 1 0.008891 -0.003932 -0.004479 0.000000 0.000737 0.000000
# 2 -0.003932 0.040174 -0.005544 0.000000 0.003076 0.000000
# 3 -0.004479 -0.005544 0.010059 0.000000 0.001627 0.000000
# 4 0.000000 0.000000 0.000000 0.081404 0.000000 0.028835
# 5 0.000737 0.003076 0.001627 0.000000 0.028041 0.000000
# 6 0.000000 0.000000 0.000000 0.028835 0.000000 0.063132
#
#
# Mechanical properties :
#
#
# Convention : Reuss Voigt Hill
#
# Bulk Modulus (GPa) = 32.03691 78.38279 55.20985
# Shear Modulus (GPa) = 18.51744 28.28725 23.40235
#
# Velocity S-wave (km/s) = 3.11986 3.85603 3.50732
# Velocity P-wave (km/s) = 5.46059 7.81195 6.73961
#
# Compressibility (1/GPa) = 0.03121399
#
# Stress axis : x y z
#
# Youngs Moduli (GPa) = 112.47599 24.89198 99.41103
#
# Poissons Ratio (x) = 0.09787 0.44523
# Poissons Ratio (y) = 0.44224 0.55116
# Poissons Ratio (z) = 0.50375 0.13801
#
# Static dielectric constant tensor:
#      x y z
#    x 1.664370 0.000000 -0.007480 
#    y 0.000000 1.663120 0.000000 
#    z -0.007480 0.000000 1.613740 
# 
# From -- ./inp_files/187551.got.cif
#   From: 2010.05.17/outbox.cif.g08.bks.cpg/sg12_94_cif.got.tgz:187551.got - 2010.06.03 13:09:07.
