data_PCOD9189240
_publ_section_title
;
Structure prediction by ZEFSAII (Michael W. Deem and Ramdas Pophale) SiO2 
 PCOD9189240
Probable space group: C 2/M
;
_chemical_formula_sum "Si O2"
_cell_formula_units_Z 46
_cell_length_a 21.818871
_cell_length_b 12.651850
_cell_length_c 26.966385
_cell_angle_alpha 90.000000
_cell_angle_beta 20.306717
_cell_angle_gamma 90.000000
_cell_volume 2583.423370
_symmetry_space_group_name_H-M "C 2/M"
_symmetry_group_IT_number 12
_symmetry_cell_setting 'monoclinic'
loop_
_space_group_symop_operation_xyz
x,y,z
-x,y,-z
-x,-y,-z
x,-y,z
1/2+x,1/2+y,z
1/2-x,1/2+y,-z
1/2-x,1/2-y,-z
1/2+x,1/2-y,z
loop_
_atom_site_type_symbol
_atom_site_label
_atom_site_fract_x
_atom_site_fract_y
_atom_site_fract_z
Si Si1 0.675007 0.810182 0.808235
Si Si2 0.000000 0.500000 0.000000
Si Si3 0.160699 0.623028 0.463414
Si Si4 0.436878 0.624155 0.830171
Si Si5 0.500000 0.267733 0.500000
Si Si6 0.208008 0.621459 0.209477
Si Si7 0.839315 0.220246 0.009205
O O1 0.852540 0.830074 0.642388
O O2 0.707580 0.704816 0.816406
O O3 0.511475 0.784222 0.896361
O O4 0.624684 0.907005 0.880902
O O5 0.166589 0.500000 0.443211
O O6 0.356045 0.649879 0.333952
O O7 0.104687 0.693775 0.459380
O O8 0.003590 0.632908 0.622613
O O9 0.409252 0.500000 0.841168
O O10 0.311584 0.696701 0.891924
O O11 0.388346 0.650949 0.924024
O O12 0.253694 0.500000 0.187010
O O13 0.271197 0.650914 0.106773
#
# Coordination Sequence:
#
# PCOD9189240 Si02
#       7
#     8   2   8   8   4   8   8
#     4  11  23  38  62  88 117 159 190 250 290 353
#     4  12  24  42  58  88 120 150 208 232 298 348
#     4   9  18  34  56  89 120 151 188 241 298 353
#     4  10  22  36  57  82 117 159 197 236 289 349
#     4  10  19  37  60  86 116 150 195 243 300 344
#     4  10  21  37  62  93 120 147 193 249 305 345
#     4  11  21  37  55  86 115 157 195 238 288 343
#
# _framework density 17.80583
#
# number of rings (size 3 to 8) (size 9 to 14) (size 15 to 20)
#    0.000    1.739    3.478    0.783    1.217    3.826 
#    0.000    0.000    0.000    0.000    0.000    0.000 
#    0.000    0.000    0.000    0.000    0.000    0.000 
#
# Total GULP energy -128111.146222 kJ/mol
# GULP energy per Si atom -5570.049836 kJ/mol
# Density = 1.776530 g / cm^3
# Si number density = 17.805830 Si / 1000 Ang^3
#
#
#
# Elastic Constant Matrix: (Units=GPa)
#
#
# Indices 1 2 3 4 5 6 
#
# 1 47.9867 24.4772 40.2161 -0.0082 -4.5369 0.0119
# 2 24.4772 94.4903 58.8048 -0.0079 -4.8063 0.0105
# 3 40.2161 58.8048 145.3865 -0.0042 -0.6879 0.0496
# 4 -0.0082 -0.0079 -0.0042 40.6404 -0.0046 6.9505
# 5 -4.5369 -4.8063 -0.6879 -0.0046 32.7467 -0.0114
# 6 0.0119 0.0105 0.0496 6.9505 -0.0114 -48.4912
#
#
#
# Elastic Compliance Matrix: (Units=1/GPa)
#
#
# Indices 1 2 3 4 5 6 
#
# 1 0.028202 -0.003062 -0.006547 0.000005 0.003320 0.000000
# 2 -0.003062 0.014602 -0.005051 0.000002 0.001613 -0.000003
# 3 -0.006547 -0.005051 0.010726 -0.000003 -0.001423 0.000008
# 4 0.000005 0.000002 -0.000003 0.024017 0.000006 0.003443
# 5 0.003320 0.001613 -0.001423 0.000006 0.031204 -0.000007
# 6 0.000000 -0.000003 0.000008 0.003443 -0.000007 -0.020129
#
#
# Mechanical properties :
#
#
# Convention : Reuss Voigt Hill
#
# Bulk Modulus (GPa) = 41.30795 59.42884 50.36839
# Shear Modulus (GPa) = 39.67867 15.93687 27.80777
#
# Velocity S-wave (km/s) = 4.72572 2.99496 3.95615
# Velocity P-wave (km/s) = 7.28190 6.73856 7.01549
#
# Compressibility (1/GPa) = 0.02420842
#
# Stress axis : x y z
#
# Youngs Moduli (GPa) = 35.45894 68.48330 93.23553
#
# Poissons Ratio (x) = 0.20972 0.61038
# Poissons Ratio (y) = 0.10859 0.47097
# Poissons Ratio (z) = 0.23214 0.34594
#
# Static dielectric constant tensor:
#      x y z
#    x 1.592530 0.000000 0.006130 
#    y 0.000000 1.577390 0.000010 
#    z 0.006130 0.000010 1.625230 
# 
# From -- ./inp_files/366171.got.cif
#   From: 2010.05.17/outbox.cif.g08.bks.cpg/sg12_184_cif.got.tgz:366171.got - 2010.06.03 13:09:07.
