data_PCOD9189093
_publ_section_title
;
Structure prediction by ZEFSAII (Michael W. Deem and Ramdas Pophale) SiO2 
 PCOD9189093
Probable space group: C 2/M
;
_chemical_formula_sum "Si O2"
_cell_formula_units_Z 52
_cell_length_a 21.414506
_cell_length_b 18.615962
_cell_length_c 14.920230
_cell_angle_alpha 90.000000
_cell_angle_beta 153.925786
_cell_angle_gamma 90.000000
_cell_volume 2614.342562
_symmetry_space_group_name_H-M "C 2/M"
_symmetry_group_IT_number 12
_symmetry_cell_setting 'monoclinic'
loop_
_space_group_symop_operation_xyz
x,y,z
-x,y,-z
-x,-y,-z
x,-y,z
1/2+x,1/2+y,z
1/2-x,1/2+y,-z
1/2-x,1/2-y,-z
1/2+x,1/2-y,z
loop_
_atom_site_type_symbol
_atom_site_label
_atom_site_fract_x
_atom_site_fract_y
_atom_site_fract_z
Si Si1 0.823243 0.000000 0.376454
Si Si2 0.314593 0.000000 0.604787
Si Si3 0.397177 0.854228 0.191094
Si Si4 0.398793 0.340255 0.484273
Si Si5 0.822843 0.231211 0.198187
Si Si6 0.808119 0.647331 0.505565
Si Si7 0.369508 0.220708 0.763871
Si Si8 0.641074 0.000000 0.959557
O O1 0.909365 0.074221 0.489745
O O2 0.724562 0.000000 0.339857
O O3 0.741507 0.000000 0.176011
O O4 0.261127 0.928535 0.485790
O O5 0.483733 0.000000 0.802098
O O6 0.345330 0.816574 0.216281
O O7 0.567802 0.859034 0.408123
O O8 0.324833 0.797998 0.028700
O O9 0.344258 0.930503 0.085056
O O10 0.551272 0.305936 0.698029
O O11 0.346963 0.301424 0.326623
O O12 0.272916 0.320766 0.388896
O O13 0.679129 0.696794 0.307263
O O14 0.890494 0.688495 0.692560
O O15 0.500000 0.209614 0.000000
#
# Coordination Sequence:
#
# PCOD9189093 Si02
#       8
#     4   4   8   8   8   8   8   4
#     4  12  21  34  54  90 122 153 179 231 310 358
#     4  10  21  34  58  83 122 146 183 246 291 352
#     4  10  19  37  56  81 113 153 195 234 287 337
#     4  11  22  36  54  84 117 152 191 235 288 349
#     4  10  21  35  56  77 115 158 193 234 275 345
#     4  10  21  38  59  88 115 151 195 241 297 346
#     4  11  22  36  59  85 118 151 195 244 289 351
#     4  10  21  33  58  87 118 151 187 241 298 355
#
# _framework density 19.890277999999999
#
# number of rings (size 3 to 8) (size 9 to 14) (size 15 to 20)
#    0.000    1.538    4.615    1.154    2.154    1.846 
#    0.000    0.385    0.000    2.769    0.000    0.000 
#    0.000    0.000    0.000    0.000    0.000    0.000 
#
# Total GULP energy -144927.347928 kJ/mol
# GULP energy per Si atom -5574.128766 kJ/mol
# Density = 1.984501 g / cm^3
# Si number density = 19.890278 Si / 1000 Ang^3
#
#
#
# Elastic Constant Matrix: (Units=GPa)
#
#
# Indices 1 2 3 4 5 6 
#
# 1 52.9213 33.6618 10.2835 0.0000 8.2921 0.0000
# 2 33.6618 143.2848 6.3423 0.0000 -5.2834 0.0000
# 3 10.2835 6.3423 36.0195 0.0000 3.4794 0.0000
# 4 0.0000 0.0000 0.0000 20.2296 0.0000 -3.5049
# 5 8.2921 -5.2834 3.4794 0.0000 19.4785 0.0000
# 6 0.0000 0.0000 0.0000 -3.5049 0.0000 24.5082
#
#
#
# Elastic Compliance Matrix: (Units=1/GPa)
#
#
# Indices 1 2 3 4 5 6 
#
# 1 0.025695 -0.006243 -0.005105 0.000000 -0.011720 0.000000
# 2 -0.006243 0.008642 -0.000226 0.000000 0.005042 0.000000
# 3 -0.005105 -0.000226 0.029566 0.000000 -0.003170 0.000000
# 4 0.000000 0.000000 0.000000 0.050688 0.000000 0.007249
# 5 -0.011720 0.005042 -0.003170 0.000000 0.058262 0.000000
# 6 0.000000 0.000000 0.000000 0.007249 0.000000 0.041839
#
#
# Mechanical properties :
#
#
# Convention : Reuss Voigt Hill
#
# Bulk Modulus (GPa) = 24.53652 36.97787 30.75719
# Shear Modulus (GPa) = 19.88665 24.97246 22.42955
#
# Velocity S-wave (km/s) = 3.16542 3.54716 3.36171
# Velocity P-wave (km/s) = 5.07174 5.95044 5.52858
#
# Compressibility (1/GPa) = 0.04075558
#
# Stress axis : x y z
#
# Youngs Moduli (GPa) = 38.91793 115.71861 33.82246
#
# Poissons Ratio (x) = 0.72240 0.17265
# Poissons Ratio (y) = 0.24295 0.00766
# Poissons Ratio (z) = 0.19866 0.02620
#
# Static dielectric constant tensor:
#      x y z
#    x 1.768630 0.000000 0.009750 
#    y 0.000000 1.738200 0.000000 
#    z 0.009750 0.000000 1.688510 
# 
# From -- ./inp_files/234520.got.cif
#   From: 2010.05.17/outbox.cif.g08.bks.cpg/sg12_118_cif.got.tgz:234520.got - 2010.06.03 13:09:07.
