data_PCOD9189823
_publ_section_title
;
Structure prediction by ZEFSAII (Michael W. Deem and Ramdas Pophale) SiO2 
 PCOD9189823
Probable space group: C 2/M
;
_chemical_formula_sum "Si O2"
_cell_formula_units_Z 36
_cell_length_a 13.212640
_cell_length_b 20.432964
_cell_length_c 13.171181
_cell_angle_alpha 90.000000
_cell_angle_beta 150.304092
_cell_angle_gamma 90.000000
_cell_volume 1761.565265
_symmetry_space_group_name_H-M "C 2/M"
_symmetry_group_IT_number 12
_symmetry_cell_setting 'monoclinic'
loop_
_space_group_symop_operation_xyz
x,y,z
-x,y,-z
-x,-y,-z
x,-y,z
1/2+x,1/2+y,z
1/2-x,1/2+y,-z
1/2-x,1/2-y,-z
1/2+x,1/2-y,z
loop_
_atom_site_type_symbol
_atom_site_label
_atom_site_fract_x
_atom_site_fract_y
_atom_site_fract_z
Si Si1 0.033307 0.075984 0.323170
Si Si2 0.586666 0.848142 0.394739
Si Si3 0.129756 0.741754 0.245515
Si Si4 0.500000 0.340424 0.500000
Si Si5 0.364333 0.362006 0.972643
O O1 0.269104 0.090046 0.498925
O O2 0.998990 0.116901 0.396357
O O3 0.992022 0.000000 0.303015
O O4 0.905511 0.103736 0.116374
O O5 0.723115 0.795849 0.574141
O O6 0.547200 0.811047 0.253973
O O7 0.373230 0.863681 0.259888
O O8 0.291690 0.702402 0.317769
O O9 0.940823 0.786648 0.047387
O O10 0.500000 0.391527 0.000000
#
# Coordination Sequence:
#
# PCOD9189823 Si02
#       5
#     8   8   8   4   8
#     4  10  23  41  59  82 114 155 198 233 274 332
#     4   9  19  36  57  83 116 152 187 234 284 336
#     4   9  18  33  56  87 118 145 182 231 293 349
#     4  10  19  38  64  86 115 148 182 238 294 338
#     4  11  22  35  57  85 115 150 188 234 285 337
#
# _framework density 20.43637
#
# number of rings (size 3 to 8) (size 9 to 14) (size 15 to 20)
#    0.000    2.222    0.000    3.667    0.000    5.778 
#    0.000    4.444    0.000    6.667    0.000    0.000 
#    0.000    0.000    0.000    0.000    0.000    0.000 
#
# Total GULP energy -100450.201818 kJ/mol
# GULP energy per Si atom -5580.566768 kJ/mol
# Density = 2.038986 g / cm^3
# Si number density = 20.436370 Si / 1000 Ang^3
#
#
#
# Elastic Constant Matrix: (Units=GPa)
#
#
# Indices 1 2 3 4 5 6 
#
# 1 92.1182 19.9042 16.2495 0.0000 9.4402 0.0000
# 2 19.9042 81.5777 -0.0456 0.0000 -7.7616 0.0000
# 3 16.2495 -0.0456 34.5838 -0.0001 4.6977 0.0000
# 4 0.0000 0.0000 -0.0001 12.8481 0.0000 -1.4818
# 5 9.4402 -7.7616 4.6977 0.0000 41.9661 0.0000
# 6 0.0000 0.0000 0.0000 -1.4818 0.0000 20.1041
#
#
#
# Elastic Compliance Matrix: (Units=1/GPa)
#
#
# Indices 1 2 3 4 5 6 
#
# 1 0.012893 -0.003425 -0.005668 0.000000 -0.002899 0.000000
# 2 -0.003425 0.013391 0.001204 0.000000 0.003112 0.000000
# 3 -0.005668 0.001204 0.031861 0.000000 -0.002069 0.000000
# 4 0.000000 0.000000 0.000000 0.078500 0.000000 0.005786
# 5 -0.002899 0.003112 -0.002069 0.000000 0.025288 0.000000
# 6 0.000000 0.000000 0.000000 0.005786 0.000000 0.050168
#
#
# Mechanical properties :
#
#
# Convention : Reuss Voigt Hill
#
# Bulk Modulus (GPa) = 23.60367 31.16622 27.38495
# Shear Modulus (GPa) = 20.66113 26.46175 23.56144
#
# Velocity S-wave (km/s) = 3.18307 3.60229 3.39915
# Velocity P-wave (km/s) = 5.00841 5.70837 5.36980
#
# Compressibility (1/GPa) = 0.04236629
#
# Stress axis : x y z
#
# Youngs Moduli (GPa) = 77.56397 74.67914 31.38609
#
# Poissons Ratio (x) = 0.25575 0.17791
# Poissons Ratio (y) = 0.26563 -0.03779
# Poissons Ratio (z) = 0.43966 -0.08991
#
# Static dielectric constant tensor:
#      x y z
#    x 1.776330 0.000000 -0.044200 
#    y 0.000000 1.686650 0.000000 
#    z -0.044200 0.000000 1.752620 
# 
# From -- ./inp_files/216564.got.cif
#   From: 2010.05.17/outbox.cif.g08.bks.cpg/sg12_109_cif.got.tgz:216564.got - 2010.06.03 13:09:07.
