data_PCOD9189061
_publ_section_title
;
Structure prediction by ZEFSAII (Michael W. Deem and Ramdas Pophale) SiO2 
 PCOD9189061
Probable space group: C 2/M
;
_chemical_formula_sum "Si O2"
_cell_formula_units_Z 48
_cell_length_a 20.592777
_cell_length_b 20.055662
_cell_length_c 18.083537
_cell_angle_alpha 90.000000
_cell_angle_beta 22.065932
_cell_angle_gamma 90.000000
_cell_volume 2805.728274
_symmetry_space_group_name_H-M "C 2/M"
_symmetry_group_IT_number 12
_symmetry_cell_setting 'monoclinic'
loop_
_space_group_symop_operation_xyz
x,y,z
-x,y,-z
-x,-y,-z
x,-y,z
1/2+x,1/2+y,z
1/2-x,1/2+y,-z
1/2-x,1/2-y,-z
1/2+x,1/2-y,z
loop_
_atom_site_type_symbol
_atom_site_label
_atom_site_fract_x
_atom_site_fract_y
_atom_site_fract_z
Si Si1 0.397460 0.727238 0.684613
Si Si2 0.956747 0.649503 0.960264
Si Si3 0.950377 0.000000 0.639127
Si Si4 0.340669 0.818833 0.385312
Si Si5 0.488135 0.375099 0.321103
Si Si6 0.045662 0.500000 0.039142
Si Si7 0.191845 0.319558 0.099319
O O1 0.500000 0.735373 0.500000
O O2 0.512893 0.690493 0.624973
O O3 0.328402 0.796195 0.794024
O O4 0.239379 0.674505 0.841840
O O5 0.005048 0.574264 0.882712
O O6 0.072837 0.693840 0.785614
O O7 0.000000 0.654004 0.000000
O O8 0.008975 0.936320 0.624784
O O9 0.000000 0.000000 0.500000
O O10 0.745673 0.000000 0.848309
O O11 0.250000 0.750000 0.500000
O O12 0.502890 0.837196 0.266453
O O13 0.186464 0.872133 0.541990
O O14 0.658548 0.369382 0.088527
O O15 0.000000 0.500000 0.000000
O O16 0.250000 0.250000 0.000000
#
# Coordination Sequence:
#
# PCOD9189061 Si02
#       7
#     8   8   4   8   8   4   8
#     4  11  19  33  52  78 106 136 178 229 278 322
#     4  11  22  32  49  76 107 145 186 218 264 320
#     4  12  24  36  52  82 115 150 191 217 258 325
#     4  12  20  34  55  73  99 143 185 227 274 314
#     4  11  22  36  54  75 111 148 183 221 265 324
#     4  10  22  34  48  68 110 151 183 218 255 305
#     4  10  19  37  53  74 103 138 183 226 273 328
#
# _framework density 17.107858
#
# number of rings (size 3 to 8) (size 9 to 14) (size 15 to 20)
#    0.000    1.000    8.333    1.500    4.667    0.000 
#    0.000    0.000    0.000    0.000    0.000    0.583 
#    0.000    1.333    0.000    0.000    0.000    0.000 
#
# Total GULP energy -133612.593611 kJ/mol
# GULP energy per Si atom -5567.191400 kJ/mol
# Density = 1.706892 g / cm^3
# Si number density = 17.107858 Si / 1000 Ang^3
#
#
#
# Elastic Constant Matrix: (Units=GPa)
#
#
# Indices 1 2 3 4 5 6 
#
# 1 71.7361 36.5296 46.9625 -0.0047 -6.7997 0.0018
# 2 36.5296 58.7660 37.2559 -0.0109 10.4339 0.0060
# 3 46.9625 37.2559 113.3690 -0.0076 6.8660 0.0060
# 4 -0.0047 -0.0109 -0.0076 12.5294 0.0051 -0.7364
# 5 -6.7997 10.4339 6.8660 0.0051 48.5772 -0.0022
# 6 0.0018 0.0060 0.0060 -0.7364 -0.0022 25.1583
#
#
#
# Elastic Compliance Matrix: (Units=1/GPa)
#
#
# Indices 1 2 3 4 5 6 
#
# 1 0.025707 -0.012949 -0.006839 -0.000009 0.007346 0.000003
# 2 -0.012949 0.028678 -0.003609 0.000021 -0.007462 -0.000005
# 3 -0.006839 -0.003609 0.012961 0.000003 -0.002014 -0.000002
# 4 -0.000009 0.000021 0.000003 0.079950 -0.000014 0.002340
# 5 0.007346 -0.007462 -0.002014 -0.000014 0.023502 0.000003
# 6 0.000003 -0.000005 -0.000002 0.002340 0.000003 0.039817
#
#
# Mechanical properties :
#
#
# Convention : Reuss Voigt Hill
#
# Bulk Modulus (GPa) = 48.64965 53.92966 51.28966
# Shear Modulus (GPa) = 18.92090 25.46120 22.19105
#
# Velocity S-wave (km/s) = 3.32923 3.86200 3.60547
# Velocity P-wave (km/s) = 6.57854 7.17485 6.88315
#
# Compressibility (1/GPa) = 0.02055513
#
# Stress axis : x y z
#
# Youngs Moduli (GPa) = 38.90001 34.86965 77.15164
#
# Poissons Ratio (x) = 0.45151 0.52761
# Poissons Ratio (y) = 0.50370 0.27841
# Poissons Ratio (z) = 0.26602 0.12583
#
# Static dielectric constant tensor:
#      x y z
#    x 1.618190 0.000010 -0.024410 
#    y 0.000010 1.705000 0.000040 
#    z -0.024410 0.000040 1.652900 
# 
# From -- ./inp_files/285879.got.cif
#   From: 2010.05.17/outbox.cif.g08.bks.cpg/sg12_143_cif.got.tgz:285879.got - 2010.06.03 13:09:07.
