data_PCOD9189522
_publ_section_title
;
Structure prediction by ZEFSAII (Michael W. Deem and Ramdas Pophale) SiO2 
 PCOD9189522
Probable space group: C 2/M
;
_chemical_formula_sum "Si O2"
_cell_formula_units_Z 64
_cell_length_a 28.161177
_cell_length_b 18.776872
_cell_length_c 7.866851
_cell_angle_alpha 90.000000
_cell_angle_beta 135.555522
_cell_angle_gamma 90.000000
_cell_volume 2912.782777
_symmetry_space_group_name_H-M "C 2/M"
_symmetry_group_IT_number 12
_symmetry_cell_setting 'monoclinic'
loop_
_space_group_symop_operation_xyz
x,y,z
-x,y,-z
-x,-y,-z
x,-y,z
1/2+x,1/2+y,z
1/2-x,1/2+y,-z
1/2-x,1/2-y,-z
1/2+x,1/2-y,z
loop_
_atom_site_type_symbol
_atom_site_label
_atom_site_fract_x
_atom_site_fract_y
_atom_site_fract_z
Si Si1 0.798089 0.920812 0.012230
Si Si2 0.822796 0.687413 0.818095
Si Si3 0.900231 0.833470 0.096783
Si Si4 0.428195 0.920125 0.218905
Si Si5 0.460708 0.698479 0.624859
Si Si6 0.018438 0.647321 0.228558
Si Si7 0.182864 0.804092 0.644676
Si Si8 0.831733 0.355570 0.444866
O O1 0.724166 0.912374 0.743890
O O2 0.810955 0.000000 0.109680
O O3 0.850738 0.899568 0.998239
O O4 0.802750 0.861502 0.171910
O O5 0.743381 0.686286 0.664087
O O6 0.831280 0.663528 0.644091
O O7 0.855439 0.765651 0.925555
O O8 0.866620 0.635372 0.054714
O O9 0.928753 0.820035 0.360578
O O10 0.968974 0.842200 0.165200
O O11 0.500000 0.905237 0.500000
O O12 0.461371 0.910731 0.117603
O O13 0.406505 0.000000 0.202890
O O14 0.482546 0.781017 0.664331
O O15 0.398366 0.688617 0.597276
O O16 0.094452 0.619525 0.425391
O O17 0.000000 0.678720 0.000000
O O18 0.185510 0.719539 0.694301
#
# Coordination Sequence:
#
# PCOD9189522 Si02
#       8
#     8   8   8   8   8   8   8   8
#     4  11  25  42  62  92 125 164 208 258 317 376
#     4  12  22  39  66  92 125 165 212 257 305 364
#     4  10  19  37  65  90 120 158 206 260 301 365
#     4  11  25  40  57  88 129 173 209 246 302 366
#     4   9  19  35  61  94 118 151 203 259 311 356
#     4  11  20  37  58  89 122 161 206 253 300 363
#     4  10  23  39  65  91 122 159 208 257 313 371
#     4  11  23  39  64  94 125 164 210 259 309 365
#
# _framework density 21.972114999999999
#
# number of rings (size 3 to 8) (size 9 to 14) (size 15 to 20)
#    0.000    1.375    3.750    1.500    5.250    1.750 
#    0.000    5.000    0.000    0.000    0.000    0.875 
#    0.000    0.000    0.000    0.000    0.000    0.000 
#
# Total GULP energy -178443.047155 kJ/mol
# GULP energy per Si atom -5576.345224 kJ/mol
# Density = 2.192211 g / cm^3
# Si number density = 21.972115 Si / 1000 Ang^3
#
#
#
# Elastic Constant Matrix: (Units=GPa)
#
#
# Indices 1 2 3 4 5 6 
#
# 1 93.5315 6.6685 19.4978 0.0000 41.4373 0.0000
# 2 6.6685 71.7032 29.6346 0.0000 5.8627 0.0000
# 3 19.4978 29.6346 64.1479 0.0000 13.4472 0.0000
# 4 0.0000 0.0000 0.0000 10.9907 0.0000 2.2843
# 5 41.4373 5.8627 13.4472 0.0000 35.6374 0.0000
# 6 0.0000 0.0000 0.0000 2.2843 0.0000 12.5567
#
#
#
# Elastic Compliance Matrix: (Units=1/GPa)
#
#
# Indices 1 2 3 4 5 6 
#
# 1 0.022206 0.000743 -0.001797 0.000000 -0.025264 0.000000
# 2 0.000743 0.017264 -0.008062 0.000000 -0.000662 0.000000
# 3 -0.001797 -0.008062 0.020788 0.000000 -0.004429 0.000000
# 4 0.000000 0.000000 0.000000 0.094561 0.000000 -0.017203
# 5 -0.025264 -0.000662 -0.004429 0.000000 0.059216 0.000000
# 6 0.000000 0.000000 0.000000 -0.017203 0.000000 0.082768
#
#
# Mechanical properties :
#
#
# Convention : Reuss Voigt Hill
#
# Bulk Modulus (GPa) = 23.79510 37.88715 30.84113
# Shear Modulus (GPa) = 15.19553 23.40908 19.30231
#
# Velocity S-wave (km/s) = 2.63265 3.26759 2.96715
# Velocity P-wave (km/s) = 4.48267 5.61399 5.07992
#
# Compressibility (1/GPa) = 0.04202546
#
# Stress axis : x y z
#
# Youngs Moduli (GPa) = 45.03289 57.92556 48.10460
#
# Poissons Ratio (x) = -0.04304 0.08643
# Poissons Ratio (y) = -0.03346 0.38784
# Poissons Ratio (z) = 0.08091 0.46702
#
# Static dielectric constant tensor:
#      x y z
#    x 2.058830 0.000000 -0.086470 
#    y 0.000000 1.767990 0.000000 
#    z -0.086470 0.000000 1.900520 
# 
# From -- ./inp_files/112864.got.cif
#   From: 2010.05.17/outbox.cif.g08.bks.cpg/sg12_57_cif.got.tgz:112864.got - 2010.06.03 13:09:07.
