data_PCOD9189666
_publ_section_title
;
Structure prediction by ZEFSAII (Michael W. Deem and Ramdas Pophale) SiO2 
 PCOD9189666
Probable space group: C 2/M
;
_chemical_formula_sum "Si O2"
_cell_formula_units_Z 56
_cell_length_a 9.172718
_cell_length_b 30.974104
_cell_length_c 20.237593
_cell_angle_alpha 90.000000
_cell_angle_beta 148.354047
_cell_angle_gamma 90.000000
_cell_volume 3016.761184
_symmetry_space_group_name_H-M "C 2/M"
_symmetry_group_IT_number 12
_symmetry_cell_setting 'monoclinic'
loop_
_space_group_symop_operation_xyz
x,y,z
-x,y,-z
-x,-y,-z
x,-y,z
1/2+x,1/2+y,z
1/2-x,1/2+y,-z
1/2-x,1/2-y,-z
1/2+x,1/2-y,z
loop_
_atom_site_type_symbol
_atom_site_label
_atom_site_fract_x
_atom_site_fract_y
_atom_site_fract_z
Si Si1 0.806282 0.393040 0.614049
Si Si2 0.934644 0.251236 0.900733
Si Si3 0.074063 0.169962 0.745630
Si Si4 0.856822 0.161096 0.809195
Si Si5 0.775412 0.907839 0.564474
Si Si6 0.663742 0.949431 0.241450
Si Si7 0.590271 0.895040 0.963564
O O1 0.500000 0.371592 0.500000
O O2 0.797408 0.416120 0.539793
O O3 0.836611 0.423866 0.689136
O O4 0.065903 0.361957 0.708396
O O5 0.707264 0.283310 0.781012
O O6 0.847708 0.202247 0.853748
O O7 0.000000 0.266245 0.000000
O O8 0.250000 0.250000 0.000000
O O9 0.352781 0.141213 0.860930
O O10 0.912175 0.173476 0.753385
O O11 0.883131 0.141352 0.622426
O O12 0.113760 0.128794 0.922499
O O13 0.500000 0.915750 0.500000
O O14 0.041958 0.937856 0.680432
O O15 0.434581 0.929409 0.104391
O O16 0.634840 0.000000 0.240363
O O17 0.500000 0.914003 0.000000
#
# Coordination Sequence:
#
# PCOD9189666 Si02
#       7
#     8   8   8   8   8   8   8
#     4  10  23  40  61  87 118 163 206 251 310 364
#     4  12  22  34  57  94 128 159 202 258 306 363
#     4  10  19  38  59  90 123 154 206 262 300 351
#     4  11  21  37  61  88 123 162 209 250 303 372
#     4  10  20  39  68  85 114 168 213 249 303 374
#     4  10  23  41  62  93 129 155 197 269 321 365
#     4   9  19  36  63  89 122 163 201 243 311 374
#
# _framework density 18.562954999999999
#
# number of rings (size 3 to 8) (size 9 to 14) (size 15 to 20)
#    0.000    1.714    4.286    0.429    2.000    4.286 
#    0.000    2.857    0.000    0.000    0.000    0.000 
#    0.000    0.000    0.000    0.000    0.000    0.000 
#
# Total GULP energy -155882.245599 kJ/mol
# GULP energy per Si atom -5567.223057 kJ/mol
# Density = 1.852070 g / cm^3
# Si number density = 18.562955 Si / 1000 Ang^3
#
#
#
# Elastic Constant Matrix: (Units=GPa)
#
#
# Indices 1 2 3 4 5 6 
#
# 1 77.2315 17.3955 32.2618 0.0000 13.9793 0.0001
# 2 17.3955 80.8697 39.4396 0.0003 5.6759 0.0000
# 3 32.2618 39.4396 68.6240 0.0016 4.6344 -0.0002
# 4 0.0000 0.0003 0.0016 11.6030 -0.0004 3.3409
# 5 13.9793 5.6759 4.6344 -0.0004 38.9818 -0.0002
# 6 0.0001 0.0000 -0.0002 3.3409 -0.0002 15.4294
#
#
#
# Elastic Compliance Matrix: (Units=1/GPa)
#
#
# Indices 1 2 3 4 5 6 
#
# 1 0.017126 0.000610 -0.008046 0.000001 -0.005274 0.000000
# 2 0.000610 0.017273 -0.010110 0.000001 -0.001532 0.000000
# 3 -0.008046 -0.010110 0.024064 -0.000003 0.001497 0.000001
# 4 0.000001 0.000001 -0.000003 0.091916 0.000001 -0.019903
# 5 -0.005274 -0.001532 0.001497 0.000001 0.027589 0.000000
# 6 0.000000 0.000000 0.000001 -0.019903 0.000000 0.069121
#
#
# Mechanical properties :
#
#
# Convention : Reuss Voigt Hill
#
# Bulk Modulus (GPa) = 42.78820 44.99100 43.88960
# Shear Modulus (GPa) = 17.24306 22.37804 19.81055
#
# Velocity S-wave (km/s) = 3.05109 3.47583 3.27036
# Velocity P-wave (km/s) = 5.95924 6.35595 6.16079
#
# Compressibility (1/GPa) = 0.02337093
#
# Stress axis : x y z
#
# Youngs Moduli (GPa) = 58.38967 57.89531 41.55530
#
# Poissons Ratio (x) = -0.03533 0.33435
# Poissons Ratio (y) = -0.03563 0.42014
# Poissons Ratio (z) = 0.46980 0.58534
#
# Static dielectric constant tensor:
#      x y z
#    x 1.653560 0.000000 -0.045520 
#    y 0.000000 1.650740 0.000000 
#    z -0.045520 0.000000 1.612600 
# 
# From -- ./inp_files/303068.got.cif
#   From: 2010.05.17/outbox.cif.g08.bks.cpg/sg12_152_cif.got.tgz:303068.got - 2010.06.03 13:09:07.
