data_PCOD9189927
_publ_section_title
;
Structure prediction by ZEFSAII (Michael W. Deem and Ramdas Pophale) SiO2 
 PCOD9189927
Probable space group: C 2/M
;
_chemical_formula_sum "Si O2"
_cell_formula_units_Z 40
_cell_length_a 13.636354
_cell_length_b 14.881931
_cell_length_c 12.168559
_cell_angle_alpha 90.000000
_cell_angle_beta 41.108137
_cell_angle_gamma 90.000000
_cell_volume 1623.606360
_symmetry_space_group_name_H-M "C 2/M"
_symmetry_group_IT_number 12
_symmetry_cell_setting 'monoclinic'
loop_
_space_group_symop_operation_xyz
x,y,z
-x,y,-z
-x,-y,-z
x,-y,z
1/2+x,1/2+y,z
1/2-x,1/2+y,-z
1/2-x,1/2-y,-z
1/2+x,1/2-y,z
loop_
_atom_site_type_symbol
_atom_site_label
_atom_site_fract_x
_atom_site_fract_y
_atom_site_fract_z
Si Si1 0.734543 0.292985 0.320913
Si Si2 0.317881 0.099314 0.658731
Si Si3 0.516595 0.896174 0.799346
Si Si4 0.308547 0.402520 0.985635
Si Si5 0.994250 0.780767 0.688425
O O1 0.760538 0.187294 0.324119
O O2 0.876995 0.356163 0.197032
O O3 0.632052 0.325635 0.509117
O O4 0.634759 0.286808 0.295781
O O5 0.500000 0.107887 0.500000
O O6 0.282971 0.000000 0.642766
O O7 0.256140 0.099290 0.836485
O O8 0.535832 0.820431 0.688544
O O9 0.554346 0.000000 0.740955
O O10 0.338894 0.895570 0.965385
O O11 0.379222 0.500000 0.908513
O O12 0.422529 0.326552 0.855236
#
# Coordination Sequence:
#
# PCOD9189927 Si02
#       5
#     8   8   8   8   8
#     4  11  23  40  68 101 133 175 223 277 334 394
#     4  10  19  38  68  97 126 168 223 275 327 390
#     4  11  24  42  67  98 132 177 226 273 332 401
#     4  10  22  42  69  96 129 176 224 276 334 393
#     4  11  23  43  67  95 137 178 221 275 336 396
#
# _framework density 24.636513000000001
#
# number of rings (size 3 to 8) (size 9 to 14) (size 15 to 20)
#    0.000    1.400    4.000    1.200    0.000    3.200 
#    0.000    5.000    0.000    3.600    0.000    0.000 
#    0.000    0.000    0.000    0.000    0.000    0.000 
#
# Total GULP energy -111677.858188 kJ/mol
# GULP energy per Si atom -5583.892909 kJ/mol
# Density = 2.458044 g / cm^3
# Si number density = 24.636513 Si / 1000 Ang^3
#
#
#
# Elastic Constant Matrix: (Units=GPa)
#
#
# Indices 1 2 3 4 5 6 
#
# 1 96.8296 30.2729 25.8898 -0.0001 -10.3885 0.0001
# 2 30.2729 150.8091 63.1037 -0.0001 -22.4056 0.0001
# 3 25.8898 63.1037 112.4213 0.0000 1.9859 0.0001
# 4 -0.0001 -0.0001 0.0000 7.6366 0.0001 2.9830
# 5 -10.3885 -22.4056 1.9859 0.0001 24.6785 -0.0001
# 6 0.0001 0.0001 0.0001 2.9830 -0.0001 40.0154
#
#
#
# Elastic Compliance Matrix: (Units=1/GPa)
#
#
# Indices 1 2 3 4 5 6 
#
# 1 0.011658 -0.000676 -0.002384 0.000000 0.004485 0.000000
# 2 -0.000676 0.010799 -0.006083 0.000000 0.010009 0.000000
# 3 -0.002384 -0.006083 0.012992 0.000000 -0.007572 0.000000
# 4 0.000000 0.000000 0.000000 0.134876 0.000000 -0.010055
# 5 0.004485 0.010009 -0.007572 0.000000 0.052106 0.000000
# 6 0.000000 0.000000 0.000000 -0.010055 0.000000 0.025740
#
#
# Mechanical properties :
#
#
# Convention : Reuss Voigt Hill
#
# Bulk Modulus (GPa) = 58.26670 66.51031 62.38851
# Shear Modulus (GPa) = 18.37035 30.51899 24.44467
#
# Velocity S-wave (km/s) = 2.73363 3.52344 3.15336
# Velocity P-wave (km/s) = 5.80220 6.60364 6.21585
#
# Compressibility (1/GPa) = 0.01716246
#
# Stress axis : x y z
#
# Youngs Moduli (GPa) = 85.78150 92.60233 76.96869
#
# Poissons Ratio (x) = 0.06259 0.18353
# Poissons Ratio (y) = 0.05798 0.46818
# Poissons Ratio (z) = 0.20454 0.56327
#
# Static dielectric constant tensor:
#      x y z
#    x 2.050490 0.000000 0.042200 
#    y 0.000000 1.961110 0.000000 
#    z 0.042200 0.000000 1.926160 
# 
# From -- ./inp_files/142542.got.cif
#   From: 2010.05.17/outbox.cif.g08.bks.cpg/sg12_72_cif.got.tgz:142542.got - 2010.06.03 13:09:07.
