data_PCOD9189824
_publ_section_title
;
Structure prediction by ZEFSAII (Michael W. Deem and Ramdas Pophale) SiO2 
 PCOD9189824
Probable space group: C 2/M
;
_chemical_formula_sum "Si O2"
_cell_formula_units_Z 56
_cell_length_a 15.135858
_cell_length_b 17.272145
_cell_length_c 17.891336
_cell_angle_alpha 90.000000
_cell_angle_beta 141.597544
_cell_angle_gamma 90.000000
_cell_volume 2905.457426
_symmetry_space_group_name_H-M "C 2/M"
_symmetry_group_IT_number 12
_symmetry_cell_setting 'monoclinic'
loop_
_space_group_symop_operation_xyz
x,y,z
-x,y,-z
-x,-y,-z
x,-y,z
1/2+x,1/2+y,z
1/2-x,1/2+y,-z
1/2-x,1/2-y,-z
1/2+x,1/2-y,z
loop_
_atom_site_type_symbol
_atom_site_label
_atom_site_fract_x
_atom_site_fract_y
_atom_site_fract_z
Si Si1 0.319085 0.328421 0.076610
Si Si2 0.478989 0.126203 0.067392
Si Si3 0.368339 0.675467 0.464374
Si Si4 0.696544 0.734464 0.224992
Si Si5 0.406785 0.913398 0.694927
Si Si6 0.520131 0.587837 0.102375
Si Si7 0.963712 0.260744 0.294653
O O1 0.380764 0.381357 0.052363
O O2 0.443492 0.299830 0.213838
O O3 0.250000 0.250000 0.000000
O O4 0.189286 0.368310 0.032650
O O5 0.561930 0.209476 0.119410
O O6 0.543772 0.089300 0.185370
O O7 0.500000 0.089843 0.000000
O O8 0.500000 0.647800 0.500000
O O9 0.275604 0.730819 0.349221
O O10 0.260186 0.608715 0.417605
O O11 0.429498 0.724768 0.573787
O O12 0.642564 0.648479 0.202611
O O13 0.809771 0.734430 0.232646
O O14 0.486986 0.843578 0.704911
O O15 0.433724 0.000000 0.683744
O O16 0.550763 0.500000 0.144543
O O17 0.500000 0.591234 0.000000
#
# Coordination Sequence:
#
# PCOD9189824 Si02
#       7
#     8   8   8   8   8   8   8
#     4  12  20  37  63  89 117 158 201 248 290 347
#     4  11  21  37  62  88 116 156 206 244 289 352
#     4   9  21  41  65  86 108 156 212 248 286 352
#     4  10  19  38  64  86 115 155 198 250 298 341
#     4  11  24  38  57  88 124 157 190 246 311 355
#     4  11  24  38  56  88 127 161 194 240 305 365
#     4  11  21  38  65  90 115 153 209 248 288 355
#
# _framework density 19.274073000000001
#
# number of rings (size 3 to 8) (size 9 to 14) (size 15 to 20)
#    0.000    1.286    4.286    2.571    0.000    1.714 
#    0.000    2.857    0.000    2.571    0.000    0.000 
#    0.000    0.000    0.000    0.000    0.000    0.000 
#
# Total GULP energy -156363.331851 kJ/mol
# GULP energy per Si atom -5584.404709 kJ/mol
# Density = 1.923020 g / cm^3
# Si number density = 19.274073 Si / 1000 Ang^3
#
#
#
# Elastic Constant Matrix: (Units=GPa)
#
#
# Indices 1 2 3 4 5 6 
#
# 1 113.0867 42.8569 27.0903 0.0000 0.2882 0.0000
# 2 42.8569 104.4868 25.0525 0.0000 5.6414 0.0001
# 3 27.0903 25.0525 76.2745 0.0001 -5.5210 0.0002
# 4 0.0000 0.0000 0.0001 10.4507 0.0000 1.9281
# 5 0.2882 5.6414 -5.5210 0.0000 30.3232 0.0001
# 6 0.0000 0.0001 0.0002 1.9281 0.0001 9.1277
#
#
#
# Elastic Compliance Matrix: (Units=1/GPa)
#
#
# Indices 1 2 3 4 5 6 
#
# 1 0.010931 -0.003867 -0.002602 0.000000 0.000142 0.000000
# 2 -0.003867 0.011961 -0.002750 0.000000 -0.002689 0.000000
# 3 -0.002602 -0.002750 0.015177 0.000000 0.003300 0.000000
# 4 0.000000 0.000000 0.000000 0.099567 0.000000 -0.021032
# 5 0.000142 -0.002689 0.003300 0.000000 0.034078 0.000000
# 6 0.000000 0.000000 0.000000 -0.021032 0.000000 0.113999
#
#
# Mechanical properties :
#
#
# Convention : Reuss Voigt Hill
#
# Bulk Modulus (GPa) = 50.93973 53.76083 52.35028
# Shear Modulus (GPa) = 16.09291 23.23689 19.66490
#
# Velocity S-wave (km/s) = 2.89269 3.47595 3.19764
# Velocity P-wave (km/s) = 6.13542 6.63800 6.39165
#
# Compressibility (1/GPa) = 0.01963104
#
# Stress axis : x y z
#
# Youngs Moduli (GPa) = 91.47969 83.60218 65.89063
#
# Poissons Ratio (x) = 0.32333 0.17144
# Poissons Ratio (y) = 0.35380 0.18119
# Poissons Ratio (z) = 0.23802 0.22989
#
# Static dielectric constant tensor:
#      x y z
#    x 1.724760 0.000000 0.002780 
#    y 0.000000 1.661260 0.000000 
#    z 0.002780 0.000000 1.681770 
# 
# From -- ./inp_files/271441.got.cif
#   From: 2010.05.17/outbox.cif.g08.bks.cpg/sg12_136_cif.got.tgz:271441.got - 2010.06.03 13:09:07.
