data_PCOD9189477
_publ_section_title
;
Structure prediction by ZEFSAII (Michael W. Deem and Ramdas Pophale) SiO2 
 PCOD9189477
Probable space group: C 2/M
;
_chemical_formula_sum "Si O2"
_cell_formula_units_Z 44
_cell_length_a 19.269647
_cell_length_b 11.945492
_cell_length_c 11.716722
_cell_angle_alpha 90.000000
_cell_angle_beta 121.715334
_cell_angle_gamma 90.000000
_cell_volume 2294.273939
_symmetry_space_group_name_H-M "C 2/M"
_symmetry_group_IT_number 12
_symmetry_cell_setting 'monoclinic'
loop_
_space_group_symop_operation_xyz
x,y,z
-x,y,-z
-x,-y,-z
x,-y,z
1/2+x,1/2+y,z
1/2-x,1/2+y,-z
1/2-x,1/2-y,-z
1/2+x,1/2-y,z
loop_
_atom_site_type_symbol
_atom_site_label
_atom_site_fract_x
_atom_site_fract_y
_atom_site_fract_z
Si Si1 0.092570 0.500000 0.221474
Si Si2 0.721245 0.281256 0.848920
Si Si3 0.242923 0.633306 0.652815
Si Si4 0.537962 0.243856 0.655120
Si Si5 0.675415 0.000000 0.068739
Si Si6 0.432515 0.000000 0.238743
Si Si7 0.873324 0.269877 0.633025
O O1 0.100008 0.500000 0.091921
O O2 0.132890 0.384678 0.300009
O O3 0.006901 0.500000 0.212947
O O4 0.743911 0.182853 0.780377
O O5 0.623967 0.300852 0.757481
O O6 0.770804 0.391701 0.859826
O O7 0.750000 0.250000 0.000000
O O8 0.232499 0.500000 0.641360
O O9 0.169571 0.696414 0.523197
O O10 0.323095 0.673603 0.653199
O O11 0.500000 0.273719 0.500000
O O12 0.466654 0.260952 0.686792
O O13 0.559155 0.111085 0.679326
O O14 0.645625 0.000000 0.911680
#
# Coordination Sequence:
#
# PCOD9189477 Si02
#       7
#     4   8   8   8   4   4   8
#     4  10  19  37  63  97 122 163 209 272 325 370
#     4  12  26  42  64  95 132 174 212 262 324 390
#     4  11  23  40  67  93 129 171 213 263 323 386
#     4  11  22  40  64  97 128 166 215 270 322 373
#     4  12  23  43  60  92 135 175 210 259 327 392
#     4  10  22  36  66  93 130 161 216 276 322 374
#     4  10  21  40  64  97 128 161 216 270 315 377
#
# _framework density 19.178180999999999
#
# number of rings (size 3 to 8) (size 9 to 14) (size 15 to 20)
#    0.000    1.091    6.364    0.545    2.545    0.000 
#    1.636    1.364    0.000    1.091    0.000    0.000 
#    0.000    0.000    0.000    0.000    0.000    0.000 
#
# Total GULP energy -122852.334018 kJ/mol
# GULP energy per Si atom -5584.197001 kJ/mol
# Density = 1.913453 g / cm^3
# Si number density = 19.178181 Si / 1000 Ang^3
#
#
#
# Elastic Constant Matrix: (Units=GPa)
#
#
# Indices 1 2 3 4 5 6 
#
# 1 95.6948 35.0850 31.5621 0.0000 7.9864 0.0000
# 2 35.0850 55.0305 13.1315 0.0000 -3.3547 0.0000
# 3 31.5621 13.1315 115.1642 0.0000 -6.4052 0.0000
# 4 0.0000 0.0000 0.0000 17.9308 0.0000 -2.9366
# 5 7.9864 -3.3547 -6.4052 0.0000 36.6020 0.0000
# 6 0.0000 0.0000 0.0000 -2.9366 0.0000 23.8582
#
#
#
# Elastic Compliance Matrix: (Units=1/GPa)
#
#
# Indices 1 2 3 4 5 6 
#
# 1 0.015385 -0.009284 -0.003425 0.000000 -0.004807 0.000000
# 2 -0.009284 0.024349 0.000005 0.000000 0.004258 0.000000
# 3 -0.003425 0.000005 0.009758 0.000000 0.002455 0.000000
# 4 0.000000 0.000000 0.000000 0.056917 0.000000 0.007006
# 5 -0.004807 0.004258 0.002455 0.000000 0.029190 0.000000
# 6 0.000000 0.000000 0.000000 0.007006 0.000000 0.042777
#
#
# Mechanical properties :
#
#
# Convention : Reuss Voigt Hill
#
# Bulk Modulus (GPa) = 41.52302 47.27187 44.39745
# Shear Modulus (GPa) = 23.60578 28.08560 25.84569
#
# Velocity S-wave (km/s) = 3.51218 3.83097 3.67503
# Velocity P-wave (km/s) = 6.17619 6.65363 6.41935
#
# Compressibility (1/GPa) = 0.02408303
#
# Stress axis : x y z
#
# Youngs Moduli (GPa) = 64.99956 41.06863 102.48064
#
# Poissons Ratio (x) = 0.38130 0.35100
# Poissons Ratio (y) = 0.60348 -0.00050
# Poissons Ratio (z) = 0.22263 -0.00020
#
# Static dielectric constant tensor:
#      x y z
#    x 1.699570 0.000000 -0.002190 
#    y 0.000000 1.642650 0.000000 
#    z -0.002190 0.000000 1.677240 
# 
# From -- ./inp_files/154446.got.cif
#   From: 2010.05.17/outbox.cif.g08.bks.cpg/sg12_78_cif.got.tgz:154446.got - 2010.06.03 13:09:07.
