data_PCOD9189471
_publ_section_title
;
Structure prediction by ZEFSAII (Michael W. Deem and Ramdas Pophale) SiO2 
 PCOD9189471
Probable space group: C 2/M
;
_chemical_formula_sum "Si O2"
_cell_formula_units_Z 50
_cell_length_a 17.969398
_cell_length_b 7.932432
_cell_length_c 19.332602
_cell_angle_alpha 90.000000
_cell_angle_beta 131.361204
_cell_angle_gamma 90.000000
_cell_volume 2068.306277
_symmetry_space_group_name_H-M "C 2/M"
_symmetry_group_IT_number 12
_symmetry_cell_setting 'monoclinic'
loop_
_space_group_symop_operation_xyz
x,y,z
-x,y,-z
-x,-y,-z
x,-y,z
1/2+x,1/2+y,z
1/2-x,1/2+y,-z
1/2-x,1/2-y,-z
1/2+x,1/2-y,z
loop_
_atom_site_type_symbol
_atom_site_label
_atom_site_fract_x
_atom_site_fract_y
_atom_site_fract_z
Si Si1 0.297338 0.800643 0.456377
Si Si2 0.731750 0.304905 0.708702
Si Si3 0.500000 0.000000 0.000000
Si Si4 0.708958 0.199922 0.105602
Si Si5 0.485741 0.199940 0.386807
Si Si6 0.424746 0.200026 0.194131
Si Si7 0.517403 0.313709 0.915659
O O1 0.250000 0.750000 0.500000
O O2 0.241123 0.757053 0.350907
O O3 0.409834 0.730758 0.522949
O O4 0.307480 0.000000 0.464068
O O5 0.755699 0.500000 0.726770
O O6 0.775637 0.230926 0.806939
O O7 0.613519 0.281391 0.644997
O O8 0.473066 0.152490 0.926968
O O9 0.817689 0.213414 0.139024
O O10 0.673352 0.000000 0.081913
O O11 0.631294 0.301701 0.012520
O O12 0.481988 0.218089 0.301546
O O13 0.477752 0.000000 0.398030
O O14 0.480912 0.281166 0.164683
O O15 0.409535 0.000000 0.171775
O O16 0.478041 0.500000 0.907276
#
# Coordination Sequence:
#
# PCOD9189471 Si02
#       7
#     8   8   2   8   8   8   8
#     4  11  23  40  58  84 119 160 206 252 305 371
#     4  10  21  37  62  91 122 157 198 253 311 363
#     4  12  26  48  60  86 132 172 210 258 300 378
#     4  10  20  38  62  93 126 156 201 260 313 365
#     4   9  20  38  62  88 120 160 200 251 312 365
#     4  10  19  37  63  93 124 155 202 263 316 365
#     4  12  24  42  65  91 124 169 214 252 309 371
#
# _framework density 24.17437
#
# number of rings (size 3 to 8) (size 9 to 14) (size 15 to 20)
#    0.000    1.600    1.600    3.120    0.000    5.760 
#    2.880    0.000    0.000    0.000    0.000    0.000 
#    0.000    0.000    0.000    0.000    0.000    0.000 
#
# Total GULP energy -139690.982264 kJ/mol
# GULP energy per Si atom -5587.639291 kJ/mol
# Density = 2.411935 g / cm^3
# Si number density = 24.174370 Si / 1000 Ang^3
#
#
#
# Elastic Constant Matrix: (Units=GPa)
#
#
# Indices 1 2 3 4 5 6 
#
# 1 61.8427 21.9541 42.5746 0.0000 -19.2952 0.0000
# 2 21.9541 128.7986 22.0936 0.0000 -13.2576 0.0000
# 3 42.5746 22.0936 87.1597 0.0000 -17.6525 0.0000
# 4 0.0000 0.0000 0.0000 21.9366 0.0000 -1.4722
# 5 -19.2952 -13.2576 -17.6525 0.0000 50.7951 0.0000
# 6 0.0000 0.0000 0.0000 -1.4722 0.0000 38.6458
#
#
#
# Elastic Compliance Matrix: (Units=1/GPa)
#
#
# Indices 1 2 3 4 5 6 
#
# 1 0.026356 -0.001990 -0.011238 0.000000 0.005587 0.000000
# 2 -0.001990 0.008376 -0.000927 0.000000 0.001108 0.000000
# 3 -0.011238 -0.000927 0.017517 0.000000 0.001577 0.000000
# 4 0.000000 0.000000 0.000000 0.045703 0.000000 0.001741
# 5 0.005587 0.001108 0.001577 0.000000 0.022646 0.000000
# 6 0.000000 0.000000 0.000000 0.001741 0.000000 0.025942
#
#
# Mechanical properties :
#
#
# Convention : Reuss Voigt Hill
#
# Bulk Modulus (GPa) = 41.77137 50.11620 45.94379
# Shear Modulus (GPa) = 27.34768 35.02076 31.18422
#
# Velocity S-wave (km/s) = 3.36708 3.81027 3.59551
# Velocity P-wave (km/s) = 5.69500 6.33512 6.02357
#
# Compressibility (1/GPa) = 0.02393984
#
# Stress axis : x y z
#
# Youngs Moduli (GPa) = 37.94150 119.38473 57.08734
#
# Poissons Ratio (x) = 0.23753 0.64157
# Poissons Ratio (y) = 0.07549 0.05291
# Poissons Ratio (z) = 0.42640 0.11066
#
# Static dielectric constant tensor:
#      x y z
#    x 2.728370 0.000000 -0.504060 
#    y 0.000000 1.883020 0.000000 
#    z -0.504060 0.000000 2.199710 
# 
# From -- ./inp_files/275774.got.cif
#   From: 2010.05.17/outbox.cif.g08.bks.cpg/sg12_138_cif.got.tgz:275774.got - 2010.06.03 13:09:07.
