data_PCOD9189028
_publ_section_title
;
Structure prediction by ZEFSAII (Michael W. Deem and Ramdas Pophale) SiO2 
 PCOD9189028
Probable space group: C 2/M
;
_chemical_formula_sum "Si O2"
_cell_formula_units_Z 64
_cell_length_a 8.082198
_cell_length_b 33.604466
_cell_length_c 13.690062
_cell_angle_alpha 90.000000
_cell_angle_beta 54.549576
_cell_angle_gamma 90.000000
_cell_volume 3028.905530
_symmetry_space_group_name_H-M "C 2/M"
_symmetry_group_IT_number 12
_symmetry_cell_setting 'monoclinic'
loop_
_space_group_symop_operation_xyz
x,y,z
-x,y,-z
-x,-y,-z
x,-y,z
1/2+x,1/2+y,z
1/2-x,1/2+y,-z
1/2-x,1/2-y,-z
1/2+x,1/2-y,z
loop_
_atom_site_type_symbol
_atom_site_label
_atom_site_fract_x
_atom_site_fract_y
_atom_site_fract_z
Si Si1 0.325598 0.544911 0.902668
Si Si2 0.012318 0.226597 0.380442
Si Si3 0.948186 0.702151 0.254682
Si Si4 0.833532 0.663267 0.978880
Si Si5 0.484255 0.881137 0.339843
Si Si6 0.960990 0.877557 0.202854
Si Si7 0.614261 0.359742 0.564229
Si Si8 0.001680 0.575732 0.143153
O O1 0.393037 0.500000 0.862948
O O2 0.493984 0.578693 0.853477
O O3 0.181811 0.560033 0.861828
O O4 0.186722 0.547696 0.047038
O O5 0.238207 0.212715 0.273871
O O6 0.000000 0.236729 0.500000
O O7 0.970262 0.263928 0.327530
O O8 0.870206 0.187627 0.418189
O O9 0.140216 0.693937 0.119157
O O10 0.907158 0.659772 0.317496
O O11 0.922038 0.619865 0.916361
O O12 0.609992 0.653515 0.096846
O O13 0.000000 0.677238 0.000000
O O14 0.720532 0.871793 0.276922
O O15 0.326460 0.883190 0.482695
O O16 0.461993 0.917358 0.270903
O O17 0.010240 0.876049 0.301066
O O18 0.500000 0.364431 0.500000
#
# Coordination Sequence:
#
# PCOD9189028 Si02
#       8
#     8   8   8   8   8   8   8   8
#     4  10  19  36  65  97 128 169 209 252 313 384
#     4  11  23  40  64  94 124 166 214 279 322 380
#     4  11  24  40  63  91 126 164 216 267 329 378
#     4  10  19  39  65  87 124 171 214 258 318 375
#     4  11  23  38  63  95 124 164 215 265 325 368
#     4  11  23  39  66  95 132 164 212 268 317 386
#     4  11  22  41  67  90 118 167 222 269 315 380
#     4   9  17  34  61  91 126 160 211 259 294 378
#
# _framework density 21.129743999999999
#
# number of rings (size 3 to 8) (size 9 to 14) (size 15 to 20)
#    0.000    1.500    5.000    3.000    1.750    4.500 
#    0.000    4.375    2.750    5.625    0.000    0.000 
#    0.000    0.000    0.000    0.000    0.000    0.000 
#
# Total GULP energy -178500.373581 kJ/mol
# GULP energy per Si atom -5578.136674 kJ/mol
# Density = 2.108165 g / cm^3
# Si number density = 21.129744 Si / 1000 Ang^3
#
#
#
# Elastic Constant Matrix: (Units=GPa)
#
#
# Indices 1 2 3 4 5 6 
#
# 1 48.8762 21.4659 28.0208 0.0000 -19.3457 0.0000
# 2 21.4659 75.7303 42.5271 0.0000 1.2223 0.0000
# 3 28.0208 42.5271 146.2799 0.0000 -15.0654 0.0000
# 4 0.0000 0.0000 0.0000 22.4946 0.0000 6.7482
# 5 -19.3457 1.2223 -15.0654 0.0000 32.9003 0.0000
# 6 0.0000 0.0000 0.0000 6.7482 0.0000 7.9888
#
#
#
# Elastic Compliance Matrix: (Units=1/GPa)
#
#
# Indices 1 2 3 4 5 6 
#
# 1 0.032652 -0.008513 -0.001857 0.000000 0.018665 0.000000
# 2 -0.008513 0.018254 -0.004473 0.000000 -0.007732 0.000000
# 3 -0.001857 -0.004473 0.008812 0.000000 0.003109 0.000000
# 4 0.000000 0.000000 0.000000 0.059544 0.000000 -0.050297
# 5 0.018665 -0.007732 0.003109 0.000000 0.043081 0.000000
# 6 0.000000 0.000000 0.000000 -0.050297 0.000000 0.167661
#
#
# Mechanical properties :
#
#
# Convention : Reuss Voigt Hill
#
# Bulk Modulus (GPa) = 33.29784 50.54599 41.92192
# Shear Modulus (GPa) = 13.52444 24.60159 19.06301
#
# Velocity S-wave (km/s) = 2.53270 3.41590 3.00690
# Velocity P-wave (km/s) = 4.93414 6.28741 5.65142
#
# Compressibility (1/GPa) = 0.03003198
#
# Stress axis : x y z
#
# Youngs Moduli (GPa) = 30.62646 54.78161 113.47556
#
# Poissons Ratio (x) = 0.46638 0.21074
# Poissons Ratio (y) = 0.26074 0.50752
# Poissons Ratio (z) = 0.05688 0.24501
#
# Static dielectric constant tensor:
#      x y z
#    x 1.857310 0.000000 -0.003490 
#    y 0.000000 1.721790 0.000000 
#    z -0.003490 0.000000 1.877990 
# 
# From -- ./inp_files/201285.got.cif
#   From: 2010.05.17/outbox.cif.g08.bks.cpg/sg12_101_cif.got.tgz:201285.got - 2010.06.03 13:09:07.
