data_PCOD9189518
_publ_section_title
;
Structure prediction by ZEFSAII (Michael W. Deem and Ramdas Pophale) SiO2 
 PCOD9189518
Probable space group: C 2/M
;
_chemical_formula_sum "Si O2"
_cell_formula_units_Z 56
_cell_length_a 14.564399
_cell_length_b 16.744122
_cell_length_c 17.070264
_cell_angle_alpha 90.000000
_cell_angle_beta 40.673224
_cell_angle_gamma 90.000000
_cell_volume 2713.140286
_symmetry_space_group_name_H-M "C 2/M"
_symmetry_group_IT_number 12
_symmetry_cell_setting 'monoclinic'
loop_
_space_group_symop_operation_xyz
x,y,z
-x,y,-z
-x,-y,-z
x,-y,z
1/2+x,1/2+y,z
1/2-x,1/2+y,-z
1/2-x,1/2-y,-z
1/2+x,1/2-y,z
loop_
_atom_site_type_symbol
_atom_site_label
_atom_site_fract_x
_atom_site_fract_y
_atom_site_fract_z
Si Si1 0.315044 0.336507 0.943246
Si Si2 0.470125 0.259463 0.715545
Si Si3 0.914951 0.587663 0.305739
Si Si4 0.293319 0.258888 0.222916
Si Si5 0.137230 0.824305 0.463020
Si Si6 0.165813 0.087194 0.897426
Si Si7 0.473874 0.875275 0.932839
O O1 0.454779 0.315987 0.802343
O O2 0.250000 0.250000 0.000000
O O3 0.316341 0.378330 0.026506
O O4 0.192754 0.377500 0.972518
O O5 0.502748 0.166300 0.714490
O O6 0.320111 0.270332 0.768656
O O7 0.583429 0.286225 0.578358
O O8 0.942029 0.500000 0.323423
O O9 0.748995 0.607734 0.412432
O O10 0.958948 0.585708 0.186511
O O11 0.224971 0.237196 0.350823
O O12 0.300524 0.351002 0.193737
O O13 0.441552 0.211197 0.119333
O O14 0.000000 0.848249 0.500000
O O15 0.233726 0.000000 0.845872
O O16 0.000000 0.078339 0.000000
O O17 0.500000 0.911272 0.000000
#
# Coordination Sequence:
#
# PCOD9189518 Si02
#       7
#     8   8   8   8   8   8   8
#     4  12  20  36  64  93 122 166 205 251 306 373
#     4  11  21  38  63  93 119 161 213 255 300 374
#     4  11  24  39  59  88 124 161 199 260 321 364
#     4  10  19  37  65  88 124 158 206 257 304 361
#     4   9  22  41  65  90 110 161 221 256 304 377
#     4  11  24  39  59  92 131 164 204 260 319 369
#     4  11  20  35  62  92 121 160 205 246 303 377
#
# _framework density 20.640288999999999
#
# number of rings (size 3 to 8) (size 9 to 14) (size 15 to 20)
#    0.000    1.286    4.286    1.714    2.000    2.857 
#    0.000    1.429    0.000    2.571    0.000    0.000 
#    0.000    0.000    0.000    0.000    0.000    0.000 
#
# Total GULP energy -156081.666311 kJ/mol
# GULP energy per Si atom -5574.345225 kJ/mol
# Density = 2.059331 g / cm^3
# Si number density = 20.640289 Si / 1000 Ang^3
#
#
#
# Elastic Constant Matrix: (Units=GPa)
#
#
# Indices 1 2 3 4 5 6 
#
# 1 93.0009 30.4266 22.5577 -0.0001 -7.0133 0.0000
# 2 30.4266 113.8162 34.6960 0.0000 4.7385 0.0000
# 3 22.5577 34.6960 111.9312 -0.0001 9.1072 -0.0001
# 4 -0.0001 0.0000 -0.0001 7.3239 0.0001 17.1420
# 5 -7.0133 4.7385 9.1072 0.0001 34.6575 0.0000
# 6 0.0000 0.0000 -0.0001 17.1420 0.0000 10.8388
#
#
#
# Elastic Compliance Matrix: (Units=1/GPa)
#
#
# Indices 1 2 3 4 5 6 
#
# 1 0.012410 -0.002885 -0.001883 0.000000 0.003401 0.000000
# 2 -0.002885 0.010384 -0.002528 0.000000 -0.001339 0.000000
# 3 -0.001883 -0.002528 0.010321 0.000000 -0.002748 0.000000
# 4 0.000000 0.000000 0.000000 -0.050539 0.000000 0.079929
# 5 0.003401 -0.001339 -0.002748 0.000000 0.030447 0.000000
# 6 0.000000 0.000000 0.000000 0.079929 0.000000 -0.034150
#
#
# Mechanical properties :
#
#
# Convention : Reuss Voigt Hill
#
# Bulk Modulus (GPa) = 53.99259 54.90098 54.44679
# Shear Modulus (GPa) = -13871.06776 25.96859 -6922.54958
#
# Velocity S-wave (km/s) = -82.06689 3.55089 -57.97571
# Velocity P-wave (km/s) = 94.62425 6.59306 66.74684
#
# Compressibility (1/GPa) = 0.01852106
#
# Stress axis : x y z
#
# Youngs Moduli (GPa) = 80.58214 96.30357 96.89072
#
# Poissons Ratio (x) = 0.27783 0.18248
# Poissons Ratio (y) = 0.23247 0.24498
# Poissons Ratio (z) = 0.15177 0.24349
#
# Static dielectric constant tensor:
#      x y z
#    x 1.837100 0.000000 -0.031000 
#    y 0.000000 1.829420 0.000000 
#    z -0.031000 0.000000 1.776250 
# 
# From -- ./inp_files/271367.got.cif
#   From: 2010.05.17/outbox.cif.g08.bks.cpg/sg12_136_cif.got.tgz:271367.got - 2010.06.03 13:09:07.
