data_PCOD9189682
_publ_section_title
;
Structure prediction by ZEFSAII (Michael W. Deem and Ramdas Pophale) SiO2 
 PCOD9189682
Probable space group: C 2/M
;
_chemical_formula_sum "Si O2"
_cell_formula_units_Z 36
_cell_length_a 8.796162
_cell_length_b 26.599858
_cell_length_c 16.533142
_cell_angle_alpha 90.000000
_cell_angle_beta 157.402547
_cell_angle_gamma 90.000000
_cell_volume 1486.437487
_symmetry_space_group_name_H-M "C 2/M"
_symmetry_group_IT_number 12
_symmetry_cell_setting 'monoclinic'
loop_
_space_group_symop_operation_xyz
x,y,z
-x,y,-z
-x,-y,-z
x,-y,z
1/2+x,1/2+y,z
1/2-x,1/2+y,-z
1/2-x,1/2-y,-z
1/2+x,1/2-y,z
loop_
_atom_site_type_symbol
_atom_site_label
_atom_site_fract_x
_atom_site_fract_y
_atom_site_fract_z
Si Si1 0.967610 0.678499 0.120822
Si Si2 0.668258 0.000000 0.266663
Si Si3 0.500000 0.243740 0.000000
Si Si4 0.939710 0.601835 0.223255
Si Si5 0.972134 0.000000 0.736067
Si Si6 0.803330 0.895026 0.721307
O O1 0.185010 0.638632 0.285502
O O2 0.200694 0.708201 0.166094
O O3 0.798368 0.721114 0.097521
O O4 0.620890 0.647912 0.901594
O O5 0.431550 0.049613 0.172518
O O6 0.000000 0.000000 0.500000
O O7 0.837565 0.000000 0.259409
O O8 0.972782 0.594712 0.335033
O O9 0.500000 0.624343 0.000000
O O10 0.500000 0.000000 0.500000
O O11 0.038978 0.946478 0.813211
O O12 0.500000 0.882496 0.500000
#
# Coordination Sequence:
#
# PCOD9189682 Si02
#       6
#     8   4   4   8   4   8
#     4  10  21  38  64  83 116 155 202 248 296 360
#     4  12  23  36  62  93 127 162 199 242 300 362
#     4  10  20  40  62  82 112 156 206 246 306 348
#     4  10  21  41  60  91 122 167 199 242 294 364
#     4  10  22  36  55  85 126 161 185 237 300 357
#     4  10  19  38  60  85 122 158 190 245 307 347
#
# _framework density 24.218979999999998
#
# number of rings (size 3 to 8) (size 9 to 14) (size 15 to 20)
#    0.000    1.778    3.333    3.667    3.111    2.667 
#    0.000    5.556    0.000    0.000    0.000    0.000 
#    0.000    0.000    0.000    0.000    0.000    0.000 
#
# Total GULP energy -100397.092032 kJ/mol
# GULP energy per Si atom -5577.616224 kJ/mol
# Density = 2.416386 g / cm^3
# Si number density = 24.218980 Si / 1000 Ang^3
#
#
#
# Elastic Constant Matrix: (Units=GPa)
#
#
# Indices 1 2 3 4 5 6 
#
# 1 197.6209 89.1388 42.1728 0.0037 -53.4188 0.0016
# 2 89.1388 147.2710 19.8842 0.0010 -30.6805 0.0004
# 3 42.1728 19.8842 100.6386 0.0021 -30.9703 0.0006
# 4 0.0037 0.0010 0.0021 -42.0682 0.0012 -44.9846
# 5 -53.4188 -30.6805 -30.9703 0.0012 49.4329 0.0005
# 6 0.0016 0.0004 0.0006 -44.9846 0.0005 46.8034
#
#
#
# Elastic Compliance Matrix: (Units=1/GPa)
#
#
# Indices 1 2 3 4 5 6 
#
# 1 0.008728 -0.003806 -0.000904 0.000001 0.006503 0.000000
# 2 -0.003806 0.009458 0.000331 0.000000 0.001965 0.000000
# 3 -0.000904 0.000331 0.012404 0.000000 0.006999 0.000000
# 4 0.000001 0.000000 0.000000 -0.011723 0.000001 -0.011267
# 5 0.006503 0.001965 0.006999 0.000001 0.032861 0.000001
# 6 0.000000 0.000000 0.000000 -0.011267 0.000001 0.010537
#
#
# Mechanical properties :
#
#
# Convention : Reuss Voigt Hill
#
# Bulk Modulus (GPa) = 45.80533 83.10245 64.45389
# Shear Modulus (GPa) = 63.85614 30.45593 47.15603
#
# Velocity S-wave (km/s) = 5.14037 3.55000 4.41735
# Velocity P-wave (km/s) = 7.36106 7.15478 7.25865
#
# Compressibility (1/GPa) = 0.02183152
#
# Stress axis : x y z
#
# Youngs Moduli (GPa) = 114.58011 105.72608 80.61841
#
# Poissons Ratio (x) = 0.40237 0.07290
# Poissons Ratio (y) = 0.43606 -0.02666
# Poissons Ratio (z) = 0.10360 -0.03496
#
# Static dielectric constant tensor:
#      x y z
#    x 2.040720 -0.000250 -0.019050 
#    y -0.000250 7.216600 -0.000190 
#    z -0.019050 -0.000190 1.994430 
# 
# From -- ./inp_files/200097.got.cif
#   From: 2010.05.17/outbox.cif.g08.bks.cpg/sg12_101_cif.got.tgz:200097.got - 2010.06.03 13:09:07.
