data_PCOD9189708
_publ_section_title
;
Structure prediction by ZEFSAII (Michael W. Deem and Ramdas Pophale) SiO2 
 PCOD9189708
Probable space group: C 2/M
;
_chemical_formula_sum "Si O2"
_cell_formula_units_Z 40
_cell_length_a 14.146644
_cell_length_b 14.874886
_cell_length_c 14.688469
_cell_angle_alpha 90.000000
_cell_angle_beta 140.633723
_cell_angle_gamma 90.000000
_cell_volume 1960.476313
_symmetry_space_group_name_H-M "C 2/M"
_symmetry_group_IT_number 12
_symmetry_cell_setting 'monoclinic'
loop_
_space_group_symop_operation_xyz
x,y,z
-x,y,-z
-x,-y,-z
x,-y,z
1/2+x,1/2+y,z
1/2-x,1/2+y,-z
1/2-x,1/2-y,-z
1/2+x,1/2-y,z
loop_
_atom_site_type_symbol
_atom_site_label
_atom_site_fract_x
_atom_site_fract_y
_atom_site_fract_z
Si Si1 0.256875 0.743907 0.834850
Si Si2 0.025207 0.600531 0.621187
Si Si3 0.472133 0.264975 0.830172
Si Si4 0.720025 0.152470 0.433934
Si Si5 0.964799 0.895358 0.294065
O O1 0.131487 0.668171 0.753891
O O2 0.351804 0.711447 0.818432
O O3 0.167119 0.837278 0.758794
O O4 0.372380 0.751892 0.003451
O O5 0.087987 0.500000 0.662054
O O6 0.000000 0.635330 0.500000
O O7 0.867895 0.598286 0.554978
O O8 0.396824 0.175416 0.732017
O O9 0.498329 0.341806 0.773351
O O10 0.750000 0.250000 0.500000
O O11 0.881483 0.112582 0.533928
O O12 0.929351 0.000000 0.253377
#
# Coordination Sequence:
#
# PCOD9189708 Si02
#       5
#     8   8   8   8   8
#     4  11  23  41  66  93 129 169 209 261 321 372
#     4  11  22  36  62  97 126 160 209 262 318 377
#     4  10  23  42  64  90 129 170 208 260 317 375
#     4  10  19  38  61  85 123 164 204 254 311 369
#     4  11  23  41  66  96 126 166 215 263 314 377
#
# _framework density 20.403203999999999
#
# number of rings (size 3 to 8) (size 9 to 14) (size 15 to 20)
#    0.000    1.400    4.000    3.600    0.000    3.200 
#    0.000    8.000    0.000    0.000    0.000    0.000 
#    0.000    0.000    0.000    0.000    0.000    0.000 
#
# Total GULP energy -111551.160920 kJ/mol
# GULP energy per Si atom -5577.558046 kJ/mol
# Density = 2.035677 g / cm^3
# Si number density = 20.403204 Si / 1000 Ang^3
#
#
#
# Elastic Constant Matrix: (Units=GPa)
#
#
# Indices 1 2 3 4 5 6 
#
# 1 50.5778 13.7724 11.7827 0.0001 16.6365 0.0001
# 2 13.7724 103.3705 32.7033 0.0000 14.2085 0.0001
# 3 11.7827 32.7033 117.9638 0.0001 18.0593 0.0002
# 4 0.0001 0.0000 0.0001 9.7957 0.0001 -6.6870
# 5 16.6365 14.2085 18.0593 0.0001 31.2106 0.0001
# 6 0.0001 0.0001 0.0002 -6.6870 0.0001 4.2376
#
#
#
# Elastic Compliance Matrix: (Units=1/GPa)
#
#
# Indices 1 2 3 4 5 6 
#
# 1 0.024207 -0.001513 -0.000141 0.000003 -0.012133 0.000005
# 2 -0.001513 0.011044 -0.002485 -0.000001 -0.002784 -0.000001
# 3 -0.000141 -0.002485 0.009870 0.000003 -0.004505 0.000005
# 4 0.000003 -0.000001 0.000003 -1.321563 0.000009 -2.085475
# 5 -0.012133 -0.002784 -0.004505 0.000009 0.042382 0.000014
# 6 0.000005 -0.000001 0.000005 -2.085475 0.000014 -3.054973
#
#
# Mechanical properties :
#
#
# Convention : Reuss Voigt Hill
#
# Bulk Modulus (GPa) = 27.14125 43.15876 35.15001
# Shear Modulus (GPa) = -1.17138 23.29236 11.06049
#
# Velocity S-wave (km/s) = -0.75853 3.38243 2.33082
# Velocity P-wave (km/s) = 3.54460 6.03765 4.95063
#
# Compressibility (1/GPa) = 0.03684429
#
# Stress axis : x y z
#
# Youngs Moduli (GPa) = 41.30992 90.54559 101.32056
#
# Poissons Ratio (x) = 0.13698 0.01429
# Poissons Ratio (y) = 0.06250 0.25173
# Poissons Ratio (z) = 0.00583 0.22496
#
# Static dielectric constant tensor:
#      x y z
#    x 1.782360 0.000000 -0.019490 
#    y 0.000000 1.592240 0.000000 
#    z -0.019490 0.000000 1.763670 
# 
# From -- ./inp_files/96642.got.cif
#   From: 2010.05.17/outbox.cif.g08.bks.cpg/sg12_49_cif.got.tgz:96642.got - 2010.06.03 13:09:07.
