data_PCOD9189089
_publ_section_title
;
Structure prediction by ZEFSAII (Michael W. Deem and Ramdas Pophale) SiO2 
 PCOD9189089
Probable space group: C 2/M
;
_chemical_formula_sum "Si O2"
_cell_formula_units_Z 48
_cell_length_a 8.991921
_cell_length_b 19.904959
_cell_length_c 15.600088
_cell_angle_alpha 90.000000
_cell_angle_beta 114.797970
_cell_angle_gamma 90.000000
_cell_volume 2534.704476
_symmetry_space_group_name_H-M "C 2/M"
_symmetry_group_IT_number 12
_symmetry_cell_setting 'monoclinic'
loop_
_space_group_symop_operation_xyz
x,y,z
-x,y,-z
-x,-y,-z
x,-y,z
1/2+x,1/2+y,z
1/2-x,1/2+y,-z
1/2-x,1/2-y,-z
1/2+x,1/2-y,z
loop_
_atom_site_type_symbol
_atom_site_label
_atom_site_fract_x
_atom_site_fract_y
_atom_site_fract_z
Si Si1 0.643991 0.419504 0.100028
Si Si2 0.666922 0.336683 0.797884
Si Si3 0.314878 0.077202 0.983277
Si Si4 0.130219 0.080015 0.293676
Si Si5 0.912520 0.720320 0.724387
Si Si6 0.388880 0.180263 0.391414
O O1 0.631464 0.500000 0.105030
O O2 0.645584 0.395579 0.197339
O O3 0.500000 0.397491 0.000000
O O4 0.800624 0.404046 0.079704
O O5 0.718436 0.373988 0.897087
O O6 0.539421 0.385942 0.717846
O O7 0.827006 0.321081 0.779914
O O8 0.559586 0.269911 0.789489
O O9 0.250732 0.000000 0.958081
O O10 0.500000 0.077042 0.000000
O O11 0.289452 0.110719 0.376759
O O12 0.122791 0.000000 0.296386
O O13 0.758115 0.765471 0.654541
O O14 0.995183 0.681474 0.664726
O O15 0.500000 0.195044 0.500000
#
# Coordination Sequence:
#
# PCOD9189089 Si02
#       6
#     8   8   8   8   8   8
#     4   9  16  30  51  76 106 143 180 210 251 319
#     4  10  19  37  56  76 111 144 182 228 265 318
#     4  10  20  32  53  82 110 142 183 223 265 319
#     4  10  20  34  57  84 112 144 176 222 279 326
#     4   9  21  37  58  80 104 141 189 221 269 319
#     4  10  20  37  61  82 107 139 179 229 271 326
#
# _framework density 18.937118999999999
#
# number of rings (size 3 to 8) (size 9 to 14) (size 15 to 20)
#    0.000    2.333    1.667    1.000    2.333    0.333 
#    0.000    1.667    0.000    1.000    0.000    0.000 
#    0.000    0.000    0.000    0.000    0.000    0.000 
#
# Total GULP energy -133719.333136 kJ/mol
# GULP energy per Si atom -5571.638881 kJ/mol
# Density = 1.889402 g / cm^3
# Si number density = 18.937119 Si / 1000 Ang^3
#
#
#
# Elastic Constant Matrix: (Units=GPa)
#
#
# Indices 1 2 3 4 5 6 
#
# 1 119.6182 24.4046 7.8559 0.0000 -7.4197 0.0000
# 2 24.4046 58.9108 8.6769 0.0000 -3.7254 0.0000
# 3 7.8559 8.6769 42.9458 0.0000 7.0749 0.0000
# 4 0.0000 0.0000 0.0000 16.6704 0.0000 0.5595
# 5 -7.4197 -3.7254 7.0749 0.0000 22.6038 0.0000
# 6 0.0000 0.0000 0.0000 0.5595 0.0000 15.3478
#
#
#
# Elastic Compliance Matrix: (Units=1/GPa)
#
#
# Indices 1 2 3 4 5 6 
#
# 1 0.009349 -0.003465 -0.001499 0.000000 0.002967 0.000000
# 2 -0.003465 0.019167 -0.003766 0.000000 0.003200 0.000000
# 3 -0.001499 -0.003766 0.025836 0.000000 -0.009199 0.000000
# 4 0.000000 0.000000 0.000000 0.060060 0.000000 -0.002190
# 5 0.002967 0.003200 -0.009199 0.000000 0.048621 0.000000
# 6 0.000000 0.000000 0.000000 -0.002190 0.000000 0.065236
#
#
# Mechanical properties :
#
#
# Convention : Reuss Voigt Hill
#
# Bulk Modulus (GPa) = 27.10557 33.70549 30.40553
# Shear Modulus (GPa) = 19.37789 22.96022 21.16906
#
# Velocity S-wave (km/s) = 3.20234 3.48580 3.34707
# Velocity P-wave (km/s) = 5.29319 5.83424 5.57028
#
# Compressibility (1/GPa) = 0.03689279
#
# Stress axis : x y z
#
# Youngs Moduli (GPa) = 106.96004 52.17249 38.70603
#
# Poissons Ratio (x) = 0.18076 0.05802
# Poissons Ratio (y) = 0.37058 0.14577
# Poissons Ratio (z) = 0.16034 0.19648
#
# Static dielectric constant tensor:
#      x y z
#    x 1.719610 0.000000 0.004310 
#    y 0.000000 1.693040 0.000000 
#    z 0.004310 0.000000 1.639230 
# 
# From -- ./inp_files/197183.got.cif
#   From: 2010.05.17/outbox.cif.g08.bks.cpg/sg12_99_cif.got.tgz:197183.got - 2010.06.03 13:09:07.
