data_PCOD9189008
_publ_section_title
;
Structure prediction by ZEFSAII (Michael W. Deem and Ramdas Pophale) SiO2 
 PCOD9189008
Probable space group: C 2/M
;
_chemical_formula_sum "Si O2"
_cell_formula_units_Z 56
_cell_length_a 12.621669
_cell_length_b 26.632316
_cell_length_c 8.211117
_cell_angle_alpha 90.000000
_cell_angle_beta 62.809754
_cell_angle_gamma 90.000000
_cell_volume 2455.110657
_symmetry_space_group_name_H-M "C 2/M"
_symmetry_group_IT_number 12
_symmetry_cell_setting 'monoclinic'
loop_
_space_group_symop_operation_xyz
x,y,z
-x,y,-z
-x,-y,-z
x,-y,z
1/2+x,1/2+y,z
1/2-x,1/2+y,-z
1/2-x,1/2-y,-z
1/2+x,1/2-y,z
loop_
_atom_site_type_symbol
_atom_site_label
_atom_site_fract_x
_atom_site_fract_y
_atom_site_fract_z
Si Si1 0.946270 0.944786 0.853820
Si Si2 0.288365 0.336492 0.320711
Si Si3 0.199212 0.944239 0.541673
Si Si4 0.725370 0.348890 0.040987
Si Si5 0.888046 0.592323 0.161732
Si Si6 0.480498 0.283019 0.707774
Si Si7 0.556415 0.177553 0.636639
O O1 0.859441 0.898173 0.903040
O O2 0.054904 0.941913 0.647487
O O3 0.889483 0.000000 0.874305
O O4 0.000000 0.943263 0.000000
O O5 0.272361 0.395709 0.369962
O O6 0.420555 0.317473 0.271164
O O7 0.194651 0.309133 0.503369
O O8 0.254290 0.331236 0.157124
O O9 0.276671 0.936790 0.322887
O O10 0.228092 0.000000 0.586907
O O11 0.834033 0.367845 0.071798
O O12 0.649265 0.305166 0.175268
O O13 0.943454 0.626649 0.264261
O O14 0.000000 0.564331 0.000000
O O15 0.500000 0.283283 0.500000
O O16 0.496335 0.226172 0.757040
O O17 0.500000 0.168639 0.500000
#
# Coordination Sequence:
#
# PCOD9189008 Si02
#       7
#     8   8   8   8   8   8   8
#     4  10  19  36  65 102 136 165 208 264 328 393
#     4  11  21  39  63  94 132 170 207 259 319 389
#     4  10  21  40  66  93 128 172 214 260 316 379
#     4  12  23  38  66  98 134 170 210 267 330 391
#     4  11  26  45  64  93 131 172 221 270 318 386
#     4  11  22  39  63  96 126 162 210 267 328 384
#     4  10  23  44  65  85 123 172 220 263 319 380
#
# _framework density 22.809562
#
# number of rings (size 3 to 8) (size 9 to 14) (size 15 to 20)
#    0.000    1.286    2.857    3.429    0.000    3.143 
#    0.000    5.714    0.000   14.571    0.000    0.000 
#    0.000    0.000    0.000    0.000    0.000    0.000 
#
# Total GULP energy -156413.544243 kJ/mol
# GULP energy per Si atom -5586.198009 kJ/mol
# Density = 2.275765 g / cm^3
# Si number density = 22.809562 Si / 1000 Ang^3
#
#
#
# Elastic Constant Matrix: (Units=GPa)
#
#
# Indices 1 2 3 4 5 6 
#
# 1 50.0415 5.0779 4.2440 0.0000 3.1962 0.0000
# 2 5.0779 93.6680 4.1662 0.0000 2.8082 0.0000
# 3 4.2440 4.1662 92.9673 0.0000 -17.5042 0.0000
# 4 0.0000 0.0000 0.0000 7.6341 0.0000 3.3639
# 5 3.1962 2.8082 -17.5042 0.0000 38.2429 0.0000
# 6 0.0000 0.0000 0.0000 3.3639 0.0000 3.4294
#
#
#
# Elastic Compliance Matrix: (Units=1/GPa)
#
#
# Indices 1 2 3 4 5 6 
#
# 1 0.020335 -0.000978 -0.001303 0.000000 -0.002224 0.000000
# 2 -0.000978 0.010787 -0.000627 0.000000 -0.000997 0.000000
# 3 -0.001303 -0.000627 0.011899 0.000000 0.005601 0.000000
# 4 0.000000 0.000000 0.000000 0.230706 0.000000 -0.226298
# 5 -0.002224 -0.000997 0.005601 0.000000 0.028971 0.000000
# 6 0.000000 0.000000 0.000000 -0.226298 0.000000 0.513572
#
#
# Mechanical properties :
#
#
# Convention : Reuss Voigt Hill
#
# Bulk Modulus (GPa) = 26.87770 29.29476 28.08623
# Shear Modulus (GPa) = 5.99170 24.74052 15.36611
#
# Velocity S-wave (km/s) = 1.62251 3.29698 2.59833
# Velocity P-wave (km/s) = 3.91397 5.23111 4.61972
#
# Compressibility (1/GPa) = 0.03720556
#
# Stress axis : x y z
#
# Youngs Moduli (GPa) = 49.17575 92.70611 84.04325
#
# Poissons Ratio (x) = 0.09064 0.10953
# Poissons Ratio (y) = 0.04808 0.05265
# Poissons Ratio (z) = 0.06409 0.05808
#
# Static dielectric constant tensor:
#      x y z
#    x 1.851610 0.000000 -0.045500 
#    y 0.000000 1.822700 0.000000 
#    z -0.045500 0.000000 1.904320 
# 
# From -- ./inp_files/54569.got.cif
#   From: 2010.05.17/outbox.cif.g08.bks.cpg/sg12_28_cif.got.tgz:54569.got - 2010.06.03 13:09:07.
