data_PCOD9189456
_publ_section_title
;
Structure prediction by ZEFSAII (Michael W. Deem and Ramdas Pophale) SiO2 
 PCOD9189456
Probable space group: C 2/M
;
_chemical_formula_sum "Si O2"
_cell_formula_units_Z 60
_cell_length_a 14.241356
_cell_length_b 11.315427
_cell_length_c 19.946615
_cell_angle_alpha 90.000000
_cell_angle_beta 75.313477
_cell_angle_gamma 90.000000
_cell_volume 3109.316928
_symmetry_space_group_name_H-M "C 2/M"
_symmetry_group_IT_number 12
_symmetry_cell_setting 'monoclinic'
loop_
_space_group_symop_operation_xyz
x,y,z
-x,y,-z
-x,-y,-z
x,-y,z
1/2+x,1/2+y,z
1/2-x,1/2+y,-z
1/2-x,1/2-y,-z
1/2+x,1/2-y,z
loop_
_atom_site_type_symbol
_atom_site_label
_atom_site_fract_x
_atom_site_fract_y
_atom_site_fract_z
Si Si1 0.000000 0.785641 0.500000
Si Si2 0.677321 0.360725 0.004298
Si Si3 0.804683 0.281258 0.758828
Si Si4 0.213065 0.871583 0.473767
Si Si5 0.330777 0.133643 0.314628
Si Si6 0.875977 0.863981 0.132680
Si Si7 0.438773 0.635727 0.835323
Si Si8 0.981333 0.638133 0.640345
O O1 0.902551 0.860696 0.509301
O O2 0.986677 0.707018 0.569345
O O3 0.713278 0.500000 0.989621
O O4 0.613212 0.363514 0.082755
O O5 0.750000 0.250000 0.000000
O O6 0.622202 0.328790 0.945226
O O7 0.729550 0.204423 0.729040
O O8 0.732545 0.354513 0.819442
O O9 0.873685 0.205183 0.794454
O O10 0.877600 0.347271 0.695183
O O11 0.250000 0.750000 0.500000
O O12 0.260965 0.871997 0.392041
O O13 0.239447 0.000000 0.500876
O O14 0.432855 0.181743 0.325235
O O15 0.348881 0.000000 0.286808
O O16 0.955772 0.808268 0.167722
O O17 0.905797 0.000000 0.126785
O O18 0.445687 0.500000 0.809571
O O19 0.001139 0.500000 0.624245
#
# Coordination Sequence:
#
# PCOD9189456 Si02
#       8
#     4   8   8   8   8   8   8   8
#     4  12  22  42  64  88 117 158 207 260 303 360
#     4  10  19  37  63  90 121 161 204 249 300 354
#     4  12  21  38  60  85 120 156 204 248 308 358
#     4  11  23  42  66  93 121 155 201 255 312 365
#     4  10  22  40  58  82 120 159 196 245 306 370
#     4  10  21  37  59  87 122 157 199 254 301 351
#     4  10  21  37  61  90 117 159 208 245 295 368
#     4  11  24  39  60  88 120 160 206 250 309 370
#
# _framework density 19.296844
#
# number of rings (size 3 to 8) (size 9 to 14) (size 15 to 20)
#    0.000    1.333    4.000    2.400    0.000    2.133 
#    0.000    0.000    0.000    3.200    0.000    0.000 
#    0.000    0.000    0.000    0.000    0.000    0.000 
#
# Total GULP energy -167207.209101 kJ/mol
# GULP energy per Si atom -5573.573637 kJ/mol
# Density = 1.925292 g / cm^3
# Si number density = 19.296844 Si / 1000 Ang^3
#
#
#
# Elastic Constant Matrix: (Units=GPa)
#
#
# Indices 1 2 3 4 5 6 
#
# 1 109.3274 40.6919 20.7229 0.0000 6.5404 0.0000
# 2 40.6919 81.6807 20.4178 0.0000 16.1653 0.0000
# 3 20.7229 20.4178 74.5592 0.0000 7.7475 0.0000
# 4 0.0000 0.0000 0.0000 53.7193 0.0000 -7.3626
# 5 6.5404 16.1653 7.7475 0.0000 39.3962 0.0000
# 6 0.0000 0.0000 0.0000 -7.3626 0.0000 34.1990
#
#
#
# Elastic Compliance Matrix: (Units=1/GPa)
#
#
# Indices 1 2 3 4 5 6 
#
# 1 0.011450 -0.005391 -0.001775 0.000000 0.000660 0.000000
# 2 -0.005391 0.016627 -0.002490 0.000000 -0.005438 0.000000
# 3 -0.001775 -0.002490 0.014752 0.000000 -0.001585 0.000000
# 4 0.000000 0.000000 0.000000 0.019181 0.000000 0.004129
# 5 0.000660 -0.005438 -0.001585 0.000000 0.027816 0.000000
# 6 0.000000 0.000000 0.000000 0.004129 0.000000 0.030130
#
#
# Mechanical properties :
#
#
# Convention : Reuss Voigt Hill
#
# Bulk Modulus (GPa) = 42.52107 47.69252 45.10679
# Shear Modulus (GPa) = 33.98859 37.71188 35.85024
#
# Velocity S-wave (km/s) = 4.20140 4.42555 4.31493
# Velocity P-wave (km/s) = 6.75417 7.13322 6.94628
#
# Compressibility (1/GPa) = 0.02351775
#
# Stress axis : x y z
#
# Youngs Moduli (GPa) = 87.33292 60.14206 67.78782
#
# Poissons Ratio (x) = 0.32425 0.12030
# Poissons Ratio (y) = 0.47085 0.16878
# Poissons Ratio (z) = 0.15499 0.14974
#
# Static dielectric constant tensor:
#      x y z
#    x 1.708970 0.000000 0.009890 
#    y 0.000000 1.685200 0.000000 
#    z 0.009890 0.000000 1.663170 
# 
# From -- ./inp_files/269261.got.cif
#   From: 2010.05.17/outbox.cif.g08.bks.cpg/sg12_135_cif.got.tgz:269261.got - 2010.06.03 13:09:07.
