data_PCOD9189183
_publ_section_title
;
Structure prediction by ZEFSAII (Michael W. Deem and Ramdas Pophale) SiO2 
 PCOD9189183
Probable space group: C 2/M
;
_chemical_formula_sum "Si O2"
_cell_formula_units_Z 58
_cell_length_a 20.805980
_cell_length_b 9.331793
_cell_length_c 24.434527
_cell_angle_alpha 90.000000
_cell_angle_beta 40.485862
_cell_angle_gamma 90.000000
_cell_volume 3080.180175
_symmetry_space_group_name_H-M "C 2/M"
_symmetry_group_IT_number 12
_symmetry_cell_setting 'monoclinic'
loop_
_space_group_symop_operation_xyz
x,y,z
-x,y,-z
-x,-y,-z
x,-y,z
1/2+x,1/2+y,z
1/2-x,1/2+y,-z
1/2-x,1/2-y,-z
1/2+x,1/2-y,z
loop_
_atom_site_type_symbol
_atom_site_label
_atom_site_fract_x
_atom_site_fract_y
_atom_site_fract_z
Si Si1 0.965922 0.825612 0.249417
Si Si2 0.514112 0.673309 0.338566
Si Si3 0.269954 0.326908 0.308581
Si Si4 0.417372 0.722252 0.016702
Si Si5 0.000000 0.500000 0.000000
Si Si6 0.408008 0.667795 0.517800
Si Si7 0.754167 0.825650 0.792146
Si Si8 0.349783 0.337626 0.940187
O O1 0.868252 0.789022 0.279002
O O2 0.971238 0.775400 0.308590
O O3 0.063706 0.777343 0.154200
O O4 0.968777 0.000000 0.248585
O O5 0.509533 0.500000 0.342244
O O6 0.450284 0.719457 0.432149
O O7 0.630829 0.705773 0.269163
O O8 0.265405 0.500000 0.304104
O O9 0.177157 0.267278 0.402911
O O10 0.269543 0.245075 0.250875
O O11 0.319489 0.757969 0.115492
O O12 0.471623 0.874584 0.974320
O O13 0.500000 0.644053 0.000000
O O14 0.388936 0.660472 0.976988
O O15 0.500000 0.669353 0.500000
O O16 0.375426 0.500000 0.535030
O O17 0.738689 0.000000 0.801828
O O18 0.329541 0.500000 0.935181
O O19 0.250000 0.250000 0.000000
#
# Coordination Sequence:
#
# PCOD9189183 Si02
#       8
#     8   8   8   8   2   8   8   8
#     4   9  20  39  56  83 116 154 192 228 290 352
#     4   9  18  33  59  80 105 146 193 236 269 337
#     4  11  23  36  57  86 119 151 182 235 292 352
#     4  10  20  35  58  86 117 151 195 246 300 343
#     4   8  20  36  54  92 116 150 192 260 286 360
#     4  10  19  37  59  87 112 142 194 239 281 340
#     4  11  19  35  60  84 109 150 197 237 281 338
#     4  11  24  39  61  85 120 161 202 249 296 355
#
# _framework density 18.830065999999999
#
# number of rings (size 3 to 8) (size 9 to 14) (size 15 to 20)
#    0.414    1.517    2.069    2.069    0.966    2.759 
#    0.000    1.379    0.000    3.310    0.000    0.000 
#    0.000    0.000    0.000    0.000    0.000    0.000 
#
# Total GULP energy -161455.574543 kJ/mol
# GULP energy per Si atom -5567.433605 kJ/mol
# Density = 1.878721 g / cm^3
# Si number density = 18.830066 Si / 1000 Ang^3
#
#
#
# Elastic Constant Matrix: (Units=GPa)
#
#
# Indices 1 2 3 4 5 6 
#
# 1 73.8448 2.6987 2.0016 0.0000 12.5045 0.0000
# 2 2.6987 50.0487 5.0653 0.0000 -4.2838 0.0002
# 3 2.0016 5.0653 79.9169 0.0000 16.5622 0.0000
# 4 0.0000 0.0000 0.0000 22.9601 0.0000 18.1185
# 5 12.5045 -4.2838 16.5622 0.0000 31.7147 -0.0001
# 6 0.0000 0.0002 0.0000 18.1185 -0.0001 15.2767
#
#
#
# Elastic Compliance Matrix: (Units=1/GPa)
#
#
# Indices 1 2 3 4 5 6 
#
# 1 0.014675 -0.001461 0.001082 0.000000 -0.006549 0.000000
# 2 -0.001461 0.020670 -0.002211 0.000003 0.004523 -0.000004
# 3 0.001082 -0.002211 0.014327 0.000000 -0.008207 0.000000
# 4 0.000000 0.000003 0.000000 0.679806 -0.000001 -0.806268
# 5 -0.006549 0.004523 -0.008207 -0.000001 0.039010 0.000001
# 6 0.000000 -0.000004 0.000000 -0.806268 0.000001 1.021714
#
#
# Mechanical properties :
#
#
# Convention : Reuss Voigt Hill
#
# Bulk Modulus (GPa) = 22.47589 24.81573 23.64581
# Shear Modulus (GPa) = 2.76211 26.92662 14.84437
#
# Velocity S-wave (km/s) = 1.21245 3.78561 2.81077
# Velocity P-wave (km/s) = 3.73124 5.68464 4.80819
#
# Compressibility (1/GPa) = 0.04449212
#
# Stress axis : x y z
#
# Youngs Moduli (GPa) = 68.14371 48.37880 69.79884
#
# Poissons Ratio (x) = 0.07070 -0.07554
# Poissons Ratio (y) = 0.09958 0.15431
# Poissons Ratio (z) = -0.07375 0.10696
#
# Static dielectric constant tensor:
#      x y z
#    x 1.250950 0.000000 0.138330 
#    y 0.000000 1.651030 0.000000 
#    z 0.138330 0.000000 1.631840 
# 
# From -- ./inp_files/346491.got.cif
#   From: 2010.05.17/outbox.cif.g08.bks.cpg/sg12_174_cif.got.tgz:346491.got - 2010.06.03 13:09:07.
