data_PCOD9189496
_publ_section_title
;
Structure prediction by ZEFSAII (Michael W. Deem and Ramdas Pophale) SiO2 
 PCOD9189496
Probable space group: C 2/M
;
_chemical_formula_sum "Si O2"
_cell_formula_units_Z 56
_cell_length_a 21.734718
_cell_length_b 16.572483
_cell_length_c 14.540488
_cell_angle_alpha 90.000000
_cell_angle_beta 148.225346
_cell_angle_gamma 90.000000
_cell_volume 2757.939593
_symmetry_space_group_name_H-M "C 2/M"
_symmetry_group_IT_number 12
_symmetry_cell_setting 'monoclinic'
loop_
_space_group_symop_operation_xyz
x,y,z
-x,y,-z
-x,-y,-z
x,-y,z
1/2+x,1/2+y,z
1/2-x,1/2+y,-z
1/2-x,1/2-y,-z
1/2+x,1/2-y,z
loop_
_atom_site_type_symbol
_atom_site_label
_atom_site_fract_x
_atom_site_fract_y
_atom_site_fract_z
Si Si1 0.868910 0.843030 0.178564
Si Si2 0.605128 0.594159 0.423640
Si Si3 0.637533 0.844837 0.774864
Si Si4 0.276142 0.404901 0.240237
Si Si5 0.788727 0.660033 0.524822
Si Si6 0.879230 0.403608 0.453954
Si Si7 0.483425 0.094771 0.089209
O O1 0.870322 0.749951 0.211615
O O2 0.863609 0.890970 0.267806
O O3 0.982992 0.860408 0.264181
O O4 0.753906 0.869789 0.976766
O O5 0.579967 0.500000 0.406534
O O6 0.672921 0.627534 0.599787
O O7 0.690394 0.604579 0.446595
O O8 0.516743 0.887687 0.650049
O O9 0.646846 0.864106 0.678340
O O10 0.257880 0.500000 0.231823
O O11 0.146308 0.372701 0.053129
O O12 0.750000 0.750000 0.500000
O O13 0.804989 0.638955 0.439020
O O14 0.912747 0.641385 0.729982
O O15 0.859938 0.500000 0.426255
O O16 0.492908 0.000000 0.128104
O O17 0.500000 0.098504 0.000000
#
# Coordination Sequence:
#
# PCOD9189496 Si02
#       7
#     8   8   8   8   8   8   8
#     4  11  23  39  63  93 133 165 206 261 324 381
#     4  11  23  39  60  93 132 167 202 251 320 395
#     4  10  24  42  65  95 122 164 219 269 316 366
#     4  10  21  35  61  95 124 164 207 256 319 377
#     4  12  25  40  63  94 131 171 209 262 326 377
#     4  11  24  44  70  93 123 171 224 270 311 372
#     4  10  19  37  64  90 121 161 212 266 309 364
#
# _framework density 20.305012999999999
#
# number of rings (size 3 to 8) (size 9 to 14) (size 15 to 20)
#    0.000    1.286    1.429    4.714    6.000    5.714 
#    0.000    0.714    0.000    1.714    0.000    0.000 
#    0.000    0.000    0.000    0.000    0.000    0.000 
#
# Total GULP energy -156519.797335 kJ/mol
# GULP energy per Si atom -5589.992762 kJ/mol
# Density = 2.025880 g / cm^3
# Si number density = 20.305013 Si / 1000 Ang^3
#
#
#
# Elastic Constant Matrix: (Units=GPa)
#
#
# Indices 1 2 3 4 5 6 
#
# 1 126.0078 8.3340 43.5154 0.0000 -0.2133 0.0000
# 2 8.3340 58.3539 32.0737 0.0000 -12.4920 0.0000
# 3 43.5154 32.0737 80.1157 0.0000 2.5081 0.0000
# 4 0.0000 0.0000 0.0000 4.1167 0.0000 -9.8196
# 5 -0.2133 -12.4920 2.5081 0.0000 20.3379 0.0000
# 6 0.0000 0.0000 0.0000 -9.8196 0.0000 10.0455
#
#
#
# Elastic Compliance Matrix: (Units=1/GPa)
#
#
# Indices 1 2 3 4 5 6 
#
# 1 0.010057 0.002791 -0.006662 0.000000 0.002641 0.000000
# 2 0.002791 0.028155 -0.013382 0.000000 0.018973 0.000000
# 3 -0.006662 -0.013382 0.021802 0.000000 -0.010978 0.000000
# 4 0.000000 0.000000 0.000000 -0.182414 0.000000 -0.178311
# 5 0.002641 0.018973 -0.010978 0.000000 0.062204 0.000000
# 6 0.000000 0.000000 0.000000 -0.178311 0.000000 -0.074754
#
#
# Mechanical properties :
#
#
# Convention : Reuss Voigt Hill
#
# Bulk Modulus (GPa) = 39.20441 48.03594 43.62018
# Shear Modulus (GPa) = -54.38175 18.93697 -17.72239
#
# Velocity S-wave (km/s) = -5.18079 3.05720 -2.95754
# Velocity P-wave (km/s) = 4.05435 6.01420 3.14108
#
# Compressibility (1/GPa) = 0.02550733
#
# Stress axis : x y z
#
# Youngs Moduli (GPa) = 99.43628 35.51799 45.86826
#
# Poissons Ratio (x) = -0.09914 0.30560
# Poissons Ratio (y) = -0.27754 0.61379
# Poissons Ratio (z) = 0.66249 0.47528
#
# Static dielectric constant tensor:
#      x y z
#    x 1.719900 0.000000 0.002380 
#    y 0.000000 1.734340 0.000000 
#    z 0.002380 0.000000 1.723180 
# 
# From -- ./inp_files/234745.got.cif
#   From: 2010.05.17/outbox.cif.g08.bks.cpg/sg12_118_cif.got.tgz:234745.got - 2010.06.03 13:09:07.
