data_PCOD9189166
_publ_section_title
;
Structure prediction by ZEFSAII (Michael W. Deem and Ramdas Pophale) SiO2 
 PCOD9189166
Probable space group: C 2/M
;
_chemical_formula_sum "Si O2"
_cell_formula_units_Z 48
_cell_length_a 10.574016
_cell_length_b 14.768417
_cell_length_c 25.409366
_cell_angle_alpha 90.000000
_cell_angle_beta 147.546225
_cell_angle_gamma 90.000000
_cell_volume 2129.284963
_symmetry_space_group_name_H-M "C 2/M"
_symmetry_group_IT_number 12
_symmetry_cell_setting 'monoclinic'
loop_
_space_group_symop_operation_xyz
x,y,z
-x,y,-z
-x,-y,-z
x,-y,z
1/2+x,1/2+y,z
1/2-x,1/2+y,-z
1/2-x,1/2-y,-z
1/2+x,1/2-y,z
loop_
_atom_site_type_symbol
_atom_site_label
_atom_site_fract_x
_atom_site_fract_y
_atom_site_fract_z
Si Si1 0.239255 0.600146 0.655138
Si Si2 0.403006 0.322866 0.022164
Si Si3 0.315968 0.399073 0.557201
Si Si4 0.947431 0.403450 0.823010
Si Si5 0.388130 0.103040 0.237732
Si Si6 0.856940 0.747411 0.306779
O O1 0.312867 0.500000 0.699384
O O2 0.304182 0.606217 0.616791
O O3 0.311555 0.684340 0.716472
O O4 0.953184 0.605802 0.555957
O O5 0.207623 0.396689 0.937590
O O6 0.500000 0.286417 0.000000
O O7 0.250000 0.250000 0.000000
O O8 0.620804 0.366062 0.130048
O O9 0.404751 0.500000 0.573354
O O10 0.476216 0.312959 0.600069
O O11 0.840343 0.500000 0.800186
O O12 0.976839 0.397310 0.770250
O O13 0.791569 0.316930 0.781305
O O14 0.483408 0.175937 0.312673
O O15 0.393702 0.000000 0.259835
#
# Coordination Sequence:
#
# PCOD9189166 Si02
#       6
#     8   8   8   8   8   8
#     4   9  19  35  52  72 101 137 173 209 259 323
#     4  10  19  37  59  80 106 146 187 219 263 322
#     4   9  19  35  52  72 101 137 173 209 259 323
#     4  10  21  35  53  77 107 142 178 216 262 322
#     4  10  21  35  53  77 107 142 178 216 262 322
#     4  12  19  31  54  80 104 128 174 225 269 298
#
# _framework density 22.542778999999999
#
# number of rings (size 3 to 8) (size 9 to 14) (size 15 to 20)
#    0.000    2.000    1.667    4.000    0.000    2.000 
#    0.000    0.000    0.000    4.000    0.000   14.000 
#    0.000    0.000    0.000    0.000    0.000    0.000 
#
# Total GULP energy -133956.831637 kJ/mol
# GULP energy per Si atom -5581.534652 kJ/mol
# Density = 2.249147 g / cm^3
# Si number density = 22.542779 Si / 1000 Ang^3
#
#
#
# Elastic Constant Matrix: (Units=GPa)
#
#
# Indices 1 2 3 4 5 6 
#
# 1 40.7238 31.9472 -4.0486 0.0001 -3.7143 0.0000
# 2 31.9472 181.8152 9.3455 0.0001 -0.9039 0.0000
# 3 -4.0486 9.3455 47.3584 -0.0004 12.1689 0.0000
# 4 0.0001 0.0001 -0.0004 18.9265 -0.0001 2.1916
# 5 -3.7143 -0.9039 12.1689 -0.0001 29.1017 0.0000
# 6 0.0000 0.0000 0.0000 2.1916 0.0000 23.2776
#
#
#
# Elastic Compliance Matrix: (Units=1/GPa)
#
#
# Indices 1 2 3 4 5 6 
#
# 1 0.029194 -0.005269 0.002936 0.000000 0.002335 0.000000
# 2 -0.005269 0.006520 -0.001811 0.000000 0.000287 0.000000
# 3 0.002936 -0.001811 0.024247 0.000001 -0.009821 0.000000
# 4 0.000000 0.000000 0.000001 0.053418 0.000000 -0.005029
# 5 0.002335 0.000287 -0.009821 0.000000 0.038776 0.000000
# 6 0.000000 0.000000 0.000000 -0.005029 0.000000 0.043433
#
#
# Mechanical properties :
#
#
# Convention : Reuss Voigt Hill
#
# Bulk Modulus (GPa) = 19.35254 38.26506 28.80880
# Shear Modulus (GPa) = 22.61399 29.77140 26.19269
#
# Velocity S-wave (km/s) = 3.17070 3.63803 3.41238
# Velocity P-wave (km/s) = 4.69126 5.88713 5.32289
#
# Compressibility (1/GPa) = 0.05167280
#
# Stress axis : x y z
#
# Youngs Moduli (GPa) = 34.25370 153.36407 41.24163
#
# Poissons Ratio (x) = 0.80808 -0.12107
# Poissons Ratio (y) = 0.18048 0.07469
# Poissons Ratio (z) = -0.10055 0.27774
#
# Static dielectric constant tensor:
#      x y z
#    x 1.839020 0.000000 0.006890 
#    y 0.000000 1.887260 0.000000 
#    z 0.006890 0.000000 1.872780 
# 
# From -- ./inp_files/204445.got.cif
#   From: 2010.05.17/outbox.cif.g08.bks.cpg/sg12_103_cif.got.tgz:204445.got - 2010.06.03 13:09:07.
