data_PCOD9189019
_publ_section_title
;
Structure prediction by ZEFSAII (Michael W. Deem and Ramdas Pophale) SiO2 
 PCOD9189019
Probable space group: C 2/M
;
_chemical_formula_sum "Si O2"
_cell_formula_units_Z 48
_cell_length_a 12.461636
_cell_length_b 14.861359
_cell_length_c 11.956410
_cell_angle_alpha 90.000000
_cell_angle_beta 67.611758
_cell_angle_gamma 90.000000
_cell_volume 2047.385623
_symmetry_space_group_name_H-M "C 2/M"
_symmetry_group_IT_number 12
_symmetry_cell_setting 'monoclinic'
loop_
_space_group_symop_operation_xyz
x,y,z
-x,y,-z
-x,-y,-z
x,-y,z
1/2+x,1/2+y,z
1/2-x,1/2+y,-z
1/2-x,1/2-y,-z
1/2+x,1/2-y,z
loop_
_atom_site_type_symbol
_atom_site_label
_atom_site_fract_x
_atom_site_fract_y
_atom_site_fract_z
Si Si1 0.461111 0.602681 0.188576
Si Si2 0.297300 0.103892 0.318175
Si Si3 0.092151 0.151135 0.549090
Si Si4 0.737973 0.890202 0.155549
Si Si5 0.989427 0.651208 0.628567
Si Si6 0.223856 0.890071 0.104441
O O1 0.480433 0.500000 0.144353
O O2 0.402504 0.603216 0.334186
O O3 0.366393 0.641171 0.141551
O O4 0.589834 0.641680 0.151283
O O5 0.213373 0.155800 0.436810
O O6 0.427068 0.106998 0.312879
O O7 0.280864 0.138303 0.198524
O O8 0.257427 0.000000 0.336926
O O9 0.038797 0.248320 0.597143
O O10 0.000000 0.107415 0.500000
O O11 0.640990 0.852780 0.276370
O O12 0.735332 0.000000 0.164958
O O13 0.716377 0.864240 0.035508
O O14 0.000000 0.610318 0.500000
O O15 0.223906 0.000000 0.106631
#
# Coordination Sequence:
#
# PCOD9189019 Si02
#       6
#     8   8   8   8   8   8
#     4  10  19  36  65  94 120 152 201 253 294 345
#     4  11  22  38  65  93 119 153 198 252 298 352
#     4  11  22  38  61  85 121 159 197 248 300 348
#     4  10  21  39  64  91 121 158 198 243 296 357
#     4  11  25  41  58  84 126 165 199 239 299 360
#     4   9  19  36  63  96 121 149 195 250 302 346
#
# _framework density 23.444533
#
# number of rings (size 3 to 8) (size 9 to 14) (size 15 to 20)
#    0.000    1.667    1.667    3.000    0.000    7.333 
#    0.000    3.333    3.667    0.000    0.000    0.000 
#    0.000    0.000    0.000    0.000    0.000    0.000 
#
# Total GULP energy -134222.715844 kJ/mol
# GULP energy per Si atom -5592.613160 kJ/mol
# Density = 2.339117 g / cm^3
# Si number density = 23.444533 Si / 1000 Ang^3
#
#
#
# Elastic Constant Matrix: (Units=GPa)
#
#
# Indices 1 2 3 4 5 6 
#
# 1 111.5365 2.4816 39.9468 0.0000 17.5576 0.0000
# 2 2.4816 65.8488 6.5882 0.0000 5.7837 0.0000
# 3 39.9468 6.5882 146.9567 0.0000 25.7322 0.0000
# 4 0.0000 0.0000 0.0000 58.0415 0.0000 -7.8702
# 5 17.5576 5.7837 25.7322 0.0000 34.3227 0.0000
# 6 0.0000 0.0000 0.0000 -7.8702 0.0000 17.4202
#
#
#
# Elastic Compliance Matrix: (Units=1/GPa)
#
#
# Indices 1 2 3 4 5 6 
#
# 1 0.010318 0.000151 -0.002167 0.000000 -0.003679 0.000000
# 2 0.000151 0.015426 -0.000304 0.000000 -0.002449 0.000000
# 3 -0.002167 -0.000304 0.008293 0.000000 -0.005058 0.000000
# 4 0.000000 0.000000 0.000000 0.018353 0.000000 0.008292
# 5 -0.003679 -0.002449 -0.005058 0.000000 0.035221 0.000000
# 6 0.000000 0.000000 0.000000 0.008292 0.000000 0.061151
#
#
# Mechanical properties :
#
#
# Convention : Reuss Voigt Hill
#
# Bulk Modulus (GPa) = 34.01733 46.93056 40.47394
# Shear Modulus (GPa) = 30.63705 40.31192 35.47449
#
# Velocity S-wave (km/s) = 3.61888 4.15114 3.89411
# Velocity P-wave (km/s) = 5.65711 6.56026 6.12535
#
# Compressibility (1/GPa) = 0.02939678
#
# Stress axis : x y z
#
# Youngs Moduli (GPa) = 96.92207 64.82513 120.58300
#
# Poissons Ratio (x) = -0.00980 0.26133
# Poissons Ratio (y) = -0.01465 0.03664
# Poissons Ratio (z) = 0.21005 0.01970
#
# Static dielectric constant tensor:
#      x y z
#    x 1.882470 0.000000 0.028870 
#    y 0.000000 1.957900 0.000000 
#    z 0.028870 0.000000 1.871970 
# 
# From -- ./inp_files/131662.got.cif
#   From: 2010.05.17/outbox.cif.g08.bks.cpg/sg12_66_cif.got.tgz:131662.got - 2010.06.03 13:09:07.
