data_PCOD9189800
_publ_section_title
;
Structure prediction by ZEFSAII (Michael W. Deem and Ramdas Pophale) SiO2 
 PCOD9189800
Probable space group: C 2/M
;
_chemical_formula_sum "Si O2"
_cell_formula_units_Z 52
_cell_length_a 23.363912
_cell_length_b 19.922287
_cell_length_c 7.828915
_cell_angle_alpha 90.000000
_cell_angle_beta 135.365496
_cell_angle_gamma 90.000000
_cell_volume 2560.254712
_symmetry_space_group_name_H-M "C 2/M"
_symmetry_group_IT_number 12
_symmetry_cell_setting 'monoclinic'
loop_
_space_group_symop_operation_xyz
x,y,z
-x,y,-z
-x,-y,-z
x,-y,z
1/2+x,1/2+y,z
1/2-x,1/2+y,-z
1/2-x,1/2-y,-z
1/2+x,1/2-y,z
loop_
_atom_site_type_symbol
_atom_site_label
_atom_site_fract_x
_atom_site_fract_y
_atom_site_fract_z
Si Si1 0.430188 0.919317 0.138579
Si Si2 0.230667 0.920640 0.234975
Si Si3 0.642852 0.263387 0.454552
Si Si4 0.715115 0.158273 0.340160
Si Si5 0.099898 0.366223 0.544182
Si Si6 0.500000 0.645514 0.000000
Si Si7 0.941686 0.080623 0.225786
O O1 0.519103 0.891683 0.273134
O O2 0.414412 0.888540 0.292656
O O3 0.432335 0.000000 0.148597
O O4 0.354572 0.891647 0.870885
O O5 0.227457 0.881895 0.406970
O O6 0.317740 0.901911 0.342187
O O7 0.226361 0.000000 0.252868
O O8 0.153244 0.899758 0.956754
O O9 0.670388 0.215518 0.355673
O O10 0.724027 0.307022 0.665669
O O11 0.613410 0.212663 0.539106
O O12 0.570349 0.308692 0.231444
O O13 0.468099 0.602851 0.092966
O O14 0.000000 0.107461 0.500000
O O15 0.945599 0.000000 0.241574
#
# Coordination Sequence:
#
# PCOD9189800 Si02
#       7
#     8   8   8   8   8   4   8
#     4  11  22  39  63  96 127 160 214 272 331 386
#     4  10  19  38  63  88 122 163 205 261 320 378
#     4  10  22  39  60  86 125 167 211 255 315 390
#     4  10  21  39  60  90 122 164 208 263 308 387
#     4  10  22  40  60  90 127 167 203 262 320 390
#     4  12  21  42  64  94 125 170 216 270 318 376
#     4  10  23  42  64  94 127 164 216 269 327 381
#
# _framework density 20.310478
#
# number of rings (size 3 to 8) (size 9 to 14) (size 15 to 20)
#    0.000    1.692    1.538    3.462    0.000    3.692 
#    5.538    5.385    0.000    0.000    0.000    0.000 
#    0.000    0.000    0.000    0.000    0.000    0.000 
#
# Total GULP energy -145108.941488 kJ/mol
# GULP energy per Si atom -5581.113134 kJ/mol
# Density = 2.026425 g / cm^3
# Si number density = 20.310478 Si / 1000 Ang^3
#
#
#
# Elastic Constant Matrix: (Units=GPa)
#
#
# Indices 1 2 3 4 5 6 
#
# 1 72.1227 38.0368 37.2793 0.0000 23.1945 0.0000
# 2 38.0368 41.1766 53.7969 0.0000 19.6452 0.0000
# 3 37.2793 53.7969 130.7081 0.0000 31.8448 0.0000
# 4 0.0000 0.0000 0.0000 42.5965 0.0000 9.3481
# 5 23.1945 19.6452 31.8448 0.0000 29.8715 0.0000
# 6 0.0000 0.0000 0.0000 9.3481 0.0000 34.3949
#
#
#
# Elastic Compliance Matrix: (Units=1/GPa)
#
#
# Indices 1 2 3 4 5 6 
#
# 1 0.030839 -0.033398 0.007339 0.000000 -0.009805 0.000000
# 2 -0.033398 0.094643 -0.027803 0.000000 -0.006671 0.000000
# 3 0.007339 -0.027803 0.018823 0.000000 -0.007481 0.000000
# 4 0.000000 0.000000 0.000000 0.024965 0.000000 -0.006785
# 5 -0.009805 -0.006671 -0.007481 0.000000 0.053452 0.000000
# 6 0.000000 0.000000 0.000000 -0.006785 0.000000 0.030918
#
#
# Mechanical properties :
#
#
# Convention : Reuss Voigt Hill
#
# Bulk Modulus (GPa) = 27.33533 55.80371 41.56952
# Shear Modulus (GPa) = 13.38483 29.03221 21.20852
#
# Velocity S-wave (km/s) = 2.56991 3.78487 3.23494
# Velocity P-wave (km/s) = 4.72164 6.82900 5.87065
#
# Compressibility (1/GPa) = 0.03658269
#
# Stress axis : x y z
#
# Youngs Moduli (GPa) = 32.42685 10.56599 53.12655
#
# Poissons Ratio (x) = 0.35288 -0.38991
# Poissons Ratio (y) = 1.08298 1.47706
# Poissons Ratio (z) = -0.23799 0.29376
#
# Static dielectric constant tensor:
#      x y z
#    x 1.761460 0.000000 -0.001480 
#    y 0.000000 1.715730 0.000000 
#    z -0.001480 0.000000 1.763220 
# 
# From -- ./inp_files/99152.got.cif
#   From: 2010.05.17/outbox.cif.g08.bks.cpg/sg12_50_cif.got.tgz:99152.got - 2010.06.03 13:09:07.
