data_PCOD9189111
_publ_section_title
;
Structure prediction by ZEFSAII (Michael W. Deem and Ramdas Pophale) SiO2 
 PCOD9189111
Probable space group: C 2/M
;
_chemical_formula_sum "Si O2"
_cell_formula_units_Z 58
_cell_length_a 20.127563
_cell_length_b 8.961237
_cell_length_c 22.820424
_cell_angle_alpha 90.000000
_cell_angle_beta 135.424929
_cell_angle_gamma 90.000000
_cell_volume 2888.836462
_symmetry_space_group_name_H-M "C 2/M"
_symmetry_group_IT_number 12
_symmetry_cell_setting 'monoclinic'
loop_
_space_group_symop_operation_xyz
x,y,z
-x,y,-z
-x,-y,-z
x,-y,z
1/2+x,1/2+y,z
1/2-x,1/2+y,-z
1/2-x,1/2-y,-z
1/2+x,1/2-y,z
loop_
_atom_site_type_symbol
_atom_site_label
_atom_site_fract_x
_atom_site_fract_y
_atom_site_fract_z
Si Si1 0.048235 0.676172 0.683892
Si Si2 0.654880 0.179235 0.416018
Si Si3 0.876127 0.680414 0.740675
Si Si4 0.724852 0.667861 0.738643
Si Si5 0.841944 0.332223 0.128151
Si Si6 0.652652 0.740426 0.078018
Si Si7 0.500000 0.500000 0.000000
Si Si8 0.436886 0.677714 0.088633
O O1 0.047104 0.500000 0.672277
O O2 0.130509 0.745409 0.696508
O O3 0.081982 0.695062 0.772596
O O4 0.941207 0.733770 0.612259
O O5 0.750000 0.250000 0.500000
O O6 0.641887 0.209823 0.338794
O O7 0.659203 0.000000 0.425188
O O8 0.890794 0.500000 0.757083
O O9 0.785882 0.726129 0.722836
O O10 0.966144 0.770066 0.821369
O O11 0.696772 0.500000 0.707394
O O12 0.795750 0.667048 0.839436
O O13 0.856847 0.500000 0.113677
O O14 0.741576 0.328860 0.097980
O O15 0.857742 0.208082 0.088546
O O16 0.581542 0.627771 0.064558
O O17 0.588633 0.785383 0.981946
O O18 0.440513 0.500000 0.070913
#
# Coordination Sequence:
#
# PCOD9189111 Si02
#       8
#     8   8   8   8   8   8   2   8
#     4   9  19  38  64  89 120 164 198 243 307 364
#     4  10  21  41  68  94 122 156 196 242 303 369
#     4  10  22  43  62  86 122 163 196 244 306 365
#     4  10  23  39  62  90 123 159 209 254 300 356
#     4  10  19  37  57  80 115 160 200 248 307 353
#     4  11  23  36  56  80 118 161 207 250 294 347
#     4  12  20  40  54  72 108 160 216 242 284 364
#     4  12  23  35  56  88 119 155 208 258 301 350
#
# _framework density 20.077286000000001
#
# number of rings (size 3 to 8) (size 9 to 14) (size 15 to 20)
#    0.000    1.655    2.759    1.655    0.966    4.966 
#    0.000    2.414    0.000    4.138    0.000    0.000 
#    0.000    0.000    0.000    0.000    0.000    0.000 
#
# Total GULP energy -161467.815217 kJ/mol
# GULP energy per Si atom -5567.855697 kJ/mol
# Density = 2.003159 g / cm^3
# Si number density = 20.077286 Si / 1000 Ang^3
#
#
#
# Elastic Constant Matrix: (Units=GPa)
#
#
# Indices 1 2 3 4 5 6 
#
# 1 121.0187 23.8416 41.7795 0.0000 27.1286 0.0000
# 2 23.8416 18.8689 17.9612 0.0000 11.7886 0.0000
# 3 41.7795 17.9612 105.3612 0.0000 32.6420 0.0000
# 4 0.0000 0.0000 0.0000 23.5599 0.0000 0.0818
# 5 27.1286 11.7886 32.6420 0.0000 29.5157 0.0000
# 6 0.0000 0.0000 0.0000 0.0818 0.0000 27.3317
#
#
#
# Elastic Compliance Matrix: (Units=1/GPa)
#
#
# Indices 1 2 3 4 5 6 
#
# 1 0.011996 -0.010571 -0.001288 0.000000 -0.005379 0.000000
# 2 -0.010571 0.081723 -0.004012 0.000000 -0.018487 0.000000
# 3 -0.001288 -0.004012 0.014942 0.000000 -0.013738 0.000000
# 4 0.000000 0.000000 0.000000 0.042445 0.000000 -0.000127
# 5 -0.005379 -0.018487 -0.013738 0.000000 0.061402 0.000000
# 6 0.000000 0.000000 0.000000 -0.000127 0.000000 0.036588
#
#
# Mechanical properties :
#
#
# Convention : Reuss Voigt Hill
#
# Bulk Modulus (GPa) = 13.00065 45.82370 29.41217
# Shear Modulus (GPa) = 16.31431 26.85924 21.58677
#
# Velocity S-wave (km/s) = 2.85366 3.66155 3.28256
# Velocity P-wave (km/s) = 4.16500 6.38351 5.38964
#
# Compressibility (1/GPa) = 0.07691925
#
# Stress axis : x y z
#
# Youngs Moduli (GPa) = 83.35881 12.23641 66.92407
#
# Poissons Ratio (x) = 0.12935 0.08623
# Poissons Ratio (y) = 0.88115 0.26852
# Poissons Ratio (z) = 0.10740 0.04910
#
# Static dielectric constant tensor:
#      x y z
#    x 1.960200 0.000000 0.019320 
#    y 0.000000 1.713140 0.000000 
#    z 0.019320 0.000000 1.705890 
# 
# From -- ./inp_files/346512.got.cif
#   From: 2010.05.17/outbox.cif.g08.bks.cpg/sg12_174_cif.got.tgz:346512.got - 2010.06.03 13:09:07.
