data_PCOD9189531
_publ_section_title
;
Structure prediction by ZEFSAII (Michael W. Deem and Ramdas Pophale) SiO2 
 PCOD9189531
Probable space group: C 2/M
;
_chemical_formula_sum "Si O2"
_cell_formula_units_Z 40
_cell_length_a 16.565559
_cell_length_b 14.828790
_cell_length_c 14.378613
_cell_angle_alpha 90.000000
_cell_angle_beta 34.034894
_cell_angle_gamma 90.000000
_cell_volume 1976.889181
_symmetry_space_group_name_H-M "C 2/M"
_symmetry_group_IT_number 12
_symmetry_cell_setting 'monoclinic'
loop_
_space_group_symop_operation_xyz
x,y,z
-x,y,-z
-x,-y,-z
x,-y,z
1/2+x,1/2+y,z
1/2-x,1/2+y,-z
1/2-x,1/2-y,-z
1/2+x,1/2-y,z
loop_
_atom_site_type_symbol
_atom_site_label
_atom_site_fract_x
_atom_site_fract_y
_atom_site_fract_z
Si Si1 0.482994 0.094014 0.627135
Si Si2 0.354193 0.399880 0.009221
Si Si3 0.347208 0.217374 0.126050
Si Si4 0.835383 0.765626 0.513594
Si Si5 0.902302 0.105533 0.742980
O O1 0.500000 0.095177 0.500000
O O2 0.555908 0.182515 0.592369
O O3 0.549733 0.000000 0.598337
O O4 0.317057 0.094749 0.812169
O O5 0.413227 0.500000 0.980753
O O6 0.385051 0.387835 0.871000
O O7 0.391839 0.309388 0.029196
O O8 0.269523 0.240114 0.297641
O O9 0.227679 0.161489 0.181474
O O10 0.500000 0.168543 0.000000
O O11 0.750000 0.750000 0.500000
O O12 0.939964 0.851867 0.426901
O O13 0.895106 0.000000 0.723516
#
# Coordination Sequence:
#
# PCOD9189531 Si02
#       5
#     8   8   8   8   8
#     4  10  19  37  65  94 125 163 209 263 321 377
#     4  10  21  40  69  97 125 164 208 266 329 379
#     4  12  25  41  66  97 130 170 216 267 319 379
#     4  12  25  41  65  96 129 172 213 262 319 381
#     4  11  25  46  68  92 130 175 216 260 317 383
#
# _framework density 20.233809999999998
#
# number of rings (size 3 to 8) (size 9 to 14) (size 15 to 20)
#    0.000    1.000    4.000    2.400    2.800    3.200 
#    0.000    0.000    0.000    0.000    0.000    0.000 
#    0.000    0.000    0.000    0.000    0.000    0.000 
#
# Total GULP energy -111603.436189 kJ/mol
# GULP energy per Si atom -5580.171809 kJ/mol
# Density = 2.018776 g / cm^3
# Si number density = 20.233810 Si / 1000 Ang^3
#
#
#
# Elastic Constant Matrix: (Units=GPa)
#
#
# Indices 1 2 3 4 5 6 
#
# 1 99.4768 50.0131 9.9267 0.0011 -7.6821 -0.0003
# 2 50.0131 114.2742 -2.9417 0.0006 -6.3813 -0.0002
# 3 9.9267 -2.9417 56.1405 0.0013 -3.5903 -0.0004
# 4 0.0011 0.0006 0.0013 -297.2278 -0.0011 116.2703
# 5 -7.6821 -6.3813 -3.5903 -0.0011 30.1321 0.0004
# 6 -0.0003 -0.0002 -0.0004 116.2703 0.0004 -23.2311
#
#
#
# Elastic Compliance Matrix: (Units=1/GPa)
#
#
# Indices 1 2 3 4 5 6 
#
# 1 0.013375 -0.005815 -0.002550 0.000000 0.001875 0.000000
# 2 -0.005815 0.011403 0.001698 0.000000 0.001135 0.000000
# 3 -0.002550 0.001698 0.018475 0.000000 0.001911 0.000000
# 4 0.000000 0.000000 0.000000 0.003512 0.000000 0.017580
# 5 0.001875 0.001135 0.001911 0.000000 0.034133 0.000000
# 6 0.000000 0.000000 0.000000 0.017580 0.000000 0.044940
#
#
# Mechanical properties :
#
#
# Convention : Reuss Voigt Hill
#
# Bulk Modulus (GPa) = 33.42251 42.65421 38.03836
# Shear Modulus (GPa) = 33.52461 -43.87246 -5.17392
#
# Velocity S-wave (km/s) = 4.07487 -4.66153 -1.60082
# Velocity P-wave (km/s) = 6.22041 2.80119 3.92726
#
# Compressibility (1/GPa) = 0.02991995
#
# Stress axis : x y z
#
# Youngs Moduli (GPa) = 74.76501 87.69747 54.12866
#
# Poissons Ratio (x) = 0.50994 0.13802
# Poissons Ratio (y) = 0.43474 -0.09192
# Poissons Ratio (z) = 0.19064 -0.14893
#
# Static dielectric constant tensor:
#      x y z
#    x 1.740150 0.000000 0.020420 
#    y 0.000000 1.817840 0.000000 
#    z 0.020420 0.000000 1.718210 
# 
# From -- ./inp_files/58941.got.cif
#   From: 2010.05.17/outbox.cif.g08.bks.cpg/sg12_30_cif.got.tgz:58941.got - 2010.06.03 13:09:07.
