data_PCOD9189890
_publ_section_title
;
Structure prediction by ZEFSAII (Michael W. Deem and Ramdas Pophale) SiO2 
 PCOD9189890
Probable space group: C 2/M
;
_chemical_formula_sum "Si O2"
_cell_formula_units_Z 50
_cell_length_a 17.275237
_cell_length_b 26.055163
_cell_length_c 6.501372
_cell_angle_alpha 90.000000
_cell_angle_beta 121.718524
_cell_angle_gamma 90.000000
_cell_volume 2489.254077
_symmetry_space_group_name_H-M "C 2/M"
_symmetry_group_IT_number 12
_symmetry_cell_setting 'monoclinic'
loop_
_space_group_symop_operation_xyz
x,y,z
-x,y,-z
-x,-y,-z
x,-y,z
1/2+x,1/2+y,z
1/2-x,1/2+y,-z
1/2-x,1/2-y,-z
1/2+x,1/2-y,z
loop_
_atom_site_type_symbol
_atom_site_label
_atom_site_fract_x
_atom_site_fract_y
_atom_site_fract_z
Si Si1 0.422290 0.419207 0.719811
Si Si2 0.740907 0.056726 0.707174
Si Si3 0.904749 0.602785 0.798568
Si Si4 0.000000 0.000000 0.500000
Si Si5 0.666368 0.312956 0.499156
Si Si6 0.647729 0.197200 0.507056
Si Si7 0.288421 0.144398 0.013423
O O1 0.328874 0.439598 0.687214
O O2 0.450876 0.454813 0.571697
O O3 0.401130 0.359796 0.637918
O O4 0.500000 0.422912 0.000000
O O5 0.654738 0.069507 0.442243
O O6 0.733604 0.000000 0.787382
O O7 0.749532 0.099595 0.893969
O O8 0.917864 0.656984 0.697451
O O9 0.848250 0.616883 0.922882
O O10 0.000000 0.579691 0.000000
O O11 0.624774 0.256301 0.439763
O O12 0.751567 0.312480 0.455922
O O13 0.712466 0.324213 0.784137
O O14 0.656536 0.181683 0.757263
#
# Coordination Sequence:
#
# PCOD9189890 Si02
#       7
#     8   8   8   2   8   8   8
#     4  12  26  43  63  95 128 167 221 271 322 390
#     4  11  24  43  64  91 125 167 219 264 318 385
#     4  10  22  41  64  96 131 162 207 263 324 388
#     4  12  30  44  68  90 130 176 218 272 336 376
#     4  10  20  39  61  94 128 165 215 264 322 386
#     4   9  19  36  65  94 126 167 213 263 318 389
#     4  10  19  38  66  91 123 174 208 260 321 381
#
# _framework density 20.086337
#
# number of rings (size 3 to 8) (size 9 to 14) (size 15 to 20)
#    0.000    1.600    5.600    0.720    2.240    4.160 
#    0.000    2.400    0.000    0.000    0.000    0.000 
#    0.000    0.000    0.000    0.000    0.000    0.000 
#
# Total GULP energy -139351.415555 kJ/mol
# GULP energy per Si atom -5574.056622 kJ/mol
# Density = 2.004062 g / cm^3
# Si number density = 20.086337 Si / 1000 Ang^3
#
#
#
# Elastic Constant Matrix: (Units=GPa)
#
#
# Indices 1 2 3 4 5 6 
#
# 1 38.5902 15.0975 17.3889 0.0000 -0.4395 0.0000
# 2 15.0975 121.6205 -0.8493 0.0000 -3.2757 0.0000
# 3 17.3889 -0.8493 55.5291 0.0000 0.1800 0.0000
# 4 0.0000 0.0000 0.0000 6.7162 0.0000 -16.5530
# 5 -0.4395 -3.2757 0.1800 0.0000 31.8712 0.0000
# 6 0.0000 0.0000 0.0000 -16.5530 0.0000 -68.6500
#
#
#
# Elastic Compliance Matrix: (Units=1/GPa)
#
#
# Indices 1 2 3 4 5 6 
#
# 1 0.032048 -0.004047 -0.010098 0.000000 0.000083 0.000000
# 2 -0.004047 0.008757 0.001398 0.000000 0.000836 0.000000
# 3 -0.010098 0.001398 0.021192 0.000000 -0.000115 0.000000
# 4 0.000000 0.000000 0.000000 0.093393 0.000000 -0.022519
# 5 0.000083 0.000836 -0.000115 0.000000 0.031464 0.000000
# 6 0.000000 0.000000 0.000000 -0.022519 0.000000 -0.009137
#
#
# Mechanical properties :
#
#
# Convention : Reuss Voigt Hill
#
# Bulk Modulus (GPa) = 27.39355 31.00156 29.19755
# Shear Modulus (GPa) = 23.21505 6.26098 14.73802
#
# Velocity S-wave (km/s) = 3.40334 1.76743 2.71169
# Velocity P-wave (km/s) = 5.39547 4.43088 4.93679
#
# Compressibility (1/GPa) = 0.03650495
#
# Stress axis : x y z
#
# Youngs Moduli (GPa) = 31.20366 114.19549 47.18658
#
# Poissons Ratio (x) = 0.46210 0.47648
# Poissons Ratio (y) = 0.12627 -0.06599
# Poissons Ratio (z) = 0.31509 -0.15969
#
# Static dielectric constant tensor:
#      x y z
#    x 1.700800 0.000000 -0.004760 
#    y 0.000000 1.718710 0.000000 
#    z -0.004760 0.000000 1.688560 
# 
# From -- ./inp_files/17751.got.cif
#   From: 2010.05.17/outbox.cif.g08.bks.cpg/sg12_9_cif.got.tgz:17751.got - 2010.06.03 13:09:07.
