data_PCOD9189704
_publ_section_title
;
Structure prediction by ZEFSAII (Michael W. Deem and Ramdas Pophale) SiO2 
 PCOD9189704
Probable space group: C 2/M
;
_chemical_formula_sum "Si O2"
_cell_formula_units_Z 40
_cell_length_a 21.855087
_cell_length_b 15.269259
_cell_length_c 18.370800
_cell_angle_alpha 90.000000
_cell_angle_beta 160.622631
_cell_angle_gamma 90.000000
_cell_volume 2034.042208
_symmetry_space_group_name_H-M "C 2/M"
_symmetry_group_IT_number 12
_symmetry_cell_setting 'monoclinic'
loop_
_space_group_symop_operation_xyz
x,y,z
-x,y,-z
-x,-y,-z
x,-y,z
1/2+x,1/2+y,z
1/2-x,1/2+y,-z
1/2-x,1/2-y,-z
1/2+x,1/2-y,z
loop_
_atom_site_type_symbol
_atom_site_label
_atom_site_fract_x
_atom_site_fract_y
_atom_site_fract_z
Si Si1 0.557522 0.798508 0.945498
Si Si2 0.113057 0.098015 0.745887
Si Si3 0.675507 0.331881 0.964506
Si Si4 0.969451 0.400420 0.552879
Si Si5 0.781728 0.776558 0.345517
O O1 0.678918 0.873259 0.042447
O O2 0.678250 0.775908 0.152356
O O3 0.549229 0.715265 0.882574
O O4 0.355813 0.818811 0.749724
O O5 0.092785 0.105700 0.810443
O O6 0.969126 0.168005 0.552535
O O7 0.075433 0.000000 0.678484
O O8 0.750000 0.250000 0.000000
O O9 0.840952 0.378824 0.192688
O O10 0.910541 0.500000 0.502068
O O11 0.000000 0.392357 0.500000
O O12 0.830684 0.323373 0.419669
#
# Coordination Sequence:
#
# PCOD9189704 Si02
#       5
#     8   8   8   8   8
#     4  10  22  38  64  88 120 154 202 247 292 352
#     4  11  23  40  62  88 122 160 197 242 300 353
#     4  10  19  38  61  84 118 159 194 241 294 350
#     4  11  20  36  63  89 118 157 200 241 291 353
#     4  11  21  40  63  90 120 157 196 247 302 345
#
# _framework density 19.665275999999999
#
# number of rings (size 3 to 8) (size 9 to 14) (size 15 to 20)
#    0.000    1.400    6.000    1.200    0.000    3.200 
#    0.000    6.000    0.000    0.000    0.000    0.000 
#    0.000    0.000    0.000    0.000    0.000    0.000 
#
# Total GULP energy -111551.767301 kJ/mol
# GULP energy per Si atom -5577.588365 kJ/mol
# Density = 1.962052 g / cm^3
# Si number density = 19.665276 Si / 1000 Ang^3
#
#
#
# Elastic Constant Matrix: (Units=GPa)
#
#
# Indices 1 2 3 4 5 6 
#
# 1 88.7309 14.5344 21.1395 -0.0012 3.7827 -0.0005
# 2 14.5344 120.1654 19.8553 -0.0045 8.4319 -0.0016
# 3 21.1395 19.8553 47.9282 -0.0051 1.9808 -0.0017
# 4 -0.0012 -0.0045 -0.0051 4.0995 -0.0040 3.2310
# 5 3.7827 8.4319 1.9808 -0.0040 34.8009 -0.0018
# 6 -0.0005 -0.0016 -0.0017 3.2310 -0.0018 15.3577
#
#
#
# Elastic Compliance Matrix: (Units=1/GPa)
#
#
# Indices 1 2 3 4 5 6 
#
# 1 0.012670 -0.000591 -0.005305 -0.000005 -0.000932 0.000001
# 2 -0.000591 0.009096 -0.003427 0.000004 -0.001945 -0.000001
# 3 -0.005305 -0.003427 0.024624 0.000028 0.000006 -0.000004
# 4 -0.000005 0.000004 0.000028 0.292418 0.000028 -0.061520
# 5 -0.000932 -0.001945 0.000006 0.000028 0.029307 -0.000003
# 6 0.000001 -0.000001 -0.000004 -0.061520 -0.000003 0.078056
#
#
# Mechanical properties :
#
#
# Convention : Reuss Voigt Hill
#
# Bulk Modulus (GPa) = 36.04361 40.87588 38.45975
# Shear Modulus (GPa) = 10.54703 24.27133 17.40918
#
# Velocity S-wave (km/s) = 2.31839 3.51696 2.97859
# Velocity P-wave (km/s) = 5.05321 6.10925 5.60615
#
# Compressibility (1/GPa) = 0.02774417
#
# Stress axis : x y z
#
# Youngs Moduli (GPa) = 78.92380 109.93767 40.61049
#
# Poissons Ratio (x) = 0.06492 0.21545
# Poissons Ratio (y) = 0.04660 0.13919
# Poissons Ratio (z) = 0.41872 0.37680
#
# Static dielectric constant tensor:
#      x y z
#    x 1.727670 0.000000 -0.011490 
#    y 0.000000 1.688230 0.000000 
#    z -0.011490 0.000000 1.678420 
# 
# From -- ./inp_files/72341.got.cif
#   From: 2010.05.17/outbox.cif.g08.bks.cpg/sg12_37_cif.got.tgz:72341.got - 2010.06.03 13:09:07.
