data_PCOD9189655
_publ_section_title
;
Structure prediction by ZEFSAII (Michael W. Deem and Ramdas Pophale) SiO2 
 PCOD9189655
Probable space group: C 2/M
;
_chemical_formula_sum "Si O2"
_cell_formula_units_Z 36
_cell_length_a 8.839597
_cell_length_b 16.971941
_cell_length_c 15.239445
_cell_angle_alpha 90.000000
_cell_angle_beta 44.264059
_cell_angle_gamma 90.000000
_cell_volume 1595.759811
_symmetry_space_group_name_H-M "C 2/M"
_symmetry_group_IT_number 12
_symmetry_cell_setting 'monoclinic'
loop_
_space_group_symop_operation_xyz
x,y,z
-x,y,-z
-x,-y,-z
x,-y,z
1/2+x,1/2+y,z
1/2-x,1/2+y,-z
1/2-x,1/2-y,-z
1/2+x,1/2-y,z
loop_
_atom_site_type_symbol
_atom_site_label
_atom_site_fract_x
_atom_site_fract_y
_atom_site_fract_z
Si Si1 0.192906 0.500000 0.535598
Si Si2 0.472665 0.500000 0.264759
Si Si3 0.532652 0.638155 0.614694
Si Si4 0.745404 0.500000 0.823649
Si Si5 0.676023 0.257900 0.703838
Si Si6 0.774161 0.827265 0.132023
O O1 0.234100 0.500000 0.412667
O O2 0.323779 0.579666 0.503559
O O3 0.969010 0.500000 0.676752
O O4 0.571386 0.578425 0.268491
O O5 0.440279 0.500000 0.174967
O O6 0.684915 0.696048 0.608549
O O7 0.352770 0.690394 0.643637
O O8 0.740759 0.420019 0.880703
O O9 0.436587 0.220310 0.810339
O O10 0.714855 0.318178 0.767200
O O11 0.000000 0.795868 0.000000
#
# Coordination Sequence:
#
# PCOD9189655 Si02
#       6
#     4   4   8   4   8   8
#     4   8  19  36  57  81 113 153 176 217 280 338
#     4   8  17  34  58  77 117 145 182 210 283 330
#     4   8  18  34  60  83 112 145 180 218 280 338
#     4  12  20  38  59  81 111 151 187 232 263 326
#     4  10  19  38  59  85 114 142 178 236 278 323
#     4  11  23  38  59  82 110 147 191 230 275 321
#
# _framework density 22.559787
#
# number of rings (size 3 to 8) (size 9 to 14) (size 15 to 20)
#    1.333    0.889    2.222    1.333    0.000    1.778 
#    0.000    8.889    0.000    1.333    0.000    0.000 
#    0.000    0.000    0.000    0.000    0.000    0.000 
#
# Total GULP energy -100446.125430 kJ/mol
# GULP energy per Si atom -5580.340302 kJ/mol
# Density = 2.250844 g / cm^3
# Si number density = 22.559787 Si / 1000 Ang^3
#
#
#
# Elastic Constant Matrix: (Units=GPa)
#
#
# Indices 1 2 3 4 5 6 
#
# 1 90.6687 48.6732 13.3168 0.0001 -16.7917 0.0001
# 2 48.6732 139.8370 9.4809 0.0000 -13.6646 0.0000
# 3 13.3168 9.4809 66.9164 0.0004 -18.6327 -0.0004
# 4 0.0001 0.0000 0.0004 25.7346 -0.0002 -14.9682
# 5 -16.7917 -13.6646 -18.6327 -0.0002 24.5335 0.0002
# 6 0.0001 0.0000 -0.0004 -14.9682 0.0002 8.4567
#
#
#
# Elastic Compliance Matrix: (Units=1/GPa)
#
#
# Indices 1 2 3 4 5 6 
#
# 1 0.014821 -0.004409 -0.000233 0.000008 0.007511 0.000014
# 2 -0.004409 0.008875 0.000198 -0.000002 0.002076 -0.000003
# 3 -0.000233 0.000198 0.018958 -0.000003 0.014348 -0.000006
# 4 0.000008 -0.000002 -0.000003 -1.317971 0.000016 -2.332777
# 5 0.007511 0.002076 0.014348 0.000016 0.057955 0.000026
# 6 0.000014 -0.000003 -0.000006 -2.332777 0.000026 -4.010713
#
#
# Mechanical properties :
#
#
# Convention : Reuss Voigt Hill
#
# Bulk Modulus (GPa) = 29.61599 48.92934 39.27266
# Shear Modulus (GPa) = -0.96007 26.80839 12.92416
#
# Velocity S-wave (km/s) = -0.65306 3.45095 2.39610
# Velocity P-wave (km/s) = 3.54790 6.13307 5.01010
#
# Compressibility (1/GPa) = 0.03376555
#
# Stress axis : x y z
#
# Youngs Moduli (GPa) = 67.46978 112.67234 52.74905
#
# Poissons Ratio (x) = 0.49678 0.01231
# Poissons Ratio (y) = 0.29748 -0.01044
# Poissons Ratio (z) = 0.01574 -0.02231
#
# Static dielectric constant tensor:
#      x y z
#    x 1.852020 0.000000 0.031960 
#    y 0.000000 1.883750 0.000000 
#    z 0.031960 0.000000 1.825650 
# 
# From -- ./inp_files/197483.got.cif
#   From: 2010.05.17/outbox.cif.g08.bks.cpg/sg12_99_cif.got.tgz:197483.got - 2010.06.03 13:09:07.
