data_PCOD9189053
_publ_section_title
;
Structure prediction by ZEFSAII (Michael W. Deem and Ramdas Pophale) SiO2 
 PCOD9189053
Probable space group: C 2/M
;
_chemical_formula_sum "Si O2"
_cell_formula_units_Z 34
_cell_length_a 8.205415
_cell_length_b 13.085012
_cell_length_c 13.146895
_cell_angle_alpha 90.000000
_cell_angle_beta 117.244717
_cell_angle_gamma 90.000000
_cell_volume 1254.956370
_symmetry_space_group_name_H-M "C 2/M"
_symmetry_group_IT_number 12
_symmetry_cell_setting 'monoclinic'
loop_
_space_group_symop_operation_xyz
x,y,z
-x,y,-z
-x,-y,-z
x,-y,z
1/2+x,1/2+y,z
1/2-x,1/2+y,-z
1/2-x,1/2-y,-z
1/2+x,1/2-y,z
loop_
_atom_site_type_symbol
_atom_site_label
_atom_site_fract_x
_atom_site_fract_y
_atom_site_fract_z
Si Si1 0.351335 0.119531 0.368474
Si Si2 0.008836 0.881782 0.390480
Si Si3 0.000000 0.000000 0.000000
Si Si4 0.179491 0.331507 0.867625
Si Si5 0.698732 0.886515 0.142118
O O1 0.500000 0.125046 0.500000
O O2 0.388473 0.166795 0.269705
O O3 0.162624 0.162470 0.360492
O O4 0.327325 0.000000 0.338080
O O5 0.815437 0.885757 0.279643
O O6 0.000000 0.836270 0.500000
O O7 0.070614 0.000000 0.422840
O O8 0.850173 0.908825 0.924014
O O9 0.228969 0.211770 0.897438
O O10 0.011823 0.371039 0.888548
O O11 0.737657 0.000000 0.107564
#
# Coordination Sequence:
#
# PCOD9189053 Si02
#       5
#     8   8   2   8   8
#     4  10  19  36  68 109 151 197 245 296 364 444
#     4   9  18  34  63 106 154 195 235 292 357 434
#     4  12  28  52  80 106 144 192 254 314 374 440
#     4  12  25  48  76 108 149 197 243 309 370 432
#     4  11  24  46  73 108 148 192 246 302 363 440
#
# _framework density 27.092576999999999
#
# number of rings (size 3 to 8) (size 9 to 14) (size 15 to 20)
#    0.000    1.412    2.353    2.824    0.000    5.647 
#    2.118    5.294    0.000    0.000    0.000    0.000 
#    0.000    0.000    0.000    0.000    0.000    0.000 
#
# Total GULP energy -95124.989047 kJ/mol
# GULP energy per Si atom -5595.587591 kJ/mol
# Density = 2.703091 g / cm^3
# Si number density = 27.092577 Si / 1000 Ang^3
#
#
#
# Elastic Constant Matrix: (Units=GPa)
#
#
# Indices 1 2 3 4 5 6 
#
# 1 70.0690 44.4637 51.1998 0.0000 1.3919 0.0000
# 2 44.4637 235.4911 31.6537 0.0000 -2.3673 0.0000
# 3 51.1998 31.6537 160.7642 0.0000 8.0013 0.0000
# 4 0.0000 0.0000 0.0000 -7.0262 0.0000 29.3503
# 5 1.3919 -2.3673 8.0013 0.0000 56.2059 0.0000
# 6 0.0000 0.0000 0.0000 29.3503 0.0000 29.3735
#
#
#
# Elastic Compliance Matrix: (Units=1/GPa)
#
#
# Indices 1 2 3 4 5 6 
#
# 1 0.020576 -0.003082 -0.005956 0.000000 0.000209 0.000000
# 2 -0.003082 0.004829 0.000017 0.000000 0.000277 0.000000
# 3 -0.005956 0.000017 0.008164 0.000000 -0.001014 0.000000
# 4 0.000000 0.000000 0.000000 -0.027508 0.000000 0.027486
# 5 0.000209 0.000277 -0.001014 0.000000 0.017943 0.000000
# 6 0.000000 0.000000 0.000000 0.027486 0.000000 0.006580
#
#
# Mechanical properties :
#
#
# Convention : Reuss Voigt Hill
#
# Bulk Modulus (GPa) = 64.40878 80.10652 72.25765
# Shear Modulus (GPa) = 92.93269 38.31110 65.62189
#
# Velocity S-wave (km/s) = 5.86314 3.76451 4.92686
# Velocity P-wave (km/s) = 8.34628 6.96615 7.68725
#
# Compressibility (1/GPa) = 0.01552583
#
# Stress axis : x y z
#
# Youngs Moduli (GPa) = 48.60077 207.08611 122.48306
#
# Poissons Ratio (x) = 0.63829 0.72956
# Poissons Ratio (y) = 0.14980 -0.00209
# Poissons Ratio (z) = 0.28949 -0.00353
#
# Static dielectric constant tensor:
#      x y z
#    x 2.101100 0.000000 -0.045700 
#    y 0.000000 2.221640 0.000000 
#    z -0.045700 0.000000 2.116550 
# 
# From -- ./inp_files/255601.got.cif
#   From: 2010.05.17/outbox.cif.g08.bks.cpg/sg12_128_cif.got.tgz:255601.got - 2010.06.03 13:09:07.
