data_PCOD9189375
_publ_section_title
;
Structure prediction by ZEFSAII (Michael W. Deem and Ramdas Pophale) SiO2 
 PCOD9189375
Probable space group: C 2/M
;
_chemical_formula_sum "Si O2"
_cell_formula_units_Z 48
_cell_length_a 15.470673
_cell_length_b 8.575345
_cell_length_c 20.998023
_cell_angle_alpha 90.000000
_cell_angle_beta 111.647723
_cell_angle_gamma 90.000000
_cell_volume 2589.252349
_symmetry_space_group_name_H-M "C 2/M"
_symmetry_group_IT_number 12
_symmetry_cell_setting 'monoclinic'
loop_
_space_group_symop_operation_xyz
x,y,z
-x,y,-z
-x,-y,-z
x,-y,z
1/2+x,1/2+y,z
1/2-x,1/2+y,-z
1/2-x,1/2-y,-z
1/2+x,1/2-y,z
loop_
_atom_site_type_symbol
_atom_site_label
_atom_site_fract_x
_atom_site_fract_y
_atom_site_fract_z
Si Si1 0.537965 0.189924 0.326508
Si Si2 0.258818 0.813059 0.574116
Si Si3 0.069234 0.812878 0.077146
Si Si4 0.430451 0.811543 0.423703
Si Si5 0.040682 0.687775 0.831378
Si Si6 0.740454 0.686257 0.925537
O O1 0.643518 0.240037 0.369077
O O2 0.473970 0.239117 0.368427
O O3 0.498924 0.239575 0.247777
O O4 0.538003 0.000000 0.326689
O O5 0.250000 0.750000 0.500000
O O6 0.170563 0.755898 0.589821
O O7 0.259585 0.000000 0.571632
O O8 0.170049 0.743100 0.089418
O O9 0.024228 0.749424 0.129469
O O10 0.075594 0.000000 0.081446
O O11 0.000000 0.771559 0.000000
O O12 0.500000 0.766194 0.500000
O O13 0.424926 0.000000 0.422736
O O14 0.042161 0.500000 0.833774
O O15 0.144512 0.750075 0.870783
O O16 0.737808 0.500000 0.926890
O O17 0.750000 0.750000 0.000000
#
# Coordination Sequence:
#
# PCOD9189375 Si02
#       6
#     8   8   8   8   8   8
#     4   9  21  40  60  86 124 162 194 243 305 359
#     4  11  21  37  60  89 120 155 203 249 296 354
#     4  11  23  40  64  92 123 159 205 252 298 358
#     4  10  19  37  62  86 118 159 200 243 297 355
#     4  11  23  41  64  91 126 162 200 249 308 362
#     4  12  24  40  64  93 123 159 204 250 302 361
#
# _framework density 18.538167999999999
#
# number of rings (size 3 to 8) (size 9 to 14) (size 15 to 20)
#    0.000    1.333    3.333    3.000    0.000    2.333 
#    0.000    8.333    0.000    0.000    0.000    0.000 
#    0.000    0.000    0.000    0.000    0.000    0.000 
#
# Total GULP energy -134165.253419 kJ/mol
# GULP energy per Si atom -5590.218892 kJ/mol
# Density = 1.849597 g / cm^3
# Si number density = 18.538168 Si / 1000 Ang^3
#
#
#
# Elastic Constant Matrix: (Units=GPa)
#
#
# Indices 1 2 3 4 5 6 
#
# 1 215.6422 45.9163 120.3315 0.0000 -0.2090 0.0000
# 2 45.9163 56.9942 47.2335 0.0000 -0.9988 0.0000
# 3 120.3315 47.2335 197.9740 0.0000 0.0510 0.0000
# 4 0.0000 0.0000 0.0000 13.6335 0.0000 1.0906
# 5 -0.2090 -0.9988 0.0510 0.0000 34.3426 0.0000
# 6 0.0000 0.0000 0.0000 1.0906 0.0000 38.4422
#
#
#
# Elastic Compliance Matrix: (Units=1/GPa)
#
#
# Indices 1 2 3 4 5 6 
#
# 1 0.007351 -0.002767 -0.003808 0.000000 -0.000030 0.000000
# 2 -0.002767 0.022926 -0.003788 0.000000 0.000656 0.000000
# 3 -0.003808 -0.003788 0.008270 0.000000 -0.000146 0.000000
# 4 0.000000 0.000000 0.000000 0.073515 0.000000 -0.002086
# 5 -0.000030 0.000656 -0.000146 0.000000 0.029137 0.000000
# 6 0.000000 0.000000 0.000000 -0.002086 0.000000 0.026072
#
#
# Mechanical properties :
#
#
# Convention : Reuss Voigt Hill
#
# Bulk Modulus (GPa) = 56.11592 99.73035 77.92313
# Shear Modulus (GPa) = 25.78139 34.42561 30.10350
#
# Velocity S-wave (km/s) = 3.73328 4.31398 4.03409
# Velocity P-wave (km/s) = 6.99424 8.87288 7.98897
#
# Compressibility (1/GPa) = 0.01782026
#
# Stress axis : x y z
#
# Youngs Moduli (GPa) = 136.02710 43.61925 120.92495
#
# Poissons Ratio (x) = 0.12070 0.46050
# Poissons Ratio (y) = 0.37641 0.45806
# Poissons Ratio (z) = 0.51801 0.16523
#
# Static dielectric constant tensor:
#      x y z
#    x 1.608620 0.000000 0.002550 
#    y 0.000000 1.632110 0.000000 
#    z 0.002550 0.000000 1.617660 
# 
# From -- ./inp_files/308607.got.cif
#   From: 2010.05.17/outbox.cif.g08.bks.cpg/sg12_155_cif.got.tgz:308607.got - 2010.06.03 13:09:07.
