data_PCOD9189064
_publ_section_title
;
Structure prediction by ZEFSAII (Michael W. Deem and Ramdas Pophale) SiO2 
 PCOD9189064
Probable space group: C 2/M
;
_chemical_formula_sum "Si O2"
_cell_formula_units_Z 60
_cell_length_a 21.386192
_cell_length_b 18.917430
_cell_length_c 14.632093
_cell_angle_alpha 90.000000
_cell_angle_beta 33.098427
_cell_angle_gamma 90.000000
_cell_volume 3232.641138
_symmetry_space_group_name_H-M "C 2/M"
_symmetry_group_IT_number 12
_symmetry_cell_setting 'monoclinic'
loop_
_space_group_symop_operation_xyz
x,y,z
-x,y,-z
-x,-y,-z
x,-y,z
1/2+x,1/2+y,z
1/2-x,1/2+y,-z
1/2-x,1/2-y,-z
1/2+x,1/2-y,z
loop_
_atom_site_type_symbol
_atom_site_label
_atom_site_fract_x
_atom_site_fract_y
_atom_site_fract_z
Si Si1 0.500000 0.305777 0.500000
Si Si2 0.700122 0.347854 0.726986
Si Si3 0.037753 0.920586 0.781613
Si Si4 0.645860 0.362457 0.480991
Si Si5 0.779174 0.083599 0.105101
Si Si6 0.089575 0.290025 0.636177
Si Si7 0.644798 0.789435 0.180319
Si Si8 0.378634 0.806480 0.187045
O O1 0.569076 0.354217 0.485934
O O2 0.412474 0.256812 0.666720
O O3 0.601495 0.375439 0.780317
O O4 0.719497 0.398364 0.788897
O O5 0.818446 0.339725 0.526856
O O6 0.661871 0.269101 0.804822
O O7 0.108048 0.918701 0.601630
O O8 0.028257 0.000000 0.829255
O O9 0.909032 0.896709 0.916391
O O10 0.624541 0.288489 0.561266
O O11 0.778456 0.362360 0.293424
O O12 0.692326 0.136979 0.162428
O O13 0.758904 0.000000 0.113715
O O14 0.106747 0.295610 0.722590
O O15 0.960519 0.301897 0.760431
O O16 0.750000 0.750000 0.000000
O O17 0.500000 0.827509 0.000000
#
# Coordination Sequence:
#
# PCOD9189064 Si02
#       8
#     4   8   8   8   8   8   8   8
#     4  10  22  36  58  86 112 144 198 234 286 350
#     4  11  20  35  58  84 119 147 180 231 292 349
#     4  11  21  36  56  81 112 149 188 228 282 347
#     4  10  19  37  53  81 115 143 179 239 286 331
#     4  11  23  37  56  88 122 153 190 233 287 355
#     4  10  20  36  55  85 112 148 190 236 285 346
#     4  11  23  38  61  84 119 156 195 240 290 338
#     4  11  20  31  59  86 114 139 184 241 291 333
#
# _framework density 18.560675
#
# number of rings (size 3 to 8) (size 9 to 14) (size 15 to 20)
#    0.000    1.333    2.667    6.400    3.733    1.067 
#    0.000    4.000    0.000    1.200    0.000    0.000 
#    0.000    0.000    0.000    0.000    0.000    0.000 
#
# Total GULP energy -167515.228440 kJ/mol
# GULP energy per Si atom -5583.840948 kJ/mol
# Density = 1.851843 g / cm^3
# Si number density = 18.560675 Si / 1000 Ang^3
#
#
#
# Elastic Constant Matrix: (Units=GPa)
#
#
# Indices 1 2 3 4 5 6 
#
# 1 73.2822 14.5559 16.7182 0.0000 -11.3614 0.0000
# 2 14.5559 42.7000 15.8016 0.0000 -7.6265 0.0000
# 3 16.7182 15.8016 113.2422 0.0000 -14.2578 0.0000
# 4 0.0000 0.0000 0.0000 21.0812 0.0000 -0.7656
# 5 -11.3614 -7.6265 -14.2578 0.0000 33.2998 0.0000
# 6 0.0000 0.0000 0.0000 -0.7656 0.0000 18.2063
#
#
#
# Elastic Compliance Matrix: (Units=1/GPa)
#
#
# Indices 1 2 3 4 5 6 
#
# 1 0.015322 -0.004100 -0.001215 0.000000 0.003768 0.000000
# 2 -0.004100 0.026422 -0.002638 0.000000 0.003523 0.000000
# 3 -0.001215 -0.002638 0.009777 0.000000 0.003167 0.000000
# 4 0.000000 0.000000 0.000000 0.047508 0.000000 0.001998
# 5 0.003768 0.003523 0.003167 0.000000 0.033479 0.000000
# 6 0.000000 0.000000 0.000000 0.001998 0.000000 0.055010
#
#
# Mechanical properties :
#
#
# Convention : Reuss Voigt Hill
#
# Bulk Modulus (GPa) = 28.07908 35.93064 32.00486
# Shear Modulus (GPa) = 23.22378 26.66072 24.94225
#
# Velocity S-wave (km/s) = 3.54112 3.79411 3.66980
# Velocity P-wave (km/s) = 5.64628 6.21242 5.93610
#
# Compressibility (1/GPa) = 0.03561371
#
# Stress axis : x y z
#
# Youngs Moduli (GPa) = 65.26663 37.84673 102.28136
#
# Poissons Ratio (x) = 0.15518 0.12432
# Poissons Ratio (y) = 0.26761 0.26982
# Poissons Ratio (z) = 0.07933 0.09984
#
# Static dielectric constant tensor:
#      x y z
#    x 1.629780 0.000000 -0.002620 
#    y 0.000000 1.630910 0.000000 
#    z -0.002620 0.000000 1.686270 
# 
# From -- ./inp_files/235179.got.cif
#   From: 2010.05.17/outbox.cif.g08.bks.cpg/sg12_118_cif.got.tgz:235179.got - 2010.06.03 13:09:07.
