data_PCOD9189380
_publ_section_title
;
Structure prediction by ZEFSAII (Michael W. Deem and Ramdas Pophale) SiO2 
 PCOD9189380
Probable space group: C 2/M
;
_chemical_formula_sum "Si O2"
_cell_formula_units_Z 56
_cell_length_a 27.794985
_cell_length_b 9.943368
_cell_length_c 17.309386
_cell_angle_alpha 90.000000
_cell_angle_beta 144.660486
_cell_angle_gamma 90.000000
_cell_volume 2767.102029
_symmetry_space_group_name_H-M "C 2/M"
_symmetry_group_IT_number 12
_symmetry_cell_setting 'monoclinic'
loop_
_space_group_symop_operation_xyz
x,y,z
-x,y,-z
-x,-y,-z
x,-y,z
1/2+x,1/2+y,z
1/2-x,1/2+y,-z
1/2-x,1/2-y,-z
1/2+x,1/2-y,z
loop_
_atom_site_type_symbol
_atom_site_label
_atom_site_fract_x
_atom_site_fract_y
_atom_site_fract_z
Si Si1 0.656048 0.342779 0.238847
Si Si2 0.436494 0.154226 0.323940
Si Si3 0.110087 0.340426 0.911802
Si Si4 0.810133 0.149759 0.462285
Si Si5 0.380606 0.232386 0.406927
Si Si6 0.702864 0.647484 0.131776
Si Si7 0.039400 0.840977 0.220992
O O1 0.674770 0.500000 0.278117
O O2 0.734462 0.253584 0.366898
O O3 0.646933 0.328291 0.134706
O O4 0.575130 0.310526 0.182906
O O5 0.395439 0.177351 0.187654
O O6 0.407026 0.255491 0.352410
O O7 0.536495 0.165380 0.449357
O O8 0.417698 0.000000 0.323965
O O9 0.107354 0.500000 0.924378
O O10 0.032821 0.258056 0.846542
O O11 0.188636 0.266206 0.052810
O O12 0.852290 0.158397 0.432434
O O13 0.882173 0.176873 0.618579
O O14 0.777628 0.000000 0.432869
O O15 0.296412 0.148082 0.286571
O O16 0.684836 0.500000 0.075076
O O17 0.015584 0.000000 0.193597
#
# Coordination Sequence:
#
# PCOD9189380 Si02
#       7
#     8   8   8   8   8   8   8
#     4   9  20  36  60  86 113 155 203 238 279 345
#     4  10  20  37  62  90 114 148 198 247 288 342
#     4  11  24  39  58  86 119 156 195 243 297 346
#     4  10  20  34  56  89 125 152 183 240 302 346
#     4  10  19  37  62  87 114 150 193 238 288 344
#     4  10  21  38  59  85 115 154 195 239 290 348
#     4  10  20  38  58  83 118 156 196 241 288 344
#
# _framework density 20.237780000000001
#
# number of rings (size 3 to 8) (size 9 to 14) (size 15 to 20)
#    0.000    2.000    1.429    2.571    0.000    5.714 
#    0.000    5.714    0.000    0.000    0.000    0.000 
#    0.000    0.000    0.000    0.000    0.000    0.000 
#
# Total GULP energy -156136.250527 kJ/mol
# GULP energy per Si atom -5576.294662 kJ/mol
# Density = 2.019172 g / cm^3
# Si number density = 20.237780 Si / 1000 Ang^3
#
#
#
# Elastic Constant Matrix: (Units=GPa)
#
#
# Indices 1 2 3 4 5 6 
#
# 1 71.1258 11.0954 6.4832 0.0000 -6.3220 0.0000
# 2 11.0954 54.6637 16.5147 0.0000 -13.5529 0.0000
# 3 6.4832 16.5147 45.2708 0.0000 -11.9006 0.0000
# 4 0.0000 0.0000 0.0000 25.1178 0.0000 1.1250
# 5 -6.3220 -13.5529 -11.9006 0.0000 22.6061 0.0000
# 6 0.0000 0.0000 0.0000 1.1250 0.0000 20.1667
#
#
#
# Elastic Compliance Matrix: (Units=1/GPa)
#
#
# Indices 1 2 3 4 5 6 
#
# 1 0.014677 -0.002170 -0.000665 0.000000 0.002453 0.000000
# 2 -0.002170 0.022903 -0.005332 0.000000 0.010317 0.000000
# 3 -0.000665 -0.005332 0.026973 0.000000 0.010817 0.000000
# 4 0.000000 0.000000 0.000000 0.039912 0.000000 -0.002226
# 5 0.002453 0.010317 0.010817 0.000000 0.056802 0.000000
# 6 0.000000 0.000000 0.000000 -0.002226 0.000000 0.049711
#
#
# Mechanical properties :
#
#
# Convention : Reuss Voigt Hill
#
# Bulk Modulus (GPa) = 20.73893 26.58296 23.66094
# Shear Modulus (GPa) = 20.54360 22.70926 21.62643
#
# Velocity S-wave (km/s) = 3.18954 3.35344 3.27252
# Velocity P-wave (km/s) = 4.88202 5.30641 5.09863
#
# Compressibility (1/GPa) = 0.04821851
#
# Stress axis : x y z
#
# Youngs Moduli (GPa) = 68.13476 43.66260 37.07383
#
# Poissons Ratio (x) = 0.09474 0.02467
# Poissons Ratio (y) = 0.14783 0.19768
# Poissons Ratio (z) = 0.04534 0.23281
#
# Static dielectric constant tensor:
#      x y z
#    x 1.758450 0.000000 0.008510 
#    y 0.000000 1.685180 0.000000 
#    z 0.008510 0.000000 1.735700 
# 
# From -- ./inp_files/329620.got.cif
#   From: 2010.05.17/outbox.cif.g08.bks.cpg/sg12_165_cif.got.tgz:329620.got - 2010.06.03 13:09:07.
