data_PCOD9189002
_publ_section_title
;
Structure prediction by ZEFSAII (Michael W. Deem and Ramdas Pophale) SiO2 
 PCOD9189002
Probable space group: C 2/M
;
_chemical_formula_sum "Si O2"
_cell_formula_units_Z 40
_cell_length_a 17.935064
_cell_length_b 15.220315
_cell_length_c 13.099605
_cell_angle_alpha 90.000000
_cell_angle_beta 29.667534
_cell_angle_gamma 90.000000
_cell_volume 1769.947891
_symmetry_space_group_name_H-M "C 2/M"
_symmetry_group_IT_number 12
_symmetry_cell_setting 'monoclinic'
loop_
_space_group_symop_operation_xyz
x,y,z
-x,y,-z
-x,-y,-z
x,-y,z
1/2+x,1/2+y,z
1/2-x,1/2+y,-z
1/2-x,1/2-y,-z
1/2+x,1/2-y,z
loop_
_atom_site_type_symbol
_atom_site_label
_atom_site_fract_x
_atom_site_fract_y
_atom_site_fract_z
Si Si1 0.634964 0.851963 0.769426
Si Si2 0.531549 0.651276 0.582561
Si Si3 0.162184 0.153865 0.821926
Si Si4 0.949773 0.646493 0.365816
Si Si5 0.220761 0.096151 0.963073
O O1 0.802542 0.887017 0.591604
O O2 0.647019 0.748155 0.783963
O O3 0.592141 0.860016 0.702605
O O4 0.500000 0.888165 0.000000
O O5 0.500000 0.648144 0.500000
O O6 0.533149 0.752201 0.619177
O O7 0.398722 0.607353 0.804837
O O8 0.309250 0.110190 0.598154
O O9 0.191362 0.165417 0.907610
O O10 0.000000 0.109805 0.000000
O O11 0.110219 0.604280 0.197882
O O12 0.199913 0.000000 0.940362
#
# Coordination Sequence:
#
# PCOD9189002 Si02
#       5
#     8   8   8   8   8
#     4  10  19  36  64  95 121 149 199 261 310 354
#     4  11  21  38  64  90 118 158 209 260 303 354
#     4  10  20  38  61  90 123 154 197 251 307 361
#     4  11  21  38  64  93 123 157 206 258 305 359
#     4  12  26  41  59  89 131 170 202 244 304 373
#
# _framework density 22.599537000000002
#
# number of rings (size 3 to 8) (size 9 to 14) (size 15 to 20)
#    0.000    1.200    0.000   10.800    0.000    2.400 
#    0.000    3.000    0.000    2.400    0.000    0.000 
#    0.000    0.000    0.000    0.000    0.000    0.000 
#
# Total GULP energy -111868.294193 kJ/mol
# GULP energy per Si atom -5593.414710 kJ/mol
# Density = 2.254810 g / cm^3
# Si number density = 22.599537 Si / 1000 Ang^3
#
#
#
# Elastic Constant Matrix: (Units=GPa)
#
#
# Indices 1 2 3 4 5 6 
#
# 1 204.8984 -2.4412 104.0581 0.0001 1.9484 -0.0001
# 2 -2.4412 39.7347 11.0050 0.0000 -8.7822 0.0000
# 3 104.0581 11.0050 242.9851 0.0001 -21.6509 -0.0001
# 4 0.0001 0.0000 0.0001 -48.3171 -0.0001 16.8267
# 5 1.9484 -8.7822 -21.6509 -0.0001 60.3491 0.0001
# 6 -0.0001 0.0000 -0.0001 16.8267 0.0001 -6.7062
#
#
#
# Elastic Compliance Matrix: (Units=1/GPa)
#
#
# Indices 1 2 3 4 5 6 
#
# 1 0.006356 0.000941 -0.002862 0.000000 -0.001095 0.000000
# 2 0.000941 0.026321 -0.001298 0.000000 0.003334 0.000000
# 3 -0.002862 -0.001298 0.005569 0.000000 0.001902 0.000000
# 4 0.000000 0.000000 0.000000 -0.164020 0.000000 -0.411548
# 5 -0.001095 0.003334 0.001902 0.000000 0.017773 0.000001
# 6 0.000000 0.000000 0.000000 -0.411548 0.000001 -1.181744
#
#
# Mechanical properties :
#
#
# Convention : Reuss Voigt Hill
#
# Bulk Modulus (GPa) = 31.43830 79.20686 55.32258
# Shear Modulus (GPa) = -3.92864 26.06492 11.06814
#
# Velocity S-wave (km/s) = -1.31990 3.39977 2.21543
# Velocity P-wave (km/s) = 3.40857 7.10882 5.57466
#
# Compressibility (1/GPa) = 0.03180833
#
# Stress axis : x y z
#
# Youngs Moduli (GPa) = 157.34309 37.99216 179.55483
#
# Poissons Ratio (x) = -0.03575 0.51388
# Poissons Ratio (y) = -0.14808 0.23307
# Poissons Ratio (z) = 0.45031 0.04932
#
# Static dielectric constant tensor:
#      x y z
#    x 1.776520 0.000000 -0.038000 
#    y 0.000000 1.836370 0.000000 
#    z -0.038000 0.000000 1.848200 
# 
# From -- ./inp_files/63151.got.cif
#   From: 2010.05.17/outbox.cif.g08.bks.cpg/sg12_32_cif.got.tgz:63151.got - 2010.06.03 13:09:07.
