data_PCOD9189992
_publ_section_title
;
Structure prediction by ZEFSAII (Michael W. Deem and Ramdas Pophale) SiO2 
 PCOD9189992
Probable space group: C 2/M
;
_chemical_formula_sum "Si O2"
_cell_formula_units_Z 44
_cell_length_a 9.755928
_cell_length_b 28.848294
_cell_length_c 8.766571
_cell_angle_alpha 90.000000
_cell_angle_beta 62.072932
_cell_angle_gamma 90.000000
_cell_volume 2179.951790
_symmetry_space_group_name_H-M "C 2/M"
_symmetry_group_IT_number 12
_symmetry_cell_setting 'monoclinic'
loop_
_space_group_symop_operation_xyz
x,y,z
-x,y,-z
-x,-y,-z
x,-y,z
1/2+x,1/2+y,z
1/2-x,1/2+y,-z
1/2-x,1/2-y,-z
1/2+x,1/2-y,z
loop_
_atom_site_type_symbol
_atom_site_label
_atom_site_fract_x
_atom_site_fract_y
_atom_site_fract_z
Si Si1 0.761956 0.361286 0.905014
Si Si2 0.370676 0.383281 0.360922
Si Si3 0.132342 0.193035 0.228553
Si Si4 0.000000 0.272697 0.500000
Si Si5 0.905265 0.948484 0.889120
Si Si6 0.378689 0.157774 0.331369
O O1 0.692842 0.371316 0.774637
O O2 0.945095 0.354200 0.797320
O O3 0.677643 0.317427 0.029568
O O4 0.718127 0.406979 0.026526
O O5 0.490022 0.341911 0.337210
O O6 0.470374 0.429871 0.297695
O O7 0.227260 0.383783 0.550293
O O8 0.287136 0.178816 0.238037
O O9 0.079796 0.241564 0.327732
O O10 0.882428 0.305325 0.468772
O O11 0.845330 0.000000 0.889601
O O12 0.000000 0.950206 0.000000
#
# Coordination Sequence:
#
# PCOD9189992 Si02
#       6
#     8   8   8   4   8   8
#     4  10  21  38  61  86 117 153 188 242 294 337
#     4  10  19  39  62  83 117 156 188 237 292 341
#     4  11  23  38  59  81 111 161 198 233 289 343
#     4  12  24  38  60  78 118 154 206 246 280 336
#     4   8  16  33  61  91 115 148 192 229 278 356
#     4  12  22  39  57  84 118 153 195 246 293 329
#
# _framework density 20.183933
#
# number of rings (size 3 to 8) (size 9 to 14) (size 15 to 20)
#    0.000    1.636    3.636    2.727    0.000    0.727 
#    0.000    2.727    0.000   21.818    0.000    0.000 
#    0.000    0.000    0.000    0.000    0.000    0.000 
#
# Total GULP energy -122770.606448 kJ/mol
# GULP energy per Si atom -5580.482111 kJ/mol
# Density = 2.013799 g / cm^3
# Si number density = 20.183933 Si / 1000 Ang^3
#
#
#
# Elastic Constant Matrix: (Units=GPa)
#
#
# Indices 1 2 3 4 5 6 
#
# 1 78.6869 8.9147 -1.4546 0.0000 -15.4061 0.0000
# 2 8.9147 86.9258 25.1094 0.0000 -20.7374 0.0000
# 3 -1.4546 25.1094 80.1920 0.0000 -31.1643 0.0000
# 4 0.0000 0.0000 0.0000 15.4656 0.0000 -8.0010
# 5 -15.4061 -20.7374 -31.1643 0.0000 35.8367 0.0000
# 6 0.0000 0.0000 0.0000 -8.0010 0.0000 2.8474
#
#
#
# Elastic Compliance Matrix: (Units=1/GPa)
#
#
# Indices 1 2 3 4 5 6 
#
# 1 0.014737 -0.000394 0.004175 0.000000 0.009738 0.000000
# 2 -0.000394 0.013527 -0.001913 0.000000 0.005995 0.000000
# 3 0.004175 -0.001913 0.020259 0.000000 0.018305 0.000000
# 4 0.000000 0.000000 0.000000 -0.142522 0.000000 -0.400474
# 5 0.009738 0.005995 0.018305 0.000000 0.051478 0.000000
# 6 0.000000 0.000000 0.000000 -0.400474 0.000000 -0.774102
#
#
# Mechanical properties :
#
#
# Convention : Reuss Voigt Hill
#
# Bulk Modulus (GPa) = 19.13561 34.54929 26.84245
# Shear Modulus (GPa) = -6.22712 25.04564 9.40926
#
# Velocity S-wave (km/s) = -1.75838 3.52642 2.16145
# Velocity P-wave (km/s) = 2.31920 5.80820 4.42233
#
# Compressibility (1/GPa) = 0.05225858
#
# Stress axis : x y z
#
# Youngs Moduli (GPa) = 67.85608 73.92512 49.36169
#
# Poissons Ratio (x) = 0.02914 -0.20610
# Poissons Ratio (y) = 0.02675 0.09444
# Poissons Ratio (z) = -0.28331 0.14143
#
# Static dielectric constant tensor:
#      x y z
#    x 1.699630 0.000000 0.032810 
#    y 0.000000 1.725580 0.000000 
#    z 0.032810 0.000000 1.796210 
# 
# From -- ./inp_files/42073.got.cif
#   From: 2010.05.17/outbox.cif.g08.bks.cpg/sg12_22_cif.got.tgz:42073.got - 2010.06.03 13:09:07.
