data_PCOD9189614
_publ_section_title
;
Structure prediction by ZEFSAII (Michael W. Deem and Ramdas Pophale) SiO2 
 PCOD9189614
Probable space group: C 2/M
;
_chemical_formula_sum "Si O2"
_cell_formula_units_Z 56
_cell_length_a 22.824471
_cell_length_b 26.687499
_cell_length_c 18.005987
_cell_angle_alpha 90.000000
_cell_angle_beta 163.745621
_cell_angle_gamma 90.000000
_cell_volume 3069.955870
_symmetry_space_group_name_H-M "C 2/M"
_symmetry_group_IT_number 12
_symmetry_cell_setting 'monoclinic'
loop_
_space_group_symop_operation_xyz
x,y,z
-x,y,-z
-x,-y,-z
x,-y,z
1/2+x,1/2+y,z
1/2-x,1/2+y,-z
1/2-x,1/2-y,-z
1/2+x,1/2-y,z
loop_
_atom_site_type_symbol
_atom_site_label
_atom_site_fract_x
_atom_site_fract_y
_atom_site_fract_z
Si Si1 0.486443 0.201242 0.398344
Si Si2 0.714826 0.558621 0.722996
Si Si3 0.599989 0.941207 0.305982
Si Si4 0.761117 0.767554 0.393988
Si Si5 0.638688 0.128386 0.886197
Si Si6 0.085972 0.727029 0.913054
Si Si7 0.128039 0.116743 0.473619
O O1 0.500000 0.184444 0.500000
O O2 0.689363 0.230961 0.614247
O O3 0.429801 0.157220 0.271868
O O4 0.298636 0.241909 0.167326
O O5 0.500000 0.576165 0.500000
O O6 0.689909 0.500000 0.674396
O O7 0.735837 0.587722 0.672389
O O8 0.905366 0.563027 0.011599
O O9 0.513966 0.916573 0.276624
O O10 0.781511 0.907043 0.491720
O O11 0.654599 0.000000 0.378486
O O12 0.532849 0.767161 0.153477
O O13 0.817802 0.825156 0.449701
O O14 0.926324 0.748982 0.657526
O O15 0.624517 0.169942 0.935018
O O16 0.877991 0.111007 0.171735
#
# Coordination Sequence:
#
# PCOD9189614 Si02
#       7
#     8   8   8   8   8   8   8
#     4  11  23  38  57  86 119 149 189 240 288 337
#     4  10  21  36  53  79 117 149 180 230 280 328
#     4  11  24  39  56  83 116 150 192 236 284 338
#     4  10  20  34  58  80 114 149 186 227 277 333
#     4  11  21  38  61  82 112 153 195 235 282 333
#     4  10  19  38  56  83 113 149 186 232 278 332
#     4  12  20  34  58  82 110 156 190 225 271 338
#
# _framework density 18.241306000000002
#
# number of rings (size 3 to 8) (size 9 to 14) (size 15 to 20)
#    0.000    1.286    5.714    1.714    0.000    4.000 
#    2.571    0.000    0.000    0.429    0.000    1.000 
#    0.000    0.000    0.000    0.000    0.000    0.000 
#
# Total GULP energy -156415.535267 kJ/mol
# GULP energy per Si atom -5586.269117 kJ/mol
# Density = 1.819979 g / cm^3
# Si number density = 18.241306 Si / 1000 Ang^3
#
#
#
# Elastic Constant Matrix: (Units=GPa)
#
#
# Indices 1 2 3 4 5 6 
#
# 1 95.0252 28.9119 25.5934 0.0005 20.6967 0.0026
# 2 28.9119 62.0046 10.1833 -0.0001 3.4434 0.0007
# 3 25.5934 10.1833 51.4375 0.0055 18.0206 0.0105
# 4 0.0005 -0.0001 0.0055 -2.9086 0.0013 -23.1995
# 5 20.6967 3.4434 18.0206 0.0013 28.1305 0.0027
# 6 0.0026 0.0007 0.0105 -23.1995 0.0027 -16.8966
#
#
#
# Elastic Compliance Matrix: (Units=1/GPa)
#
#
# Indices 1 2 3 4 5 6 
#
# 1 0.015048 -0.005998 -0.003453 0.000000 -0.008125 -0.000001
# 2 -0.005998 0.019061 -0.001957 0.000000 0.003334 0.000000
# 3 -0.003453 -0.001957 0.026526 0.000007 -0.014212 0.000005
# 4 0.000000 0.000000 0.000007 0.034548 -0.000001 -0.047436
# 5 -0.008125 0.003334 -0.014212 -0.000001 0.050223 -0.000001
# 6 -0.000001 0.000000 0.000005 -0.047436 -0.000001 0.005947
#
#
# Mechanical properties :
#
#
# Convention : Reuss Voigt Hill
#
# Bulk Modulus (GPa) = 26.44255 37.53828 31.99041
# Shear Modulus (GPa) = 26.76978 11.25029 19.01004
#
# Velocity S-wave (km/s) = 3.83500 2.48614 3.23173
# Velocity P-wave (km/s) = 5.84269 5.37258 5.61256
#
# Compressibility (1/GPa) = 0.03781784
#
# Stress axis : x y z
#
# Youngs Moduli (GPa) = 66.45234 52.46286 37.69892
#
# Poissons Ratio (x) = 0.31470 0.13019
# Poissons Ratio (y) = 0.39861 0.07377
# Poissons Ratio (z) = 0.22949 0.10267
#
# Static dielectric constant tensor:
#      x y z
#    x 1.671780 0.000000 0.031180 
#    y 0.000000 1.617360 0.000000 
#    z 0.031180 0.000000 1.624630 
# 
# From -- ./inp_files/219075.got.cif
#   From: 2010.05.17/outbox.cif.g08.bks.cpg/sg12_110_cif.got.tgz:219075.got - 2010.06.03 13:09:07.
