data_PCOD9189485
_publ_section_title
;
Structure prediction by ZEFSAII (Michael W. Deem and Ramdas Pophale) SiO2 
 PCOD9189485
Probable space group: C 2/M
;
_chemical_formula_sum "Si O2"
_cell_formula_units_Z 56
_cell_length_a 17.349858
_cell_length_b 12.758190
_cell_length_c 15.156333
_cell_angle_alpha 90.000000
_cell_angle_beta 61.497060
_cell_angle_gamma 90.000000
_cell_volume 2948.258325
_symmetry_space_group_name_H-M "C 2/M"
_symmetry_group_IT_number 12
_symmetry_cell_setting 'monoclinic'
loop_
_space_group_symop_operation_xyz
x,y,z
-x,y,-z
-x,-y,-z
x,-y,z
1/2+x,1/2+y,z
1/2-x,1/2+y,-z
1/2-x,1/2-y,-z
1/2+x,1/2-y,z
loop_
_atom_site_type_symbol
_atom_site_label
_atom_site_fract_x
_atom_site_fract_y
_atom_site_fract_z
Si Si1 0.062902 0.118263 0.600572
Si Si2 0.721049 0.701214 0.924188
Si Si3 0.685315 0.879433 0.803878
Si Si4 0.887413 0.379341 0.724112
Si Si5 0.122531 0.826523 0.372334
Si Si6 0.044283 0.885830 0.070919
Si Si7 0.458745 0.783644 0.245369
O O1 0.104932 0.146196 0.483219
O O2 0.086279 0.204036 0.660730
O O3 0.957545 0.125064 0.641014
O O4 0.086550 0.000000 0.612438
O O5 0.682181 0.794094 0.883986
O O6 0.801851 0.649021 0.828939
O O7 0.750000 0.750000 0.000000
O O8 0.646041 0.621155 0.992422
O O9 0.783133 0.867110 0.710173
O O10 0.612095 0.847676 0.772041
O O11 0.672769 0.000000 0.839235
O O12 0.886473 0.500000 0.698127
O O13 0.884777 0.297273 0.644755
O O14 0.972859 0.353718 0.736806
O O15 0.013850 0.792171 0.150163
O O16 0.021922 0.000000 0.122046
O O17 0.000000 0.875946 0.000000
#
# Coordination Sequence:
#
# PCOD9189485 Si02
#       7
#     8   8   8   8   8   8   8
#     4  10  19  37  64  88 114 150 190 243 289 329
#     4  11  22  40  59  86 114 145 198 242 278 345
#     4  11  23  39  59  83 117 153 186 234 290 343
#     4  10  21  38  59  84 117 154 190 237 287 336
#     4   9  20  38  60  87 116 144 197 238 281 346
#     4  11  22  39  59  81 116 154 187 238 289 332
#     4  11  22  38  56  86 120 149 197 231 279 353
#
# _framework density 18.994264000000001
#
# number of rings (size 3 to 8) (size 9 to 14) (size 15 to 20)
#    0.000    1.571    2.857    3.000    0.000    1.714 
#    0.000    7.857    0.000    0.000    0.000    0.000 
#    0.000    0.000    0.000    0.000    0.000    0.000 
#
# Total GULP energy -156347.762288 kJ/mol
# GULP energy per Si atom -5583.848653 kJ/mol
# Density = 1.895103 g / cm^3
# Si number density = 18.994264 Si / 1000 Ang^3
#
#
#
# Elastic Constant Matrix: (Units=GPa)
#
#
# Indices 1 2 3 4 5 6 
#
# 1 49.6601 4.5457 -3.6093 0.0000 3.5497 0.0000
# 2 4.5457 119.1765 3.3643 0.0000 6.4363 0.0000
# 3 -3.6093 3.3643 32.5018 0.0000 -0.2479 0.0000
# 4 0.0000 0.0000 0.0000 14.7930 0.0000 -2.8457
# 5 3.5497 6.4363 -0.2479 0.0000 23.2360 0.0000
# 6 0.0000 0.0000 0.0000 -2.8457 0.0000 14.5991
#
#
#
# Elastic Compliance Matrix: (Units=1/GPa)
#
#
# Indices 1 2 3 4 5 6 
#
# 1 0.020579 -0.000693 0.002335 0.000000 -0.002927 0.000000
# 2 -0.000693 0.008568 -0.000981 0.000000 -0.002278 0.000000
# 3 0.002335 -0.000981 0.031130 0.000000 0.000247 0.000000
# 4 0.000000 0.000000 0.000000 0.070233 0.000000 0.013690
# 5 -0.002927 -0.002278 0.000247 0.000000 0.044117 0.000000
# 6 0.000000 0.000000 0.000000 0.013690 0.000000 0.071166
#
#
# Mechanical properties :
#
#
# Convention : Reuss Voigt Hill
#
# Bulk Modulus (GPa) = 16.23404 23.32664 19.78034
# Shear Modulus (GPa) = 18.86754 23.66149 21.26451
#
# Velocity S-wave (km/s) = 3.15513 3.53330 3.34956
# Velocity P-wave (km/s) = 4.67317 5.38081 5.03943
#
# Compressibility (1/GPa) = 0.06159897
#
# Stress axis : x y z
#
# Youngs Moduli (GPa) = 48.59275 116.71249 32.12311
#
# Poissons Ratio (x) = 0.08085 -0.07500
# Poissons Ratio (y) = 0.03366 0.03152
# Poissons Ratio (z) = -0.11345 0.11452
#
# Static dielectric constant tensor:
#      x y z
#    x 1.613180 0.000000 -0.000740 
#    y 0.000000 1.732760 0.000000 
#    z -0.000740 0.000000 1.635820 
# 
# From -- ./inp_files/223712.got.cif
#   From: 2010.05.17/outbox.cif.g08.bks.cpg/sg12_112_cif.got.tgz:223712.got - 2010.06.03 13:09:07.
