data_PCOD9189994
_publ_section_title
;
Structure prediction by ZEFSAII (Michael W. Deem and Ramdas Pophale) SiO2 
 PCOD9189994
Probable space group: C 2/M
;
_chemical_formula_sum "Si O2"
_cell_formula_units_Z 40
_cell_length_a 13.604492
_cell_length_b 17.230918
_cell_length_c 14.049969
_cell_angle_alpha 90.000000
_cell_angle_beta 31.340453
_cell_angle_gamma 90.000000
_cell_volume 1713.055977
_symmetry_space_group_name_H-M "C 2/M"
_symmetry_group_IT_number 12
_symmetry_cell_setting 'monoclinic'
loop_
_space_group_symop_operation_xyz
x,y,z
-x,y,-z
-x,-y,-z
x,-y,z
1/2+x,1/2+y,z
1/2-x,1/2+y,-z
1/2-x,1/2-y,-z
1/2+x,1/2-y,z
loop_
_atom_site_type_symbol
_atom_site_label
_atom_site_fract_x
_atom_site_fract_y
_atom_site_fract_z
Si Si1 0.220235 0.500000 0.487319
Si Si2 0.667462 0.500000 0.066890
Si Si3 0.155779 0.835409 0.569266
Si Si4 0.292330 0.338400 0.985672
Si Si5 0.784421 0.835889 0.203620
Si Si6 0.000000 0.790986 0.500000
Si Si7 0.307175 0.000000 0.737377
O O1 0.446787 0.500000 0.275256
O O2 0.215821 0.412971 0.539052
O O3 0.025674 0.500000 0.586953
O O4 0.763455 0.419224 0.019494
O O5 0.683887 0.500000 0.937564
O O6 0.250000 0.750000 0.500000
O O7 0.017319 0.840147 0.776036
O O8 0.034404 0.835151 0.570970
O O9 0.250000 0.250000 0.000000
O O10 0.204193 0.345122 0.163111
O O11 0.677583 0.766679 0.341376
O O12 0.749997 0.921898 0.271009
O O13 0.000000 0.818784 0.000000
#
# Coordination Sequence:
#
# PCOD9189994 Si02
#       7
#     4   4   8   8   8   4   4
#     4  10  22  40  63  94 126 167 216 266 313 380
#     4   8  20  35  59  91 115 154 218 250 310 378
#     4  11  23  41  66  95 127 170 221 262 322 388
#     4  10  19  39  62  83 121 165 202 258 312 370
#     4  11  23  39  60  95 127 162 213 267 329 387
#     4  12  24  40  62  96 130 168 214 267 318 381
#     4  10  21  39  64  87 126 165 208 266 328 381
#
# _framework density 23.350083000000001
#
# number of rings (size 3 to 8) (size 9 to 14) (size 15 to 20)
#    0.000    1.600    2.000    2.700    2.800    4.000 
#    0.000    3.000    0.000    0.000    0.000   10.500 
#    0.000    0.000    0.000    0.000    0.000    0.000 
#
# Total GULP energy -111351.952904 kJ/mol
# GULP energy per Si atom -5567.597645 kJ/mol
# Density = 2.329694 g / cm^3
# Si number density = 23.350083 Si / 1000 Ang^3
#
#
#
# Elastic Constant Matrix: (Units=GPa)
#
#
# Indices 1 2 3 4 5 6 
#
# 1 80.2534 27.9213 11.3226 -0.0026 -6.5253 0.0027
# 2 27.9213 212.1614 9.2975 -0.0031 -20.7169 0.0044
# 3 11.3226 9.2975 101.5575 -0.0020 -4.7529 0.0023
# 4 -0.0026 -0.0031 -0.0020 37.4696 0.0021 -8.4247
# 5 -6.5253 -20.7169 -4.7529 0.0021 32.1124 -0.0029
# 6 0.0027 0.0044 0.0023 -8.4247 -0.0029 20.1021
#
#
#
# Elastic Compliance Matrix: (Units=1/GPa)
#
#
# Indices 1 2 3 4 5 6 
#
# 1 0.013301 -0.001547 -0.001270 0.000000 0.001517 -0.000001
# 2 -0.001547 0.005220 -0.000164 0.000000 0.003029 0.000000
# 3 -0.001270 -0.000164 0.010056 0.000000 0.001125 -0.000001
# 4 0.000000 0.000000 0.000000 0.029465 -0.000001 0.012349
# 5 0.001517 0.003029 0.001125 -0.000001 0.033570 0.000004
# 6 -0.000001 0.000000 -0.000001 0.012349 0.000004 0.054921
#
#
# Mechanical properties :
#
#
# Convention : Reuss Voigt Hill
#
# Bulk Modulus (GPa) = 44.21739 54.56169 49.38954
# Shear Modulus (GPa) = 31.24366 40.96554 36.10460
#
# Velocity S-wave (km/s) = 3.66191 4.19311 3.93648
# Velocity P-wave (km/s) = 6.07102 6.84547 6.46984
#
# Compressibility (1/GPa) = 0.02261554
#
# Stress axis : x y z
#
# Youngs Moduli (GPa) = 75.18110 191.57476 99.44429
#
# Poissons Ratio (x) = 0.29631 0.12633
# Poissons Ratio (y) = 0.11628 0.01628
# Poissons Ratio (z) = 0.09551 0.03136
#
# Static dielectric constant tensor:
#      x y z
#    x 2.021580 0.000010 0.009560 
#    y 0.000010 1.796840 -0.000010 
#    z 0.009560 -0.000010 1.935840 
# 
# From -- ./inp_files/216678.got.cif
#   From: 2010.05.17/outbox.cif.g08.bks.cpg/sg12_109_cif.got.tgz:216678.got - 2010.06.03 13:09:07.
