data_PCOD9189066
_publ_section_title
;
Structure prediction by ZEFSAII (Michael W. Deem and Ramdas Pophale) SiO2 
 PCOD9189066
Probable space group: C 2/M
;
_chemical_formula_sum "Si O2"
_cell_formula_units_Z 50
_cell_length_a 17.464870
_cell_length_b 23.352042
_cell_length_c 14.826448
_cell_angle_alpha 90.000000
_cell_angle_beta 156.760559
_cell_angle_gamma 90.000000
_cell_volume 2385.922776
_symmetry_space_group_name_H-M "C 2/M"
_symmetry_group_IT_number 12
_symmetry_cell_setting 'monoclinic'
loop_
_space_group_symop_operation_xyz
x,y,z
-x,y,-z
-x,-y,-z
x,-y,z
1/2+x,1/2+y,z
1/2-x,1/2+y,-z
1/2-x,1/2-y,-z
1/2+x,1/2-y,z
loop_
_atom_site_type_symbol
_atom_site_label
_atom_site_fract_x
_atom_site_fract_y
_atom_site_fract_z
Si Si1 0.158839 0.432865 0.892693
Si Si2 0.939910 0.746084 0.287988
Si Si3 0.886386 0.167445 0.075543
Si Si4 0.799321 0.912557 0.238054
Si Si5 0.206293 0.302958 0.249916
Si Si6 0.500000 0.000000 0.000000
Si Si7 0.667478 0.845448 0.413866
O O1 0.141781 0.500000 0.853289
O O2 0.952044 0.403414 0.693933
O O3 0.268733 0.391872 0.940948
O O4 0.295237 0.423834 0.127830
O O5 0.116445 0.760588 0.543768
O O6 0.039276 0.704683 0.320113
O O7 0.882414 0.803619 0.171835
O O8 0.750551 0.714370 0.121597
O O9 0.115609 0.158371 0.309237
O O10 0.760336 0.848642 0.231448
O O11 0.000000 0.930434 0.500000
O O12 0.628617 0.950828 0.090426
O O13 0.183717 0.334640 0.323711
O O14 0.000000 0.277328 0.000000
#
# Coordination Sequence:
#
# PCOD9189066 Si02
#       7
#     8   8   8   8   8   2   8
#     4  11  22  34  48  75 106 140 183 217 246 301
#     4   9  19  34  55  72  94 131 182 223 264 313
#     4   9  18  34  55  71  92 133 183 219 266 301
#     4  12  23  36  47  66 103 144 183 217 251 289
#     4  11  19  33  51  75 102 133 175 220 264 304
#     4  12  22  36  44  58  92 148 190 208 240 286
#     4  10  19  37  54  70  98 139 178 220 266 306
#
# _framework density 20.956253
#
# number of rings (size 3 to 8) (size 9 to 14) (size 15 to 20)
#    0.000    1.600    3.200    4.080    0.000    0.640 
#    2.880    0.000    0.000    0.000    0.000    0.000 
#    0.000   10.240    0.000   30.080    0.000    0.320 
#
# Total GULP energy -139310.200102 kJ/mol
# GULP energy per Si atom -5572.408004 kJ/mol
# Density = 2.090856 g / cm^3
# Si number density = 20.956253 Si / 1000 Ang^3
#
#
#
# Elastic Constant Matrix: (Units=GPa)
#
#
# Indices 1 2 3 4 5 6 
#
# 1 27.8663 12.7912 -7.8967 0.0004 9.6985 -0.0003
# 2 12.7912 127.1152 43.7844 0.0003 9.5803 -0.0002
# 3 -7.8967 43.7844 128.5560 0.0004 3.0199 -0.0004
# 4 0.0004 0.0003 0.0004 295.8691 0.0005 -243.9301
# 5 9.6985 9.5803 3.0199 0.0005 22.4379 -0.0005
# 6 -0.0003 -0.0002 -0.0004 -243.9301 -0.0005 253.9137
#
#
#
# Elastic Compliance Matrix: (Units=1/GPa)
#
#
# Indices 1 2 3 4 5 6 
#
# 1 0.045963 -0.004937 0.004938 0.000000 -0.018423 0.000000
# 2 -0.004937 0.009710 -0.003575 0.000000 -0.001531 0.000000
# 3 0.004938 -0.003575 0.009343 0.000000 -0.001866 0.000000
# 4 0.000000 0.000000 0.000000 0.016252 0.000000 0.015613
# 5 -0.018423 -0.001531 -0.001866 0.000000 0.053435 0.000000
# 6 0.000000 0.000000 0.000000 0.015613 0.000000 0.018938
#
#
# Mechanical properties :
#
#
# Convention : Reuss Voigt Hill
#
# Bulk Modulus (GPa) = 17.28056 42.32169 29.80112
# Shear Modulus (GPa) = 27.76544 130.10139 78.93341
#
# Velocity S-wave (km/s) = 3.64390 7.88778 6.14391
# Velocity P-wave (km/s) = 5.09587 10.15851 8.03627
#
# Compressibility (1/GPa) = 0.05786851
#
# Stress axis : x y z
#
# Youngs Moduli (GPa) = 21.75648 102.98322 107.02892
#
# Poissons Ratio (x) = 0.50847 -0.52848
# Poissons Ratio (y) = 0.10742 0.38258
# Poissons Ratio (z) = -0.10743 0.36812
#
# Static dielectric constant tensor:
#      x y z
#    x 1.805320 0.000000 -0.017510 
#    y 0.000000 1.772410 0.000000 
#    z -0.017510 0.000000 1.805690 
# 
# From -- ./inp_files/286290.got.cif
#   From: 2010.05.17/outbox.cif.g08.bks.cpg/sg12_144_cif.got.tgz:286290.got - 2010.06.03 13:09:07.
