data_PCOD9189931
_publ_section_title
;
Structure prediction by ZEFSAII (Michael W. Deem and Ramdas Pophale) SiO2 
 PCOD9189931
Probable space group: C 2/M
;
_chemical_formula_sum "Si O2"
_cell_formula_units_Z 28
_cell_length_a 23.129640
_cell_length_b 12.082729
_cell_length_c 7.513963
_cell_angle_alpha 90.000000
_cell_angle_beta 143.780721
_cell_angle_gamma 90.000000
_cell_volume 1240.795371
_symmetry_space_group_name_H-M "C 2/M"
_symmetry_group_IT_number 12
_symmetry_cell_setting 'monoclinic'
loop_
_space_group_symop_operation_xyz
x,y,z
-x,y,-z
-x,-y,-z
x,-y,z
1/2+x,1/2+y,z
1/2-x,1/2+y,-z
1/2-x,1/2-y,-z
1/2+x,1/2-y,z
loop_
_atom_site_type_symbol
_atom_site_label
_atom_site_fract_x
_atom_site_fract_y
_atom_site_fract_z
Si Si1 0.515330 0.500000 0.331780
Si Si2 0.669638 0.874205 0.490599
Si Si3 0.134572 0.824880 0.175079
Si Si4 0.398475 0.000000 0.351613
Si Si5 0.213978 0.000000 0.646412
O O1 0.500000 0.500000 0.500000
O O2 0.629198 0.500000 0.581856
O O3 0.460962 0.393244 0.113869
O O4 0.782927 0.831798 0.775529
O O5 0.617416 0.793807 0.220461
O O6 0.620498 0.894991 0.561439
O O7 0.671006 0.000000 0.422055
O O8 0.189179 0.893908 0.465494
O O9 0.500000 0.000000 0.500000
O O10 0.315897 0.000000 0.996679
#
# Coordination Sequence:
#
# PCOD9189931 Si02
#       5
#     4   8   8   4   4
#     4  11  21  39  68 101 137 171 231 298 352 405
#     4   9  19  40  67  96 133 186 226 279 346 414
#     4  10  19  38  69 101 134 177 228 288 348 419
#     4  10  22  43  66  98 145 183 231 282 345 419
#     4  11  21  38  64  97 132 178 235 288 344 404
#
# _framework density 22.566171000000001
#
# number of rings (size 3 to 8) (size 9 to 14) (size 15 to 20)
#    0.857    1.143    2.857    3.429    0.000    1.143 
#    0.000   15.714    0.000    0.857    0.000    0.000 
#    0.000    0.000    0.000    0.000    0.000    0.000 
#
# Total GULP energy -78133.445225 kJ/mol
# GULP energy per Si atom -5580.960373 kJ/mol
# Density = 2.251481 g / cm^3
# Si number density = 22.566171 Si / 1000 Ang^3
#
#
#
# Elastic Constant Matrix: (Units=GPa)
#
#
# Indices 1 2 3 4 5 6 
#
# 1 165.3693 0.6642 47.3311 0.0000 19.6655 0.0000
# 2 0.6642 89.6751 20.8666 0.0000 -13.5172 0.0000
# 3 47.3311 20.8666 128.1967 0.0000 13.1514 0.0000
# 4 0.0000 0.0000 0.0000 -6.4276 0.0000 6.0724
# 5 19.6655 -13.5172 13.1514 0.0000 40.5432 0.0000
# 6 0.0000 0.0000 0.0000 6.0724 0.0000 21.5051
#
#
#
# Elastic Compliance Matrix: (Units=1/GPa)
#
#
# Indices 1 2 3 4 5 6 
#
# 1 0.007028 0.000099 -0.002343 0.000000 -0.002616 0.000000
# 2 0.000099 0.012498 -0.002579 0.000000 0.004955 0.000000
# 3 -0.002343 -0.002579 0.009369 0.000000 -0.002763 0.000000
# 4 0.000000 0.000000 0.000000 -0.122816 0.000000 0.034680
# 5 -0.002616 0.004955 -0.002763 0.000000 0.028482 0.000000
# 6 0.000000 0.000000 0.000000 0.034680 0.000000 0.036708
#
#
# Mechanical properties :
#
#
# Convention : Reuss Voigt Hill
#
# Bulk Modulus (GPa) = 51.95153 57.88501 54.91827
# Shear Modulus (GPa) = -394.65767 32.08276 -181.28746
#
# Velocity S-wave (km/s) = -13.23891 3.77466 -8.97276
# Velocity P-wave (km/s) = 14.51275 6.68613 9.10811
#
# Compressibility (1/GPa) = 0.01924871
#
# Stress axis : x y z
#
# Youngs Moduli (GPa) = 142.28240 80.01461 106.73960
#
# Poissons Ratio (x) = -0.00789 0.25004
# Poissons Ratio (y) = -0.01404 0.27529
# Poissons Ratio (z) = 0.33330 0.20636
#
# Static dielectric constant tensor:
#      x y z
#    x 1.951570 0.000000 0.050620 
#    y 0.000000 1.924520 0.000000 
#    z 0.050620 0.000000 1.791080 
# 
# From -- ./inp_files/102994.got.cif
#   From: 2010.05.17/outbox.cif.g08.bks.cpg/sg12_52_cif.got.tgz:102994.got - 2010.06.03 13:09:07.
