data_PCOD9189815
_publ_section_title
;
Structure prediction by ZEFSAII (Michael W. Deem and Ramdas Pophale) SiO2 
 PCOD9189815
Probable space group: C 2/M
;
_chemical_formula_sum "Si O2"
_cell_formula_units_Z 48
_cell_length_a 22.829934
_cell_length_b 13.823907
_cell_length_c 12.430409
_cell_angle_alpha 90.000000
_cell_angle_beta 36.059916
_cell_angle_gamma 90.000000
_cell_volume 2309.212863
_symmetry_space_group_name_H-M "C 2/M"
_symmetry_group_IT_number 12
_symmetry_cell_setting 'monoclinic'
loop_
_space_group_symop_operation_xyz
x,y,z
-x,y,-z
-x,-y,-z
x,-y,z
1/2+x,1/2+y,z
1/2-x,1/2+y,-z
1/2-x,1/2-y,-z
1/2+x,1/2-y,z
loop_
_atom_site_type_symbol
_atom_site_label
_atom_site_fract_x
_atom_site_fract_y
_atom_site_fract_z
Si Si1 0.540789 0.204356 0.628889
Si Si2 0.897976 0.710261 0.222409
Si Si3 0.738650 0.718235 0.294257
Si Si4 0.538549 0.000000 0.320153
Si Si5 0.884743 0.500000 0.184627
Si Si6 0.277404 0.500000 0.981406
Si Si7 0.277654 0.500000 0.729284
Si Si8 0.337510 0.709214 0.943263
O O1 0.573780 0.238255 0.699288
O O2 0.642183 0.217611 0.412297
O O3 0.501989 0.095193 0.679033
O O4 0.446292 0.268248 0.736118
O O5 0.802359 0.753967 0.302910
O O6 0.862292 0.598323 0.278388
O O7 0.000000 0.718258 0.000000
O O8 0.697378 0.606817 0.356112
O O9 0.819735 0.731866 0.079664
O O10 0.500000 0.000000 0.500000
O O11 0.657781 0.000000 0.152347
O O12 0.838415 0.500000 0.133855
O O13 0.000000 0.500000 0.000000
O O14 0.305787 0.500000 0.812140
O O15 0.318578 0.595315 0.977765
O O16 0.250000 0.750000 0.000000
#
# Coordination Sequence:
#
# PCOD9189815 Si02
#       8
#     8   8   8   4   4   4   4   8
#     4  12  25  40  67  94 129 170 215 263 324 377
#     4  10  19  38  63  93 125 164 209 265 322 376
#     4  11  23  41  65  96 130 163 216 266 320 382
#     4  12  25  39  62  95 129 171 214 266 320 379
#     4   8  17  26  59  91 117 145 205 259 319 359
#     4  12  24  41  64  86 132 167 214 253 314 374
#     4  10  20  38  60  89 121 166 204 270 306 370
#     4  12  24  42  64  93 129 171 208 258 319 384
#
# _framework density 20.786303
#
# number of rings (size 3 to 8) (size 9 to 14) (size 15 to 20)
#    0.000    1.000    5.000    2.000    4.667    0.667 
#    0.000    0.833    0.000    4.000    0.000    0.000 
#    0.000    0.000    0.000    0.000    0.000    0.000 
#
# Total GULP energy -133770.059225 kJ/mol
# GULP energy per Si atom -5573.752468 kJ/mol
# Density = 2.073899 g / cm^3
# Si number density = 20.786303 Si / 1000 Ang^3
#
#
#
# Elastic Constant Matrix: (Units=GPa)
#
#
# Indices 1 2 3 4 5 6 
#
# 1 87.5600 3.6399 11.2914 0.0000 -13.0138 0.0000
# 2 3.6399 106.5454 5.1641 0.0000 -26.0891 0.0000
# 3 11.2914 5.1641 55.3553 0.0000 -23.6374 0.0000
# 4 0.0000 0.0000 0.0000 20.8642 0.0000 -3.3917
# 5 -13.0138 -26.0891 -23.6374 0.0000 44.1782 0.0000
# 6 0.0000 0.0000 0.0000 -3.3917 0.0000 23.5388
#
#
#
# Elastic Compliance Matrix: (Units=1/GPa)
#
#
# Indices 1 2 3 4 5 6 
#
# 1 0.012023 0.000424 -0.001131 0.000000 0.003187 0.000000
# 2 0.000424 0.011210 0.002265 0.000000 0.007957 0.000000
# 3 -0.001131 0.002265 0.023996 0.000000 0.013843 0.000000
# 4 0.000000 0.000000 0.000000 0.049079 0.000000 0.007072
# 5 0.003187 0.007957 0.013843 0.000000 0.035680 0.000000
# 6 0.000000 0.000000 0.000000 0.007072 0.000000 0.043502
#
#
# Mechanical properties :
#
#
# Convention : Reuss Voigt Hill
#
# Bulk Modulus (GPa) = 19.86263 32.18349 26.02306
# Shear Modulus (GPa) = 26.43360 33.00729 29.72044
#
# Velocity S-wave (km/s) = 3.56994 3.98921 3.78538
# Velocity P-wave (km/s) = 5.15451 6.06095 5.62601
#
# Compressibility (1/GPa) = 0.05034580
#
# Stress axis : x y z
#
# Youngs Moduli (GPa) = 83.17645 89.20819 41.67393
#
# Poissons Ratio (x) = -0.03787 0.04714
# Poissons Ratio (y) = -0.03531 -0.09441
# Poissons Ratio (z) = 0.09408 -0.20209
#
# Static dielectric constant tensor:
#      x y z
#    x 1.795140 0.000000 0.062960 
#    y 0.000000 1.837500 0.000000 
#    z 0.062960 0.000000 1.861030 
# 
# From -- ./inp_files/167611.got.cif
#   From: 2010.05.17/outbox.cif.g08.bks.cpg/sg12_84_cif.got.tgz:167611.got - 2010.06.03 13:09:07.
