data_PCOD9189576
_publ_section_title
;
Structure prediction by ZEFSAII (Michael W. Deem and Ramdas Pophale) SiO2 
 PCOD9189576
Probable space group: C 2/M
;
_chemical_formula_sum "Si O2"
_cell_formula_units_Z 40
_cell_length_a 13.255242
_cell_length_b 19.774110
_cell_length_c 7.333722
_cell_angle_alpha 90.000000
_cell_angle_beta 114.153350
_cell_angle_gamma 90.000000
_cell_volume 1753.960567
_symmetry_space_group_name_H-M "C 2/M"
_symmetry_group_IT_number 12
_symmetry_cell_setting 'monoclinic'
loop_
_space_group_symop_operation_xyz
x,y,z
-x,y,-z
-x,-y,-z
x,-y,z
1/2+x,1/2+y,z
1/2-x,1/2+y,-z
1/2-x,1/2-y,-z
1/2+x,1/2-y,z
loop_
_atom_site_type_symbol
_atom_site_label
_atom_site_fract_x
_atom_site_fract_y
_atom_site_fract_z
Si Si1 0.061039 0.216682 0.304406
Si Si2 0.973979 0.925760 0.262752
Si Si3 0.782771 0.326140 0.616252
Si Si4 0.600243 0.835147 0.678207
Si Si5 0.789318 0.423992 0.931997
O O1 0.136698 0.267936 0.242152
O O2 0.154304 0.194140 0.523984
O O3 0.021139 0.143395 0.213518
O O4 0.961258 0.266431 0.293351
O O5 0.842732 0.924489 0.135872
O O6 0.000000 0.923129 0.500000
O O7 0.016945 0.000000 0.232259
O O8 0.813838 0.330339 0.425781
O O9 0.804429 0.393653 0.741752
O O10 0.500000 0.872694 0.500000
O O11 0.652823 0.874865 0.882275
O O12 0.831192 0.500000 0.978920
#
# Coordination Sequence:
#
# PCOD9189576 Si02
#       5
#     8   8   8   8   8
#     4  10  21  41  64 101 138 171 229 277 335 402
#     4  10  19  37  67  97 133 174 216 286 344 390
#     4  10  22  41  70 101 133 182 229 280 334 401
#     4  10  24  45  64 101 138 182 224 284 339 389
#     4  11  25  44  70 103 135 180 233 275 341 409
#
# _framework density 22.805530999999998
#
# number of rings (size 3 to 8) (size 9 to 14) (size 15 to 20)
#    0.000    1.800    2.000    1.800    2.800    5.200 
#    3.600    7.000    0.000    3.600    0.000    0.000 
#    0.000    0.000    0.000    0.000    0.000    0.000 
#
# Total GULP energy -111396.398073 kJ/mol
# GULP energy per Si atom -5569.819904 kJ/mol
# Density = 2.275362 g / cm^3
# Si number density = 22.805531 Si / 1000 Ang^3
#
#
#
# Elastic Constant Matrix: (Units=GPa)
#
#
# Indices 1 2 3 4 5 6 
#
# 1 85.4185 70.2685 43.8943 0.0000 10.2273 0.0000
# 2 70.2685 205.0314 62.4744 0.0000 6.2739 0.0000
# 3 43.8943 62.4744 115.0407 0.0000 0.6061 0.0000
# 4 0.0000 0.0000 0.0000-1898.2035 0.0000-1065.9597
# 5 10.2273 6.2739 0.6061 0.0000 23.8034 0.0000
# 6 0.0000 0.0000 0.0000-1065.9597 0.0000 -576.0331
#
#
#
# Elastic Compliance Matrix: (Units=1/GPa)
#
#
# Indices 1 2 3 4 5 6 
#
# 1 0.018835 -0.004879 -0.004502 0.000000 -0.006692 0.000000
# 2 -0.004879 0.007159 -0.002028 0.000000 0.000261 0.000000
# 3 -0.004502 -0.002028 0.011500 0.000000 0.002176 0.000000
# 4 0.000000 0.000000 0.000000 0.013446 0.000000 -0.024881
# 5 -0.006692 0.000261 0.002176 0.000000 0.044762 0.000000
# 6 0.000000 0.000000 0.000000 -0.024881 0.000000 0.044307
#
#
# Mechanical properties :
#
#
# Convention : Reuss Voigt Hill
#
# Bulk Modulus (GPa) = 68.13104 84.30723 76.21914
# Shear Modulus (GPa) = 29.81190 -474.82975 -222.50893
#
# Velocity S-wave (km/s) = 3.61948 -14.44507 -9.88837
# Velocity P-wave (km/s) = 6.88528 15.52950 9.84272
#
# Compressibility (1/GPa) = 0.01467760
#
# Stress axis : x y z
#
# Youngs Moduli (GPa) = 53.09241 139.67997 86.95583
#
# Poissons Ratio (x) = 0.68145 0.39147
# Poissons Ratio (y) = 0.25902 0.17633
# Poissons Ratio (z) = 0.23902 0.28325
#
# Static dielectric constant tensor:
#      x y z
#    x 1.955160 0.000000 -0.034110 
#    y 0.000000 1.910570 0.000000 
#    z -0.034110 0.000000 1.874820 
# 
# From -- ./inp_files/61360.got.cif
#   From: 2010.05.17/outbox.cif.g08.bks.cpg/sg12_31_cif.got.tgz:61360.got - 2010.06.03 13:09:07.
