data_PCOD9189473
_publ_section_title
;
Structure prediction by ZEFSAII (Michael W. Deem and Ramdas Pophale) SiO2 
 PCOD9189473
Probable space group: C 2/M
;
_chemical_formula_sum "Si O2"
_cell_formula_units_Z 40
_cell_length_a 23.835747
_cell_length_b 8.438271
_cell_length_c 9.780275
_cell_angle_alpha 90.000000
_cell_angle_beta 105.058068
_cell_angle_gamma 90.000000
_cell_volume 1899.585755
_symmetry_space_group_name_H-M "C 2/M"
_symmetry_group_IT_number 12
_symmetry_cell_setting 'monoclinic'
loop_
_space_group_symop_operation_xyz
x,y,z
-x,y,-z
-x,-y,-z
x,-y,z
1/2+x,1/2+y,z
1/2-x,1/2+y,-z
1/2-x,1/2-y,-z
1/2+x,1/2-y,z
loop_
_atom_site_type_symbol
_atom_site_label
_atom_site_fract_x
_atom_site_fract_y
_atom_site_fract_z
Si Si1 0.644285 0.688481 0.289939
Si Si2 0.512858 0.693395 0.161042
Si Si3 0.676958 0.816256 0.595998
Si Si4 0.769127 0.685598 0.864599
Si Si5 0.942246 0.187551 0.371611
O O1 0.644770 0.500000 0.310509
O O2 0.577290 0.743383 0.247110
O O3 0.677965 0.765383 0.438363
O O4 0.674972 0.729934 0.166746
O O5 0.513520 0.500000 0.163222
O O6 0.462938 0.740341 0.235023
O O7 0.500000 0.746307 0.000000
O O8 0.718315 0.718136 0.722398
O O9 0.611251 0.784419 0.603963
O O10 0.692960 0.000000 0.618751
O O11 0.780603 0.500000 0.882928
O O12 0.750000 0.750000 0.000000
O O13 0.000000 0.201082 0.500000
O O14 0.926251 0.000000 0.360513
#
# Coordination Sequence:
#
# PCOD9189473 Si02
#       5
#     8   8   8   8   8
#     4  11  22  42  68  96 129 171 219 267 318 383
#     4   9  19  35  60  94 128 166 209 255 315 382
#     4  12  25  42  65  95 130 172 218 269 322 379
#     4  12  27  47  68  95 128 166 211 267 327 388
#     4  10  19  37  63  93 127 167 213 261 317 385
#
# _framework density 21.057221999999999
#
# number of rings (size 3 to 8) (size 9 to 14) (size 15 to 20)
#    0.000    1.200    2.000    4.800    2.800    0.400 
#    0.000    0.000    0.000    3.000    0.000    0.000 
#    0.000    0.000    0.000    0.000    0.000    0.000 
#
# Total GULP energy -111887.406860 kJ/mol
# GULP energy per Si atom -5594.370343 kJ/mol
# Density = 2.100930 g / cm^3
# Si number density = 21.057222 Si / 1000 Ang^3
#
#
#
# Elastic Constant Matrix: (Units=GPa)
#
#
# Indices 1 2 3 4 5 6 
#
# 1 65.9243 -7.6503 9.5011 0.0000 -17.4074 0.0000
# 2 -7.6503 28.3102 -3.0293 0.0000 -0.8356 0.0000
# 3 9.5011 -3.0293 109.0047 0.0000 -24.6337 0.0000
# 4 0.0000 0.0000 0.0000 27.4705 0.0000 -5.2747
# 5 -17.4074 -0.8356 -24.6337 0.0000 40.4303 0.0000
# 6 0.0000 0.0000 0.0000 -5.2747 0.0000 26.7192
#
#
#
# Elastic Compliance Matrix: (Units=1/GPa)
#
#
# Indices 1 2 3 4 5 6 
#
# 1 0.017821 0.005095 0.000401 0.000000 0.008023 0.000000
# 2 0.005095 0.036969 0.001452 0.000000 0.003842 0.000000
# 3 0.000401 0.001452 0.010698 0.000000 0.006721 0.000000
# 4 0.000000 0.000000 0.000000 0.037837 0.000000 0.007470
# 5 0.008023 0.003842 0.006721 0.000000 0.032363 0.000000
# 6 0.000000 0.000000 0.000000 0.007470 0.000000 0.038901
#
#
# Mechanical properties :
#
#
# Convention : Reuss Voigt Hill
#
# Bulk Modulus (GPa) = 12.59695 22.32023 17.45859
# Shear Modulus (GPa) = 26.71617 32.55185 29.63401
#
# Velocity S-wave (km/s) = 3.56580 3.93603 3.75548
# Velocity P-wave (km/s) = 4.79046 5.59278 5.20710
#
# Compressibility (1/GPa) = 0.07938431
#
# Stress axis : x y z
#
# Youngs Moduli (GPa) = 56.11423 27.04997 93.47419
#
# Poissons Ratio (x) = -0.13783 -0.03751
# Poissons Ratio (y) = -0.28593 -0.13568
# Poissons Ratio (z) = -0.02252 -0.03926
#
# Static dielectric constant tensor:
#      x y z
#    x 1.758990 0.000000 -0.010400 
#    y 0.000000 1.724720 0.000000 
#    z -0.010400 0.000000 1.749660 
# 
# From -- ./inp_files/92837.got.cif
#   From: 2010.05.17/outbox.cif.g08.bks.cpg/sg12_47_cif.got.tgz:92837.got - 2010.06.03 13:09:07.
