data_PCOD9189687
_publ_section_title
;
Structure prediction by ZEFSAII (Michael W. Deem and Ramdas Pophale) SiO2 
 PCOD9189687
Probable space group: C 2/M
;
_chemical_formula_sum "Si O2"
_cell_formula_units_Z 58
_cell_length_a 8.883182
_cell_length_b 17.476639
_cell_length_c 20.702024
_cell_angle_alpha 90.000000
_cell_angle_beta 122.401221
_cell_angle_gamma 90.000000
_cell_volume 2713.592081
_symmetry_space_group_name_H-M "C 2/M"
_symmetry_group_IT_number 12
_symmetry_cell_setting 'monoclinic'
loop_
_space_group_symop_operation_xyz
x,y,z
-x,y,-z
-x,-y,-z
x,-y,z
1/2+x,1/2+y,z
1/2-x,1/2+y,-z
1/2-x,1/2-y,-z
1/2+x,1/2-y,z
loop_
_atom_site_type_symbol
_atom_site_label
_atom_site_fract_x
_atom_site_fract_y
_atom_site_fract_z
Si Si1 0.500000 0.000000 0.500000
Si Si2 0.806572 0.805254 0.926371
Si Si3 0.935203 0.198254 0.732517
Si Si4 0.802761 0.085852 0.803704
Si Si5 0.796854 0.349588 0.755602
Si Si6 0.906194 0.416161 0.652554
Si Si7 0.459883 0.852944 0.921358
Si Si8 0.073129 0.342399 0.580173
O O1 0.394792 0.069589 0.436274
O O2 0.783085 0.863489 0.862339
O O3 0.648039 0.818308 0.940298
O O4 0.827469 0.718232 0.906206
O O5 0.000000 0.822951 0.000000
O O6 0.928502 0.130350 0.783073
O O7 0.927101 0.278626 0.767961
O O8 0.752451 0.192145 0.649963
O O9 0.107256 0.187226 0.728551
O O10 0.608314 0.081654 0.725926
O O11 0.863517 0.000000 0.831576
O O12 0.790121 0.398355 0.688739
O O13 0.874820 0.390837 0.837649
O O14 0.859348 0.500000 0.614095
O O15 0.920754 0.353173 0.599922
O O16 0.500000 0.891956 0.000000
O O17 0.000000 0.300535 0.500000
#
# Coordination Sequence:
#
# PCOD9189687 Si02
#       8
#     2   8   8   8   8   8   8   8
#     4   8  16  36  72  86 124 160 196 238 286 362
#     4  11  21  35  57  83 112 149 200 254 300 362
#     4  11  23  37  60  91 118 155 201 253 294 360
#     4  10  21  36  58  80 114 153 197 242 299 356
#     4  12  23  39  62  88 123 158 202 254 310 350
#     4  10  19  38  60  87 118 156 197 243 295 361
#     4  11  22  36  58  87 114 158 204 255 305 355
#     4   9  18  38  65  90 118 158 196 234 292 353
#
# _framework density 21.373882999999999
#
# number of rings (size 3 to 8) (size 9 to 14) (size 15 to 20)
#    0.414    1.103    3.448    4.138    2.897    0.828 
#    0.000    3.448    0.000    2.483    0.000    0.000 
#    0.000    0.000    0.000    0.000    0.000    0.000 
#
# Total GULP energy -161616.614817 kJ/mol
# GULP energy per Si atom -5572.986718 kJ/mol
# Density = 2.132523 g / cm^3
# Si number density = 21.373883 Si / 1000 Ang^3
#
#
#
# Elastic Constant Matrix: (Units=GPa)
#
#
# Indices 1 2 3 4 5 6 
#
# 1 125.2460 1.9764 19.5651 0.0000 -14.8622 0.0000
# 2 1.9764 45.6719 5.9082 0.0000 -1.8316 0.0000
# 3 19.5651 5.9082 111.9432 0.0000 -23.3874 0.0000
# 4 0.0000 0.0000 0.0000 21.0694 0.0000 -7.8224
# 5 -14.8622 -1.8316 -23.3874 0.0000 23.1285 0.0000
# 6 0.0000 0.0000 0.0000 -7.8224 0.0000 16.1289
#
#
#
# Elastic Compliance Matrix: (Units=1/GPa)
#
#
# Indices 1 2 3 4 5 6 
#
# 1 0.008661 -0.000113 -0.000440 0.000000 0.005112 0.000000
# 2 -0.000113 0.022057 -0.001007 0.000000 0.000655 0.000000
# 3 -0.000440 -0.001007 0.011395 0.000000 0.011160 0.000000
# 4 0.000000 0.000000 0.000000 0.057885 0.000000 0.028074
# 5 0.005112 0.000655 0.011160 0.000000 0.057858 0.000000
# 6 0.000000 0.000000 0.000000 0.028074 0.000000 0.075616
#
#
# Mechanical properties :
#
#
# Convention : Reuss Voigt Hill
#
# Bulk Modulus (GPa) = 25.64595 37.52893 31.58744
# Shear Modulus (GPa) = 20.03286 29.09279 24.56283
#
# Velocity S-wave (km/s) = 3.06479 3.69336 3.39366
# Velocity P-wave (km/s) = 4.95466 5.98200 5.49240
#
# Compressibility (1/GPa) = 0.03899252
#
# Stress axis : x y z
#
# Youngs Moduli (GPa) = 115.45485 45.33747 87.76025
#
# Poissons Ratio (x) = 0.00512 0.03860
# Poissons Ratio (y) = 0.01304 0.08841
# Poissons Ratio (z) = 0.05078 0.04568
#
# Static dielectric constant tensor:
#      x y z
#    x 1.784520 0.000000 -0.043650 
#    y 0.000000 1.763090 0.000000 
#    z -0.043650 0.000000 1.873390 
# 
# From -- ./inp_files/301141.got.cif
#   From: 2010.05.17/outbox.cif.g08.bks.cpg/sg12_151_cif.got.tgz:301141.got - 2010.06.03 13:09:07.
