data_PCOD9189954
_publ_section_title
;
Structure prediction by ZEFSAII (Michael W. Deem and Ramdas Pophale) SiO2 
 PCOD9189954
Probable space group: C 2/M
;
_chemical_formula_sum "Si O2"
_cell_formula_units_Z 44
_cell_length_a 13.437742
_cell_length_b 19.623166
_cell_length_c 22.300301
_cell_angle_alpha 90.000000
_cell_angle_beta 155.534078
_cell_angle_gamma 90.000000
_cell_volume 2435.374814
_symmetry_space_group_name_H-M "C 2/M"
_symmetry_group_IT_number 12
_symmetry_cell_setting 'monoclinic'
loop_
_space_group_symop_operation_xyz
x,y,z
-x,y,-z
-x,-y,-z
x,-y,z
1/2+x,1/2+y,z
1/2-x,1/2+y,-z
1/2-x,1/2-y,-z
1/2+x,1/2-y,z
loop_
_atom_site_type_symbol
_atom_site_label
_atom_site_fract_x
_atom_site_fract_y
_atom_site_fract_z
Si Si1 0.728308 0.173676 0.014030
Si Si2 0.249669 0.873986 0.103016
Si Si3 0.508646 0.270103 0.272611
Si Si4 0.500000 0.708340 0.500000
Si Si5 0.169324 0.147679 0.716574
Si Si6 0.922606 0.000000 0.358283
Si Si7 0.602956 0.000000 0.301696
O O1 0.896660 0.175637 0.164248
O O2 0.750000 0.250000 0.000000
O O3 0.792297 0.127682 0.991914
O O4 0.452732 0.160216 0.879888
O O5 0.361911 0.800997 0.184403
O O6 0.440134 0.933200 0.220414
O O7 0.000000 0.884441 0.000000
O O8 0.472007 0.300858 0.318067
O O9 0.780359 0.252978 0.404140
O O10 0.600716 0.663084 0.609842
O O11 0.107410 0.069420 0.694670
O O12 0.720067 0.000000 0.299577
O O13 0.177897 0.000000 0.531719
#
# Coordination Sequence:
#
# PCOD9189954 Si02
#       7
#     8   8   8   4   8   4   4
#     4  10  19  39  58  85 123 153 203 249 297 357
#     4  11  21  36  64  92 122 159 203 253 310 358
#     4  11  23  39  62  92 124 163 201 256 307 367
#     4  12  22  37  62  95 124 156 206 260 310 361
#     4  12  22  40  62  92 122 162 208 249 309 361
#     4  11  22  38  62  85 129 163 199 254 301 371
#     4  11  21  40  59  91 128 160 200 255 308 361
#
# _framework density 18.067035000000001
#
# number of rings (size 3 to 8) (size 9 to 14) (size 15 to 20)
#    0.000    0.909    5.455    5.727    0.000    0.000 
#    0.000    2.727    0.000    0.545    0.000    0.000 
#    0.000    0.000    0.000    0.000    0.000    0.000 
#
# Total GULP energy -122907.035204 kJ/mol
# GULP energy per Si atom -5586.683418 kJ/mol
# Density = 1.802591 g / cm^3
# Si number density = 18.067035 Si / 1000 Ang^3
#
#
#
# Elastic Constant Matrix: (Units=GPa)
#
#
# Indices 1 2 3 4 5 6 
#
# 1 84.7603 36.4870 26.1698 0.0039 20.0194 0.0030
# 2 36.4870 104.3459 37.1299 0.0165 6.3997 -0.0025
# 3 26.1698 37.1299 81.0402 0.0277 25.6089 -0.0062
# 4 0.0039 0.0165 0.0277 12.1090 0.0061 -14.5469
# 5 20.0194 6.3997 25.6089 0.0061 33.7371 -0.0048
# 6 0.0030 -0.0025 -0.0062 -14.5469 -0.0048 7.2950
#
#
#
# Elastic Compliance Matrix: (Units=1/GPa)
#
#
# Indices 1 2 3 4 5 6 
#
# 1 0.015998 -0.004998 -0.000231 0.000007 -0.008369 0.000001
# 2 -0.004998 0.013159 -0.006004 0.000000 0.005027 0.000004
# 3 -0.000231 -0.006004 0.019420 0.000016 -0.013465 0.000038
# 4 0.000007 0.000000 0.000016 -0.059177 -0.000023 -0.118003
# 5 -0.008369 0.005027 -0.013465 -0.000023 0.043875 -0.000023
# 6 0.000001 0.000004 0.000038 -0.118003 -0.000023 -0.098228
#
#
# Mechanical properties :
#
#
# Convention : Reuss Voigt Hill
#
# Bulk Modulus (GPa) = 38.29876 52.19108 45.24492
# Shear Modulus (GPa) = -148.00427 21.98555 -63.00936
#
# Velocity S-wave (km/s) = -9.06076 3.49218 -5.91194
# Velocity P-wave (km/s) = 9.39250 6.72388 4.63726
#
# Compressibility (1/GPa) = 0.02611051
#
# Stress axis : x y z
#
# Youngs Moduli (GPa) = 62.50853 75.99194 51.49376
#
# Poissons Ratio (x) = 0.37984 0.01191
# Poissons Ratio (y) = 0.31245 0.30915
# Poissons Ratio (z) = 0.01445 0.45622
#
# Static dielectric constant tensor:
#      x y z
#    x 1.628620 -0.000010 -0.029720 
#    y -0.000010 1.618400 0.000010 
#    z -0.029720 0.000010 1.627890 
# 
# From -- ./inp_files/340762.got.cif
#   From: 2010.05.17/outbox.cif.g08.bks.cpg/sg12_171_cif.got.tgz:340762.got - 2010.06.03 13:09:07.
