data_PCOD9189494
_publ_section_title
;
Structure prediction by ZEFSAII (Michael W. Deem and Ramdas Pophale) SiO2 
 PCOD9189494
Probable space group: C 2/M
;
_chemical_formula_sum "Si O2"
_cell_formula_units_Z 52
_cell_length_a 30.128204
_cell_length_b 15.156913
_cell_length_c 10.661553
_cell_angle_alpha 90.000000
_cell_angle_beta 149.719056
_cell_angle_gamma 90.000000
_cell_volume 2454.947131
_symmetry_space_group_name_H-M "C 2/M"
_symmetry_group_IT_number 12
_symmetry_cell_setting 'monoclinic'
loop_
_space_group_symop_operation_xyz
x,y,z
-x,y,-z
-x,-y,-z
x,-y,z
1/2+x,1/2+y,z
1/2-x,1/2+y,-z
1/2-x,1/2-y,-z
1/2+x,1/2-y,z
loop_
_atom_site_type_symbol
_atom_site_label
_atom_site_fract_x
_atom_site_fract_y
_atom_site_fract_z
Si Si1 0.500000 0.737448 0.500000
Si Si2 0.319414 0.164739 0.059344
Si Si3 0.397907 0.892601 0.743184
Si Si4 0.586743 0.402976 0.877405
Si Si5 0.406195 0.396982 0.807920
Si Si6 0.215419 0.604109 0.295628
Si Si7 0.729518 0.849383 0.793803
O O1 0.585151 0.794788 0.679341
O O2 0.475444 0.673243 0.325666
O O3 0.289980 0.115680 0.113712
O O4 0.324420 0.115166 0.939396
O O5 0.253162 0.246373 0.871465
O O6 0.344499 0.860803 0.736786
O O7 0.347950 0.862909 0.495212
O O8 0.396153 0.000000 0.738554
O O9 0.500000 0.865884 0.000000
O O10 0.550378 0.500000 0.760676
O O11 0.599579 0.396349 0.056648
O O12 0.681898 0.391803 0.045815
O O13 0.408959 0.500000 0.770013
O O14 0.314490 0.357464 0.536626
O O15 0.500000 0.356548 0.000000
O O16 0.225208 0.500000 0.345775
#
# Coordination Sequence:
#
# PCOD9189494 Si02
#       7
#     4   8   8   8   8   8   8
#     4  10  23  40  57  84 126 160 200 252 297 366
#     4  10  24  40  58  85 126 163 202 245 303 365
#     4  10  21  38  63  92 119 154 205 252 295 353
#     4  10  19  37  64  90 117 156 203 254 305 354
#     4   9  18  33  57  88 120 149 189 246 305 358
#     4  10  21  40  62  89 122 156 199 253 301 354
#     4  10  21  40  60  85 123 164 199 246 301 361
#
# _framework density 21.181718
#
# number of rings (size 3 to 8) (size 9 to 14) (size 15 to 20)
#    0.000    2.154    1.538    0.692    2.154    5.538 
#    0.000    2.692    0.000    0.000    0.000    0.000 
#    0.000    0.000    0.000    0.000    0.000    0.000 
#
# Total GULP energy -145165.855976 kJ/mol
# GULP energy per Si atom -5583.302153 kJ/mol
# Density = 2.113351 g / cm^3
# Si number density = 21.181718 Si / 1000 Ang^3
#
#
#
# Elastic Constant Matrix: (Units=GPa)
#
#
# Indices 1 2 3 4 5 6 
#
# 1 154.7500 21.0441 77.2538 0.0000 0.2986 0.0000
# 2 21.0441 24.8860 11.4976 0.0000 7.1006 0.0000
# 3 77.2538 11.4976 145.4645 0.0000 17.5348 0.0000
# 4 0.0000 0.0000 0.0000 18.4014 0.0000 -19.3776
# 5 0.2986 7.1006 17.5348 0.0000 37.3118 0.0000
# 6 0.0000 0.0000 0.0000 -19.3776 0.0000 2.9955
#
#
#
# Elastic Compliance Matrix: (Units=1/GPa)
#
#
# Indices 1 2 3 4 5 6 
#
# 1 0.010026 -0.007134 -0.005210 0.000000 0.003726 0.000000
# 2 -0.007134 0.048461 0.001127 0.000000 -0.009695 0.000000
# 3 -0.005210 0.001127 0.010148 0.000000 -0.004942 0.000000
# 4 0.000000 0.000000 0.000000 -0.009350 0.000000 -0.060485
# 5 0.003726 -0.009695 -0.004942 0.000000 0.030939 0.000000
# 6 0.000000 0.000000 0.000000 -0.060485 0.000000 -0.057438
#
#
# Mechanical properties :
#
#
# Convention : Reuss Voigt Hill
#
# Bulk Modulus (GPa) = 21.64427 60.52129 41.08278
# Shear Modulus (GPa) = 70.80153 26.09542 48.44847
#
# Velocity S-wave (km/s) = 5.78777 3.51376 4.78774
# Velocity P-wave (km/s) = 7.40979 6.71539 7.07112
#
# Compressibility (1/GPa) = 0.04620159
#
# Stress axis : x y z
#
# Youngs Moduli (GPa) = 99.74264 20.63496 98.54182
#
# Poissons Ratio (x) = 0.14721 0.51338
# Poissons Ratio (y) = 0.71158 -0.11106
# Poissons Ratio (z) = 0.51964 -0.02326
#
# Static dielectric constant tensor:
#      x y z
#    x 1.824700 0.000000 -0.031650 
#    y 0.000000 1.782080 0.000000 
#    z -0.031650 0.000000 1.772230 
# 
# From -- ./inp_files/113307.got.cif
#   From: 2010.05.17/outbox.cif.g08.bks.cpg/sg12_57_cif.got.tgz:113307.got - 2010.06.03 13:09:07.
