data_PCOD9189331
_publ_section_title
;
Structure prediction by ZEFSAII (Michael W. Deem and Ramdas Pophale) SiO2 
 PCOD9189331
Probable space group: C 2/M
;
_chemical_formula_sum "Si O2"
_cell_formula_units_Z 56
_cell_length_a 28.066311
_cell_length_b 18.131784
_cell_length_c 9.050928
_cell_angle_alpha 90.000000
_cell_angle_beta 140.429217
_cell_angle_gamma 90.000000
_cell_volume 2934.131305
_symmetry_space_group_name_H-M "C 2/M"
_symmetry_group_IT_number 12
_symmetry_cell_setting 'monoclinic'
loop_
_space_group_symop_operation_xyz
x,y,z
-x,y,-z
-x,-y,-z
x,-y,z
1/2+x,1/2+y,z
1/2-x,1/2+y,-z
1/2-x,1/2-y,-z
1/2+x,1/2-y,z
loop_
_atom_site_type_symbol
_atom_site_label
_atom_site_fract_x
_atom_site_fract_y
_atom_site_fract_z
Si Si1 0.443387 0.914894 0.727637
Si Si2 0.058945 0.834843 0.013576
Si Si3 0.143354 0.083393 0.967760
Si Si4 0.712407 0.686038 0.561228
Si Si5 0.525179 0.781939 0.390694
Si Si6 0.714818 0.142128 0.537254
Si Si7 0.820814 0.197864 0.206117
O O1 0.472106 0.864616 0.663097
O O2 0.365055 0.882122 0.597090
O O3 0.434490 0.000000 0.664757
O O4 0.500000 0.909805 0.000000
O O5 0.025649 0.765341 0.844090
O O6 0.080316 0.892755 0.936091
O O7 0.135896 0.816908 0.283484
O O8 0.000000 0.857316 0.000000
O O9 0.221797 0.090667 0.242275
O O10 0.131192 0.000000 0.887048
O O11 0.152639 0.142676 0.858757
O O12 0.731649 0.772789 0.622288
O O13 0.774878 0.644926 0.614710
O O14 0.700571 0.654877 0.695391
O O15 0.500000 0.776450 0.500000
O O16 0.608349 0.748238 0.583847
O O17 0.750000 0.250000 0.000000
#
# Coordination Sequence:
#
# PCOD9189331 Si02
#       7
#     8   8   8   8   8   8   8
#     4  11  23  39  61  91 128 166 202 251 313 369
#     4  11  21  39  65  92 121 157 213 253 304 362
#     4  11  24  40  60  90 129 164 198 253 318 370
#     4  10  20  34  66  94 113 156 211 256 290 355
#     4  12  23  39  65  91 123 162 208 262 302 361
#     4  10  19  37  61  89 120 157 203 255 297 356
#     4  12  22  39  61  94 122 163 209 249 302 366
#
# _framework density 19.085718
#
# number of rings (size 3 to 8) (size 9 to 14) (size 15 to 20)
#    0.000    1.000    5.714    1.714    0.000    1.714 
#    0.000    5.000    0.000    1.714    0.000    0.000 
#    0.000    0.000    0.000    0.000    0.000    0.000 
#
# Total GULP energy -156325.556164 kJ/mol
# GULP energy per Si atom -5583.055577 kJ/mol
# Density = 1.904228 g / cm^3
# Si number density = 19.085718 Si / 1000 Ang^3
#
#
#
# Elastic Constant Matrix: (Units=GPa)
#
#
# Indices 1 2 3 4 5 6 
#
# 1 120.7015 20.9020 21.3903 0.0000 -20.0658 0.0000
# 2 20.9020 90.6836 20.7287 0.0000 -8.9865 0.0000
# 3 21.3903 20.7287 48.6351 0.0000 -8.5990 0.0000
# 4 0.0000 0.0000 0.0000 15.2365 0.0000 -5.5627
# 5 -20.0658 -8.9865 -8.5990 0.0000 34.5770 0.0000
# 6 0.0000 0.0000 0.0000 -5.5627 0.0000 21.5899
#
#
#
# Elastic Compliance Matrix: (Units=1/GPa)
#
#
# Indices 1 2 3 4 5 6 
#
# 1 0.009781 -0.001107 -0.003010 0.000000 0.004640 0.000000
# 2 -0.001107 0.012472 -0.004570 0.000000 0.001463 0.000000
# 3 -0.003010 -0.004570 0.024386 0.000000 0.003130 0.000000
# 4 0.000000 0.000000 0.000000 0.072447 0.000000 0.018666
# 5 0.004640 0.001463 0.003130 0.000000 0.032772 0.000000
# 6 0.000000 0.000000 0.000000 0.018666 0.000000 0.051127
#
#
# Mechanical properties :
#
#
# Convention : Reuss Voigt Hill
#
# Bulk Modulus (GPa) = 34.16935 42.89581 38.53258
# Shear Modulus (GPa) = 21.72823 27.41396 24.57110
#
# Velocity S-wave (km/s) = 3.37776 3.79405 3.59194
# Velocity P-wave (km/s) = 5.75798 6.45888 6.11848
#
# Compressibility (1/GPa) = 0.02926599
#
# Stress axis : x y z
#
# Youngs Moduli (GPa) = 102.23545 80.17900 41.00644
#
# Poissons Ratio (x) = 0.08873 0.12342
# Poissons Ratio (y) = 0.11315 0.18741
# Poissons Ratio (z) = 0.30771 0.36645
#
# Static dielectric constant tensor:
#      x y z
#    x 1.712270 0.000000 -0.012130 
#    y 0.000000 1.646330 0.000000 
#    z -0.012130 0.000000 1.667780 
# 
# From -- ./inp_files/106056.got.cif
#   From: 2010.05.17/outbox.cif.g08.bks.cpg/sg12_54_cif.got.tgz:106056.got - 2010.06.03 13:09:07.
