data_PCOD9189946
_publ_section_title
;
Structure prediction by ZEFSAII (Michael W. Deem and Ramdas Pophale) SiO2 
 PCOD9189946
Probable space group: C 2/M
;
_chemical_formula_sum "Si O2"
_cell_formula_units_Z 44
_cell_length_a 22.230544
_cell_length_b 10.464081
_cell_length_c 12.419275
_cell_angle_alpha 90.000000
_cell_angle_beta 109.428813
_cell_angle_gamma 90.000000
_cell_volume 2724.486621
_symmetry_space_group_name_H-M "C 2/M"
_symmetry_group_IT_number 12
_symmetry_cell_setting 'monoclinic'
loop_
_space_group_symop_operation_xyz
x,y,z
-x,y,-z
-x,-y,-z
x,-y,z
1/2+x,1/2+y,z
1/2-x,1/2+y,-z
1/2-x,1/2-y,-z
1/2+x,1/2-y,z
loop_
_atom_site_type_symbol
_atom_site_label
_atom_site_fract_x
_atom_site_fract_y
_atom_site_fract_z
Si Si1 0.880827 0.500000 0.219067
Si Si2 0.871845 0.856559 0.949889
Si Si3 0.000000 0.292604 0.000000
Si Si4 0.266912 0.763464 0.734489
Si Si5 0.812258 0.761681 0.113344
Si Si6 0.668180 0.000000 0.350560
Si Si7 0.517542 0.000000 0.195435
Si Si8 0.297590 0.000000 0.380054
O O1 0.847711 0.625348 0.147040
O O2 0.855300 0.500000 0.326930
O O3 0.957196 0.500000 0.242832
O O4 0.822635 0.775575 0.850061
O O5 0.867337 0.000000 0.908174
O O6 0.856151 0.850697 0.067218
O O7 0.939425 0.795440 0.973887
O O8 0.992596 0.380164 0.890136
O O9 0.210027 0.806392 0.781959
O O10 0.295697 0.875137 0.677452
O O11 0.242585 0.631296 0.664709
O O12 0.750000 0.750000 0.000000
O O13 0.591570 0.000000 0.279211
O O14 0.677431 0.000000 0.483980
#
# Coordination Sequence:
#
# PCOD9189946 Si02
#       8
#     4   8   4   8   8   4   4   4
#     4  10  19  39  53  76 112 145 182 229 276 313
#     4  11  20  33  52  78 111 150 177 212 273 338
#     4  11  21  34  50  82 111 143 178 220 266 336
#     4  10  21  37  55  83 111 137 183 233 276 327
#     4   9  20  29  53  78 107 141 176 215 273 333
#     4  12  23  37  61  82 105 149 193 229 281 318
#     4  11  22  35  56  80 114 142 182 227 269 337
#     4  10  22  41  60  79 107 144 189 245 274 314
#
# _framework density 16.149830999999999
#
# number of rings (size 3 to 8) (size 9 to 14) (size 15 to 20)
#    0.000    1.636    4.545    0.818    5.091    2.545 
#    0.000    0.000    0.000    0.000    0.000    0.000 
#    0.000   13.091    0.000    0.000    0.000    0.000 
#
# Total GULP energy -122492.962253 kJ/mol
# GULP energy per Si atom -5567.861921 kJ/mol
# Density = 1.611307 g / cm^3
# Si number density = 16.149831 Si / 1000 Ang^3
#
#
#
# Elastic Constant Matrix: (Units=GPa)
#
#
# Indices 1 2 3 4 5 6 
#
# 1 125.0518 45.9833 42.5027 0.0000 -9.4860 0.0000
# 2 45.9833 68.8695 27.7848 0.0000 -18.4546 0.0000
# 3 42.5027 27.7848 87.5782 0.0000 -15.0802 0.0000
# 4 0.0000 0.0000 0.0000 -3.4701 0.0000 -10.1286
# 5 -9.4860 -18.4546 -15.0802 0.0000 15.8942 0.0000
# 6 0.0000 0.0000 0.0000 -10.1286 0.0000 20.2135
#
#
#
# Elastic Compliance Matrix: (Units=1/GPa)
#
#
# Indices 1 2 3 4 5 6 
#
# 1 0.011883 -0.007820 -0.004337 0.000000 -0.006102 0.000000
# 2 -0.007820 0.026884 -0.000195 0.000000 0.026364 0.000000
# 3 -0.004337 -0.000195 0.015658 0.000000 0.012042 0.000000
# 4 0.000000 0.000000 0.000000 -0.117022 0.000000 -0.058638
# 5 -0.006102 0.026364 0.012042 0.000000 0.101310 0.000000
# 6 0.000000 0.000000 0.000000 -0.058638 0.000000 0.020090
#
#
# Mechanical properties :
#
#
# Convention : Reuss Voigt Hill
#
# Bulk Modulus (GPa) = 33.64356 57.11568 45.37962
# Shear Modulus (GPa) = 53.52503 17.54276 35.53389
#
# Velocity S-wave (km/s) = 5.76322 3.29941 4.69579
# Velocity P-wave (km/s) = 8.07240 7.06807 7.58688
#
# Compressibility (1/GPa) = 0.02972337
#
# Stress axis : x y z
#
# Youngs Moduli (GPa) = 84.15195 37.19627 63.86341
#
# Poissons Ratio (x) = 0.29086 0.27697
# Poissons Ratio (y) = 0.65805 0.01243
# Poissons Ratio (z) = 0.36496 0.00724
#
# Static dielectric constant tensor:
#      x y z
#    x 1.527630 0.000000 -0.008460 
#    y 0.000000 1.543270 0.000000 
#    z -0.008460 0.000000 1.507690 
# 
# From -- ./inp_files/173231.got.cif
#   From: 2010.05.17/outbox.cif.g08.bks.cpg/sg12_87_cif.got.tgz:173231.got - 2010.06.03 13:09:07.
