data_PCOD9189234
_publ_section_title
;
Structure prediction by ZEFSAII (Michael W. Deem and Ramdas Pophale) SiO2 
 PCOD9189234
Probable space group: C 2/M
;
_chemical_formula_sum "Si O2"
_cell_formula_units_Z 40
_cell_length_a 8.607973
_cell_length_b 12.124427
_cell_length_c 24.375186
_cell_angle_alpha 90.000000
_cell_angle_beta 131.741656
_cell_angle_gamma 90.000000
_cell_volume 1898.185828
_symmetry_space_group_name_H-M "C 2/M"
_symmetry_group_IT_number 12
_symmetry_cell_setting 'monoclinic'
loop_
_space_group_symop_operation_xyz
x,y,z
-x,y,-z
-x,-y,-z
x,-y,z
1/2+x,1/2+y,z
1/2-x,1/2+y,-z
1/2-x,1/2-y,-z
1/2+x,1/2-y,z
loop_
_atom_site_type_symbol
_atom_site_label
_atom_site_fract_x
_atom_site_fract_y
_atom_site_fract_z
Si Si1 0.720992 0.125854 0.383996
Si Si2 0.545332 0.162982 0.572294
Si Si3 0.867771 0.875093 0.913844
Si Si4 0.030280 0.814911 0.277755
Si Si5 0.077806 0.285016 0.174972
O O1 0.626689 0.134168 0.423219
O O2 0.921288 0.203782 0.422286
O O3 0.552324 0.189035 0.306519
O O4 0.756993 0.000000 0.378360
O O5 0.500000 0.126441 0.500000
O O6 0.774615 0.126720 0.647373
O O7 0.917561 0.783737 0.880030
O O8 0.624143 0.860481 0.869865
O O9 0.909491 0.000000 0.904384
O O10 0.000000 0.856476 0.000000
O O11 0.063915 0.802889 0.221295
O O12 0.795581 0.849565 0.233952
#
# Coordination Sequence:
#
# PCOD9189234 Si02
#       5
#     8   8   8   8   8
#     4  10  21  37  57  80 113 152 194 244 295 338
#     4  10  20  38  60  82 118 156 196 248 289 340
#     4  10  22  40  64  91 117 152 190 228 287 352
#     4   9  18  35  56  84 114 151 196 236 280 341
#     4  10  19  37  60  85 120 151 189 236 289 330
#
# _framework density 21.072752000000001
#
# number of rings (size 3 to 8) (size 9 to 14) (size 15 to 20)
#    1.200    1.000    2.000    1.200    0.000    4.000 
#    0.000    6.000    0.000   10.800    0.000    0.000 
#    0.000    0.000    0.000    0.000    0.000    0.000 
#
# Total GULP energy -111513.940877 kJ/mol
# GULP energy per Si atom -5575.697044 kJ/mol
# Density = 2.102479 g / cm^3
# Si number density = 21.072752 Si / 1000 Ang^3
#
#
#
# Elastic Constant Matrix: (Units=GPa)
#
#
# Indices 1 2 3 4 5 6 
#
# 1 48.1346 -5.1675 12.1229 0.0000 -1.1339 0.0000
# 2 -5.1675 90.6983 3.6960 0.0000 -10.1265 0.0000
# 3 12.1229 3.6960 110.3030 0.0000 6.1135 0.0000
# 4 0.0000 0.0000 0.0000 -5.0532 0.0000 -6.3313
# 5 -1.1339 -10.1265 6.1135 0.0000 34.0997 0.0000
# 6 0.0000 0.0000 0.0000 -6.3313 0.0000 28.0432
#
#
#
# Elastic Compliance Matrix: (Units=1/GPa)
#
#
# Indices 1 2 3 4 5 6 
#
# 1 0.021609 0.001514 -0.002515 0.000000 0.001619 0.000000
# 2 0.001514 0.011546 -0.000754 0.000000 0.003614 0.000000
# 3 -0.002515 -0.000754 0.009479 0.000000 -0.002007 0.000000
# 4 0.000000 0.000000 0.000000 -0.154260 0.000000 -0.034827
# 5 0.001619 0.003614 -0.002007 0.000000 0.030813 0.000000
# 6 0.000000 0.000000 0.000000 -0.034827 0.000000 0.027796
#
#
# Mechanical properties :
#
#
# Convention : Reuss Voigt Hill
#
# Bulk Modulus (GPa) = 25.55907 30.04874 27.80391
# Shear Modulus (GPa) = -137.11646 27.31693 -54.89976
#
# Velocity S-wave (km/s) = -8.07523 3.60434 -5.10970
# Velocity P-wave (km/s) = 8.64815 5.62247 4.64642
#
# Compressibility (1/GPa) = 0.03912505
#
# Stress axis : x y z
#
# Youngs Moduli (GPa) = 46.27623 86.60938 105.49768
#
# Poissons Ratio (x) = -0.13117 0.26538
# Poissons Ratio (y) = -0.07008 0.07951
# Poissons Ratio (z) = 0.11641 0.06527
#
# Static dielectric constant tensor:
#      x y z
#    x 1.753740 0.000000 0.015540 
#    y 0.000000 1.743610 0.000000 
#    z 0.015540 0.000000 1.780940 
# 
# From -- ./inp_files/355623.got.cif
#   From: 2010.05.17/outbox.cif.g08.bks.cpg/sg12_178_cif.got.tgz:355623.got - 2010.06.03 13:09:07.
