data_PCOD9189349
_publ_section_title
;
Structure prediction by ZEFSAII (Michael W. Deem and Ramdas Pophale) SiO2 
 PCOD9189349
Probable space group: C 2/M
;
_chemical_formula_sum "Si O2"
_cell_formula_units_Z 64
_cell_length_a 20.464157
_cell_length_b 7.605366
_cell_length_c 33.779668
_cell_angle_alpha 90.000000
_cell_angle_beta 146.431254
_cell_angle_gamma 90.000000
_cell_volume 2907.000466
_symmetry_space_group_name_H-M "C 2/M"
_symmetry_group_IT_number 12
_symmetry_cell_setting 'monoclinic'
loop_
_space_group_symop_operation_xyz
x,y,z
-x,y,-z
-x,-y,-z
x,-y,z
1/2+x,1/2+y,z
1/2-x,1/2+y,-z
1/2-x,1/2-y,-z
1/2+x,1/2-y,z
loop_
_atom_site_type_symbol
_atom_site_label
_atom_site_fract_x
_atom_site_fract_y
_atom_site_fract_z
Si Si1 0.451929 0.285838 0.789794
Si Si2 0.090579 0.786525 0.321010
Si Si3 0.134235 0.284492 0.061044
Si Si4 0.034869 0.300261 0.559949
Si Si5 0.283262 0.710659 0.061647
Si Si6 0.336464 0.707596 0.223098
Si Si7 0.275510 0.786820 0.282067
Si Si8 0.804457 0.800815 0.485332
O O1 0.455686 0.500000 0.792588
O O2 0.405820 0.237430 0.723125
O O3 0.584977 0.221767 0.862946
O O4 0.357430 0.229732 0.774783
O O5 0.200034 0.715992 0.400901
O O6 0.964775 0.723906 0.274873
O O7 0.095668 0.000000 0.326369
O O8 0.131425 0.500000 0.060248
O O9 0.189078 0.227423 0.046683
O O10 0.226630 0.225129 0.141548
O O11 0.000000 0.225278 0.000000
O O12 0.075025 0.500000 0.570674
O O13 0.137403 0.222195 0.639147
O O14 0.000000 0.217730 0.500000
O O15 0.917298 0.305476 0.527284
O O16 0.287704 0.500000 0.068415
O O17 0.250000 0.750000 0.000000
O O18 0.341598 0.500000 0.216924
O O19 0.315608 0.731621 0.258937
O O20 0.279783 0.000000 0.284793
O O21 0.750000 0.750000 0.500000
O O22 0.846909 0.000000 0.509522
#
# Coordination Sequence:
#
# PCOD9189349 Si02
#       8
#     8   8   8   8   8   8   8   8
#     4   9  18  36  59  81 109 148 192 228 273 338
#     4  10  19  37  62  82 105 145 195 240 283 336
#     4   9  18  34  56  82 112 148 188 227 273 332
#     4  10  21  40  63  86 114 152 196 238 291 354
#     4  10  20  36  58  84 114 149 188 231 276 331
#     4  10  20  35  57  83 110 145 189 235 279 331
#     4  10  21  35  55  82 112 146 183 230 281 334
#     4  12  25  39  58  86 118 152 191 239 293 347
#
# _framework density 22.015820999999999
#
# number of rings (size 3 to 8) (size 9 to 14) (size 15 to 20)
#    0.000    2.000    1.250    2.625    1.750    5.250 
#    0.000    3.125    0.000    0.750    0.000    0.000 
#    0.000    0.000    0.000    0.000    0.000    0.000 
#
# Total GULP energy -178845.125766 kJ/mol
# GULP energy per Si atom -5588.910180 kJ/mol
# Density = 2.196571 g / cm^3
# Si number density = 22.015821 Si / 1000 Ang^3
#
#
#
# Elastic Constant Matrix: (Units=GPa)
#
#
# Indices 1 2 3 4 5 6 
#
# 1 110.7218 -11.5702 24.5862 -0.0006 7.0400 0.0001
# 2 -11.5702 50.6275 -7.9682 -0.0009 2.4249 0.0006
# 3 24.5862 -7.9682 100.7361 -0.0003 3.8736 0.0002
# 4 -0.0006 -0.0009 -0.0003 -9.2894 0.0002 -22.2326
# 5 7.0400 2.4249 3.8736 0.0002 44.9959 -0.0003
# 6 0.0001 0.0006 0.0002 -22.2326 -0.0003 12.1992
#
#
#
# Elastic Compliance Matrix: (Units=1/GPa)
#
#
# Indices 1 2 3 4 5 6 
#
# 1 0.009815 0.001969 -0.002184 0.000000 -0.001454 0.000000
# 2 0.001969 0.020463 0.001196 0.000000 -0.001514 -0.000001
# 3 -0.002184 0.001196 0.010579 0.000000 -0.000634 0.000000
# 4 0.000000 0.000000 0.000000 -0.020077 0.000000 -0.036590
# 5 -0.001454 -0.001514 -0.000634 0.000000 0.022588 0.000000
# 6 0.000000 -0.000001 0.000000 -0.036590 0.000000 0.015288
#
#
# Mechanical properties :
#
#
# Convention : Reuss Voigt Hill
#
# Bulk Modulus (GPa) = 23.35392 30.24233 26.79812
# Shear Modulus (GPa) = 70.45647 26.71697 48.58672
#
# Velocity S-wave (km/s) = 5.66323 3.48736 4.70286
# Velocity P-wave (km/s) = 7.30710 5.47559 6.45661
#
# Compressibility (1/GPa) = 0.04281937
#
# Stress axis : x y z
#
# Youngs Moduli (GPa) = 101.88753 48.86897 94.52776
#
# Poissons Ratio (x) = -0.09622 0.20643
# Poissons Ratio (y) = -0.20061 -0.11308
# Poissons Ratio (z) = 0.22250 -0.05846
#
# Static dielectric constant tensor:
#      x y z
#    x 1.776500 0.000000 0.015450 
#    y 0.000000 1.850750 0.000000 
#    z 0.015450 0.000000 1.774260 
# 
# From -- ./inp_files/378370.got.cif
#   From: 2010.05.17/outbox.cif.g08.bks.cpg/sg12_190_cif.got.tgz:378370.got - 2010.06.03 13:09:07.
