data_PCOD9189520
_publ_section_title
;
Structure prediction by ZEFSAII (Michael W. Deem and Ramdas Pophale) SiO2 
 PCOD9189520
Probable space group: C 2/M
;
_chemical_formula_sum "Si O2"
_cell_formula_units_Z 58
_cell_length_a 24.050708
_cell_length_b 14.809888
_cell_length_c 17.588966
_cell_angle_alpha 90.000000
_cell_angle_beta 26.341905
_cell_angle_gamma 90.000000
_cell_volume 2779.940847
_symmetry_space_group_name_H-M "C 2/M"
_symmetry_group_IT_number 12
_symmetry_cell_setting 'monoclinic'
loop_
_space_group_symop_operation_xyz
x,y,z
-x,y,-z
-x,-y,-z
x,-y,z
1/2+x,1/2+y,z
1/2-x,1/2+y,-z
1/2-x,1/2-y,-z
1/2+x,1/2-y,z
loop_
_atom_site_type_symbol
_atom_site_label
_atom_site_fract_x
_atom_site_fract_y
_atom_site_fract_z
Si Si1 0.461104 0.236084 0.230821
Si Si2 0.233032 0.895082 0.546335
Si Si3 0.063790 0.738185 0.265638
Si Si4 0.000000 0.500000 0.000000
Si Si5 0.147227 0.328247 0.880288
Si Si6 0.357958 0.897781 0.708826
Si Si7 0.280793 0.177017 0.648505
Si Si8 0.625408 0.395252 0.294915
O O1 0.358505 0.154994 0.362018
O O2 0.382851 0.329488 0.333019
O O3 0.557558 0.228577 0.183197
O O4 0.542009 0.223683 0.056897
O O5 0.246996 0.888183 0.620837
O O6 0.223923 0.000000 0.533844
O O7 0.145144 0.667660 0.215092
O O8 0.100138 0.836553 0.250950
O O9 0.920877 0.713990 0.464138
O O10 0.094654 0.421234 0.914788
O O11 0.193841 0.264316 0.755725
O O12 0.264487 0.349641 0.791416
O O13 0.500000 0.895958 0.500000
O O14 0.275109 0.866854 0.738840
O O15 0.330002 0.000000 0.765274
O O16 0.500000 0.389846 0.500000
O O17 0.652985 0.500000 0.245751
#
# Coordination Sequence:
#
# PCOD9189520 Si02
#       8
#     8   8   8   2   8   8   8   8
#     4  10  25  41  63  95 131 176 217 274 338 400
#     4  10  22  44  67  92 126 176 228 274 331 391
#     4  10  19  38  60  89 126 167 209 258 332 390
#     4  12  28  40  62  96 122 180 226 268 334 372
#     4  12  23  43  63  93 137 169 221 281 326 398
#     4   9  16  29  55  89 116 152 207 259 311 374
#     4  10  19  37  65  89 125 166 211 275 323 392
#     4  11  21  38  64  96 126 168 219 271 328 397
#
# _framework density 20.863755000000001
#
# number of rings (size 3 to 8) (size 9 to 14) (size 15 to 20)
#    0.000    1.655    3.448    1.655    0.966    4.414 
#    0.000    2.069    0.000    0.000    0.000    0.000 
#    0.000    0.000    0.000    0.000    0.000    0.000 
#
# Total GULP energy -161781.653013 kJ/mol
# GULP energy per Si atom -5578.677690 kJ/mol
# Density = 2.081627 g / cm^3
# Si number density = 20.863755 Si / 1000 Ang^3
#
#
#
# Elastic Constant Matrix: (Units=GPa)
#
#
# Indices 1 2 3 4 5 6 
#
# 1 63.9725 8.3566 2.7336 0.0000 -14.5334 0.0000
# 2 8.3566 113.6352 12.8246 0.0000 0.5952 0.0000
# 3 2.7336 12.8246 41.9785 0.0000 -5.0997 -0.0001
# 4 0.0000 0.0000 0.0000 2.0658 0.0000 -13.9363
# 5 -14.5334 0.5952 -5.0997 0.0000 12.7695 0.0000
# 6 0.0000 0.0000 -0.0001 -13.9363 0.0000 32.0004
#
#
#
# Elastic Compliance Matrix: (Units=1/GPa)
#
#
# Indices 1 2 3 4 5 6 
#
# 1 0.021610 -0.001984 0.002310 0.000000 0.025611 0.000000
# 2 -0.001984 0.009328 -0.003203 0.000000 -0.003972 0.000000
# 3 0.002310 -0.003203 0.026261 0.000000 0.013266 0.000000
# 4 0.000000 0.000000 0.000000 -0.249784 0.000000 -0.108782
# 5 0.025611 -0.003972 0.013266 0.000000 0.112943 0.000000
# 6 0.000000 0.000000 0.000000 -0.108782 0.000000 -0.016125
#
#
# Mechanical properties :
#
#
# Convention : Reuss Voigt Hill
#
# Bulk Modulus (GPa) = 19.43782 29.71285 24.57534
# Shear Modulus (GPa) = -68.62150 22.41194 -23.10478
#
# Velocity S-wave (km/s) = -5.74123 3.28106 -3.33139
# Velocity P-wave (km/s) = 5.88321 5.35034 1.73004
#
# Compressibility (1/GPa) = 0.05144610
#
# Stress axis : x y z
#
# Youngs Moduli (GPa) = 46.27391 107.20067 38.07856
#
# Poissons Ratio (x) = 0.21269 -0.08797
# Poissons Ratio (y) = 0.09181 0.12197
# Poissons Ratio (z) = -0.10690 0.34338
#
# Static dielectric constant tensor:
#      x y z
#    x 1.786440 0.000000 -0.004760 
#    y 0.000000 1.713120 0.000000 
#    z -0.004760 0.000000 1.749250 
# 
# From -- ./inp_files/289894.got.cif
#   From: 2010.05.17/outbox.cif.g08.bks.cpg/sg12_145_cif.got.tgz:289894.got - 2010.06.03 13:09:07.
