data_PCOD9189833
_publ_section_title
;
Structure prediction by ZEFSAII (Michael W. Deem and Ramdas Pophale) SiO2 
 PCOD9189833
Probable space group: C 2/M
;
_chemical_formula_sum "Si O2"
_cell_formula_units_Z 64
_cell_length_a 25.262337
_cell_length_b 8.711646
_cell_length_c 16.543116
_cell_angle_alpha 90.000000
_cell_angle_beta 116.392108
_cell_angle_gamma 90.000000
_cell_volume 3261.287043
_symmetry_space_group_name_H-M "C 2/M"
_symmetry_group_IT_number 12
_symmetry_cell_setting 'monoclinic'
loop_
_space_group_symop_operation_xyz
x,y,z
-x,y,-z
-x,-y,-z
x,-y,z
1/2+x,1/2+y,z
1/2-x,1/2+y,-z
1/2-x,1/2-y,-z
1/2+x,1/2-y,z
loop_
_atom_site_type_symbol
_atom_site_label
_atom_site_fract_x
_atom_site_fract_y
_atom_site_fract_z
Si Si1 0.236045 0.186171 0.178910
Si Si2 0.343764 0.325155 0.016812
Si Si3 0.133354 0.313479 0.684689
Si Si4 0.441389 0.184521 0.512822
Si Si5 0.567056 0.183094 0.798348
Si Si6 0.357049 0.175723 0.759023
Si Si7 0.566454 0.330962 0.071413
Si Si8 0.557999 0.318270 0.307569
O O1 0.302226 0.237820 0.243001
O O2 0.194443 0.241758 0.224333
O O3 0.233544 0.000000 0.174904
O O4 0.211723 0.237041 0.073744
O O5 0.331373 0.500000 0.036212
O O6 0.376879 0.230416 0.108458
O O7 0.393040 0.333463 0.979874
O O8 0.134431 0.500000 0.684913
O O9 0.112643 0.265787 0.581804
O O10 0.085524 0.270397 0.719939
O O11 0.500000 0.216104 0.500000
O O12 0.442147 0.261477 0.600196
O O13 0.439131 0.000000 0.523248
O O14 0.503836 0.259377 0.774284
O O15 0.559688 0.000000 0.797077
O O16 0.412025 0.195517 0.857610
O O17 0.383679 0.253189 0.697312
O O18 0.341564 0.000000 0.734149
O O19 0.574230 0.500000 0.117142
O O20 0.500000 0.315358 0.000000
O O21 0.558262 0.500000 0.304291
#
# Coordination Sequence:
#
# PCOD9189833 Si02
#       8
#     8   8   8   8   8   8   8   8
#     4   9  19  39  61  80 112 157 198 230 276 339
#     4   9  18  31  49  78 115 154 191 232 279 330
#     4   9  19  37  62  86 112 152 191 230 284 344
#     4  10  19  38  64  89 118 147 183 231 288 342
#     4  11  21  35  56  86 118 151 193 238 287 337
#     4  11  22  36  56  82 111 146 190 238 287 332
#     4   9  17  31  51  74 107 148 188 230 284 341
#     4  12  24  38  58  86 119 151 188 233 288 346
#
# _framework density 19.624153
#
# number of rings (size 3 to 8) (size 9 to 14) (size 15 to 20)
#    0.000    2.000    1.250    4.125    0.000    4.000 
#    0.000    2.500    0.000    0.000    0.000    0.000 
#    0.000    0.000    0.000    0.000    0.000    0.000 
#
# Total GULP energy -178486.529875 kJ/mol
# GULP energy per Si atom -5577.704059 kJ/mol
# Density = 1.957949 g / cm^3
# Si number density = 19.624153 Si / 1000 Ang^3
#
#
#
# Elastic Constant Matrix: (Units=GPa)
#
#
# Indices 1 2 3 4 5 6 
#
# 1 43.5071 4.4976 13.4343 0.0000 4.6797 0.0000
# 2 4.4976 51.8226 18.8876 0.0000 -7.4761 0.0000
# 3 13.4343 18.8876 91.6042 0.0000 1.6677 0.0000
# 4 0.0000 0.0000 0.0000 24.4254 0.0000 -1.7854
# 5 4.6797 -7.4761 1.6677 0.0000 34.5115 0.0000
# 6 0.0000 0.0000 0.0000 -1.7854 0.0000 9.7978
#
#
#
# Elastic Compliance Matrix: (Units=1/GPa)
#
#
# Indices 1 2 3 4 5 6 
#
# 1 0.024507 -0.001451 -0.003231 0.000000 -0.003481 0.000000
# 2 -0.001451 0.021752 -0.004365 0.000000 0.005120 0.000000
# 3 -0.003231 -0.004365 0.012311 0.000000 -0.001102 0.000000
# 4 0.000000 0.000000 0.000000 0.041494 0.000000 0.007561
# 5 -0.003481 0.005120 -0.001102 0.000000 0.030610 0.000000
# 6 0.000000 0.000000 0.000000 0.007561 0.000000 0.103442
#
#
# Mechanical properties :
#
#
# Convention : Reuss Voigt Hill
#
# Bulk Modulus (GPa) = 24.70761 28.95255 26.83008
# Shear Modulus (GPa) = 18.81798 23.75456 21.28627
#
# Velocity S-wave (km/s) = 3.10000 3.48296 3.29705
# Velocity P-wave (km/s) = 5.04292 5.56420 5.30996
#
# Compressibility (1/GPa) = 0.04047336
#
# Stress axis : x y z
#
# Youngs Moduli (GPa) = 40.80456 45.97238 81.23081
#
# Poissons Ratio (x) = 0.06672 0.26250
# Poissons Ratio (y) = 0.05922 0.35460
# Poissons Ratio (z) = 0.13186 0.20069
#
# Static dielectric constant tensor:
#      x y z
#    x 1.699990 0.000000 0.015800 
#    y 0.000000 1.706930 0.000000 
#    z 0.015800 0.000000 1.729550 
# 
# From -- ./inp_files/244147.got.cif
#   From: 2010.05.17/outbox.cif.g08.bks.cpg/sg12_123_cif.got.tgz:244147.got - 2010.06.03 13:09:07.
