data_PCOD9189606
_publ_section_title
;
Structure prediction by ZEFSAII (Michael W. Deem and Ramdas Pophale) SiO2 
 PCOD9189606
Probable space group: C 2/M
;
_chemical_formula_sum "Si O2"
_cell_formula_units_Z 36
_cell_length_a 8.472763
_cell_length_b 31.116591
_cell_length_c 11.991666
_cell_angle_alpha 90.000000
_cell_angle_beta 33.620122
_cell_angle_gamma 90.000000
_cell_volume 1750.485805
_symmetry_space_group_name_H-M "C 2/M"
_symmetry_group_IT_number 12
_symmetry_cell_setting 'monoclinic'
loop_
_space_group_symop_operation_xyz
x,y,z
-x,y,-z
-x,-y,-z
x,-y,z
1/2+x,1/2+y,z
1/2-x,1/2+y,-z
1/2-x,1/2-y,-z
1/2+x,1/2-y,z
loop_
_atom_site_type_symbol
_atom_site_label
_atom_site_fract_x
_atom_site_fract_y
_atom_site_fract_z
Si Si1 0.000000 0.251793 0.500000
Si Si2 0.954176 0.888224 0.687067
Si Si3 0.452880 0.050884 0.396272
Si Si4 0.641908 0.887830 0.099175
Si Si5 0.599976 0.813379 0.644813
O O1 0.734738 0.219205 0.654579
O O2 0.995188 0.282764 0.397936
O O3 0.668056 0.888009 0.781445
O O4 0.139680 0.930517 0.554594
O O5 0.156189 0.847174 0.541501
O O6 0.866796 0.889789 0.867953
O O7 0.500000 0.061624 0.500000
O O8 0.646909 0.075583 0.191151
O O9 0.477929 0.000000 0.368919
O O10 0.645223 0.842676 0.160702
#
# Coordination Sequence:
#
# PCOD9189606 Si02
#       5
#     4   8   8   8   8
#     4  10  20  34  60  78 114 148 190 230 282 324
#     4  10  21  38  59  83 115 151 187 228 277 334
#     4  10  22  39  59  85 115 146 183 231 281 330
#     4  10  21  38  59  83 115 151 187 228 277 334
#     4  10  19  38  54  83 112 153 184 232 278 330
#
# _framework density 20.565719999999999
#
# number of rings (size 3 to 8) (size 9 to 14) (size 15 to 20)
#    0.000    2.000    2.222    2.000    6.222    3.556 
#    0.000   11.111    0.000    0.000    0.000    0.000 
#    0.000    0.000    0.000    0.000    0.000    0.000 
#
# Total GULP energy -100470.802752 kJ/mol
# GULP energy per Si atom -5581.711264 kJ/mol
# Density = 2.051891 g / cm^3
# Si number density = 20.565720 Si / 1000 Ang^3
#
#
#
# Elastic Constant Matrix: (Units=GPa)
#
#
# Indices 1 2 3 4 5 6 
#
# 1 61.5349 44.9834 20.7247 0.0000 14.2107 0.0000
# 2 44.9834 114.9253 37.4568 0.0000 25.0276 0.0000
# 3 20.7247 37.4568 109.7509 0.0000 31.9269 0.0000
# 4 0.0000 0.0000 0.0000 76.3368 0.0000 6.5624
# 5 14.2107 25.0276 31.9269 0.0000 31.9422 0.0000
# 6 0.0000 0.0000 0.0000 6.5624 0.0000 31.4633
#
#
#
# Elastic Compliance Matrix: (Units=1/GPa)
#
#
# Indices 1 2 3 4 5 6 
#
# 1 0.023184 -0.008150 -0.000640 0.000000 -0.003289 0.000000
# 2 -0.008150 0.013580 -0.001488 0.000000 -0.005527 0.000000
# 3 -0.000640 -0.001488 0.013138 0.000000 -0.011682 0.000000
# 4 0.000000 0.000000 0.000000 0.013339 0.000000 -0.002782
# 5 -0.003289 -0.005527 -0.011682 0.000000 0.048777 0.000000
# 6 0.000000 0.000000 0.000000 -0.002782 0.000000 0.032363
#
#
# Mechanical properties :
#
#
# Convention : Reuss Voigt Hill
#
# Bulk Modulus (GPa) = 34.07412 54.72674 44.40043
# Shear Modulus (GPa) = 28.61765 40.15155 34.38460
#
# Velocity S-wave (km/s) = 3.73436 4.42334 4.09337
# Velocity P-wave (km/s) = 5.93281 7.26335 6.63154
#
# Compressibility (1/GPa) = 0.02934779
#
# Stress axis : x y z
#
# Youngs Moduli (GPa) = 43.13410 73.63888 76.11304
#
# Poissons Ratio (x) = 0.60013 0.04868
# Poissons Ratio (y) = 0.35152 0.11324
# Poissons Ratio (z) = 0.02759 0.10956
#
# Static dielectric constant tensor:
#      x y z
#    x 1.798890 0.000000 -0.003940 
#    y 0.000000 1.688790 0.000000 
#    z -0.003940 0.000000 1.738930 
# 
# From -- ./inp_files/124692.got.cif
#   From: 2010.05.17/outbox.cif.g08.bks.cpg/sg12_63_cif.got.tgz:124692.got - 2010.06.03 13:09:07.
