data_PCOD9189264
_publ_section_title
;
Structure prediction by ZEFSAII (Michael W. Deem and Ramdas Pophale) SiO2 
 PCOD9189264
Probable space group: C 2/M
;
_chemical_formula_sum "Si O2"
_cell_formula_units_Z 64
_cell_length_a 18.628657
_cell_length_b 7.442012
_cell_length_c 18.256418
_cell_angle_alpha 90.000000
_cell_angle_beta 93.794780
_cell_angle_gamma 90.000000
_cell_volume 2525.423678
_symmetry_space_group_name_H-M "C 2/M"
_symmetry_group_IT_number 12
_symmetry_cell_setting 'monoclinic'
loop_
_space_group_symop_operation_xyz
x,y,z
-x,y,-z
-x,-y,-z
x,-y,z
1/2+x,1/2+y,z
1/2-x,1/2+y,-z
1/2-x,1/2-y,-z
1/2+x,1/2-y,z
loop_
_atom_site_type_symbol
_atom_site_label
_atom_site_fract_x
_atom_site_fract_y
_atom_site_fract_z
Si Si1 0.320753 0.716273 0.844701
Si Si2 0.025963 0.798142 0.925160
Si Si3 0.143427 0.220835 0.522233
Si Si4 0.447502 0.293343 0.350455
Si Si5 0.832825 0.300454 0.007358
Si Si6 0.959902 0.218789 0.770845
Si Si7 0.790938 0.796239 0.614460
Si Si8 0.300728 0.219157 0.259140
O O1 0.320063 0.500000 0.851266
O O2 0.350930 0.790042 0.922480
O O3 0.378639 0.762811 0.786420
O O4 0.239182 0.769995 0.818805
O O5 0.005624 0.720391 0.845102
O O6 0.993779 0.000000 0.923046
O O7 0.111171 0.809533 0.941724
O O8 0.000000 0.710477 0.000000
O O9 0.080001 0.279217 0.573019
O O10 0.148630 0.274842 0.437269
O O11 0.216699 0.296485 0.562437
O O12 0.146878 0.000000 0.524379
O O13 0.466862 0.500000 0.367477
O O14 0.509733 0.212594 0.304076
O O15 0.377422 0.288720 0.291504
O O16 0.839864 0.500000 0.036738
O O17 0.750000 0.250000 0.000000
O O18 0.966051 0.000000 0.767448
O O19 0.758210 0.714932 0.685380
O O20 0.813156 0.000000 0.634681
O O21 0.305241 0.000000 0.262508
#
# Coordination Sequence:
#
# PCOD9189264 Si02
#       8
#     8   8   8   8   8   8   8   8
#     4  10  20  38  56  73 100 137 173 204 250 309
#     4  10  19  37  61  80 102 135 173 210 252 304
#     4   8  13  22  39  63  94 125 159 202 244 292
#     4   9  17  29  47  73  99 129 168 207 249 299
#     4  12  26  41  58  81 107 134 168 212 257 304
#     4   9  18  33  54  74  98 134 170 203 246 303
#     4   8  13  23  39  63  93 126 159 199 250 293
#     4   9  18  30  48  72  99 129 166 210 253 298
#
# _framework density 25.342283999999999
#
# number of rings (size 3 to 8) (size 9 to 14) (size 15 to 20)
#    0.000    2.625    1.250    1.125    1.750    0.750 
#    0.000    0.625    0.000    0.750    0.000    5.250 
#    0.000    0.000    0.000   41.625    0.000   20.250 
#
# Total GULP energy -178502.011022 kJ/mol
# GULP energy per Si atom -5578.187844 kJ/mol
# Density = 2.528460 g / cm^3
# Si number density = 25.342284 Si / 1000 Ang^3
#
#
#
# Elastic Constant Matrix: (Units=GPa)
#
#
# Indices 1 2 3 4 5 6 
#
# 1 70.8745 -3.4281 25.2068 0.0000 -19.5359 0.0000
# 2 -3.4281 89.4701 -8.5557 0.0000 -2.1085 0.0000
# 3 25.2068 -8.5557 46.0262 0.0000 -21.6932 0.0000
# 4 0.0000 0.0000 0.0000 0.8134 0.0000 0.5876
# 5 -19.5359 -2.1085 -21.6932 0.0000 54.8436 0.0000
# 6 0.0000 0.0000 0.0000 0.5876 0.0000 2.8251
#
#
#
# Elastic Compliance Matrix: (Units=1/GPa)
#
#
# Indices 1 2 3 4 5 6 
#
# 1 0.017935 -0.000042 -0.008383 0.000000 0.003071 0.000000
# 2 -0.000042 0.011490 0.002901 0.000000 0.001574 0.000000
# 3 -0.008383 0.002901 0.031346 0.000000 0.009524 0.000000
# 4 0.000000 0.000000 0.000000 1.446824 0.000000 -0.300909
# 5 0.003071 0.001574 0.009524 0.000000 0.023156 0.000000
# 6 0.000000 0.000000 0.000000 -0.300909 0.000000 0.416557
#
#
# Mechanical properties :
#
#
# Convention : Reuss Voigt Hill
#
# Bulk Modulus (GPa) = 20.11141 25.86855 22.98998
# Shear Modulus (GPa) = 2.53174 24.57293 13.55233
#
# Velocity S-wave (km/s) = 1.00059 3.11728 2.31502
# Velocity P-wave (km/s) = 3.04763 4.81523 4.02955
#
# Compressibility (1/GPa) = 0.04972301
#
# Stress axis : x y z
#
# Youngs Moduli (GPa) = 55.75576 87.03380 31.90214
#
# Poissons Ratio (x) = 0.00366 0.26743
# Poissons Ratio (y) = 0.00234 -0.09254
# Poissons Ratio (z) = 0.46739 -0.25246
#
# Static dielectric constant tensor:
#      x y z
#    x 2.225820 0.000000 0.320320 
#    y 0.000000 2.132860 0.000000 
#    z 0.320320 0.000000 2.703380 
# 
# From -- ./inp_files/314004.got.cif
#   From: 2010.05.17/outbox.cif.g08.bks.cpg/sg12_158_cif.got.tgz:314004.got - 2010.06.03 13:09:07.
