data_PCOD9189027
_publ_section_title
;
Structure prediction by ZEFSAII (Michael W. Deem and Ramdas Pophale) SiO2 
 PCOD9189027
Probable space group: C 2/M
;
_chemical_formula_sum "Si O2"
_cell_formula_units_Z 56
_cell_length_a 12.153744
_cell_length_b 30.686226
_cell_length_c 7.267598
_cell_angle_alpha 90.000000
_cell_angle_beta 84.975962
_cell_angle_gamma 90.000000
_cell_volume 2700.055598
_symmetry_space_group_name_H-M "C 2/M"
_symmetry_group_IT_number 12
_symmetry_cell_setting 'monoclinic'
loop_
_space_group_symop_operation_xyz
x,y,z
-x,y,-z
-x,-y,-z
x,-y,z
1/2+x,1/2+y,z
1/2-x,1/2+y,-z
1/2-x,1/2-y,-z
1/2+x,1/2-y,z
loop_
_atom_site_type_symbol
_atom_site_label
_atom_site_fract_x
_atom_site_fract_y
_atom_site_fract_z
Si Si1 0.090125 0.424588 0.231540
Si Si2 0.767192 0.293856 0.727455
Si Si3 0.009993 0.666014 0.278853
Si Si4 0.765895 0.693999 0.290247
Si Si5 0.850549 0.450755 0.399705
Si Si6 0.780820 0.950463 0.943063
Si Si7 0.871099 0.855446 0.984289
O O1 0.249178 0.304350 0.486725
O O2 0.061628 0.376073 0.176219
O O3 0.971469 0.446014 0.290133
O O4 0.168352 0.448587 0.078933
O O5 0.733399 0.244365 0.771086
O O6 0.898108 0.296973 0.750633
O O7 0.700130 0.329184 0.853908
O O8 0.887566 0.675517 0.230779
O O9 0.000000 0.656822 0.500000
O O10 0.848071 0.578481 0.580646
O O11 0.674912 0.665284 0.199280
O O12 0.840387 0.500000 0.470565
O O13 0.758389 0.443241 0.261214
O O14 0.848640 0.907642 0.991494
O O15 0.827100 0.000000 0.953619
O O16 0.000000 0.847460 0.000000
#
# Coordination Sequence:
#
# PCOD9189027 Si02
#       7
#     8   8   8   8   8   8   8
#     4  11  18  34  57  87 127 156 197 251 315 384
#     4  10  23  45  66  97 129 167 213 257 319 381
#     4  10  19  36  65  97 123 163 204 249 320 383
#     4  10  24  43  69  96 133 166 206 266 318 374
#     4  10  20  32  55  88 121 158 197 253 319 379
#     4  11  24  40  59  86 121 164 214 262 312 370
#     4  12  27  43  65  93 125 173 223 261 312 374
#
# _framework density 20.740314999999999
#
# number of rings (size 3 to 8) (size 9 to 14) (size 15 to 20)
#    0.000    1.429    2.857    3.429    4.000    2.571 
#    0.000    0.000    0.000    0.000    0.000    5.000 
#    0.000    0.000    0.000    0.000    0.000    0.000 
#
# Total GULP energy -156447.555804 kJ/mol
# GULP energy per Si atom -5587.412707 kJ/mol
# Density = 2.069311 g / cm^3
# Si number density = 20.740315 Si / 1000 Ang^3
#
#
#
# Elastic Constant Matrix: (Units=GPa)
#
#
# Indices 1 2 3 4 5 6 
#
# 1 110.5505 42.4886 17.8598 0.0000 9.4681 0.0000
# 2 42.4886 126.4032 17.5425 0.0000 3.8591 0.0000
# 3 17.8598 17.5425 60.6184 0.0000 10.0238 0.0000
# 4 0.0000 0.0000 0.0000 16.9961 0.0000 6.4619
# 5 9.4681 3.8591 10.0238 0.0000 17.2198 0.0000
# 6 0.0000 0.0000 0.0000 6.4619 0.0000 27.8565
#
#
#
# Elastic Compliance Matrix: (Units=1/GPa)
#
#
# Indices 1 2 3 4 5 6 
#
# 1 0.010950 -0.003334 -0.001537 0.000000 -0.004379 0.000000
# 2 -0.003334 0.009261 -0.001834 0.000000 0.000825 0.000000
# 3 -0.001537 -0.001834 0.019112 0.000000 -0.009869 0.000000
# 4 0.000000 0.000000 0.000000 0.064528 0.000000 -0.014968
# 5 -0.004379 0.000825 -0.009869 0.000000 0.066040 0.000000
# 6 0.000000 0.000000 0.000000 -0.014968 0.000000 0.039370
#
#
# Mechanical properties :
#
#
# Convention : Reuss Voigt Hill
#
# Bulk Modulus (GPa) = 38.59098 50.37265 44.48181
# Shear Modulus (GPa) = 21.61593 27.05992 24.33792
#
# Velocity S-wave (km/s) = 3.23184 3.61598 3.42930
# Velocity P-wave (km/s) = 5.70732 6.46327 6.09702
#
# Compressibility (1/GPa) = 0.02591279
#
# Stress axis : x y z
#
# Youngs Moduli (GPa) = 91.32160 107.97782 52.32211
#
# Poissons Ratio (x) = 0.35997 0.08044
# Poissons Ratio (y) = 0.30444 0.09598
# Poissons Ratio (z) = 0.14040 0.19807
#
# Static dielectric constant tensor:
#      x y z
#    x 1.716550 0.000000 0.035470 
#    y 0.000000 1.762490 0.000000 
#    z 0.035470 0.000000 1.769150 
# 
# From -- ./inp_files/53208.got.cif
#   From: 2010.05.17/outbox.cif.g08.bks.cpg/sg12_27_cif.got.tgz:53208.got - 2010.06.03 13:09:07.
