data_PCOD9189419
_publ_section_title
;
Structure prediction by ZEFSAII (Michael W. Deem and Ramdas Pophale) SiO2 
 PCOD9189419
Probable space group: C 2/M
;
_chemical_formula_sum "Si O2"
_cell_formula_units_Z 56
_cell_length_a 22.091533
_cell_length_b 19.150485
_cell_length_c 9.877033
_cell_angle_alpha 90.000000
_cell_angle_beta 46.394069
_cell_angle_gamma 90.000000
_cell_volume 3025.735538
_symmetry_space_group_name_H-M "C 2/M"
_symmetry_group_IT_number 12
_symmetry_cell_setting 'monoclinic'
loop_
_space_group_symop_operation_xyz
x,y,z
-x,y,-z
-x,-y,-z
x,-y,z
1/2+x,1/2+y,z
1/2-x,1/2+y,-z
1/2-x,1/2-y,-z
1/2+x,1/2-y,z
loop_
_atom_site_type_symbol
_atom_site_label
_atom_site_fract_x
_atom_site_fract_y
_atom_site_fract_z
Si Si1 0.244990 0.672833 0.942990
Si Si2 0.725738 0.917517 0.476238
Si Si3 0.834693 0.163063 0.523992
Si Si4 0.836784 0.124583 0.048978
Si Si5 0.599544 0.803544 0.690108
Si Si6 0.092950 0.717542 0.022168
Si Si7 0.487545 0.420671 0.174602
O O1 0.308775 0.665584 0.719731
O O2 0.250000 0.750000 0.000000
O O3 0.274432 0.623031 0.018275
O O4 0.152944 0.668666 0.019764
O O5 0.767522 0.881098 0.542442
O O6 0.788676 0.900923 0.256006
O O7 0.639161 0.876822 0.585243
O O8 0.716434 0.000000 0.507434
O O9 0.842181 0.241858 0.457448
O O10 0.922758 0.126616 0.354627
O O11 0.871720 0.203733 0.015245
O O12 0.921354 0.081168 0.900037
O O13 0.504399 0.789857 0.790682
O O14 0.600054 0.799405 0.852260
O O15 0.455352 0.500000 0.215138
O O16 0.500000 0.394678 0.000000
#
# Coordination Sequence:
#
# PCOD9189419 Si02
#       7
#     8   8   8   8   8   8   8
#     4  10  23  39  60  91 127 160 206 261 316 373
#     4  12  24  39  63  94 124 164 213 256 309 376
#     4  12  21  39  65  94 123 162 210 263 313 370
#     4  11  21  40  60  89 132 164 200 255 315 378
#     4  11  20  36  67  94 118 152 211 266 307 359
#     4  10  19  37  62  95 118 153 205 265 314 355
#     4  11  21  36  61  95 131 164 206 259 314 375
#
# _framework density 18.507897
#
# number of rings (size 3 to 8) (size 9 to 14) (size 15 to 20)
#    0.000    1.000    5.714    3.000    0.000    0.571 
#    0.000    7.143    0.000    0.857    0.000    0.000 
#    0.000    0.000    0.000    0.000    0.000    0.000 
#
# Total GULP energy -156361.189264 kJ/mol
# GULP energy per Si atom -5584.328188 kJ/mol
# Density = 1.846577 g / cm^3
# Si number density = 18.507897 Si / 1000 Ang^3
#
#
#
# Elastic Constant Matrix: (Units=GPa)
#
#
# Indices 1 2 3 4 5 6 
#
# 1 92.8110 26.3440 16.9829 0.0000 -1.4877 0.0000
# 2 26.3440 93.8773 43.1854 0.0000 -9.0916 0.0000
# 3 16.9829 43.1854 85.1019 0.0000 2.8922 0.0000
# 4 0.0000 0.0000 0.0000 7.5917 0.0000 -2.4628
# 5 -1.4877 -9.0916 2.8922 0.0000 30.3796 0.0000
# 6 0.0000 0.0000 0.0000 -2.4628 0.0000 16.9590
#
#
#
# Elastic Compliance Matrix: (Units=1/GPa)
#
#
# Indices 1 2 3 4 5 6 
#
# 1 0.011758 -0.002929 -0.000853 0.000000 -0.000219 0.000000
# 2 -0.002929 0.015375 -0.007393 0.000000 0.005162 0.000000
# 3 -0.000853 -0.007393 0.015800 0.000000 -0.003758 0.000000
# 4 0.000000 0.000000 0.000000 0.138234 0.000000 0.020074
# 5 -0.000219 0.005162 -0.003758 0.000000 0.034809 0.000000
# 6 0.000000 0.000000 0.000000 0.020074 0.000000 0.061881
#
#
# Mechanical properties :
#
#
# Convention : Reuss Voigt Hill
#
# Bulk Modulus (GPa) = 48.58049 49.42385 49.00217
# Shear Modulus (GPa) = 16.28305 23.33794 19.81049
#
# Velocity S-wave (km/s) = 2.96934 3.55487 3.27522
# Velocity P-wave (km/s) = 6.16940 6.60391 6.39035
#
# Compressibility (1/GPa) = 0.02058440
#
# Stress axis : x y z
#
# Youngs Moduli (GPa) = 85.04560 65.04135 63.29035
#
# Poissons Ratio (x) = 0.19048 0.05398
# Poissons Ratio (y) = 0.24906 0.46791
# Poissons Ratio (z) = 0.07254 0.48085
#
# Static dielectric constant tensor:
#      x y z
#    x 1.677250 0.000000 -0.024090 
#    y 0.000000 1.657720 0.000000 
#    z -0.024090 0.000000 1.627770 
# 
# From -- ./inp_files/89521.got.cif
#   From: 2010.05.17/outbox.cif.g08.bks.cpg/sg12_45_cif.got.tgz:89521.got - 2010.06.03 13:09:07.
