data_PCOD9189939
_publ_section_title
;
Structure prediction by ZEFSAII (Michael W. Deem and Ramdas Pophale) SiO2 
 PCOD9189939
Probable space group: C 2/M
;
_chemical_formula_sum "Si O2"
_cell_formula_units_Z 42
_cell_length_a 11.493593
_cell_length_b 19.672367
_cell_length_c 8.273650
_cell_angle_alpha 90.000000
_cell_angle_beta 77.427416
_cell_angle_gamma 90.000000
_cell_volume 1825.865376
_symmetry_space_group_name_H-M "C 2/M"
_symmetry_group_IT_number 12
_symmetry_cell_setting 'monoclinic'
loop_
_space_group_symop_operation_xyz
x,y,z
-x,y,-z
-x,-y,-z
x,-y,z
1/2+x,1/2+y,z
1/2-x,1/2+y,-z
1/2-x,1/2-y,-z
1/2+x,1/2-y,z
loop_
_atom_site_type_symbol
_atom_site_label
_atom_site_fract_x
_atom_site_fract_y
_atom_site_fract_z
Si Si1 0.500000 0.747565 0.000000
Si Si2 0.500000 0.500000 0.500000
Si Si3 0.606862 0.500000 0.841610
Si Si4 0.210293 0.646829 0.965379
Si Si5 0.585684 0.000000 0.628990
Si Si6 0.363518 0.000000 0.929719
Si Si7 0.790636 0.888259 0.600823
Si Si8 0.132364 0.148859 0.753526
O O1 0.611299 0.795684 0.000613
O O2 0.529964 0.700260 0.837438
O O3 0.399753 0.440770 0.580352
O O4 0.743760 0.500000 0.854646
O O5 0.591073 0.570138 0.754441
O O6 0.500000 0.500000 0.000000
O O7 0.277969 0.650976 0.774098
O O8 0.153387 0.571373 0.976386
O O9 0.285314 0.650406 0.109140
O O10 0.500000 0.000000 0.500000
O O11 0.672407 0.065540 0.604511
O O12 0.488219 0.000000 0.800772
O O13 0.808796 0.840332 0.438120
#
# Coordination Sequence:
#
# PCOD9189939 Si02
#       8
#     4   2   4   8   4   4   8   8
#     4  12  26  46  72  96 146 194 242 284 358 436
#     4  10  24  44  70 118 142 170 238 308 358 430
#     4  10  19  38  70 100 131 175 232 290 350 407
#     4  11  25  46  68 104 140 185 237 297 348 436
#     4  11  20  39  64 106 144 177 224 291 360 439
#     4  10  21  38  71  98 134 181 228 291 362 405
#     4  11  25  42  71 102 144 181 232 297 365 416
#     4  11  25  45  70 104 134 187 235 298 357 430
#
# _framework density 23.002793
#
# number of rings (size 3 to 8) (size 9 to 14) (size 15 to 20)
#    0.000    1.143    0.952    6.286    2.667    4.952 
#    0.000    1.905    0.000    0.000    0.000    0.000 
#    0.000    0.000    0.000    0.000    0.000    0.000 
#
# Total GULP energy -117142.527197 kJ/mol
# GULP energy per Si atom -5578.215581 kJ/mol
# Density = 2.295044 g / cm^3
# Si number density = 23.002793 Si / 1000 Ang^3
#
#
#
# Elastic Constant Matrix: (Units=GPa)
#
#
# Indices 1 2 3 4 5 6 
#
# 1 162.9533 42.5487 76.4058 0.0000 2.3376 0.0000
# 2 42.5487 131.3622 59.0164 0.0000 -6.7829 0.0000
# 3 76.4058 59.0164 212.1957 0.0000 -3.9940 0.0000
# 4 0.0000 0.0000 0.0000 -67.3021 0.0000 -42.6690
# 5 2.3376 -6.7829 -3.9940 0.0000 43.4505 0.0000
# 6 0.0000 0.0000 0.0000 -42.6690 0.0000 33.6050
#
#
#
# Elastic Compliance Matrix: (Units=1/GPa)
#
#
# Indices 1 2 3 4 5 6 
#
# 1 0.007636 -0.001457 -0.002360 0.000000 -0.000855 0.000000
# 2 -0.001457 0.009034 -0.001963 0.000000 0.001308 0.000000
# 3 -0.002360 -0.001963 0.006116 0.000000 0.000383 0.000000
# 4 0.000000 0.000000 0.000000 -0.008232 0.000000 -0.010452
# 5 -0.000855 0.001308 0.000383 0.000000 0.023300 0.000000
# 6 0.000000 0.000000 0.000000 -0.010452 0.000000 0.016486
#
#
# Mechanical properties :
#
#
# Convention : Reuss Voigt Hill
#
# Bulk Modulus (GPa) = 89.09131 95.82812 92.45972
# Shear Modulus (GPa) = 71.79397 23.85338 47.82368
#
# Velocity S-wave (km/s) = 5.59274 3.22371 4.56459
# Velocity P-wave (km/s) = 8.97328 7.45695 8.25003
#
# Compressibility (1/GPa) = 0.01122444
#
# Stress axis : x y z
#
# Youngs Moduli (GPa) = 130.95477 110.69182 163.51088
#
# Poissons Ratio (x) = 0.16129 0.38596
# Poissons Ratio (y) = 0.19081 0.32102
# Poissons Ratio (z) = 0.30911 0.21732
#
# Static dielectric constant tensor:
#      x y z
#    x 1.858600 0.000000 0.112680 
#    y 0.000000 1.868700 0.000000 
#    z 0.112680 0.000000 2.005780 
# 
# From -- ./inp_files/49257.got.cif
#   From: 2010.05.17/outbox.cif.g08.bks.cpg/sg12_25_cif.got.tgz:49257.got - 2010.06.03 13:09:07.
