data_PCOD9189832
_publ_section_title
;
Structure prediction by ZEFSAII (Michael W. Deem and Ramdas Pophale) SiO2 
 PCOD9189832
Probable space group: C 2/M
;
_chemical_formula_sum "Si O2"
_cell_formula_units_Z 60
_cell_length_a 27.658845
_cell_length_b 14.596330
_cell_length_c 25.452767
_cell_angle_alpha 90.000000
_cell_angle_beta 17.819094
_cell_angle_gamma 90.000000
_cell_volume 3144.502960
_symmetry_space_group_name_H-M "C 2/M"
_symmetry_group_IT_number 12
_symmetry_cell_setting 'monoclinic'
loop_
_space_group_symop_operation_xyz
x,y,z
-x,y,-z
-x,-y,-z
x,-y,z
1/2+x,1/2+y,z
1/2-x,1/2+y,-z
1/2-x,1/2-y,-z
1/2+x,1/2-y,z
loop_
_atom_site_type_symbol
_atom_site_label
_atom_site_fract_x
_atom_site_fract_y
_atom_site_fract_z
Si Si1 0.162615 0.393668 0.931515
Si Si2 0.575355 0.238649 0.205870
Si Si3 0.498433 0.607940 0.371376
Si Si4 0.254371 0.747438 0.654913
Si Si5 0.979199 0.750024 0.194143
Si Si6 0.000000 0.691141 0.000000
Si Si7 0.997208 0.604569 0.565068
Si Si8 0.254730 0.893544 0.897836
O O1 0.127115 0.500000 0.977646
O O2 0.349254 0.380158 0.748431
O O3 0.103749 0.366048 0.934557
O O4 0.071934 0.331290 0.067874
O O5 0.532340 0.326437 0.286030
O O6 0.461497 0.227610 0.273857
O O7 0.606465 0.150957 0.210262
O O8 0.750000 0.250000 0.000000
O O9 0.484159 0.500000 0.373440
O O10 0.342955 0.649532 0.559450
O O11 0.176321 0.765265 0.679054
O O12 0.383726 0.822478 0.534528
O O13 0.119884 0.746493 0.838606
O O14 0.094360 0.837795 0.071252
O O15 0.041172 0.500000 0.533909
O O16 0.000000 0.613133 0.500000
O O17 0.822117 0.619277 0.769416
O O18 0.234025 0.000000 0.930937
#
# Coordination Sequence:
#
# PCOD9189832 Si02
#       8
#     8   8   8   8   8   4   8   8
#     4  10  20  38  61  87 124 159 205 249 299 362
#     4  10  19  38  64  88 122 153 204 247 302 360
#     4  11  23  40  63  92 123 162 204 252 301 366
#     4  11  24  40  63  86 131 158 206 251 309 364
#     4  10  22  38  59  92 124 160 195 255 305 353
#     4  10  25  38  61  92 120 170 197 254 307 364
#     4  10  22  39  63  88 119 159 204 255 303 361
#     4  10  20  38  63  90 117 156 207 250 297 364
#
# _framework density 19.080915999999998
#
# number of rings (size 3 to 8) (size 9 to 14) (size 15 to 20)
#    0.000    1.733    4.000    0.200    5.600    6.400 
#    0.000    1.667    0.000    0.000    0.000    0.000 
#    0.000    0.000    0.000    0.000    0.000    0.000 
#
# Total GULP energy -167370.945112 kJ/mol
# GULP energy per Si atom -5579.031504 kJ/mol
# Density = 1.903749 g / cm^3
# Si number density = 19.080916 Si / 1000 Ang^3
#
#
#
# Elastic Constant Matrix: (Units=GPa)
#
#
# Indices 1 2 3 4 5 6 
#
# 1 104.4106 37.5976 8.8977 0.0013 -7.1698 0.0007
# 2 37.5976 88.5283 13.6893 -0.0012 -15.7037 0.0039
# 3 8.8977 13.6893 48.6479 -0.0031 1.8262 0.0016
# 4 0.0013 -0.0012 -0.0031 9.3848 0.0016 2.1104
# 5 -7.1698 -15.7037 1.8262 0.0016 29.7117 -0.0006
# 6 0.0007 0.0039 0.0016 2.1104 -0.0006 14.6506
#
#
#
# Elastic Compliance Matrix: (Units=1/GPa)
#
#
# Indices 1 2 3 4 5 6 
#
# 1 0.011336 -0.004634 -0.000782 -0.000003 0.000334 0.000001
# 2 -0.004634 0.015086 -0.003663 0.000001 0.007081 -0.000003
# 3 -0.000782 -0.003663 0.021860 0.000008 -0.003469 -0.000003
# 4 -0.000003 0.000001 0.000008 0.110123 -0.000007 -0.015863
# 5 0.000334 0.007081 -0.003469 -0.000007 0.037693 0.000001
# 6 0.000001 -0.000003 -0.000003 -0.015863 0.000001 0.070542
#
#
# Mechanical properties :
#
#
# Convention : Reuss Voigt Hill
#
# Bulk Modulus (GPa) = 33.19683 40.21734 36.70708
# Shear Modulus (GPa) = 16.95837 22.84291 19.90064
#
# Velocity S-wave (km/s) = 2.98444 3.46375 3.23299
# Velocity P-wave (km/s) = 5.41402 6.09260 5.76330
#
# Compressibility (1/GPa) = 0.03012336
#
# Stress axis : x y z
#
# Youngs Moduli (GPa) = 88.21560 66.28485 45.74572
#
# Poissons Ratio (x) = 0.30717 0.03577
# Poissons Ratio (y) = 0.40880 0.16759
# Poissons Ratio (z) = 0.06897 0.24283
#
# Static dielectric constant tensor:
#      x y z
#    x 1.695210 0.000000 0.002200 
#    y 0.000000 1.650720 0.000000 
#    z 0.002200 0.000000 1.686140 
# 
# From -- ./inp_files/352130.got.cif
#   From: 2010.05.17/outbox.cif.g08.bks.cpg/sg12_177_cif.got.tgz:352130.got - 2010.06.03 13:09:07.
