data_PCOD9189894
_publ_section_title
;
Structure prediction by ZEFSAII (Michael W. Deem and Ramdas Pophale) SiO2 
 PCOD9189894
Probable space group: C 2/M
;
_chemical_formula_sum "Si O2"
_cell_formula_units_Z 48
_cell_length_a 17.648740
_cell_length_b 31.296640
_cell_length_c 8.438371
_cell_angle_alpha 90.000000
_cell_angle_beta 146.756190
_cell_angle_gamma 90.000000
_cell_volume 2555.120261
_symmetry_space_group_name_H-M "C 2/M"
_symmetry_group_IT_number 12
_symmetry_cell_setting 'monoclinic'
loop_
_space_group_symop_operation_xyz
x,y,z
-x,y,-z
-x,-y,-z
x,-y,z
1/2+x,1/2+y,z
1/2-x,1/2+y,-z
1/2-x,1/2-y,-z
1/2+x,1/2-y,z
loop_
_atom_site_type_symbol
_atom_site_label
_atom_site_fract_x
_atom_site_fract_y
_atom_site_fract_z
Si Si1 0.173888 0.871757 0.973916
Si Si2 0.102568 0.397917 0.043209
Si Si3 0.104561 0.760494 0.324490
Si Si4 0.343166 0.049049 0.163116
Si Si5 0.431998 0.826094 0.553743
Si Si6 0.132624 0.850620 0.531745
O O1 0.166961 0.855227 0.779082
O O2 0.016805 0.871802 0.757983
O O3 0.245935 0.918013 0.087117
O O4 0.274438 0.841308 0.250322
O O5 0.149840 0.434675 0.005483
O O6 0.014852 0.362504 0.792974
O O7 0.241966 0.373575 0.340967
O O8 0.000000 0.413413 0.000000
O O9 0.250000 0.750000 0.500000
O O10 0.057741 0.718502 0.337546
O O11 0.120430 0.801379 0.464047
O O12 0.000000 0.770437 0.000000
O O13 0.500000 0.052907 0.500000
O O14 0.299154 0.000000 0.099160
O O15 0.500000 0.822682 0.500000
#
# Coordination Sequence:
#
# PCOD9189894 Si02
#       6
#     8   8   8   8   8   8
#     4  10  20  38  60  89 114 150 200 247 301 345
#     4  11  21  39  60  88 121 156 193 241 297 362
#     4  12  26  40  54  85 121 162 204 248 300 344
#     4  10  19  38  66  93 115 146 197 248 294 359
#     4  12  21  37  63  82 114 157 212 251 285 344
#     4  10  22  38  56  84 122 154 196 246 296 348
#
# _framework density 18.785809
#
# number of rings (size 3 to 8) (size 9 to 14) (size 15 to 20)
#    0.000    1.167    5.000    3.500    2.333    1.000 
#    0.000    6.667    0.000    0.000    0.000    2.333 
#    0.000    0.000    0.000    0.000    0.000    0.000 
#
# Total GULP energy -134111.555580 kJ/mol
# GULP energy per Si atom -5587.981482 kJ/mol
# Density = 1.874305 g / cm^3
# Si number density = 18.785809 Si / 1000 Ang^3
#
#
#
# Elastic Constant Matrix: (Units=GPa)
#
#
# Indices 1 2 3 4 5 6 
#
# 1 40.3016 4.0441 5.0342 0.0000 13.5713 0.0000
# 2 4.0441 116.2311 25.9924 0.0000 -7.2136 0.0000
# 3 5.0342 25.9924 95.4234 0.0000 19.3964 0.0000
# 4 0.0000 0.0000 0.0000 22.3718 0.0000 0.8723
# 5 13.5713 -7.2136 19.3964 0.0000 25.7652 0.0000
# 6 0.0000 0.0000 0.0000 0.8723 0.0000 6.1278
#
#
#
# Elastic Compliance Matrix: (Units=1/GPa)
#
#
# Indices 1 2 3 4 5 6 
#
# 1 0.031379 -0.003033 0.003191 0.000000 -0.019780 0.000000
# 2 -0.003033 0.010098 -0.004120 0.000000 0.007527 0.000000
# 3 0.003191 -0.004120 0.014180 0.000000 -0.013509 0.000000
# 4 0.000000 0.000000 0.000000 0.044949 0.000000 -0.006398
# 5 -0.019780 0.007527 -0.013509 0.000000 0.061508 0.000000
# 6 0.000000 0.000000 0.000000 -0.006398 0.000000 0.164103
#
#
# Mechanical properties :
#
#
# Convention : Reuss Voigt Hill
#
# Bulk Modulus (GPa) = 20.95011 35.78862 28.36937
# Shear Modulus (GPa) = 14.28364 25.31198 19.79781
#
# Velocity S-wave (km/s) = 2.76042 3.67468 3.24986
# Velocity P-wave (km/s) = 4.61911 6.09069 5.40522
#
# Compressibility (1/GPa) = 0.04773244
#
# Stress axis : x y z
#
# Youngs Moduli (GPa) = 31.86798 99.03314 70.52410
#
# Poissons Ratio (x) = 0.30038 -0.22507
# Poissons Ratio (y) = 0.09666 0.29059
# Poissons Ratio (z) = -0.10170 0.40805
#
# Static dielectric constant tensor:
#      x y z
#    x 1.673780 0.000000 0.008240 
#    y 0.000000 1.624970 0.000000 
#    z 0.008240 0.000000 1.661840 
# 
# From -- ./inp_files/42237.got.cif
#   From: 2010.05.17/outbox.cif.g08.bks.cpg/sg12_22_cif.got.tgz:42237.got - 2010.06.03 13:09:07.
