data_PCOD9189887
_publ_section_title
;
Structure prediction by ZEFSAII (Michael W. Deem and Ramdas Pophale) SiO2 
 PCOD9189887
Probable space group: C 2/M
;
_chemical_formula_sum "Si O2"
_cell_formula_units_Z 48
_cell_length_a 30.585246
_cell_length_b 8.649164
_cell_length_c 19.216460
_cell_angle_alpha 90.000000
_cell_angle_beta 29.453890
_cell_angle_gamma 90.000000
_cell_volume 2499.654508
_symmetry_space_group_name_H-M "C 2/M"
_symmetry_group_IT_number 12
_symmetry_cell_setting 'monoclinic'
loop_
_space_group_symop_operation_xyz
x,y,z
-x,y,-z
-x,-y,-z
x,-y,z
1/2+x,1/2+y,z
1/2-x,1/2+y,-z
1/2-x,1/2-y,-z
1/2+x,1/2-y,z
loop_
_atom_site_type_symbol
_atom_site_label
_atom_site_fract_x
_atom_site_fract_y
_atom_site_fract_z
Si Si1 0.845653 0.813948 0.889893
Si Si2 0.467208 0.323499 0.124279
Si Si3 0.640104 0.688100 0.969494
Si Si4 0.778577 0.680067 0.387162
Si Si5 0.798607 0.313267 0.648040
Si Si6 0.505379 0.812860 0.573984
O O1 0.924162 0.753799 0.731337
O O2 0.844478 0.000000 0.889353
O O3 0.750000 0.750000 0.000000
O O4 0.859732 0.763987 0.950584
O O5 0.441936 0.500000 0.181161
O O6 0.383232 0.213628 0.239777
O O7 0.500000 0.334052 0.000000
O O8 0.548710 0.267423 0.058417
O O9 0.642314 0.500000 0.964922
O O10 0.725720 0.740338 0.806224
O O11 0.758662 0.500000 0.412355
O O12 0.750000 0.750000 0.500000
O O13 0.732044 0.758906 0.385358
O O14 0.797490 0.500000 0.650466
O O15 0.898492 0.263975 0.529153
O O16 0.500000 0.768949 0.500000
O O17 0.500370 0.000000 0.584145
#
# Coordination Sequence:
#
# PCOD9189887 Si02
#       6
#     8   8   8   8   8   8
#     4  11  23  40  63  92 125 159 202 250 302 361
#     4  10  19  38  66  90 118 159 203 246 300 361
#     4   9  19  37  63  90 119 158 200 245 301 363
#     4  12  26  41  59  87 125 164 207 255 304 357
#     4  10  20  40  65  89 119 161 206 247 303 366
#     4  10  22  41  66  92 123 161 202 250 304 363
#
# _framework density 19.202653999999999
#
# number of rings (size 3 to 8) (size 9 to 14) (size 15 to 20)
#    0.000    1.667    1.667    3.000    2.333    4.000 
#    0.000    4.167    0.000    0.000    0.000    0.000 
#    0.000    0.000    0.000    0.000    0.000    0.000 
#
# Total GULP energy -134061.404664 kJ/mol
# GULP energy per Si atom -5585.891861 kJ/mol
# Density = 1.915895 g / cm^3
# Si number density = 19.202654 Si / 1000 Ang^3
#
#
#
# Elastic Constant Matrix: (Units=GPa)
#
#
# Indices 1 2 3 4 5 6 
#
# 1 209.5595 28.1111 111.2978 0.0000 -3.7054 0.0002
# 2 28.1111 27.5446 28.9280 0.0035 0.3892 -0.0025
# 3 111.2978 28.9280 150.5843 0.0075 4.4833 -0.0012
# 4 0.0000 0.0035 0.0075 27.1973 -0.0015 5.8700
# 5 -3.7054 0.3892 4.4833 -0.0015 38.7707 -0.0003
# 6 0.0002 -0.0025 -0.0012 5.8700 -0.0003 16.8633
#
#
#
# Elastic Compliance Matrix: (Units=1/GPa)
#
#
# Indices 1 2 3 4 5 6 
#
# 1 0.008064 -0.002437 -0.005534 0.000002 0.001435 -0.000002
# 2 -0.002437 0.046229 -0.007083 -0.000006 0.000122 0.000009
# 3 -0.005534 -0.007083 0.012147 -0.000003 -0.001863 0.000001
# 4 0.000002 -0.000006 -0.000003 0.039755 0.000002 -0.013839
# 5 0.001435 0.000122 -0.001863 0.000002 0.026144 0.000000
# 6 -0.000002 0.000009 0.000001 -0.013839 0.000000 0.064118
#
#
# Mechanical properties :
#
#
# Convention : Reuss Voigt Hill
#
# Bulk Modulus (GPa) = 27.52483 80.48467 54.00475
# Shear Modulus (GPa) = 20.94882 31.18967 26.06924
#
# Velocity S-wave (km/s) = 3.30651 4.03456 3.68854
# Velocity P-wave (km/s) = 5.37981 7.98172 6.80625
#
# Compressibility (1/GPa) = 0.03633084
#
# Stress axis : x y z
#
# Youngs Moduli (GPa) = 124.01505 21.63126 82.32233
#
# Poissons Ratio (x) = 0.05272 0.45560
# Poissons Ratio (y) = 0.30227 0.58309
# Poissons Ratio (z) = 0.68634 0.15322
#
# Static dielectric constant tensor:
#      x y z
#    x 1.658680 0.000000 -0.010750 
#    y 0.000000 1.669120 0.000000 
#    z -0.010750 0.000000 1.669110 
# 
# From -- ./inp_files/244893.got.cif
#   From: 2010.05.17/outbox.cif.g08.bks.cpg/sg12_123_cif.got.tgz:244893.got - 2010.06.03 13:09:07.
