data_PCOD9189684
_publ_section_title
;
Structure prediction by ZEFSAII (Michael W. Deem and Ramdas Pophale) SiO2 
 PCOD9189684
Probable space group: C 2/M
;
_chemical_formula_sum "Si O2"
_cell_formula_units_Z 64
_cell_length_a 9.050834
_cell_length_b 21.696012
_cell_length_c 24.168530
_cell_angle_alpha 90.000000
_cell_angle_beta 46.301529
_cell_angle_gamma 90.000000
_cell_volume 3431.218581
_symmetry_space_group_name_H-M "C 2/M"
_symmetry_group_IT_number 12
_symmetry_cell_setting 'monoclinic'
loop_
_space_group_symop_operation_xyz
x,y,z
-x,y,-z
-x,-y,-z
x,-y,z
1/2+x,1/2+y,z
1/2-x,1/2+y,-z
1/2-x,1/2-y,-z
1/2+x,1/2-y,z
loop_
_atom_site_type_symbol
_atom_site_label
_atom_site_fract_x
_atom_site_fract_y
_atom_site_fract_z
Si Si1 0.581652 0.771673 0.836970
Si Si2 0.168292 0.355003 0.658681
Si Si3 0.046175 0.780572 0.726494
Si Si4 0.493880 0.567348 0.628167
Si Si5 0.788212 0.093222 0.321121
Si Si6 0.244652 0.427688 0.207392
Si Si7 0.317164 0.068479 0.449657
Si Si8 0.657569 0.329045 0.909885
O O1 0.571480 0.728641 0.785589
O O2 0.584728 0.729814 0.891539
O O3 0.383483 0.814790 0.877678
O O4 0.810646 0.799569 0.776781
O O5 0.098166 0.284756 0.684498
O O6 0.349091 0.375815 0.651798
O O7 0.233025 0.377814 0.581004
O O8 0.977515 0.397951 0.724531
O O9 0.201696 0.833762 0.670660
O O10 0.402179 0.500000 0.637775
O O11 0.556173 0.566317 0.675446
O O12 0.694821 0.574922 0.538055
O O13 0.843618 0.079690 0.242987
O O14 0.560981 0.070237 0.392466
O O15 0.236664 0.500000 0.196018
O O16 0.335087 0.386135 0.134769
O O17 0.263545 0.000000 0.441302
O O18 0.500000 0.339012 0.000000
#
# Coordination Sequence:
#
# PCOD9189684 Si02
#       8
#     8   8   8   8   8   8   8   8
#     4  10  19  38  60  86 119 148 179 236 278 333
#     4  11  20  37  58  82 113 149 195 243 286 338
#     4  11  20  36  59  86 114 148 187 239 287 335
#     4  11  22  35  56  84 111 150 201 248 288 328
#     4  11  21  36  58  81 113 152 198 239 288 342
#     4  11  22  38  59  83 116 155 193 228 282 344
#     4  10  21  38  55  77 114 155 195 243 293 342
#     4  11  22  38  63  94 119 146 186 229 282 341
#
# _framework density 18.652266000000001
#
# number of rings (size 3 to 8) (size 9 to 14) (size 15 to 20)
#    0.000    1.250    3.750    5.625    0.000    2.250 
#    0.000    3.750    0.000    0.000    0.000    0.875 
#    0.000    0.000    0.000    0.000    0.000    0.000 
#
# Total GULP energy -178468.542461 kJ/mol
# GULP energy per Si atom -5577.141952 kJ/mol
# Density = 1.860981 g / cm^3
# Si number density = 18.652266 Si / 1000 Ang^3
#
#
#
# Elastic Constant Matrix: (Units=GPa)
#
#
# Indices 1 2 3 4 5 6 
#
# 1 94.0281 23.5123 28.9159 -0.0005 6.9309 0.0005
# 2 23.5123 120.6945 48.3623 0.0000 4.6880 0.0000
# 3 28.9159 48.3623 90.4814 -0.0004 14.0905 0.0003
# 4 -0.0005 0.0000 -0.0004 34.3299 0.0003 1.7266
# 5 6.9309 4.6880 14.0905 0.0003 20.5847 -0.0003
# 6 0.0005 0.0000 0.0003 1.7266 -0.0003 11.0314
#
#
#
# Elastic Compliance Matrix: (Units=1/GPa)
#
#
# Indices 1 2 3 4 5 6 
#
# 1 0.011946 -0.001067 -0.002976 0.000000 -0.001742 -0.000001
# 2 -0.001067 0.010688 -0.005651 0.000000 0.001793 0.000000
# 3 -0.002976 -0.005651 0.016417 0.000000 -0.008949 -0.000001
# 4 0.000000 0.000000 0.000000 0.029360 -0.000001 -0.004595
# 5 -0.001742 0.001793 -0.008949 -0.000001 0.054884 0.000002
# 6 -0.000001 0.000000 -0.000001 -0.004595 0.000002 0.091370
#
#
# Mechanical properties :
#
#
# Convention : Reuss Voigt Hill
#
# Bulk Modulus (GPa) = 50.85777 56.30947 53.58362
# Shear Modulus (GPa) = 20.78087 26.81675 23.79881
#
# Velocity S-wave (km/s) = 3.34147 3.79584 3.57588
# Velocity P-wave (km/s) = 6.49713 7.03320 6.77047
#
# Compressibility (1/GPa) = 0.01966268
#
# Stress axis : x y z
#
# Youngs Moduli (GPa) = 83.71351 93.56347 60.91214
#
# Poissons Ratio (x) = 0.09983 0.18127
# Poissons Ratio (y) = 0.08932 0.34421
# Poissons Ratio (z) = 0.24913 0.52873
#
# Static dielectric constant tensor:
#      x y z
#    x 1.695240 0.000000 0.008150 
#    y 0.000000 1.738190 0.000000 
#    z 0.008150 0.000000 1.627930 
# 
# From -- ./inp_files/301758.got.cif
#   From: 2010.05.17/outbox.cif.g08.bks.cpg/sg12_151_cif.got.tgz:301758.got - 2010.06.03 13:09:07.
