data_PCOD9189678
_publ_section_title
;
Structure prediction by ZEFSAII (Michael W. Deem and Ramdas Pophale) SiO2 
 PCOD9189678
Probable space group: C 2/M
;
_chemical_formula_sum "Si O2"
_cell_formula_units_Z 36
_cell_length_a 14.275607
_cell_length_b 9.834255
_cell_length_c 14.784564
_cell_angle_alpha 90.000000
_cell_angle_beta 79.232628
_cell_angle_gamma 90.000000
_cell_volume 2039.060834
_symmetry_space_group_name_H-M "C 2/M"
_symmetry_group_IT_number 12
_symmetry_cell_setting 'monoclinic'
loop_
_space_group_symop_operation_xyz
x,y,z
-x,y,-z
-x,-y,-z
x,-y,z
1/2+x,1/2+y,z
1/2-x,1/2+y,-z
1/2-x,1/2-y,-z
1/2+x,1/2-y,z
loop_
_atom_site_type_symbol
_atom_site_label
_atom_site_fract_x
_atom_site_fract_y
_atom_site_fract_z
Si Si1 0.708825 0.000000 0.981073
Si Si2 0.478341 0.000000 0.896172
Si Si3 0.395547 0.500000 0.061442
Si Si4 0.105845 0.160984 0.512879
Si Si5 0.789081 0.340013 0.360857
Si Si6 0.635452 0.789750 0.847318
O O1 0.685119 0.129363 0.921513
O O2 0.815105 0.000000 0.998310
O O3 0.635700 0.000000 0.080160
O O4 0.534789 0.869073 0.849279
O O5 0.500000 0.000000 0.000000
O O6 0.381933 0.635965 0.121936
O O7 0.500000 0.500000 0.000000
O O8 0.140727 0.249402 0.591059
O O9 0.183188 0.183550 0.419317
O O10 0.000000 0.196329 0.500000
O O11 0.107743 0.000000 0.535013
O O12 0.810347 0.500000 0.368764
O O13 0.802389 0.304733 0.253767
#
# Coordination Sequence:
#
# PCOD9189678 Si02
#       6
#     4   4   4   8   8   8
#     4  10  20  40  60  75 111 153 185 225 290 335
#     4   8  16  36  60  73 105 146 180 220 279 331
#     4  12  24  38  54  84 118 147 185 239 283 328
#     4   9  20  38  60  84 119 149 178 226 291 334
#     4  10  19  38  60  84 114 149 188 231 269 334
#     4  10  20  37  58  85 109 145 192 233 274 332
#
# _framework density 17.655186
#
# number of rings (size 3 to 8) (size 9 to 14) (size 15 to 20)
#    0.000    2.444    2.222    2.667    1.556    0.444 
#    8.000    0.000    0.000    0.000    0.000    0.000 
#    0.000    0.000    0.000    0.000    0.000    0.000 
#
# Total GULP energy -100368.099192 kJ/mol
# GULP energy per Si atom -5576.005511 kJ/mol
# Density = 1.761500 g / cm^3
# Si number density = 17.655186 Si / 1000 Ang^3
#
#
#
# Elastic Constant Matrix: (Units=GPa)
#
#
# Indices 1 2 3 4 5 6 
#
# 1 137.9582 52.9168 41.1917 0.0000 -0.2458 0.0000
# 2 52.9168 129.8167 48.8177 0.0000 -2.1703 0.0000
# 3 41.1917 48.8177 84.5634 0.0000 -10.8585 0.0000
# 4 0.0000 0.0000 0.0000 3.0247 0.0000 -1.9079
# 5 -0.2458 -2.1703 -10.8585 0.0000 8.8395 0.0000
# 6 0.0000 0.0000 0.0000 -1.9079 0.0000 12.1594
#
#
#
# Elastic Compliance Matrix: (Units=1/GPa)
#
#
# Indices 1 2 3 4 5 6 
#
# 1 0.009304 -0.002468 -0.003742 0.000000 -0.004944 0.000000
# 2 -0.002468 0.010717 -0.005528 0.000000 -0.004227 0.000000
# 3 -0.003742 -0.005528 0.019770 0.000000 0.022825 0.000000
# 4 0.000000 0.000000 0.000000 0.366929 0.000000 0.057574
# 5 -0.004944 -0.004227 0.022825 0.000000 0.139991 0.000000
# 6 0.000000 0.000000 0.000000 0.057574 0.000000 0.091274
#
#
# Mechanical properties :
#
#
# Convention : Reuss Voigt Hill
#
# Bulk Modulus (GPa) = 61.29031 70.91009 66.10020
# Shear Modulus (GPa) = 7.49738 18.76554 13.13146
#
# Velocity S-wave (km/s) = 2.06295 3.26374 2.73018
# Velocity P-wave (km/s) = 6.36120 7.37928 6.88907
#
# Compressibility (1/GPa) = 0.01631579
#
# Stress axis : x y z
#
# Youngs Moduli (GPa) = 107.48434 93.30860 50.58132
#
# Poissons Ratio (x) = 0.23027 0.18928
# Poissons Ratio (y) = 0.26526 0.27959
# Poissons Ratio (z) = 0.40222 0.51577
#
# Static dielectric constant tensor:
#      x y z
#    x 1.624940 0.000000 -0.022660 
#    y 0.000000 1.617440 0.000000 
#    z -0.022660 0.000000 1.584910 
# 
# From -- ./inp_files/210791.got.cif
#   From: 2010.05.17/outbox.cif.g08.bks.cpg/sg12_106_cif.got.tgz:210791.got - 2010.06.03 13:09:07.
