data_PCOD9189811
_publ_section_title
;
Structure prediction by ZEFSAII (Michael W. Deem and Ramdas Pophale) SiO2 
 PCOD9189811
Probable space group: C 2/M
;
_chemical_formula_sum "Si O2"
_cell_formula_units_Z 44
_cell_length_a 20.824752
_cell_length_b 14.410191
_cell_length_c 22.001021
_cell_angle_alpha 90.000000
_cell_angle_beta 161.440189
_cell_angle_gamma 90.000000
_cell_volume 2101.461605
_symmetry_space_group_name_H-M "C 2/M"
_symmetry_group_IT_number 12
_symmetry_cell_setting 'monoclinic'
loop_
_space_group_symop_operation_xyz
x,y,z
-x,y,-z
-x,-y,-z
x,-y,z
1/2+x,1/2+y,z
1/2-x,1/2+y,-z
1/2-x,1/2-y,-z
1/2+x,1/2-y,z
loop_
_atom_site_type_symbol
_atom_site_label
_atom_site_fract_x
_atom_site_fract_y
_atom_site_fract_z
Si Si1 0.940312 0.000000 0.183171
Si Si2 0.538419 0.000000 0.962830
Si Si3 0.316015 0.000000 0.428845
Si Si4 0.339429 0.311102 0.935109
Si Si5 0.887463 0.865594 0.242738
Si Si6 0.280704 0.818286 0.311663
Si Si7 0.703745 0.000000 0.865097
Si Si8 0.599754 0.500000 0.522930
O O1 0.955255 0.910019 0.240023
O O2 0.119580 0.000000 0.295491
O O3 0.720748 0.000000 0.953457
O O4 0.334692 0.000000 0.743790
O O5 0.500000 0.000000 0.000000
O O6 0.674483 0.912706 0.068248
O O7 0.319792 0.909695 0.387989
O O8 0.501582 0.000000 0.643391
O O9 0.165215 0.241933 0.802169
O O10 0.285552 0.335623 0.817185
O O11 0.322486 0.407449 0.954138
O O12 0.570948 0.274289 0.148546
O O13 0.031384 0.909607 0.423292
O O14 0.500000 0.769443 0.500000
O O15 0.500000 0.500000 0.500000
#
# Coordination Sequence:
#
# PCOD9189811 Si02
#       8
#     4   4   4   8   8   8   4   4
#     4  10  24  47  66  87 135 185 234 280 326 398
#     4  10  19  38  63  92 128 171 220 281 340 396
#     4  12  22  43  66  96 132 178 233 273 338 408
#     4  11  24  40  67 100 137 171 223 279 354 402
#     4  10  25  42  63 101 130 177 231 279 334 409
#     4  11  22  38  64 100 134 167 214 283 344 409
#     4  12  23  43  66  93 130 192 222 274 338 397
#     4  10  19  38  67  90 132 172 223 279 347 394
#
# _framework density 20.937808
#
# number of rings (size 3 to 8) (size 9 to 14) (size 15 to 20)
#    0.000    1.455    5.455    0.818    2.545    7.273 
#    0.000    0.909    0.000    0.000    0.000    0.000 
#    0.000    0.000    0.000    0.000    0.000    0.000 
#
# Total GULP energy -122634.068755 kJ/mol
# GULP energy per Si atom -5574.275852 kJ/mol
# Density = 2.089015 g / cm^3
# Si number density = 20.937808 Si / 1000 Ang^3
#
#
#
# Elastic Constant Matrix: (Units=GPa)
#
#
# Indices 1 2 3 4 5 6 
#
# 1 82.4728 26.4317 26.5899 -0.0055 -4.4072 -0.0099
# 2 26.4317 74.5706 11.1059 -0.0086 2.5898 -0.0075
# 3 26.5899 11.1059 173.0408 0.0006 -1.9996 -0.0075
# 4 -0.0055 -0.0086 0.0006 5.6963 0.0017 -0.0366
# 5 -4.4072 2.5898 -1.9996 0.0017 35.1009 -0.0001
# 6 -0.0099 -0.0075 -0.0075 -0.0366 -0.0001 15.5907
#
#
#
# Elastic Compliance Matrix: (Units=1/GPa)
#
#
# Indices 1 2 3 4 5 6 
#
# 1 0.014411 -0.004900 -0.001876 0.000006 0.002064 0.000006
# 2 -0.004900 0.015245 -0.000246 0.000019 -0.001754 0.000004
# 3 -0.001876 -0.000246 0.006085 -0.000003 0.000129 0.000002
# 4 0.000006 0.000019 -0.000003 0.175556 -0.000009 0.000412
# 5 0.002064 -0.001754 0.000129 -0.000009 0.028885 0.000001
# 6 0.000006 0.000004 0.000002 0.000412 0.000001 0.064142
#
#
# Mechanical properties :
#
#
# Convention : Reuss Voigt Hill
#
# Bulk Modulus (GPa) = 46.09157 50.92657 48.50907
# Shear Modulus (GPa) = 15.35632 29.00803 22.18217
#
# Velocity S-wave (km/s) = 2.71112 3.72618 3.25842
# Velocity P-wave (km/s) = 5.64461 6.54891 6.11350
#
# Compressibility (1/GPa) = 0.02169594
#
# Stress axis : x y z
#
# Youngs Moduli (GPa) = 69.39223 65.59735 164.35138
#
# Poissons Ratio (x) = 0.32144 0.30833
# Poissons Ratio (y) = 0.34004 0.04038
# Poissons Ratio (z) = 0.13018 0.01612
#
# Static dielectric constant tensor:
#      x y z
#    x 1.748590 -0.000010 0.004220 
#    y -0.000010 1.786280 0.000000 
#    z 0.004220 0.000000 1.808530 
# 
# From -- ./inp_files/322514.got.cif
#   From: 2010.05.17/outbox.cif.g08.bks.cpg/sg12_162_cif.got.tgz:322514.got - 2010.06.03 13:09:07.
