data_PCOD9189208
_publ_section_title
;
Structure prediction by ZEFSAII (Michael W. Deem and Ramdas Pophale) SiO2 
 PCOD9189208
Probable space group: C 2/M
;
_chemical_formula_sum "Si O2"
_cell_formula_units_Z 48
_cell_length_a 24.166615
_cell_length_b 8.676158
_cell_length_c 12.890210
_cell_angle_alpha 90.000000
_cell_angle_beta 90.285474
_cell_angle_gamma 90.000000
_cell_volume 2702.700224
_symmetry_space_group_name_H-M "C 2/M"
_symmetry_group_IT_number 12
_symmetry_cell_setting 'monoclinic'
loop_
_space_group_symop_operation_xyz
x,y,z
-x,y,-z
-x,-y,-z
x,-y,z
1/2+x,1/2+y,z
1/2-x,1/2+y,-z
1/2-x,1/2-y,-z
1/2+x,1/2-y,z
loop_
_atom_site_type_symbol
_atom_site_label
_atom_site_fract_x
_atom_site_fract_y
_atom_site_fract_z
Si Si1 0.882140 0.183118 0.204939
Si Si2 0.316973 0.184147 0.389415
Si Si3 0.311203 0.185291 0.016728
Si Si4 0.503443 0.813828 0.877533
Si Si5 0.803970 0.686202 0.628351
Si Si6 0.882207 0.312628 0.815903
O O1 0.862979 0.241404 0.317152
O O2 0.942797 0.240891 0.173489
O O3 0.879597 0.000000 0.200603
O O4 0.839236 0.252626 0.121090
O O5 0.256355 0.242072 0.353644
O O6 0.321719 0.225925 0.511138
O O7 0.319499 0.000000 0.380458
O O8 0.349373 0.232615 0.919475
O O9 0.309593 0.000000 0.020209
O O10 0.250000 0.250000 0.000000
O O11 0.445862 0.763462 0.824549
O O12 0.508169 0.000000 0.870488
O O13 0.500000 0.776197 0.000000
O O14 0.798679 0.500000 0.633981
O O15 0.848090 0.737321 0.714691
O O16 0.882951 0.500000 0.814828
#
# Coordination Sequence:
#
# PCOD9189208 Si02
#       6
#     8   8   8   8   8   8
#     4  12  24  37  54  79 112 150 191 234 274 324
#     4  10  20  35  57  83 112 148 186 227 278 336
#     4  11  21  35  55  84 116 146 179 224 282 340
#     4  10  19  37  60  80 105 145 186 229 282 339
#     4   9  18  35  59  86 113 142 180 228 282 341
#     4   9  18  34  57  81 108 140 178 223 279 339
#
# _framework density 17.760014999999999
#
# number of rings (size 3 to 8) (size 9 to 14) (size 15 to 20)
#    0.000    1.833    1.667    3.500    0.000    2.333 
#    0.000    2.500    0.000    5.000    0.000    0.000 
#    0.000    0.000    0.000    0.000    0.000    0.000 
#
# Total GULP energy -134049.160211 kJ/mol
# GULP energy per Si atom -5585.381675 kJ/mol
# Density = 1.771959 g / cm^3
# Si number density = 17.760015 Si / 1000 Ang^3
#
#
#
# Elastic Constant Matrix: (Units=GPa)
#
#
# Indices 1 2 3 4 5 6 
#
# 1 97.0347 36.0517 38.8862 0.0000 -24.1827 0.0000
# 2 36.0517 49.4222 32.2686 0.0000 -11.6071 0.0000
# 3 38.8862 32.2686 78.1386 0.0000 -15.3516 0.0000
# 4 0.0000 0.0000 0.0000 17.9492 0.0000 -1.9896
# 5 -24.1827 -11.6071 -15.3516 0.0000 33.4824 0.0000
# 6 0.0000 0.0000 0.0000 -1.9896 0.0000 32.6829
#
#
#
# Elastic Compliance Matrix: (Units=1/GPa)
#
#
# Indices 1 2 3 4 5 6 
#
# 1 0.016568 -0.008067 -0.003420 0.000000 0.007601 0.000000
# 2 -0.008067 0.032349 -0.009106 0.000000 0.001212 0.000000
# 3 -0.003420 -0.009106 0.018853 0.000000 0.003017 0.000000
# 4 0.000000 0.000000 0.000000 0.056091 0.000000 0.003415
# 5 0.007601 0.001212 0.003017 0.000000 0.037160 0.000000
# 6 0.000000 0.000000 0.000000 0.003415 0.000000 0.030805
#
#
# Mechanical properties :
#
#
# Convention : Reuss Voigt Hill
#
# Bulk Modulus (GPa) = 37.61834 48.77871 43.19852
# Shear Modulus (GPa) = 20.67190 24.64884 22.66037
#
# Velocity S-wave (km/s) = 3.41538 3.72947 3.57588
# Velocity P-wave (km/s) = 6.06470 6.78752 6.43626
#
# Compressibility (1/GPa) = 0.02658278
#
# Stress axis : x y z
#
# Youngs Moduli (GPa) = 60.35771 30.91298 53.04167
#
# Poissons Ratio (x) = 0.24939 0.18141
# Poissons Ratio (y) = 0.48693 0.48300
# Poissons Ratio (z) = 0.20643 0.28149
#
# Static dielectric constant tensor:
#      x y z
#    x 1.579720 0.000000 0.004030 
#    y 0.000000 1.601760 0.000000 
#    z 0.004030 0.000000 1.599480 
# 
# From -- ./inp_files/172242.got.cif
#   From: 2010.05.17/outbox.cif.g08.bks.cpg/sg12_87_cif.got.tgz:172242.got - 2010.06.03 13:09:07.
