data_PCOD9189795
_publ_section_title
;
Structure prediction by ZEFSAII (Michael W. Deem and Ramdas Pophale) SiO2 
 PCOD9189795
Probable space group: C 2/M
;
_chemical_formula_sum "Si O2"
_cell_formula_units_Z 56
_cell_length_a 20.509499
_cell_length_b 8.669959
_cell_length_c 26.901922
_cell_angle_alpha 90.000000
_cell_angle_beta 141.436143
_cell_angle_gamma 90.000000
_cell_volume 2982.035316
_symmetry_space_group_name_H-M "C 2/M"
_symmetry_group_IT_number 12
_symmetry_cell_setting 'monoclinic'
loop_
_space_group_symop_operation_xyz
x,y,z
-x,y,-z
-x,-y,-z
x,-y,z
1/2+x,1/2+y,z
1/2-x,1/2+y,-z
1/2-x,1/2-y,-z
1/2+x,1/2-y,z
loop_
_atom_site_type_symbol
_atom_site_label
_atom_site_fract_x
_atom_site_fract_y
_atom_site_fract_z
Si Si1 0.252058 0.314079 0.740390
Si Si2 0.910833 0.813871 0.986439
Si Si3 0.683791 0.814395 0.808784
Si Si4 0.978314 0.317032 0.854468
Si Si5 0.985410 0.184437 0.747805
Si Si6 0.381346 0.187941 0.435336
Si Si7 0.231622 0.813537 0.434197
O O1 0.267309 0.500000 0.748339
O O2 0.191546 0.277176 0.754965
O O3 0.365151 0.237449 0.806577
O O4 0.187592 0.267607 0.653331
O O5 0.795453 0.769757 0.899193
O O6 0.915062 0.000000 0.990718
O O7 0.000000 0.763639 0.000000
O O8 0.938288 0.749091 0.056772
O O9 0.586622 0.735746 0.777447
O O10 0.673283 0.000000 0.807251
O O11 0.984576 0.500000 0.857301
O O12 0.990052 0.253165 0.805827
O O13 0.879309 0.234336 0.656074
O O14 0.981351 0.000000 0.749732
O O15 0.500000 0.242157 0.500000
O O16 0.323199 0.236701 0.450923
O O17 0.383429 0.000000 0.437089
O O18 0.250000 0.750000 0.500000
O O19 0.232318 0.000000 0.436612
#
# Coordination Sequence:
#
# PCOD9189795 Si02
#       7
#     8   8   8   8   8   8   8
#     4  10  19  38  63  87 121 160 201 244 298 361
#     4  10  20  39  64  89 120 158 199 246 304 361
#     4  10  22  38  63  94 119 154 203 251 297 356
#     4  12  24  38  62  91 121 158 204 251 298 355
#     4  11  24  43  62  84 123 167 202 243 300 362
#     4   9  18  34  60  90 116 150 198 244 288 350
#     4  10  22  39  61  87 119 157 198 243 298 359
#
# _framework density 18.779119999999999
#
# number of rings (size 3 to 8) (size 9 to 14) (size 15 to 20)
#    0.000    1.714    2.857    1.714    2.000    3.143 
#    0.000    0.000    0.000    0.857    0.000    0.000 
#    0.000    0.000    0.000    0.000    0.000    0.000 
#
# Total GULP energy -156434.516471 kJ/mol
# GULP energy per Si atom -5586.947017 kJ/mol
# Density = 1.873638 g / cm^3
# Si number density = 18.779120 Si / 1000 Ang^3
#
#
#
# Elastic Constant Matrix: (Units=GPa)
#
#
# Indices 1 2 3 4 5 6 
#
# 1 157.0851 33.0534 81.7061 0.0000 -8.3100 0.0000
# 2 33.0534 20.6395 26.8769 0.0000 -2.2604 0.0000
# 3 81.7061 26.8769 125.4386 0.0000 -14.1878 0.0000
# 4 0.0000 0.0000 0.0000 20.8789 0.0000 -0.9136
# 5 -8.3100 -2.2604 -14.1878 0.0000 40.4821 0.0000
# 6 0.0000 0.0000 0.0000 -0.9136 0.0000 32.5407
#
#
#
# Elastic Compliance Matrix: (Units=1/GPa)
#
#
# Indices 1 2 3 4 5 6 
#
# 1 0.011413 -0.011922 -0.004883 0.000000 -0.000034 0.000000
# 2 -0.011922 0.079725 -0.009465 0.000000 -0.001313 0.000000
# 3 -0.004883 -0.009465 0.013545 0.000000 0.003216 0.000000
# 4 0.000000 0.000000 0.000000 0.047954 0.000000 0.001346
# 5 -0.000034 -0.001313 0.003216 0.000000 0.025749 0.000000
# 6 0.000000 0.000000 0.000000 0.001346 0.000000 0.030769
#
#
# Mechanical properties :
#
#
# Convention : Reuss Voigt Hill
#
# Bulk Modulus (GPa) = 19.17851 65.15959 42.16905
# Shear Modulus (GPa) = 17.91632 29.54880 23.73256
#
# Velocity S-wave (km/s) = 3.09213 3.97103 3.55882
# Velocity P-wave (km/s) = 4.79408 7.46985 6.27622
#
# Compressibility (1/GPa) = 0.05214169
#
# Stress axis : x y z
#
# Youngs Moduli (GPa) = 87.62173 12.54312 73.82984
#
# Poissons Ratio (x) = 0.14954 0.36053
# Poissons Ratio (y) = 1.04460 0.69882
# Poissons Ratio (z) = 0.42788 0.11872
#
# Static dielectric constant tensor:
#      x y z
#    x 1.626310 0.000000 0.000730 
#    y 0.000000 1.641060 0.000000 
#    z 0.000730 0.000000 1.637150 
# 
# From -- ./inp_files/363096.got.cif
#   From: 2010.05.17/outbox.cif.g08.bks.cpg/sg12_182_cif.got.tgz:363096.got - 2010.06.03 13:09:07.
