data_PCOD9189594
_publ_section_title
;
Structure prediction by ZEFSAII (Michael W. Deem and Ramdas Pophale) SiO2 
 PCOD9189594
Probable space group: C 2/M
;
_chemical_formula_sum "Si O2"
_cell_formula_units_Z 44
_cell_length_a 18.629320
_cell_length_b 14.101440
_cell_length_c 8.329248
_cell_angle_alpha 90.000000
_cell_angle_beta 87.064930
_cell_angle_gamma 90.000000
_cell_volume 2185.225096
_symmetry_space_group_name_H-M "C 2/M"
_symmetry_group_IT_number 12
_symmetry_cell_setting 'monoclinic'
loop_
_space_group_symop_operation_xyz
x,y,z
-x,y,-z
-x,-y,-z
x,-y,z
1/2+x,1/2+y,z
1/2-x,1/2+y,-z
1/2-x,1/2-y,-z
1/2+x,1/2-y,z
loop_
_atom_site_type_symbol
_atom_site_label
_atom_site_fract_x
_atom_site_fract_y
_atom_site_fract_z
Si Si1 0.853220 0.792241 0.347575
Si Si2 0.062539 0.500000 0.299124
Si Si3 0.193197 0.000000 0.117579
Si Si4 0.137863 0.500000 0.951593
Si Si5 0.800535 0.500000 0.524862
Si Si6 0.962402 0.659012 0.175499
Si Si7 0.225219 0.833465 0.333038
Si Si8 0.831079 0.000000 0.240791
O O1 0.924520 0.740426 0.281159
O O2 0.830459 0.785448 0.537106
O O3 0.782462 0.745444 0.267841
O O4 0.860504 0.902926 0.309444
O O5 0.115455 0.500000 0.444418
O O6 0.014583 0.593853 0.278324
O O7 0.112438 0.500000 0.136329
O O8 0.278248 0.000000 0.075436
O O9 0.182932 0.901748 0.215511
O O10 0.157029 0.000000 0.949816
O O11 0.101942 0.589915 0.871927
O O12 0.774234 0.408556 0.428348
O O13 0.752247 0.500000 0.691395
O O14 0.000000 0.686238 0.000000
#
# Coordination Sequence:
#
# PCOD9189594 Si02
#       8
#     8   4   4   4   4   8   8   4
#     4  10  19  38  50  79 108 150 190 215 272 324
#     4   9  17  30  56  89 116 138 169 221 273 339
#     4  11  17  33  55  87 103 143 168 231 296 315
#     4   9  15  29  52  82 115 130 169 218 278 330
#     4   9  17  34  52  90 114 138 176 221 284 333
#     4   9  18  32  55  81 111 150 178 219 272 326
#     4   9  20  32  56  76 119 147 167 224 287 338
#     4  10  22  32  58  79 109 140 190 243 254 313
#
# _framework density 20.135224000000001
#
# number of rings (size 3 to 8) (size 9 to 14) (size 15 to 20)
#    0.000    2.545    2.727    1.636    0.000    0.727 
#    0.000    4.091    0.000    0.000    0.000    3.818 
#    0.000    0.000    0.000    0.000    0.000    0.000 
#
# Total GULP energy -122694.296258 kJ/mol
# GULP energy per Si atom -5577.013466 kJ/mol
# Density = 2.008940 g / cm^3
# Si number density = 20.135224 Si / 1000 Ang^3
#
#
#
# Elastic Constant Matrix: (Units=GPa)
#
#
# Indices 1 2 3 4 5 6 
#
# 1 60.8714 27.0851 22.0768 0.0000 -20.0215 0.0000
# 2 27.0851 112.3628 23.8485 0.0000 -23.9423 0.0000
# 3 22.0768 23.8485 66.9025 0.0000 -18.9371 0.0000
# 4 0.0000 0.0000 0.0000 16.3385 0.0000 -28.1045
# 5 -20.0215 -23.9423 -18.9371 0.0000 31.1147 0.0000
# 6 0.0000 0.0000 0.0000 -28.1045 0.0000 14.0400
#
#
#
# Elastic Compliance Matrix: (Units=1/GPa)
#
#
# Indices 1 2 3 4 5 6 
#
# 1 0.022156 -0.002403 -0.003555 0.000000 0.010244 0.000000
# 2 -0.002403 0.011085 -0.001428 0.000000 0.006114 0.000000
# 3 -0.003555 -0.001428 0.018932 0.000000 0.008137 0.000000
# 4 0.000000 0.000000 0.000000 -0.025050 0.000000 -0.050144
# 5 0.010244 0.006114 0.008137 0.000000 0.048388 0.000000
# 6 0.000000 0.000000 0.000000 -0.050144 0.000000 -0.029151
#
#
# Mechanical properties :
#
#
# Convention : Reuss Voigt Hill
#
# Bulk Modulus (GPa) = 26.73696 42.90638 34.82167
# Shear Modulus (GPa) = 67.93620 23.44038 45.68829
#
# Velocity S-wave (km/s) = 5.81491 3.41566 4.76865
# Velocity P-wave (km/s) = 7.64145 6.07545 6.90300
#
# Compressibility (1/GPa) = 0.03740140
#
# Stress axis : x y z
#
# Youngs Moduli (GPa) = 45.13417 90.21244 52.82007
#
# Poissons Ratio (x) = 0.21682 0.18777
# Poissons Ratio (y) = 0.10848 0.07541
# Poissons Ratio (z) = 0.16044 0.12879
#
# Static dielectric constant tensor:
#      x y z
#    x 1.702240 0.000000 -0.004350 
#    y 0.000000 1.743130 0.000000 
#    z -0.004350 0.000000 1.776690 
# 
# From -- ./inp_files/73105.got.cif
#   From: 2010.05.17/outbox.cif.g08.bks.cpg/sg12_37_cif.got.tgz:73105.got - 2010.06.03 13:09:07.
