data_PCOD9189308
_publ_section_title
;
Structure prediction by ZEFSAII (Michael W. Deem and Ramdas Pophale) SiO2 
 PCOD9189308
Probable space group: C 2/M
;
_chemical_formula_sum "Si O2"
_cell_formula_units_Z 48
_cell_length_a 10.545509
_cell_length_b 15.431852
_cell_length_c 27.779085
_cell_angle_alpha 90.000000
_cell_angle_beta 32.459605
_cell_angle_gamma 90.000000
_cell_volume 2426.269632
_symmetry_space_group_name_H-M "C 2/M"
_symmetry_group_IT_number 12
_symmetry_cell_setting 'monoclinic'
loop_
_space_group_symop_operation_xyz
x,y,z
-x,y,-z
-x,-y,-z
x,-y,z
1/2+x,1/2+y,z
1/2-x,1/2+y,-z
1/2-x,1/2-y,-z
1/2+x,1/2-y,z
loop_
_atom_site_type_symbol
_atom_site_label
_atom_site_fract_x
_atom_site_fract_y
_atom_site_fract_z
Si Si1 0.224211 0.500000 0.075907
Si Si2 0.302969 0.400326 0.217313
Si Si3 0.589427 0.604296 0.395268
Si Si4 0.045946 0.645379 0.202529
Si Si5 0.242701 0.675705 0.893981
Si Si6 0.567145 0.000000 0.922038
Si Si7 0.144404 0.604433 0.588283
O O1 0.111166 0.584862 0.136790
O O2 0.156906 0.500000 0.041396
O O3 0.500000 0.500000 0.000000
O O4 0.358277 0.500000 0.210891
O O5 0.163097 0.397967 0.212106
O O6 0.546343 0.349513 0.137396
O O7 0.122038 0.365066 0.316260
O O8 0.590554 0.500000 0.386605
O O9 0.318752 0.634314 0.489781
O O10 0.716784 0.619165 0.406031
O O11 0.763840 0.646790 0.300918
O O12 0.165378 0.738715 0.161000
O O13 0.203765 0.591156 0.872723
O O14 0.000000 0.692487 0.000000
O O15 0.500000 0.000000 0.000000
O O16 0.128815 0.500000 0.588227
#
# Coordination Sequence:
#
# PCOD9189308 Si02
#       7
#     4   8   8   8   8   4   8
#     4  12  26  40  64  92 120 154 204 252 297 351
#     4  10  19  37  61  87 116 153 207 249 289 352
#     4   8  12  27  49  82 121 147 181 241 310 343
#     4  11  22  36  58  93 120 149 197 255 299 346
#     4  11  25  40  58  81 119 163 199 241 302 361
#     4  10  26  48  62  79 116 167 201 240 309 359
#     4   7  12  23  51  83 111 148 189 241 293 347
#
# _framework density 19.783455
#
# number of rings (size 3 to 8) (size 9 to 14) (size 15 to 20)
#    0.000    2.333    2.500    2.500    7.000    0.667 
#    0.000    0.833    0.000    0.000    0.000    1.167 
#    0.000    0.000    0.000    0.000    0.000    0.000 
#
# Total GULP energy -133697.041951 kJ/mol
# GULP energy per Si atom -5570.710081 kJ/mol
# Density = 1.973843 g / cm^3
# Si number density = 19.783455 Si / 1000 Ang^3
#
#
#
# Elastic Constant Matrix: (Units=GPa)
#
#
# Indices 1 2 3 4 5 6 
#
# 1 60.4567 0.4995 22.6616 -0.0039 -3.2710 0.0027
# 2 0.4995 93.7833 38.6921 -0.0060 4.3043 0.0007
# 3 22.6616 38.6921 148.6134 -0.0021 -6.7713 -0.0024
# 4 -0.0039 -0.0060 -0.0021 13.0373 0.0046 -4.3215
# 5 -3.2710 4.3043 -6.7713 0.0046 14.0519 -0.0017
# 6 0.0027 0.0007 -0.0024 -4.3215 -0.0017 13.9192
#
#
#
# Elastic Compliance Matrix: (Units=1/GPa)
#
#
# Indices 1 2 3 4 5 6 
#
# 1 0.017732 0.000966 -0.002843 0.000004 0.002462 -0.000003
# 2 0.000966 0.012394 -0.003616 0.000007 -0.005314 0.000000
# 3 -0.002843 -0.003616 0.008307 -0.000002 0.004449 0.000002
# 4 0.000004 0.000007 -0.000002 0.085502 -0.000027 0.026546
# 5 0.002462 -0.005314 0.004449 -0.000027 0.075509 0.000001
# 6 -0.000003 0.000000 0.000002 0.026546 0.000001 0.080085
#
#
# Mechanical properties :
#
#
# Convention : Reuss Voigt Hill
#
# Bulk Modulus (GPa) = 36.43711 47.39554 41.91633
# Shear Modulus (GPa) = 16.68539 24.26835 20.47687
#
# Velocity S-wave (km/s) = 2.90729 3.50623 3.22071
# Velocity P-wave (km/s) = 5.45231 6.35615 5.92150
#
# Compressibility (1/GPa) = 0.02744455
#
# Stress axis : x y z
#
# Youngs Moduli (GPa) = 56.39625 80.68744 120.38700
#
# Poissons Ratio (x) = -0.07791 0.34227
# Poissons Ratio (y) = -0.05445 0.43533
# Poissons Ratio (z) = 0.16034 0.29177
#
# Static dielectric constant tensor:
#      x y z
#    x 1.701650 0.000000 -0.029000 
#    y 0.000000 1.743210 0.000000 
#    z -0.029000 0.000000 1.796940 
# 
# From -- ./inp_files/374039.got.cif
#   From: 2010.05.17/outbox.cif.g08.bks.cpg/sg12_188_cif.got.tgz:374039.got - 2010.06.03 13:09:07.
