data_PCOD9189896
_publ_section_title
;
Structure prediction by ZEFSAII (Michael W. Deem and Ramdas Pophale) SiO2 
 PCOD9189896
Probable space group: C 2/M
;
_chemical_formula_sum "Si O2"
_cell_formula_units_Z 40
_cell_length_a 11.062703
_cell_length_b 22.726809
_cell_length_c 13.449306
_cell_angle_alpha 90.000000
_cell_angle_beta 32.296158
_cell_angle_gamma 90.000000
_cell_volume 1806.680027
_symmetry_space_group_name_H-M "C 2/M"
_symmetry_group_IT_number 12
_symmetry_cell_setting 'monoclinic'
loop_
_space_group_symop_operation_xyz
x,y,z
-x,y,-z
-x,-y,-z
x,-y,z
1/2+x,1/2+y,z
1/2-x,1/2+y,-z
1/2-x,1/2-y,-z
1/2+x,1/2-y,z
loop_
_atom_site_type_symbol
_atom_site_label
_atom_site_fract_x
_atom_site_fract_y
_atom_site_fract_z
Si Si1 0.813020 0.167648 0.717819
Si Si2 0.503695 0.120411 0.220777
Si Si3 0.161309 0.699561 0.291379
Si Si4 0.012350 0.905238 0.882523
Si Si5 0.906207 0.064713 0.383789
O O1 0.590014 0.146421 0.816321
O O2 0.783666 0.233639 0.777301
O O3 0.000000 0.172511 0.500000
O O4 0.922308 0.118005 0.711307
O O5 0.537183 0.169002 0.284492
O O6 0.317041 0.076347 0.395359
O O7 0.751468 0.095269 0.032782
O O8 0.372627 0.658625 0.177044
O O9 0.000000 0.700073 0.500000
O O10 0.147007 0.932188 0.696777
O O11 0.000000 0.933812 0.000000
O O12 0.999258 0.000000 0.342718
#
# Coordination Sequence:
#
# PCOD9189896 Si02
#       5
#     8   8   8   8   8
#     4   9  22  37  64  97 127 171 209 260 313 379
#     4  10  22  41  62  98 128 166 210 263 320 370
#     4  10  19  38  66  93 133 163 206 262 320 383
#     4  10  23  41  63  99 128 161 216 264 313 380
#     4  11  24  44  67  90 128 174 214 258 314 376
#
# _framework density 22.140056999999999
#
# number of rings (size 3 to 8) (size 9 to 14) (size 15 to 20)
#    0.000    2.000    2.000    0.000    2.800    8.800 
#    7.200    8.000    0.000    0.000    0.000    0.000 
#    0.000    0.000    0.000    0.000    0.000    0.000 
#
# Total GULP energy -111639.884443 kJ/mol
# GULP energy per Si atom -5581.994222 kJ/mol
# Density = 2.208966 g / cm^3
# Si number density = 22.140057 Si / 1000 Ang^3
#
#
#
# Elastic Constant Matrix: (Units=GPa)
#
#
# Indices 1 2 3 4 5 6 
#
# 1 41.6639 -6.0890 2.3165 0.0010 1.4240 0.0023
# 2 -6.0890 106.4355 6.3148 0.0018 5.4967 0.0007
# 3 2.3165 6.3148 67.4523 0.0009 1.8718 -0.0005
# 4 0.0010 0.0018 0.0009 -8.9168 -0.0005 -16.1290
# 5 1.4240 5.4967 1.8718 -0.0005 46.2720 0.0001
# 6 0.0023 0.0007 -0.0005 -16.1290 0.0001 19.7195
#
#
#
# Elastic Compliance Matrix: (Units=1/GPa)
#
#
# Indices 1 2 3 4 5 6 
#
# 1 0.024303 0.001492 -0.000950 0.000003 -0.000887 0.000000
# 2 0.001492 0.009595 -0.000918 0.000001 -0.001149 0.000000
# 3 -0.000950 -0.000918 0.014957 0.000000 -0.000467 0.000001
# 4 0.000003 0.000001 0.000000 -0.045230 -0.000001 -0.036995
# 5 -0.000887 -0.001149 -0.000467 -0.000001 0.021794 -0.000001
# 6 0.000000 0.000000 0.000001 -0.036995 -0.000001 0.020452
#
#
# Mechanical properties :
#
#
# Convention : Reuss Voigt Hill
#
# Bulk Modulus (GPa) = 20.78816 24.51515 22.65165
# Shear Modulus (GPa) = 79.80274 25.61557 52.70916
#
# Velocity S-wave (km/s) = 6.01022 3.40513 4.88455
# Velocity P-wave (km/s) = 7.58772 5.15332 6.48576
#
# Compressibility (1/GPa) = 0.04810431
#
# Stress axis : x y z
#
# Youngs Moduli (GPa) = 41.14752 104.22635 66.85936
#
# Poissons Ratio (x) = -0.15555 0.06350
# Poissons Ratio (y) = -0.06141 0.06135
# Poissons Ratio (z) = 0.03908 0.09564
#
# Static dielectric constant tensor:
#      x y z
#    x 1.884660 0.000000 -0.008330 
#    y 0.000000 1.827050 0.000000 
#    z -0.008330 0.000000 1.847180 
# 
# From -- ./inp_files/208528.got.cif
#   From: 2010.05.17/outbox.cif.g08.bks.cpg/sg12_105_cif.got.tgz:208528.got - 2010.06.03 13:09:07.
