data_PCOD9189712
_publ_section_title
;
Structure prediction by ZEFSAII (Michael W. Deem and Ramdas Pophale) SiO2 
 PCOD9189712
Probable space group: C 2/M
;
_chemical_formula_sum "Si O2"
_cell_formula_units_Z 64
_cell_length_a 33.367091
_cell_length_b 7.918859
_cell_length_c 23.856874
_cell_angle_alpha 90.000000
_cell_angle_beta 151.430730
_cell_angle_gamma 90.000000
_cell_volume 3014.553793
_symmetry_space_group_name_H-M "C 2/M"
_symmetry_group_IT_number 12
_symmetry_cell_setting 'monoclinic'
loop_
_space_group_symop_operation_xyz
x,y,z
-x,y,-z
-x,-y,-z
x,-y,z
1/2+x,1/2+y,z
1/2-x,1/2+y,-z
1/2-x,1/2-y,-z
1/2+x,1/2-y,z
loop_
_atom_site_type_symbol
_atom_site_label
_atom_site_fract_x
_atom_site_fract_y
_atom_site_fract_z
Si Si1 0.104781 0.700482 0.461383
Si Si2 0.985396 0.800686 0.146589
Si Si3 0.149917 0.697446 0.935048
Si Si4 0.420000 0.794910 0.265646
Si Si5 0.760731 0.200852 0.281689
Si Si6 0.071945 0.204224 0.045966
Si Si7 0.210595 0.201898 0.808880
Si Si8 0.843632 0.297817 0.598070
O O1 0.093958 0.500000 0.440778
O O2 0.175623 0.728542 0.594587
O O3 0.133565 0.767847 0.436267
O O4 0.014573 0.765795 0.371118
O O5 0.084357 0.770652 0.272499
O O6 0.937862 0.712760 0.139647
O O7 0.968740 0.000000 0.130619
O O8 0.948264 0.737521 0.042093
O O9 0.169915 0.500000 0.952539
O O10 0.136342 0.767979 0.856190
O O11 0.219694 0.772865 0.062203
O O12 0.378361 0.736927 0.272012
O O13 0.419566 0.000000 0.264525
O O14 0.664368 0.240553 0.176821
O O15 0.778790 0.268266 0.240988
O O16 0.772023 0.000000 0.295008
O O17 0.069811 0.000000 0.042697
O O18 0.000000 0.263076 0.000000
O O19 0.223715 0.000000 0.821733
O O20 0.849394 0.500000 0.605483
O O21 0.750000 0.250000 0.500000
#
# Coordination Sequence:
#
# PCOD9189712 Si02
#       8
#     8   8   8   8   8   8   8   8
#     4  10  23  43  63  84 119 163 201 247 301 356
#     4  11  22  37  63  95 123 158 202 247 300 356
#     4  10  19  38  61  86 124 159 195 246 303 358
#     4  10  21  38  62  88 115 157 204 242 296 363
#     4  11  24  41  62  89 121 158 202 251 301 354
#     4  10  23  42  63  89 123 161 200 245 298 357
#     4  10  22  38  59  88 123 157 192 248 307 352
#     4  11  24  43  65  90 125 162 201 250 303 357
#
# _framework density 21.230338
#
# number of rings (size 3 to 8) (size 9 to 14) (size 15 to 20)
#    0.000    1.625    2.500    1.500    1.750    4.750 
#    0.000    2.500    0.000    0.000    0.000    0.000 
#    0.000    0.000    0.000    0.000    0.000    0.000 
#
# Total GULP energy -178867.937429 kJ/mol
# GULP energy per Si atom -5589.623045 kJ/mol
# Density = 2.118202 g / cm^3
# Si number density = 21.230338 Si / 1000 Ang^3
#
#
#
# Elastic Constant Matrix: (Units=GPa)
#
#
# Indices 1 2 3 4 5 6 
#
# 1 63.0137 -5.1234 12.1334 0.0000 14.5916 0.0000
# 2 -5.1234 21.4843 -9.0993 0.0000 -3.9090 0.0000
# 3 12.1334 -9.0993 104.4059 0.0000 5.0895 0.0000
# 4 0.0000 0.0000 0.0000 19.2346 0.0000 8.7654
# 5 14.5916 -3.9090 5.0895 0.0000 34.6131 0.0000
# 6 0.0000 0.0000 0.0000 8.7654 0.0000 22.2796
#
#
#
# Elastic Compliance Matrix: (Units=1/GPa)
#
#
# Indices 1 2 3 4 5 6 
#
# 1 0.018001 0.002349 -0.001541 0.000000 -0.007096 0.000000
# 2 0.002349 0.049466 0.003842 0.000000 0.004031 0.000000
# 3 -0.001541 0.003842 0.010112 0.000000 -0.000403 0.000000
# 4 0.000000 0.000000 0.000000 0.063347 0.000000 -0.024922
# 5 -0.007096 0.004031 -0.000403 0.000000 0.032397 0.000000
# 6 0.000000 0.000000 0.000000 -0.024922 0.000000 0.054689
#
#
# Mechanical properties :
#
#
# Convention : Reuss Voigt Hill
#
# Bulk Modulus (GPa) = 11.51058 20.52502 16.01780
# Shear Modulus (GPa) = 20.18797 27.95835 24.07316
#
# Velocity S-wave (km/s) = 3.08702 3.63286 3.37100
# Velocity P-wave (km/s) = 4.25908 5.22356 4.76578
#
# Compressibility (1/GPa) = 0.08687662
#
# Stress axis : x y z
#
# Youngs Moduli (GPa) = 55.55374 20.21579 98.89641
#
# Poissons Ratio (x) = -0.04748 0.15243
# Poissons Ratio (y) = -0.13048 -0.37993
# Poissons Ratio (z) = 0.08562 -0.07766
#
# Static dielectric constant tensor:
#      x y z
#    x 1.766490 0.000000 -0.004180 
#    y 0.000000 1.764290 0.000000 
#    z -0.004180 0.000000 1.749050 
# 
# From -- ./inp_files/249754.got.cif
#   From: 2010.05.17/outbox.cif.g08.bks.cpg/sg12_125_cif.got.tgz:249754.got - 2010.06.03 13:09:07.
