data_PCOD9189348
_publ_section_title
;
Structure prediction by ZEFSAII (Michael W. Deem and Ramdas Pophale) SiO2 
 PCOD9189348
Probable space group: C 2/M
;
_chemical_formula_sum "Si O2"
_cell_formula_units_Z 44
_cell_length_a 28.126161
_cell_length_b 10.774006
_cell_length_c 10.402479
_cell_angle_alpha 90.000000
_cell_angle_beta 143.480480
_cell_angle_gamma 90.000000
_cell_volume 1875.910009
_symmetry_space_group_name_H-M "C 2/M"
_symmetry_group_IT_number 12
_symmetry_cell_setting 'monoclinic'
loop_
_space_group_symop_operation_xyz
x,y,z
-x,y,-z
-x,-y,-z
x,-y,z
1/2+x,1/2+y,z
1/2-x,1/2+y,-z
1/2-x,1/2-y,-z
1/2+x,1/2-y,z
loop_
_atom_site_type_symbol
_atom_site_label
_atom_site_fract_x
_atom_site_fract_y
_atom_site_fract_z
Si Si1 0.820488 0.500000 0.964829
Si Si2 0.581714 0.361510 0.884692
Si Si3 0.458335 0.733218 0.783161
Si Si4 0.271729 0.741616 0.899267
Si Si5 0.316241 0.645377 0.626161
Si Si6 0.498044 0.000000 0.215703
Si Si7 0.826598 0.500000 0.290511
O O1 0.822533 0.500000 0.126032
O O2 0.909763 0.500000 0.092178
O O3 0.771274 0.374466 0.827109
O O4 0.583346 0.500000 0.841521
O O5 0.632939 0.283032 0.898529
O O6 0.632098 0.350798 0.127824
O O7 0.492718 0.323994 0.727744
O O8 0.369326 0.697431 0.623723
O O9 0.488258 0.874752 0.836011
O O10 0.500000 0.675915 0.000000
O O11 0.219315 0.620006 0.748040
O O12 0.250000 0.750000 0.000000
O O13 0.292799 0.500000 0.561411
O O14 0.250000 0.750000 0.500000
O O15 0.578600 0.000000 0.477033
#
# Coordination Sequence:
#
# PCOD9189348 Si02
#       7
#     4   8   8   8   8   4   4
#     4  10  21  41  61  89 117 159 200 247 295 357
#     4  10  19  37  62  80 109 156 203 231 286 359
#     4  10  22  38  57  86 117 156 197 240 291 356
#     4  10  20  37  59  87 117 152 196 242 291 355
#     4  10  23  39  58  84 117 150 192 246 299 348
#     4  12  22  36  64  88 125 152 198 254 301 346
#     4  10  23  37  63  89 121 154 200 248 306 349
#
# _framework density 23.455282
#
# number of rings (size 3 to 8) (size 9 to 14) (size 15 to 20)
#    0.000    1.818    2.727    1.091    3.818    2.182 
#    3.273    0.000    2.000    0.000    0.000    8.909 
#    0.000    0.000    0.000    0.000    0.000    0.000 
#
# Total GULP energy -122613.210882 kJ/mol
# GULP energy per Si atom -5573.327767 kJ/mol
# Density = 2.340190 g / cm^3
# Si number density = 23.455282 Si / 1000 Ang^3
#
#
#
# Elastic Constant Matrix: (Units=GPa)
#
#
# Indices 1 2 3 4 5 6 
#
# 1 146.5859 64.8507 43.9448 0.0000 59.6206 0.0000
# 2 64.8507 164.3600 26.8798 0.0000 39.8761 0.0000
# 3 43.9448 26.8798 68.5597 0.0000 31.6810 0.0000
# 4 0.0000 0.0000 0.0000 22.8772 0.0000 8.4722
# 5 59.6206 39.8761 31.6810 0.0000 41.1597 0.0000
# 6 0.0000 0.0000 0.0000 8.4722 0.0000 40.7439
#
#
#
# Elastic Compliance Matrix: (Units=1/GPa)
#
#
# Indices 1 2 3 4 5 6 
#
# 1 0.016735 -0.000924 0.000657 0.000000 -0.023852 0.000000
# 2 -0.000924 0.008026 0.000652 0.000000 -0.006939 0.000000
# 3 0.000657 0.000652 0.022723 0.000000 -0.019074 0.000000
# 4 0.000000 0.000000 0.000000 0.047359 0.000000 -0.009848
# 5 -0.023852 -0.006939 -0.019074 0.000000 0.080250 0.000000
# 6 0.000000 0.000000 0.000000 -0.009848 0.000000 0.026591
#
#
# Mechanical properties :
#
#
# Convention : Reuss Voigt Hill
#
# Bulk Modulus (GPa) = 20.72339 72.31734 46.52036
# Shear Modulus (GPa) = 23.04194 37.21149 30.12672
#
# Velocity S-wave (km/s) = 3.13769 3.98739 3.58779
# Velocity P-wave (km/s) = 4.68842 7.21790 6.08602
#
# Compressibility (1/GPa) = 0.04825466
#
# Stress axis : x y z
#
# Youngs Moduli (GPa) = 59.75639 124.60166 44.00873
#
# Poissons Ratio (x) = 0.11509 -0.02893
# Poissons Ratio (y) = 0.05520 -0.02870
# Poissons Ratio (z) = -0.03928 -0.08125
#
# Static dielectric constant tensor:
#      x y z
#    x 1.921500 0.000000 0.002030 
#    y 0.000000 1.940750 0.000000 
#    z 0.002030 0.000000 1.922140 
# 
# From -- ./inp_files/153830.got.cif
#   From: 2010.05.17/outbox.cif.g08.bks.cpg/sg12_77_cif.got.tgz:153830.got - 2010.06.03 13:09:07.
