data_PCOD9189482
_publ_section_title
;
Structure prediction by ZEFSAII (Michael W. Deem and Ramdas Pophale) SiO2 
 PCOD9189482
Probable space group: C 2/M
;
_chemical_formula_sum "Si O2"
_cell_formula_units_Z 56
_cell_length_a 14.312619
_cell_length_b 24.854419
_cell_length_c 8.917644
_cell_angle_alpha 90.000000
_cell_angle_beta 66.609564
_cell_angle_gamma 90.000000
_cell_volume 2911.593913
_symmetry_space_group_name_H-M "C 2/M"
_symmetry_group_IT_number 12
_symmetry_cell_setting 'monoclinic'
loop_
_space_group_symop_operation_xyz
x,y,z
-x,y,-z
-x,-y,-z
x,-y,z
1/2+x,1/2+y,z
1/2-x,1/2+y,-z
1/2-x,1/2-y,-z
1/2+x,1/2-y,z
loop_
_atom_site_type_symbol
_atom_site_label
_atom_site_fract_x
_atom_site_fract_y
_atom_site_fract_z
Si Si1 0.378743 0.562925 0.090569
Si Si2 0.320101 0.787601 0.852631
Si Si3 0.844505 0.360382 0.299273
Si Si4 0.035126 0.250143 0.808832
Si Si5 0.991764 0.559082 0.825385
Si Si6 0.696770 0.663295 0.663801
Si Si7 0.714946 0.097674 0.979111
O O1 0.358195 0.500000 0.141578
O O2 0.334901 0.607949 0.232473
O O3 0.500000 0.569382 0.000000
O O4 0.322942 0.577786 0.969480
O O5 0.434046 0.764750 0.780056
O O6 0.269156 0.800520 0.725910
O O7 0.250000 0.750000 0.000000
O O8 0.316241 0.844272 0.938913
O O9 0.894425 0.303334 0.221767
O O10 0.940144 0.396011 0.295631
O O11 0.759570 0.349964 0.476165
O O12 0.797216 0.394349 0.190949
O O13 0.098579 0.200827 0.701669
O O14 0.000000 0.235401 0.000000
O O15 0.031291 0.500000 0.765090
O O16 0.000000 0.568886 0.000000
O O17 0.870896 0.561438 0.885722
#
# Coordination Sequence:
#
# PCOD9189482 Si02
#       7
#     8   8   8   8   8   8   8
#     4  10  23  44  66  87 118 166 219 262 303 373
#     4  11  21  36  62  88 117 168 211 252 306 371
#     4  11  21  38  58  95 131 157 194 264 318 373
#     4  12  20  39  64  86 125 168 214 254 297 378
#     4   9  17  32  58  89 117 156 202 246 305 376
#     4  11  25  38  62  95 130 163 207 262 326 365
#     4  10  19  37  64  86 117 158 209 251 308 372
#
# _framework density 19.233450999999999
#
# number of rings (size 3 to 8) (size 9 to 14) (size 15 to 20)
#    0.000    1.429    4.286    1.714    2.000    1.714 
#    0.000    0.714    0.000    4.286    0.000    0.000 
#    0.000    0.000    0.000    0.000    0.000    0.000 
#
# Total GULP energy -156197.237873 kJ/mol
# GULP energy per Si atom -5578.472781 kJ/mol
# Density = 1.918967 g / cm^3
# Si number density = 19.233451 Si / 1000 Ang^3
#
#
#
# Elastic Constant Matrix: (Units=GPa)
#
#
# Indices 1 2 3 4 5 6 
#
# 1 136.2582 43.0799 45.4346 0.0000 -16.7810 0.0000
# 2 43.0799 116.2423 44.7412 0.0000 -21.9039 0.0000
# 3 45.4346 44.7412 77.1178 0.0000 -26.1958 0.0000
# 4 0.0000 0.0000 0.0000 10.1940 0.0000 -6.2349
# 5 -16.7810 -21.9039 -26.1958 0.0000 16.8329 0.0000
# 6 0.0000 0.0000 0.0000 -6.2349 0.0000 32.5903
#
#
#
# Elastic Compliance Matrix: (Units=1/GPa)
#
#
# Indices 1 2 3 4 5 6 
#
# 1 0.009399 -0.001731 -0.004488 0.000000 0.000133 0.000000
# 2 -0.001731 0.012137 -0.002637 0.000000 0.009964 0.000000
# 3 -0.004488 -0.002637 0.030668 0.000000 0.039820 0.000000
# 4 0.000000 0.000000 0.000000 0.111097 0.000000 0.021254
# 5 0.000133 0.009964 0.039820 0.000000 0.134475 0.000000
# 6 0.000000 0.000000 0.000000 0.021254 0.000000 0.034750
#
#
# Mechanical properties :
#
#
# Convention : Reuss Voigt Hill
#
# Bulk Modulus (GPa) = 28.99273 66.23663 47.61468
# Shear Modulus (GPa) = 13.82230 25.01426 19.41828
#
# Velocity S-wave (km/s) = 2.68369 3.61024 3.18088
# Velocity P-wave (km/s) = 4.97089 7.20357 6.18875
#
# Compressibility (1/GPa) = 0.03449141
#
# Stress axis : x y z
#
# Youngs Moduli (GPa) = 106.39205 82.39527 32.60766
#
# Poissons Ratio (x) = 0.14261 0.14635
# Poissons Ratio (y) = 0.18414 0.08599
# Poissons Ratio (z) = 0.47750 0.21729
#
# Static dielectric constant tensor:
#      x y z
#    x 1.744930 0.000000 0.012760 
#    y 0.000000 1.575950 0.000000 
#    z 0.012760 0.000000 1.649580 
# 
# From -- ./inp_files/65760.got.cif
#   From: 2010.05.17/outbox.cif.g08.bks.cpg/sg12_33_cif.got.tgz:65760.got - 2010.06.03 13:09:07.
