data_PCOD9189728
_publ_section_title
;
Structure prediction by ZEFSAII (Michael W. Deem and Ramdas Pophale) SiO2 
 PCOD9189728
Probable space group: C 2/M
;
_chemical_formula_sum "Si O2"
_cell_formula_units_Z 58
_cell_length_a 25.488917
_cell_length_b 15.753531
_cell_length_c 19.775372
_cell_angle_alpha 90.000000
_cell_angle_beta 159.839149
_cell_angle_gamma 90.000000
_cell_volume 2736.786327
_symmetry_space_group_name_H-M "C 2/M"
_symmetry_group_IT_number 12
_symmetry_cell_setting 'monoclinic'
loop_
_space_group_symop_operation_xyz
x,y,z
-x,y,-z
-x,-y,-z
x,-y,z
1/2+x,1/2+y,z
1/2-x,1/2+y,-z
1/2-x,1/2-y,-z
1/2+x,1/2-y,z
loop_
_atom_site_type_symbol
_atom_site_label
_atom_site_fract_x
_atom_site_fract_y
_atom_site_fract_z
Si Si1 0.261605 0.645513 0.308597
Si Si2 0.500000 0.000000 0.000000
Si Si3 0.259993 0.093853 0.102372
Si Si4 0.742688 0.901314 0.514000
Si Si5 0.279710 0.235564 0.874487
Si Si6 0.581480 0.297095 0.163856
Si Si7 0.425828 0.841507 0.174966
Si Si8 0.459701 0.346350 0.665145
O O1 0.298577 0.682837 0.279578
O O2 0.186968 0.724415 0.259475
O O3 0.406996 0.619083 0.529103
O O4 0.132539 0.573963 0.149832
O O5 0.092054 0.105650 0.866249
O O6 0.274678 0.000000 0.149826
O O7 0.284931 0.172164 0.183654
O O8 0.369026 0.106215 0.169978
O O9 0.822607 0.862772 0.676613
O O10 0.563624 0.887276 0.304051
O O11 0.812448 0.851892 0.535161
O O12 0.776534 0.000000 0.546250
O O13 0.450719 0.256042 0.053091
O O14 0.297458 0.181663 0.964608
O O15 0.500000 0.337941 0.000000
O O16 0.484612 0.750291 0.272165
#
# Coordination Sequence:
#
# PCOD9189728 Si02
#       8
#     8   2   8   8   8   8   8   8
#     4  11  23  38  62  98 133 175 211 265 336 390
#     4  12  24  36  60 100 148 160 210 280 334 380
#     4  11  24  43  66  98 128 169 224 277 324 381
#     4  12  23  35  64 102 127 164 215 273 321 383
#     4  10  20  40  66  86 127 178 210 251 331 393
#     4  10  19  38  61  92 131 166 206 260 326 390
#     4  11  22  41  65  89 128 174 214 268 323 389
#     4  11  22  39  67  92 126 171 221 260 326 398
#
# _framework density 21.192739
#
# number of rings (size 3 to 8) (size 9 to 14) (size 15 to 20)
#    0.000    1.103    6.207    3.724    1.931    0.276 
#    1.241    4.828    0.000    1.655    0.000    0.000 
#    0.000    0.000    0.000    0.000    0.000    0.000 
#
# Total GULP energy -161848.918201 kJ/mol
# GULP energy per Si atom -5580.997179 kJ/mol
# Density = 2.114450 g / cm^3
# Si number density = 21.192739 Si / 1000 Ang^3
#
#
#
# Elastic Constant Matrix: (Units=GPa)
#
#
# Indices 1 2 3 4 5 6 
#
# 1 72.9555 25.7284 32.2913 -0.0005 -13.3528 -0.0003
# 2 25.7284 79.3309 24.0824 0.0000 -26.2503 0.0002
# 3 32.2913 24.0824 39.3998 -0.0003 -12.4268 -0.0005
# 4 -0.0005 0.0000 -0.0003 9.8039 -0.0003 10.9401
# 5 -13.3528 -26.2503 -12.4268 -0.0003 41.2869 -0.0003
# 6 -0.0003 0.0002 -0.0005 10.9401 -0.0003 7.9530
#
#
#
# Elastic Compliance Matrix: (Units=1/GPa)
#
#
# Indices 1 2 3 4 5 6 
#
# 1 0.021801 -0.001738 -0.016496 -0.000001 0.000980 0.000002
# 2 -0.001738 0.018222 -0.006891 -0.000001 0.008950 0.000001
# 3 -0.016496 -0.006891 0.044248 0.000004 0.003602 -0.000003
# 4 -0.000001 -0.000001 0.000004 -0.190650 0.000001 0.262256
# 5 0.000980 0.008950 0.003602 0.000001 0.031312 0.000000
# 6 0.000002 0.000001 -0.000003 0.262256 0.000000 -0.235020
#
#
# Mechanical properties :
#
#
# Convention : Reuss Voigt Hill
#
# Bulk Modulus (GPa) = 29.39270 39.54339 34.46804
# Shear Modulus (GPa) = -20.12110 19.11437 -0.50337
#
# Velocity S-wave (km/s) = -3.08463 3.00647 -0.48789
# Velocity P-wave (km/s) = 1.10125 5.54538 3.99775
#
# Compressibility (1/GPa) = 0.03402206
#
# Stress axis : x y z
#
# Youngs Moduli (GPa) = 45.86994 54.87751 22.59972
#
# Poissons Ratio (x) = 0.09540 0.37280
# Poissons Ratio (y) = 0.07974 0.15573
# Poissons Ratio (z) = 0.75666 0.37814
#
# Static dielectric constant tensor:
#      x y z
#    x 1.780570 0.000000 -0.014220 
#    y 0.000000 1.734760 0.000000 
#    z -0.014220 0.000000 1.823960 
# 
# From -- ./inp_files/328426.got.cif
#   From: 2010.05.17/outbox.cif.g08.bks.cpg/sg12_165_cif.got.tgz:328426.got - 2010.06.03 13:09:07.
