data_PCOD9189688
_publ_section_title
;
Structure prediction by ZEFSAII (Michael W. Deem and Ramdas Pophale) SiO2 
 PCOD9189688
Probable space group: C 2/M
;
_chemical_formula_sum "Si O2"
_cell_formula_units_Z 58
_cell_length_a 23.471397
_cell_length_b 19.035958
_cell_length_c 5.274130
_cell_angle_alpha 90.000000
_cell_angle_beta 75.992406
_cell_angle_gamma 90.000000
_cell_volume 2286.410839
_symmetry_space_group_name_H-M "C 2/M"
_symmetry_group_IT_number 12
_symmetry_cell_setting 'monoclinic'
loop_
_space_group_symop_operation_xyz
x,y,z
-x,y,-z
-x,-y,-z
x,-y,z
1/2+x,1/2+y,z
1/2-x,1/2+y,-z
1/2-x,1/2-y,-z
1/2+x,1/2-y,z
loop_
_atom_site_type_symbol
_atom_site_label
_atom_site_fract_x
_atom_site_fract_y
_atom_site_fract_z
Si Si1 0.194107 0.343041 0.927343
Si Si2 0.461508 0.639477 0.285354
Si Si3 0.000000 0.500000 0.500000
Si Si4 0.888285 0.579949 0.579566
Si Si5 0.733135 0.422956 0.496319
Si Si6 0.960371 0.700474 0.288341
Si Si7 0.123783 0.926428 0.290243
Si Si8 0.181142 0.185149 0.944681
O O1 0.205757 0.392714 0.673113
O O2 0.166701 0.266322 0.914752
O O3 0.158745 0.387514 0.175302
O O4 0.260159 0.320474 0.944082
O O5 0.500000 0.636080 0.500000
O O6 0.438133 0.719012 0.286953
O O7 0.410664 0.585787 0.412461
O O8 0.500000 0.622056 0.000000
O O9 0.951592 0.559966 0.640463
O O10 0.873327 0.500000 0.499373
O O11 0.910264 0.641543 0.368725
O O12 0.736952 0.500000 0.619231
O O13 0.691078 0.433259 0.301297
O O14 0.703126 0.361416 0.687256
O O15 0.000000 0.702498 0.500000
O O16 0.000000 0.686569 0.000000
O O17 0.104641 0.000000 0.189858
O O18 0.125768 0.856222 0.122654
#
# Coordination Sequence:
#
# PCOD9189688 Si02
#       8
#     8   8   2   8   8   8   8   8
#     4  10  21  38  62  90 122 160 213 273 323 399
#     4  10  23  40  62  94 128 166 222 275 328 400
#     4   8  20  36  58  84 126 168 212 272 326 412
#     4  10  19  38  60  87 124 167 214 267 331 399
#     4  10  21  38  60  89 125 162 206 264 332 403
#     4  10  20  40  62  87 122 167 216 268 323 388
#     4  10  22  39  60  86 122 167 204 261 330 396
#     4  10  21  39  61  90 122 160 214 267 334 393
#
# _framework density 25.367267999999999
#
# number of rings (size 3 to 8) (size 9 to 14) (size 15 to 20)
#    0.414    1.655    0.690    2.069    1.931    2.483 
#    4.966    0.000    0.000    0.000    0.000    0.000 
#    0.000    0.000    0.000    0.000    0.000    0.000 
#
# Total GULP energy -161613.058227 kJ/mol
# GULP energy per Si atom -5572.864077 kJ/mol
# Density = 2.530953 g / cm^3
# Si number density = 25.367268 Si / 1000 Ang^3
#
#
#
# Elastic Constant Matrix: (Units=GPa)
#
#
# Indices 1 2 3 4 5 6 
#
# 1 69.4175 11.7391 5.5085 0.0000 -6.5326 0.0000
# 2 11.7391 215.7485 74.8662 0.0000 -24.1403 0.0000
# 3 5.5085 74.8662 151.7305 0.0000 -26.7124 0.0000
# 4 0.0000 0.0000 0.0000 15.4225 0.0000 1.1761
# 5 -6.5326 -24.1403 -26.7124 0.0000 40.4133 0.0000
# 6 0.0000 0.0000 0.0000 1.1761 0.0000 17.2123
#
#
#
# Elastic Compliance Matrix: (Units=1/GPa)
#
#
# Indices 1 2 3 4 5 6 
#
# 1 0.014696 -0.000613 0.000139 0.000000 0.002101 0.000000
# 2 -0.000613 0.005725 -0.002510 0.000000 0.001662 0.000000
# 3 0.000139 -0.002510 0.008560 0.000000 0.004181 0.000000
# 4 0.000000 0.000000 0.000000 0.065180 0.000000 -0.004454
# 5 0.002101 0.001662 0.004181 0.000000 0.028840 0.000000
# 6 0.000000 0.000000 0.000000 -0.004454 0.000000 0.058402
#
#
# Mechanical properties :
#
#
# Convention : Reuss Voigt Hill
#
# Bulk Modulus (GPa) = 43.45317 69.01380 56.23348
# Shear Modulus (GPa) = 25.63533 37.59514 31.61523
#
# Velocity S-wave (km/s) = 3.18239 3.85390 3.53413
# Velocity P-wave (km/s) = 5.53808 6.86063 6.23452
#
# Compressibility (1/GPa) = 0.02301328
#
# Stress axis : x y z
#
# Youngs Moduli (GPa) = 68.04601 174.66203 116.81879
#
# Poissons Ratio (x) = 0.10700 -0.01620
# Poissons Ratio (y) = 0.04169 0.29324
# Poissons Ratio (z) = -0.00944 0.43843
#
# Static dielectric constant tensor:
#      x y z
#    x 2.206220 0.000000 0.103400 
#    y 0.000000 2.077850 0.000000 
#    z 0.103400 0.000000 1.982730 
# 
# From -- ./inp_files/29300.got.cif
#   From: 2010.05.17/outbox.cif.g08.bks.cpg/sg12_15_cif.got.tgz:29300.got - 2010.06.03 13:09:07.
