data_PCOD9189132
_publ_section_title
;
Structure prediction by ZEFSAII (Michael W. Deem and Ramdas Pophale) SiO2 
 PCOD9189132
Probable space group: C 2/M
;
_chemical_formula_sum "Si O2"
_cell_formula_units_Z 48
_cell_length_a 25.051111
_cell_length_b 16.712511
_cell_length_c 5.342606
_cell_angle_alpha 90.000000
_cell_angle_beta 98.341319
_cell_angle_gamma 90.000000
_cell_volume 2213.110798
_symmetry_space_group_name_H-M "C 2/M"
_symmetry_group_IT_number 12
_symmetry_cell_setting 'monoclinic'
loop_
_space_group_symop_operation_xyz
x,y,z
-x,y,-z
-x,-y,-z
x,-y,z
1/2+x,1/2+y,z
1/2-x,1/2+y,-z
1/2-x,1/2-y,-z
1/2+x,1/2-y,z
loop_
_atom_site_type_symbol
_atom_site_label
_atom_site_fract_x
_atom_site_fract_y
_atom_site_fract_z
Si Si1 0.357372 0.406063 0.856225
Si Si2 0.437590 0.239705 0.236296
Si Si3 0.310696 0.324080 0.324820
Si Si4 0.059834 0.801811 0.254604
Si Si5 0.202054 0.411265 0.202883
Si Si6 0.148798 0.359042 0.662357
O O1 0.347921 0.500000 0.842230
O O2 0.327734 0.361963 0.604799
O O3 0.421370 0.385605 0.850878
O O4 0.336941 0.369911 0.103666
O O5 0.499471 0.266765 0.240508
O O6 0.420608 0.299692 0.447706
O O7 0.415133 0.157871 0.335350
O O8 0.413531 0.245503 0.940324
O O9 0.247381 0.343396 0.254267
O O10 0.323694 0.229636 0.320187
O O11 0.227361 0.500000 0.238810
O O12 0.162286 0.399864 0.410506
O O13 0.172754 0.403818 0.917191
#
# Coordination Sequence:
#
# PCOD9189132 Si02
#       6
#     8   8   8   8   8   8
#     4  12  22  37  61  91 136 174 203 254 308 368
#     4  10  20  36  63  86 121 153 216 256 298 356
#     4  12  24  42  63  92 127 171 222 246 299 370
#     4  10  19  37  57  91 121 159 206 256 302 370
#     4  12  26  42  62  95 130 163 204 264 325 364
#     4  12  22  42  68  91 120 170 213 260 299 376
#
# _framework density 21.688927
#
# number of rings (size 3 to 8) (size 9 to 14) (size 15 to 20)
#    0.000    0.667    3.333    6.000    0.000    0.000 
#    0.000    3.333    0.000    0.000    0.000   46.667 
#    0.000    0.000    0.000    0.000    0.000    0.000 
#
# Total GULP energy -133624.541840 kJ/mol
# GULP energy per Si atom -5567.689243 kJ/mol
# Density = 2.163956 g / cm^3
# Si number density = 21.688927 Si / 1000 Ang^3
#
#
#
# Elastic Constant Matrix: (Units=GPa)
#
#
# Indices 1 2 3 4 5 6 
#
# 1 53.2901 -1.7589 37.2930 0.0000 -11.7803 0.0000
# 2 -1.7589 69.7228 24.7643 0.0000 -4.5759 0.0000
# 3 37.2930 24.7643 183.7245 0.0000 -21.7974 0.0000
# 4 0.0000 0.0000 0.0000 22.1026 0.0000 1.1044
# 5 -11.7803 -4.5759 -21.7974 0.0000 31.7736 0.0000
# 6 0.0000 0.0000 0.0000 1.1044 0.0000 13.8607
#
#
#
# Elastic Compliance Matrix: (Units=1/GPa)
#
#
# Indices 1 2 3 4 5 6 
#
# 1 0.023210 0.002520 -0.004340 0.000000 0.005991 0.000000
# 2 0.002520 0.015358 -0.002404 0.000000 0.001497 0.000000
# 3 -0.004340 -0.002404 0.006984 0.000000 0.002836 0.000000
# 4 0.000000 0.000000 0.000000 0.045424 0.000000 -0.003619
# 5 0.005991 0.001497 0.002836 0.000000 0.035855 0.000000
# 6 0.000000 0.000000 0.000000 -0.003619 0.000000 0.072435
#
#
# Mechanical properties :
#
#
# Convention : Reuss Voigt Hill
#
# Bulk Modulus (GPa) = 26.95088 47.48158 37.21623
# Shear Modulus (GPa) = 22.71867 29.97665 26.34766
#
# Velocity S-wave (km/s) = 3.23999 3.72172 3.48918
# Velocity P-wave (km/s) = 5.14293 6.35672 5.78177
#
# Compressibility (1/GPa) = 0.03710455
#
# Stress axis : x y z
#
# Youngs Moduli (GPa) = 43.08486 65.11173 143.17521
#
# Poissons Ratio (x) = -0.16410 0.62141
# Poissons Ratio (y) = -0.10858 0.34421
# Poissons Ratio (z) = 0.18700 0.15654
#
# Static dielectric constant tensor:
#      x y z
#    x 2.768740 0.000000 0.495610 
#    y 0.000000 1.764300 0.000000 
#    z 0.495610 0.000000 2.061250 
# 
# From -- ./inp_files/28162.got.cif
#   From: 2010.05.17/outbox.cif.g08.bks.cpg/sg12_15_cif.got.tgz:28162.got - 2010.06.03 13:09:07.
