data_PCOD9189772
_publ_section_title
;
Structure prediction by ZEFSAII (Michael W. Deem and Ramdas Pophale) SiO2 
 PCOD9189772
Probable space group: C 2/M
;
_chemical_formula_sum "Si O2"
_cell_formula_units_Z 58
_cell_length_a 7.271707
_cell_length_b 17.922898
_cell_length_c 20.628548
_cell_angle_alpha 90.000000
_cell_angle_beta 106.047472
_cell_angle_gamma 90.000000
_cell_volume 2583.756370
_symmetry_space_group_name_H-M "C 2/M"
_symmetry_group_IT_number 12
_symmetry_cell_setting 'monoclinic'
loop_
_space_group_symop_operation_xyz
x,y,z
-x,y,-z
-x,-y,-z
x,-y,z
1/2+x,1/2+y,z
1/2-x,1/2+y,-z
1/2-x,1/2-y,-z
1/2+x,1/2-y,z
loop_
_atom_site_type_symbol
_atom_site_label
_atom_site_fract_x
_atom_site_fract_y
_atom_site_fract_z
Si Si1 0.620270 0.655032 0.242360
Si Si2 0.883750 0.085234 0.624990
Si Si3 0.351305 0.192570 0.929056
Si Si4 0.341375 0.084554 0.663299
Si Si5 0.830319 0.327037 0.783512
Si Si6 0.000000 0.000000 0.000000
Si Si7 0.585416 0.638024 0.095443
Si Si8 0.302478 0.914803 0.518595
O O1 0.696875 0.622725 0.317673
O O2 0.389819 0.650202 0.227237
O O3 0.670134 0.741531 0.238862
O O4 0.659880 0.621382 0.175391
O O5 0.836153 0.119141 0.549533
O O6 0.112070 0.082013 0.652018
O O7 0.811226 0.000000 0.616027
O O8 0.419218 0.167650 0.863771
O O9 0.332960 0.282886 0.922624
O O10 0.143643 0.156727 0.921200
O O11 0.500000 0.173862 0.000000
O O12 0.420618 0.127682 0.733064
O O13 0.350017 0.120347 0.592672
O O14 0.416418 0.000000 0.669184
O O15 0.894033 0.933421 0.947170
O O16 0.500000 0.919439 0.500000
O O17 0.233257 0.000000 0.527039
#
# Coordination Sequence:
#
# PCOD9189772 Si02
#       8
#     8   8   8   8   8   2   8   8
#     4   9  19  35  54  78 105 140 177 222 262 326
#     4   9  17  30  51  76 100 134 177 215 263 319
#     4  10  19  38  63  81 108 157 195 223 275 359
#     4   9  17  32  53  74 102 133 175 222 264 312
#     4   9  19  34  54  80 102 139 179 219 264 322
#     4  12  24  36  58  92 120 142 190 252 290 318
#     4  10  22  37  62  83 116 151 195 233 288 335
#     4   9  17  29  48  73 105 138 171 211 267 324
#
# _framework density 22.447937
#
# number of rings (size 3 to 8) (size 9 to 14) (size 15 to 20)
#    0.000    2.621    0.690    0.828    0.966    2.759 
#    3.724    1.034    0.000    0.000    0.000    0.000 
#    0.000    0.000    0.000    0.000    0.000    0.000 
#
# Total GULP energy -161550.574422 kJ/mol
# GULP energy per Si atom -5570.709463 kJ/mol
# Density = 2.239684 g / cm^3
# Si number density = 22.447937 Si / 1000 Ang^3
#
#
#
# Elastic Constant Matrix: (Units=GPa)
#
#
# Indices 1 2 3 4 5 6 
#
# 1 44.7428 -5.4972 11.8253 0.0000 7.1225 0.0000
# 2 -5.4972 45.7714 57.4708 0.0000 -9.5116 0.0000
# 3 11.8253 57.4708 214.5639 0.0000 -7.3961 0.0000
# 4 0.0000 0.0000 0.0000 37.2712 0.0000 -6.3550
# 5 7.1225 -9.5116 -7.3961 0.0000 34.9775 0.0000
# 6 0.0000 0.0000 0.0000 -6.3550 0.0000 9.8856
#
#
#
# Elastic Compliance Matrix: (Units=1/GPa)
#
#
# Indices 1 2 3 4 5 6 
#
# 1 0.024547 0.006005 -0.003100 0.000000 -0.004021 0.000000
# 2 0.006005 0.036258 -0.009816 0.000000 0.006561 0.000000
# 3 -0.003100 -0.009816 0.007445 0.000000 -0.000464 0.000000
# 4 0.000000 0.000000 0.000000 0.030133 0.000000 0.019371
# 5 -0.004021 0.006561 -0.000464 0.000000 0.031095 0.000000
# 6 0.000000 0.000000 0.000000 0.019371 0.000000 0.113611
#
#
# Mechanical properties :
#
#
# Convention : Reuss Voigt Hill
#
# Bulk Modulus (GPa) = 18.37339 48.07510 33.22425
# Shear Modulus (GPa) = 18.17826 32.51215 25.34521
#
# Velocity S-wave (km/s) = 2.84878 3.80983 3.36380
# Velocity P-wave (km/s) = 4.36158 6.38873 5.46988
#
# Compressibility (1/GPa) = 0.05442653
#
# Stress axis : x y z
#
# Youngs Moduli (GPa) = 40.73805 27.58025 134.32236
#
# Poissons Ratio (x) = -0.16561 0.41637
# Poissons Ratio (y) = -0.24462 1.31856
# Poissons Ratio (z) = 0.12628 0.27074
#
# Static dielectric constant tensor:
#      x y z
#    x 1.904070 0.000000 0.008780 
#    y 0.000000 1.810800 0.000000 
#    z 0.008780 0.000000 1.928970 
# 
# From -- ./inp_files/300851.got.cif
#   From: 2010.05.17/outbox.cif.g08.bks.cpg/sg12_151_cif.got.tgz:300851.got - 2010.06.03 13:09:07.
