data_PCOD9189180
_publ_section_title
;
Structure prediction by ZEFSAII (Michael W. Deem and Ramdas Pophale) SiO2 
 PCOD9189180
Probable space group: C 2/M
;
_chemical_formula_sum "Si O2"
_cell_formula_units_Z 44
_cell_length_a 11.506931
_cell_length_b 23.014695
_cell_length_c 8.143593
_cell_angle_alpha 90.000000
_cell_angle_beta 67.537972
_cell_angle_gamma 90.000000
_cell_volume 1993.036477
_symmetry_space_group_name_H-M "C 2/M"
_symmetry_group_IT_number 12
_symmetry_cell_setting 'monoclinic'
loop_
_space_group_symop_operation_xyz
x,y,z
-x,y,-z
-x,-y,-z
x,-y,z
1/2+x,1/2+y,z
1/2-x,1/2+y,-z
1/2-x,1/2-y,-z
1/2+x,1/2-y,z
loop_
_atom_site_type_symbol
_atom_site_label
_atom_site_fract_x
_atom_site_fract_y
_atom_site_fract_z
Si Si1 0.442018 0.371883 0.369923
Si Si2 0.500000 0.372497 0.000000
Si Si3 0.013808 0.260482 0.303779
Si Si4 0.229586 0.660210 0.046978
Si Si5 0.187924 0.346281 0.682272
Si Si6 0.971482 0.434281 0.818706
O O1 0.500000 0.400891 0.500000
O O2 0.507007 0.308686 0.310604
O O3 0.300988 0.354704 0.495338
O O4 0.472833 0.404971 0.185698
O O5 0.631518 0.337894 0.952420
O O6 0.890476 0.286855 0.286117
O O7 0.000000 0.280003 0.500000
O O8 0.138127 0.287280 0.153191
O O9 0.154412 0.602352 0.145809
O O10 0.231441 0.652114 0.848483
O O11 0.087730 0.396322 0.693502
O O12 0.965871 0.500000 0.761900
O O13 0.000000 0.435554 0.000000
#
# Coordination Sequence:
#
# PCOD9189180 Si02
#       6
#     8   4   8   8   8   8
#     4  11  23  38  55  85 119 160 205 235 290 352
#     4  12  24  38  59  80 122 170 193 244 288 348
#     4  10  21  36  55  83 114 157 201 248 289 343
#     4  10  21  36  58  85 119 159 200 241 296 348
#     4  10  19  37  59  85 120 151 196 251 294 351
#     4   8  16  34  64  93 114 145 191 247 304 355
#
# _framework density 22.076867
#
# number of rings (size 3 to 8) (size 9 to 14) (size 15 to 20)
#    0.000    2.000    1.818    3.273    2.545    2.182 
#    0.000    0.455    0.000   21.273    0.000    0.000 
#    0.000    0.000    0.000    0.000    0.000    0.000 
#
# Total GULP energy -122816.521191 kJ/mol
# GULP energy per Si atom -5582.569145 kJ/mol
# Density = 2.202662 g / cm^3
# Si number density = 22.076867 Si / 1000 Ang^3
#
#
#
# Elastic Constant Matrix: (Units=GPa)
#
#
# Indices 1 2 3 4 5 6 
#
# 1 122.1625 9.7662 47.4209 0.0000 -19.2243 0.0000
# 2 9.7662 64.4013 14.7996 0.0000 -7.0201 0.0000
# 3 47.4209 14.7996 157.9581 0.0000 -16.3499 0.0000
# 4 0.0000 0.0000 0.0000 2.9958 0.0000 3.6110
# 5 -19.2243 -7.0201 -16.3499 0.0000 44.3421 0.0000
# 6 0.0000 0.0000 0.0000 3.6110 0.0000 2.8178
#
#
#
# Elastic Compliance Matrix: (Units=1/GPa)
#
#
# Indices 1 2 3 4 5 6 
#
# 1 0.009716 -0.000543 -0.002536 0.000000 0.003191 0.000000
# 2 -0.000543 0.016080 -0.001148 0.000000 0.001887 0.000000
# 3 -0.002536 -0.001148 0.007347 0.000000 0.001428 0.000000
# 4 0.000000 0.000000 0.000000 -0.612898 0.000000 0.785426
# 5 0.003191 0.001887 0.001428 0.000000 0.024761 0.000000
# 6 0.000000 0.000000 0.000000 0.785426 0.000000 -0.651628
#
#
# Mechanical properties :
#
#
# Convention : Reuss Voigt Hill
#
# Bulk Modulus (GPa) = 40.50335 54.27725 47.39030
# Shear Modulus (GPa) = -4.20189 28.20017 11.99914
#
# Velocity S-wave (km/s) = -1.38110 3.57790 2.33387
# Velocity P-wave (km/s) = 3.98034 6.45813 5.36426
#
# Compressibility (1/GPa) = 0.02468932
#
# Stress axis : x y z
#
# Youngs Moduli (GPa) = 102.92647 62.19092 136.10255
#
# Poissons Ratio (x) = 0.03376 0.34510
# Poissons Ratio (y) = 0.05587 0.15628
# Poissons Ratio (z) = 0.26098 0.07141
#
# Static dielectric constant tensor:
#      x y z
#    x 1.894760 0.000000 0.063580 
#    y 0.000000 1.773410 0.000000 
#    z 0.063580 0.000000 1.901570 
# 
# From -- ./inp_files/52409.got.cif
#   From: 2010.05.17/outbox.cif.g08.bks.cpg/sg12_27_cif.got.tgz:52409.got - 2010.06.03 13:09:07.
