data_PCOD9189384
_publ_section_title
;
Structure prediction by ZEFSAII (Michael W. Deem and Ramdas Pophale) SiO2 
 PCOD9189384
Probable space group: C 2/M
;
_chemical_formula_sum "Si O2"
_cell_formula_units_Z 64
_cell_length_a 30.502955
_cell_length_b 9.372237
_cell_length_c 12.068305
_cell_angle_alpha 90.000000
_cell_angle_beta 86.871286
_cell_angle_gamma 90.000000
_cell_volume 3444.955610
_symmetry_space_group_name_H-M "C 2/M"
_symmetry_group_IT_number 12
_symmetry_cell_setting 'monoclinic'
loop_
_space_group_symop_operation_xyz
x,y,z
-x,y,-z
-x,-y,-z
x,-y,z
1/2+x,1/2+y,z
1/2-x,1/2+y,-z
1/2-x,1/2-y,-z
1/2+x,1/2-y,z
loop_
_atom_site_type_symbol
_atom_site_label
_atom_site_fract_x
_atom_site_fract_y
_atom_site_fract_z
Si Si1 0.404410 0.833977 0.224435
Si Si2 0.711471 0.160492 0.956159
Si Si3 0.368568 0.342204 0.029155
Si Si4 0.496324 0.166024 0.868569
Si Si5 0.663197 0.826941 0.317071
Si Si6 0.416065 0.336742 0.796441
Si Si7 0.163047 0.329054 0.575628
Si Si8 0.755584 0.332595 0.294573
O O1 0.387116 0.721472 0.138387
O O2 0.456752 0.828165 0.200254
O O3 0.379460 0.797380 0.342274
O O4 0.391881 0.000000 0.198881
O O5 0.667585 0.231255 0.003531
O O6 0.716351 0.167061 0.822902
O O7 0.714568 0.000000 0.992808
O O8 0.750000 0.250000 0.000000
O O9 0.349430 0.500000 0.047448
O O10 0.403477 0.347744 0.927592
O O11 0.462071 0.254736 0.799414
O O12 0.481913 0.000000 0.875011
O O13 0.500000 0.210135 0.000000
O O14 0.623044 0.750896 0.257941
O O15 0.656806 0.793116 0.448654
O O16 0.711209 0.758538 0.284535
O O17 0.663213 0.000000 0.301206
O O18 0.418751 0.500000 0.752873
O O19 0.167891 0.500000 0.580622
O O20 0.209593 0.274900 0.619266
O O21 0.743783 0.500000 0.318107
#
# Coordination Sequence:
#
# PCOD9189384 Si02
#       8
#     8   8   8   8   8   8   8   8
#     4  10  19  37  62  87 116 147 182 233 291 340
#     4  11  22  35  53  78 114 155 189 233 286 344
#     4  11  22  35  54  82 114 150 190 230 279 342
#     4  10  20  35  62  94 117 144 190 238 283 345
#     4  11  23  38  59  85 114 150 200 246 281 334
#     4  11  24  40  58  82 120 159 190 232 292 348
#     4   9  19  38  61  85 114 153 194 237 288 341
#     4  10  20  37  59  82 114 153 192 234 292 346
#
# _framework density 18.577888000000002
#
# number of rings (size 3 to 8) (size 9 to 14) (size 15 to 20)
#    0.000    1.625    2.500    2.625    0.000    6.250 
#    0.000    2.500    0.000    3.750    0.000    0.000 
#    0.000    0.000    0.000    0.000    0.000    0.000 
#
# Total GULP energy -178357.094341 kJ/mol
# GULP energy per Si atom -5573.659198 kJ/mol
# Density = 1.853560 g / cm^3
# Si number density = 18.577888 Si / 1000 Ang^3
#
#
#
# Elastic Constant Matrix: (Units=GPa)
#
#
# Indices 1 2 3 4 5 6 
#
# 1 87.1442 42.1369 11.7145 0.0000 5.4134 0.0000
# 2 42.1369 102.4671 17.1365 0.0000 9.7762 0.0000
# 3 11.7145 17.1365 39.2779 0.0000 4.2675 0.0000
# 4 0.0000 0.0000 0.0000 19.3822 0.0000 -0.1463
# 5 5.4134 9.7762 4.2675 0.0000 22.7554 0.0000
# 6 0.0000 0.0000 0.0000 -0.1463 0.0000 29.2829
#
#
#
# Elastic Compliance Matrix: (Units=1/GPa)
#
#
# Indices 1 2 3 4 5 6 
#
# 1 0.014458 -0.005577 -0.001802 0.000000 -0.000706 0.000000
# 2 -0.005577 0.012999 -0.003619 0.000000 -0.003579 0.000000
# 3 -0.001802 -0.003619 0.027930 0.000000 -0.003254 0.000000
# 4 0.000000 0.000000 0.000000 0.051596 0.000000 0.000258
# 5 -0.000706 -0.003579 -0.003254 0.000000 0.046262 0.000000
# 6 0.000000 0.000000 0.000000 0.000258 0.000000 0.034151
#
#
# Mechanical properties :
#
#
# Convention : Reuss Voigt Hill
#
# Bulk Modulus (GPa) = 29.94885 41.20724 35.57805
# Shear Modulus (GPa) = 22.67352 24.81085 23.74219
#
# Velocity S-wave (km/s) = 3.49729 3.65842 3.57876
# Velocity P-wave (km/s) = 5.69770 6.33043 6.02238
#
# Compressibility (1/GPa) = 0.03339026
#
# Stress axis : x y z
#
# Youngs Moduli (GPa) = 69.16667 76.92733 35.80411
#
# Poissons Ratio (x) = 0.42900 0.06453
# Poissons Ratio (y) = 0.38572 0.12959
# Poissons Ratio (z) = 0.12466 0.27843
#
# Static dielectric constant tensor:
#      x y z
#    x 1.622290 0.000000 -0.006250 
#    y 0.000000 1.652180 0.000000 
#    z -0.006250 0.000000 1.668340 
# 
# From -- ./inp_files/187426.got.cif
#   From: 2010.05.17/outbox.cif.g08.bks.cpg/sg12_94_cif.got.tgz:187426.got - 2010.06.03 13:09:07.
