data_PCOD9189847
_publ_section_title
;
Structure prediction by ZEFSAII (Michael W. Deem and Ramdas Pophale) SiO2 
 PCOD9189847
Probable space group: C 2/M
;
_chemical_formula_sum "Si O2"
_cell_formula_units_Z 52
_cell_length_a 11.594186
_cell_length_b 20.627501
_cell_length_c 9.744890
_cell_angle_alpha 90.000000
_cell_angle_beta 95.612324
_cell_angle_gamma 90.000000
_cell_volume 2319.407067
_symmetry_space_group_name_H-M "C 2/M"
_symmetry_group_IT_number 12
_symmetry_cell_setting 'monoclinic'
loop_
_space_group_symop_operation_xyz
x,y,z
-x,y,-z
-x,-y,-z
x,-y,z
1/2+x,1/2+y,z
1/2-x,1/2+y,-z
1/2-x,1/2-y,-z
1/2+x,1/2-y,z
loop_
_atom_site_type_symbol
_atom_site_label
_atom_site_fract_x
_atom_site_fract_y
_atom_site_fract_z
Si Si1 0.818838 0.073671 0.660151
Si Si2 0.866341 0.074965 0.985201
Si Si3 0.924756 0.500000 0.699955
Si Si4 0.974207 0.165816 0.354084
Si Si5 0.422358 0.874234 0.365153
Si Si6 0.981037 0.281744 0.835388
Si Si7 0.731423 0.123872 0.224922
O O1 0.817447 0.074747 0.826057
O O2 0.707637 0.113603 0.599947
O O3 0.940407 0.104602 0.635744
O O4 0.808233 0.000000 0.610012
O O5 0.870656 0.000000 0.034333
O O6 0.784683 0.112784 0.079488
O O7 0.000000 0.097799 0.000000
O O8 0.833207 0.558383 0.734876
O O9 0.021125 0.443065 0.670707
O O10 0.842688 0.143007 0.326756
O O11 0.000000 0.201068 0.500000
O O12 0.009070 0.211869 0.232632
O O13 0.500000 0.849738 0.500000
O O14 0.427161 0.826542 0.236194
O O15 0.860077 0.317733 0.790481
O O16 0.000000 0.280271 0.000000
#
# Coordination Sequence:
#
# PCOD9189847 Si02
#       7
#     8   8   4   8   8   8   8
#     4  11  25  42  72 108 145 184 231 290 353 431
#     4  10  19  38  65 102 144 180 224 279 352 411
#     4  10  23  42  71 110 143 188 228 283 357 415
#     4  12  30  46  71 106 142 191 237 290 358 422
#     4  11  24  46  74 106 146 187 235 288 356 421
#     4  11  28  50  74 101 137 189 245 297 350 417
#     4  11  24  45  74 104 147 183 236 297 346 424
#
# _framework density 22.419523000000002
#
# number of rings (size 3 to 8) (size 9 to 14) (size 15 to 20)
#    0.000    1.077    3.077    1.615    9.692    1.538 
#    0.000    2.308    0.000    0.000    0.000    0.000 
#    0.000    0.000    0.000    0.000    0.000    0.000 
#
# Total GULP energy -145004.587498 kJ/mol
# GULP energy per Si atom -5577.099519 kJ/mol
# Density = 2.236849 g / cm^3
# Si number density = 22.419523 Si / 1000 Ang^3
#
#
#
# Elastic Constant Matrix: (Units=GPa)
#
#
# Indices 1 2 3 4 5 6 
#
# 1 136.8405 20.5864 13.5033 0.0000 9.2174 0.0000
# 2 20.5864 53.0858 16.8722 0.0000 -9.2510 0.0000
# 3 13.5033 16.8722 99.7139 0.0000 -0.6981 0.0000
# 4 0.0000 0.0000 0.0000 -0.4539 0.0000 3.2654
# 5 9.2174 -9.2510 -0.6981 0.0000 34.6276 0.0000
# 6 0.0000 0.0000 0.0000 3.2654 0.0000 8.6983
#
#
#
# Elastic Compliance Matrix: (Units=1/GPa)
#
#
# Indices 1 2 3 4 5 6 
#
# 1 0.008097 -0.003515 -0.000524 0.000000 -0.003105 0.000000
# 2 -0.003515 0.022437 -0.003272 0.000000 0.006864 0.000000
# 3 -0.000524 -0.003272 0.010650 0.000000 -0.000520 0.000000
# 4 0.000000 0.000000 0.000000 -0.595334 0.000000 0.223493
# 5 -0.003105 0.006864 -0.000520 0.000000 0.031528 0.000000
# 6 0.000000 0.000000 0.000000 0.223493 0.000000 0.031064
#
#
# Mechanical properties :
#
#
# Convention : Reuss Voigt Hill
#
# Bulk Modulus (GPa) = 37.64758 43.50713 40.57736
# Shear Modulus (GPa) = -10.68188 24.48629 6.90220
#
# Velocity S-wave (km/s) = -2.18515 3.30841 1.75651
# Velocity P-wave (km/s) = 3.23454 5.83456 4.71722
#
# Compressibility (1/GPa) = 0.02656213
#
# Stress axis : x y z
#
# Youngs Moduli (GPa) = 123.49711 44.56999 93.89971
#
# Poissons Ratio (x) = 0.15665 0.04916
# Poissons Ratio (y) = 0.43407 0.30728
# Poissons Ratio (z) = 0.06466 0.14585
#
# Static dielectric constant tensor:
#      x y z
#    x 1.828720 0.000000 -0.008990 
#    y 0.000000 1.799160 0.000000 
#    z -0.008990 0.000000 1.863600 
# 
# From -- ./inp_files/133363.got.cif
#   From: 2010.05.17/outbox.cif.g08.bks.cpg/sg12_67_cif.got.tgz:133363.got - 2010.06.03 13:09:07.
