data_PCOD9189667
_publ_section_title
;
Structure prediction by ZEFSAII (Michael W. Deem and Ramdas Pophale) SiO2 
 PCOD9189667
Probable space group: C 2/M
;
_chemical_formula_sum "Si O2"
_cell_formula_units_Z 48
_cell_length_a 16.230925
_cell_length_b 21.531248
_cell_length_c 13.257546
_cell_angle_alpha 90.000000
_cell_angle_beta 151.570707
_cell_angle_gamma 90.000000
_cell_volume 2205.717897
_symmetry_space_group_name_H-M "C 2/M"
_symmetry_group_IT_number 12
_symmetry_cell_setting 'monoclinic'
loop_
_space_group_symop_operation_xyz
x,y,z
-x,y,-z
-x,-y,-z
x,-y,z
1/2+x,1/2+y,z
1/2-x,1/2+y,-z
1/2-x,1/2-y,-z
1/2+x,1/2-y,z
loop_
_atom_site_type_symbol
_atom_site_label
_atom_site_fract_x
_atom_site_fract_y
_atom_site_fract_z
Si Si1 0.207935 0.068207 0.002520
Si Si2 0.130561 0.656917 0.211908
Si Si3 0.990910 0.773025 0.602061
Si Si4 0.118014 0.925820 0.226746
Si Si5 0.671788 0.600930 0.743564
Si Si6 0.537957 0.144107 0.339296
O O1 0.371052 0.109856 0.204838
O O2 0.228263 0.000000 0.071098
O O3 0.210612 0.064147 0.884898
O O4 0.018077 0.090561 0.830866
O O5 0.306444 0.694337 0.420638
O O6 0.186590 0.604578 0.191224
O O7 0.059379 0.634302 0.241872
O O8 0.000000 0.695935 0.000000
O O9 0.000093 0.717109 0.688971
O O10 0.000000 0.743655 0.500000
O O11 0.129533 0.828998 0.741633
O O12 0.288122 0.883282 0.421634
O O13 0.163190 0.000000 0.282073
O O14 0.000000 0.916695 0.000000
O O15 0.500000 0.580765 0.500000
#
# Coordination Sequence:
#
# PCOD9189667 Si02
#       6
#     8   8   8   8   8   8
#     4  11  24  41  65  94 123 166 214 257 313 370
#     4  10  19  38  59  91 128 165 195 256 316 375
#     4   9  22  38  59  91 124 164 213 253 315 374
#     4  10  24  44  63  89 127 168 212 266 317 364
#     4   9  19  41  61  86 132 164 202 257 310 375
#     4  12  23  40  67  94 127 165 215 261 309 378
#
# _framework density 21.761621999999999
#
# number of rings (size 3 to 8) (size 9 to 14) (size 15 to 20)
#    0.000    2.167    1.667    3.000    2.333    1.667 
#    3.000    5.000    0.000    0.000    0.000    0.000 
#    0.000    0.000    0.000    0.000    0.000    0.000 
#
# Total GULP energy -133797.139387 kJ/mol
# GULP energy per Si atom -5574.880808 kJ/mol
# Density = 2.171209 g / cm^3
# Si number density = 21.761622 Si / 1000 Ang^3
#
#
#
# Elastic Constant Matrix: (Units=GPa)
#
#
# Indices 1 2 3 4 5 6 
#
# 1 58.9123 11.7879 -3.2893 0.0000 2.9031 0.0000
# 2 11.7879 61.3916 28.9839 0.0000 11.4641 0.0000
# 3 -3.2893 28.9839 71.0825 0.0000 10.1531 0.0000
# 4 0.0000 0.0000 0.0000 17.2775 0.0000 -2.1513
# 5 2.9031 11.4641 10.1531 0.0000 41.1960 0.0000
# 6 0.0000 0.0000 0.0000 -2.1513 0.0000 15.0567
#
#
#
# Elastic Compliance Matrix: (Units=1/GPa)
#
#
# Indices 1 2 3 4 5 6 
#
# 1 0.018106 -0.004696 0.002849 0.000000 -0.000671 0.000000
# 2 -0.004696 0.021955 -0.008648 0.000000 -0.003647 0.000000
# 3 0.002849 -0.008648 0.018047 0.000000 -0.002242 0.000000
# 4 0.000000 0.000000 0.000000 0.058927 0.000000 0.008420
# 5 -0.000671 -0.003647 -0.002242 0.000000 0.025889 0.000000
# 6 0.000000 0.000000 0.000000 0.008420 0.000000 0.067619
#
#
# Mechanical properties :
#
#
# Convention : Reuss Voigt Hill
#
# Bulk Modulus (GPa) = 26.94288 29.59458 28.26873
# Shear Modulus (GPa) = 20.49969 24.96629 22.73299
#
# Velocity S-wave (km/s) = 3.07255 3.39080 3.23559
# Velocity P-wave (km/s) = 4.99952 5.38136 5.19395
#
# Compressibility (1/GPa) = 0.03711555
#
# Stress axis : x y z
#
# Youngs Moduli (GPa) = 55.22979 45.54832 55.41219
#
# Poissons Ratio (x) = 0.21390 -0.15785
# Poissons Ratio (y) = 0.25937 0.47923
# Poissons Ratio (z) = -0.15733 0.39392
#
# Static dielectric constant tensor:
#      x y z
#    x 1.825470 0.000000 0.007020 
#    y 0.000000 1.794240 0.000000 
#    z 0.007020 0.000000 1.879770 
# 
# From -- ./inp_files/149846.got.cif
#   From: 2010.05.17/outbox.cif.g08.bks.cpg/sg12_75_cif.got.tgz:149846.got - 2010.06.03 13:09:07.
