data_PCOD9189013
_publ_section_title
;
Structure prediction by ZEFSAII (Michael W. Deem and Ramdas Pophale) SiO2 
 PCOD9189013
Probable space group: C 2/M
;
_chemical_formula_sum "Si O2"
_cell_formula_units_Z 64
_cell_length_a 23.522369
_cell_length_b 16.810706
_cell_length_c 10.935050
_cell_angle_alpha 90.000000
_cell_angle_beta 48.981134
_cell_angle_gamma 90.000000
_cell_volume 3262.445735
_symmetry_space_group_name_H-M "C 2/M"
_symmetry_group_IT_number 12
_symmetry_cell_setting 'monoclinic'
loop_
_space_group_symop_operation_xyz
x,y,z
-x,y,-z
-x,-y,-z
x,-y,z
1/2+x,1/2+y,z
1/2-x,1/2+y,-z
1/2-x,1/2-y,-z
1/2+x,1/2-y,z
loop_
_atom_site_type_symbol
_atom_site_label
_atom_site_fract_x
_atom_site_fract_y
_atom_site_fract_z
Si Si1 0.082666 0.125545 0.129091
Si Si2 0.090725 0.091377 0.643068
Si Si3 0.732412 0.415828 0.785189
Si Si4 0.006779 0.594928 0.289045
Si Si5 0.815140 0.215486 0.325625
Si Si6 0.564182 0.785536 0.007251
Si Si7 0.117618 0.354215 0.351813
Si Si8 0.410721 0.674163 0.614211
O O1 0.076327 0.216266 0.090026
O O2 0.102609 0.125471 0.243721
O O3 0.000290 0.091212 0.217349
O O4 0.151636 0.085592 0.963516
O O5 0.127876 0.156274 0.681398
O O6 0.104509 0.124180 0.486126
O O7 0.117012 0.000000 0.623381
O O8 0.742498 0.500000 0.706303
O O9 0.729197 0.341560 0.702520
O O10 0.804232 0.400695 0.768228
O O11 0.003544 0.500000 0.279041
O O12 0.034922 0.638932 0.126079
O O13 0.065329 0.618448 0.313533
O O14 0.927083 0.625387 0.458639
O O15 0.750000 0.250000 0.500000
O O16 0.860914 0.281544 0.182837
O O17 0.500000 0.763968 0.000000
O O18 0.129438 0.259357 0.330613
O O19 0.500000 0.694262 0.500000
#
# Coordination Sequence:
#
# PCOD9189013 Si02
#       8
#     8   8   8   8   8   8   8   8
#     4  10  21  40  61  91 123 164 208 254 314 386
#     4  11  22  39  65  94 126 162 208 262 313 376
#     4  11  24  38  59  90 126 161 204 264 321 372
#     4  11  22  39  66  96 123 163 217 269 320 370
#     4  11  25  44  64  89 122 169 213 253 315 383
#     4  11  22  41  66  90 122 161 216 259 307 384
#     4  11  20  40  66  91 127 167 213 258 315 388
#     4  10  19  36  65  92 119 162 211 254 313 380
#
# _framework density 19.617184000000002
#
# number of rings (size 3 to 8) (size 9 to 14) (size 15 to 20)
#    0.000    1.250    3.750    3.750    1.750    3.500 
#    2.250    3.125    0.000    0.000    0.000    0.000 
#    0.000    0.000    0.000    0.000    0.000    0.000 
#
# Total GULP energy -178519.112542 kJ/mol
# GULP energy per Si atom -5578.722267 kJ/mol
# Density = 1.957253 g / cm^3
# Si number density = 19.617184 Si / 1000 Ang^3
#
#
#
# Elastic Constant Matrix: (Units=GPa)
#
#
# Indices 1 2 3 4 5 6 
#
# 1 56.1362 3.3056 8.9190 0.0000 -0.7411 0.0000
# 2 3.3056 77.9685 16.7185 0.0000 -7.4923 0.0000
# 3 8.9190 16.7185 52.0323 0.0000 0.4147 0.0000
# 4 0.0000 0.0000 0.0000 -2.6097 0.0000 3.5514
# 5 -0.7411 -7.4923 0.4147 0.0000 25.0984 0.0000
# 6 0.0000 0.0000 0.0000 3.5514 0.0000 0.7437
#
#
#
# Elastic Compliance Matrix: (Units=1/GPa)
#
#
# Indices 1 2 3 4 5 6 
#
# 1 0.018322 -0.000050 -0.003129 0.000000 0.000578 0.000000
# 2 -0.000050 0.014229 -0.004598 0.000000 0.004322 0.000000
# 3 -0.003129 -0.004598 0.021247 0.000000 -0.001816 0.000000
# 4 0.000000 0.000000 0.000000 -0.051102 0.000000 0.244029
# 5 0.000578 0.004322 -0.001816 0.000000 0.041180 0.000000
# 6 0.000000 0.000000 0.000000 0.244029 0.000000 0.179320
#
#
# Mechanical properties :
#
#
# Convention : Reuss Voigt Hill
#
# Bulk Modulus (GPa) = 26.14833 27.11372 26.63102
# Shear Modulus (GPa) = 19.88089 15.12608 17.50349
#
# Velocity S-wave (km/s) = 3.18692 2.77981 2.99030
# Velocity P-wave (km/s) = 5.18653 4.91473 5.05246
#
# Compressibility (1/GPa) = 0.03824337
#
# Stress axis : x y z
#
# Youngs Moduli (GPa) = 54.58056 70.27886 47.06554
#
# Poissons Ratio (x) = 0.00354 0.14727
# Poissons Ratio (y) = 0.00275 0.21640
# Poissons Ratio (z) = 0.17078 0.32313
#
# Static dielectric constant tensor:
#      x y z
#    x 1.684690 0.000000 -0.004590 
#    y 0.000000 1.655250 0.000000 
#    z -0.004590 0.000000 1.718530 
# 
# From -- ./inp_files/183791.got.cif
#   From: 2010.05.17/outbox.cif.g08.bks.cpg/sg12_92_cif.got.tgz:183791.got - 2010.06.03 13:09:07.
