data_PCOD9189317
_publ_section_title
;
Structure prediction by ZEFSAII (Michael W. Deem and Ramdas Pophale) SiO2 
 PCOD9189317
Probable space group: C 2/M
;
_chemical_formula_sum "Si O2"
_cell_formula_units_Z 42
_cell_length_a 32.770610
_cell_length_b 12.885084
_cell_length_c 5.049453
_cell_angle_alpha 90.000000
_cell_angle_beta 94.392188
_cell_angle_gamma 90.000000
_cell_volume 2125.880277
_symmetry_space_group_name_H-M "C 2/M"
_symmetry_group_IT_number 12
_symmetry_cell_setting 'monoclinic'
loop_
_space_group_symop_operation_xyz
x,y,z
-x,y,-z
-x,-y,-z
x,-y,z
1/2+x,1/2+y,z
1/2-x,1/2+y,-z
1/2-x,1/2-y,-z
1/2+x,1/2-y,z
loop_
_atom_site_type_symbol
_atom_site_label
_atom_site_fract_x
_atom_site_fract_y
_atom_site_fract_z
Si Si1 0.000000 0.500000 0.500000
Si Si2 0.260949 0.120846 0.304045
Si Si3 0.529891 0.614531 0.764800
Si Si4 0.301865 0.214799 0.826880
Si Si5 0.065018 0.340630 0.787972
Si Si6 0.117073 0.382616 0.309059
O O1 0.973222 0.408878 0.329109
O O2 0.274798 0.146443 0.608667
O O3 0.216859 0.171331 0.222821
O O4 0.261738 0.000000 0.255706
O O5 0.292250 0.177037 0.117912
O O6 0.500000 0.618419 0.500000
O O7 0.550501 0.500000 0.777341
O O8 0.556927 0.717647 0.776901
O O9 0.500000 0.620286 0.000000
O O10 0.348304 0.196547 0.767169
O O11 0.101036 0.365749 0.596803
O O12 0.078964 0.372588 0.089005
O O13 0.133653 0.500000 0.294927
#
# Coordination Sequence:
#
# PCOD9189317 Si02
#       6
#     2   8   8   8   8   8
#     4  12  24  42  58  90 116 162 196 260 280 382
#     4  10  19  37  61  88 112 156 193 238 277 342
#     4  10  21  39  61  81 105 142 190 241 284 342
#     4  10  22  36  59  86 120 150 198 232 286 348
#     4  12  25  38  61  85 118 151 200 240 304 343
#     4  12  23  39  55  89 120 157 184 241 300 355
#
# _framework density 19.756520999999999
#
# number of rings (size 3 to 8) (size 9 to 14) (size 15 to 20)
#    0.000    1.143    2.857    4.000    0.000    0.762 
#    0.000    1.905    0.000    0.000    0.000    0.000 
#    0.000    0.000    0.000    0.000    0.000    0.000 
#
# Total GULP energy -117082.012002 kJ/mol
# GULP energy per Si atom -5575.333905 kJ/mol
# Density = 1.971155 g / cm^3
# Si number density = 19.756521 Si / 1000 Ang^3
#
#
#
# Elastic Constant Matrix: (Units=GPa)
#
#
# Indices 1 2 3 4 5 6 
#
# 1 34.4812 1.9166 -7.1485 0.0000 4.4371 0.0000
# 2 1.9166 81.9099 -5.9964 0.0000 11.7326 0.0000
# 3 -7.1485 -5.9964 72.0616 0.0000 -10.9513 0.0000
# 4 0.0000 0.0000 0.0000 22.5643 0.0000 1.0547
# 5 4.4371 11.7326 -10.9513 0.0000 20.9937 0.0000
# 6 0.0000 0.0000 0.0000 1.0547 0.0000 15.8622
#
#
#
# Elastic Compliance Matrix: (Units=1/GPa)
#
#
# Indices 1 2 3 4 5 6 
#
# 1 0.030132 0.000222 0.002195 0.000000 -0.005347 0.000000
# 2 0.000222 0.013273 -0.000009 0.000000 -0.007469 0.000000
# 3 0.002195 -0.000009 0.015232 0.000000 0.007487 0.000000
# 4 0.000000 0.000000 0.000000 0.044456 0.000000 -0.002956
# 5 -0.005347 -0.007469 0.007487 0.000000 0.056843 0.000000
# 6 0.000000 0.000000 0.000000 -0.002956 0.000000 0.063240
#
#
# Mechanical properties :
#
#
# Convention : Reuss Voigt Hill
#
# Bulk Modulus (GPa) = 15.75988 18.44398 17.10193
# Shear Modulus (GPa) = 20.87597 25.19612 23.03604
#
# Velocity S-wave (km/s) = 3.25416 3.57505 3.41837
# Velocity P-wave (km/s) = 4.70253 5.13782 4.92499
#
# Compressibility (1/GPa) = 0.06345224
#
# Stress axis : x y z
#
# Youngs Moduli (GPa) = 33.18711 75.34350 65.65228
#
# Poissons Ratio (x) = -0.01670 -0.14410
# Poissons Ratio (y) = -0.00735 0.00057
# Poissons Ratio (z) = -0.07284 0.00065
#
# Static dielectric constant tensor:
#      x y z
#    x 1.700040 0.000000 0.003740 
#    y 0.000000 1.702320 0.000000 
#    z 0.003740 0.000000 1.673700 
# 
# From -- ./inp_files/30874.got.cif
#   From: 2010.05.17/outbox.cif.g08.bks.cpg/sg12_16_cif.got.tgz:30874.got - 2010.06.03 13:09:07.
