data_PCOD9189625
_publ_section_title
;
Structure prediction by ZEFSAII (Michael W. Deem and Ramdas Pophale) SiO2 
 PCOD9189625
Probable space group: C 2/M
;
_chemical_formula_sum "Si O2"
_cell_formula_units_Z 58
_cell_length_a 17.999644
_cell_length_b 25.999437
_cell_length_c 12.772871
_cell_angle_alpha 90.000000
_cell_angle_beta 150.363842
_cell_angle_gamma 90.000000
_cell_volume 2955.795103
_symmetry_space_group_name_H-M "C 2/M"
_symmetry_group_IT_number 12
_symmetry_cell_setting 'monoclinic'
loop_
_space_group_symop_operation_xyz
x,y,z
-x,y,-z
-x,-y,-z
x,-y,z
1/2+x,1/2+y,z
1/2-x,1/2+y,-z
1/2-x,1/2-y,-z
1/2+x,1/2-y,z
loop_
_atom_site_type_symbol
_atom_site_label
_atom_site_fract_x
_atom_site_fract_y
_atom_site_fract_z
Si Si1 0.018561 0.713970 0.899092
Si Si2 0.661325 0.316701 0.714289
Si Si3 0.856297 0.112968 0.102735
Si Si4 0.540202 0.061491 0.668136
Si Si5 0.840310 0.915307 0.433750
Si Si6 0.655034 0.115461 0.394482
Si Si7 0.457663 0.674829 0.826907
Si Si8 0.000000 0.000000 0.500000
O O1 0.939728 0.766375 0.766458
O O2 0.956496 0.662126 0.772048
O O3 0.196997 0.719771 0.103882
O O4 0.000000 0.707833 0.000000
O O5 0.500000 0.290786 0.500000
O O6 0.661544 0.350219 0.819500
O O7 0.675241 0.358613 0.637268
O O8 0.906595 0.147704 0.067483
O O9 0.003750 0.079212 0.310155
O O10 0.706329 0.081654 0.898986
O O11 0.500000 0.077548 0.500000
O O12 0.423495 0.083217 0.610490
O O13 0.538266 0.000000 0.669846
O O14 0.705260 0.917393 0.352766
O O15 0.875202 0.955216 0.383790
O O16 0.807960 0.142556 0.621289
O O17 0.500000 0.676649 0.000000
#
# Coordination Sequence:
#
# PCOD9189625 Si02
#       8
#     8   8   8   8   8   8   8   2
#     4  11  21  38  64  91 126 161 201 250 317 376
#     4  10  19  38  57  90 125 163 192 247 307 373
#     4  10  20  40  61  82 123 163 203 253 310 358
#     4  11  25  42  62  87 121 164 213 267 313 359
#     4  10  22  35  64  91 126 160 197 257 301 379
#     4  11  22  42  63  90 126 162 206 259 312 372
#     4  10  23  40  61  89 118 165 212 256 306 367
#     4  12  20  36  60  98 126 156 218 240 312 372
#
# _framework density 19.62247
#
# number of rings (size 3 to 8) (size 9 to 14) (size 15 to 20)
#    0.000    1.517    4.828    1.241    1.931    0.552 
#    0.000    0.690    0.000    7.034    0.000    0.000 
#    0.000    0.000    0.000    0.000    0.000    0.000 
#
# Total GULP energy -161511.741683 kJ/mol
# GULP energy per Si atom -5569.370403 kJ/mol
# Density = 1.957781 g / cm^3
# Si number density = 19.622470 Si / 1000 Ang^3
#
#
#
# Elastic Constant Matrix: (Units=GPa)
#
#
# Indices 1 2 3 4 5 6 
#
# 1 134.3729 33.5068 31.7140 0.0000 10.5704 0.0000
# 2 33.5068 56.1751 21.3010 0.0000 6.8449 0.0000
# 3 31.7140 21.3010 75.6819 0.0000 16.9258 0.0000
# 4 0.0000 0.0000 0.0000 4.2287 0.0000 15.0512
# 5 10.5704 6.8449 16.9258 0.0000 28.8715 0.0000
# 6 0.0000 0.0000 0.0000 15.0512 0.0000 21.5451
#
#
#
# Elastic Compliance Matrix: (Units=1/GPa)
#
#
# Indices 1 2 3 4 5 6 
#
# 1 0.009191 -0.004465 -0.002393 0.000000 -0.000904 0.000000
# 2 -0.004465 0.022166 -0.004095 0.000000 -0.001220 0.000000
# 3 -0.002393 -0.004095 0.017212 0.000000 -0.008244 0.000000
# 4 0.000000 0.000000 0.000000 -0.159087 0.000000 0.111136
# 5 -0.000904 -0.001220 -0.008244 0.000000 0.040089 0.000000
# 6 0.000000 0.000000 0.000000 0.111136 0.000000 -0.031225
#
#
# Mechanical properties :
#
#
# Convention : Reuss Voigt Hill
#
# Bulk Modulus (GPa) = 37.50343 48.80816 43.15579
# Shear Modulus (GPa) = -70.56150 22.90962 -23.82594
#
# Velocity S-wave (km/s) = -6.00313 3.42061 -3.48834
# Velocity P-wave (km/s) = 5.37551 6.36619 2.41166
#
# Compressibility (1/GPa) = 0.02666422
#
# Stress axis : x y z
#
# Youngs Moduli (GPa) = 108.80063 45.11410 58.09884
#
# Poissons Ratio (x) = 0.20143 0.13901
# Poissons Ratio (y) = 0.48577 0.23791
# Poissons Ratio (z) = 0.26033 0.18474
#
# Static dielectric constant tensor:
#      x y z
#    x 1.786830 0.000000 0.006400 
#    y 0.000000 1.689920 0.000000 
#    z 0.006400 0.000000 1.705740 
# 
# From -- ./inp_files/160934.got.cif
#   From: 2010.05.17/outbox.cif.g08.bks.cpg/sg12_81_cif.got.tgz:160934.got - 2010.06.03 13:09:07.
