data_PCOD9189266
_publ_section_title
;
Structure prediction by ZEFSAII (Michael W. Deem and Ramdas Pophale) SiO2 
 PCOD9189266
Probable space group: C 2/M
;
_chemical_formula_sum "Si O2"
_cell_formula_units_Z 58
_cell_length_a 21.039846
_cell_length_b 19.713487
_cell_length_c 8.740337
_cell_angle_alpha 90.000000
_cell_angle_beta 120.811010
_cell_angle_gamma 90.000000
_cell_volume 3113.560535
_symmetry_space_group_name_H-M "C 2/M"
_symmetry_group_IT_number 12
_symmetry_cell_setting 'monoclinic'
loop_
_space_group_symop_operation_xyz
x,y,z
-x,y,-z
-x,-y,-z
x,-y,z
1/2+x,1/2+y,z
1/2-x,1/2+y,-z
1/2-x,1/2-y,-z
1/2+x,1/2-y,z
loop_
_atom_site_type_symbol
_atom_site_label
_atom_site_fract_x
_atom_site_fract_y
_atom_site_fract_z
Si Si1 0.621424 0.107158 0.027586
Si Si2 0.293547 0.577439 0.258763
Si Si3 0.194420 0.675626 0.600134
Si Si4 0.699769 0.686350 0.995353
Si Si5 0.000000 0.500000 0.000000
Si Si6 0.913203 0.240856 0.921848
Si Si7 0.911837 0.419980 0.367880
Si Si8 0.178175 0.819280 0.472040
O O1 0.704198 0.081919 0.165560
O O2 0.559062 0.058236 0.016084
O O3 0.610046 0.180791 0.088162
O O4 0.610641 0.107223 0.828560
O O5 0.314500 0.500000 0.258835
O O6 0.334125 0.611310 0.453931
O O7 0.308824 0.628115 0.138441
O O8 0.253035 0.658420 0.803909
O O9 0.127328 0.625028 0.549412
O O10 0.174396 0.755399 0.583481
O O11 0.239396 0.672746 0.497485
O O12 0.621145 0.709243 0.966085
O O13 0.750000 0.750000 0.000000
O O14 0.873659 0.203417 0.731008
O O15 0.000000 0.236184 0.000000
O O16 0.891240 0.500000 0.352001
O O17 0.000000 0.415862 0.500000
#
# Coordination Sequence:
#
# PCOD9189266 Si02
#       8
#     8   8   8   8   2   8   8   8
#     4  12  22  39  60  91 134 182 212 245 307 400
#     4  12  23  40  67  96 126 165 217 265 322 382
#     4  10  19  37  61  80 125 169 213 259 297 352
#     4  11  19  38  66  91 125 167 214 265 307 369
#     4  12  24  36  58  96 152 180 200 250 316 400
#     4  11  24  41  67  94 127 168 215 264 330 387
#     4  11  24  37  53  90 137 178 212 245 301 389
#     4  10  23  40  60  95 116 159 223 273 312 369
#
# _framework density 18.62819
#
# number of rings (size 3 to 8) (size 9 to 14) (size 15 to 20)
#    0.000    0.966    6.207    1.655    1.931    1.655 
#    0.000    2.759    0.000    2.483    0.000    0.000 
#    0.000    0.000    0.000    0.000    0.000    0.000 
#
# Total GULP energy -161547.262827 kJ/mol
# GULP energy per Si atom -5570.595270 kJ/mol
# Density = 1.858579 g / cm^3
# Si number density = 18.628190 Si / 1000 Ang^3
#
#
#
# Elastic Constant Matrix: (Units=GPa)
#
#
# Indices 1 2 3 4 5 6 
#
# 1 112.5526 62.1396 16.1003 0.0000 -8.4926 0.0000
# 2 62.1396 156.0171 53.4031 0.0000 -16.8964 0.0000
# 3 16.1003 53.4031 71.9154 0.0000 -4.2957 0.0000
# 4 0.0000 0.0000 0.0000 30.3777 0.0000 -11.1574
# 5 -8.4926 -16.8964 -4.2957 0.0000 15.3772 0.0000
# 6 0.0000 0.0000 0.0000 -11.1574 0.0000 42.5606
#
#
#
# Elastic Compliance Matrix: (Units=1/GPa)
#
#
# Indices 1 2 3 4 5 6 
#
# 1 0.011480 -0.004789 0.001068 0.000000 0.001377 0.000000
# 2 -0.004789 0.011619 -0.007069 0.000000 0.008147 0.000000
# 3 0.001068 -0.007069 0.018801 0.000000 -0.001926 0.000000
# 4 0.000000 0.000000 0.000000 0.036426 0.000000 0.009549
# 5 0.001377 0.008147 -0.001926 0.000000 0.074206 0.000000
# 6 0.000000 0.000000 0.000000 0.009549 0.000000 0.025999
#
#
# Mechanical properties :
#
#
# Convention : Reuss Voigt Hill
#
# Bulk Modulus (GPa) = 49.21365 67.08568 58.14967
# Shear Modulus (GPa) = 24.16824 31.58591 27.87707
#
# Velocity S-wave (km/s) = 3.60585 4.12223 3.87266
# Velocity P-wave (km/s) = 6.61910 7.66474 7.16103
#
# Compressibility (1/GPa) = 0.02031956
#
# Stress axis : x y z
#
# Youngs Moduli (GPa) = 87.11079 86.06662 53.18991
#
# Poissons Ratio (x) = 0.41215 -0.05682
# Poissons Ratio (y) = 0.41715 0.37601
# Poissons Ratio (z) = -0.09305 0.60843
#
# Static dielectric constant tensor:
#      x y z
#    x 1.651000 0.000000 -0.028800 
#    y 0.000000 1.646550 0.000000 
#    z -0.028800 0.000000 1.688640 
# 
# From -- ./inp_files/88020.got.cif
#   From: 2010.05.17/outbox.cif.g08.bks.cpg/sg12_45_cif.got.tgz:88020.got - 2010.06.03 13:09:07.
