data_PCOD9189650
_publ_section_title
;
Structure prediction by ZEFSAII (Michael W. Deem and Ramdas Pophale) SiO2 
 PCOD9189650
Probable space group: C 2/M
;
_chemical_formula_sum "Si O2"
_cell_formula_units_Z 40
_cell_length_a 13.512723
_cell_length_b 19.499345
_cell_length_c 11.379092
_cell_angle_alpha 90.000000
_cell_angle_beta 147.683279
_cell_angle_gamma 90.000000
_cell_volume 1602.871298
_symmetry_space_group_name_H-M "C 2/M"
_symmetry_group_IT_number 12
_symmetry_cell_setting 'monoclinic'
loop_
_space_group_symop_operation_xyz
x,y,z
-x,y,-z
-x,-y,-z
x,-y,z
1/2+x,1/2+y,z
1/2-x,1/2+y,-z
1/2-x,1/2-y,-z
1/2+x,1/2-y,z
loop_
_atom_site_type_symbol
_atom_site_label
_atom_site_fract_x
_atom_site_fract_y
_atom_site_fract_z
Si Si1 0.155424 0.720848 0.060927
Si Si2 0.407938 0.578640 0.023384
Si Si3 0.369360 0.078821 0.060496
Si Si4 0.463074 0.243106 0.612097
Si Si5 0.262743 0.369545 0.501651
O O1 0.195608 0.639455 0.089509
O O2 0.060915 0.744003 0.842736
O O3 0.351970 0.756684 0.280394
O O4 0.000000 0.732409 0.000000
O O5 0.368277 0.500000 0.951712
O O6 0.569755 0.586079 0.281588
O O7 0.500000 0.611612 0.000000
O O8 0.222040 0.599927 0.905192
O O9 0.591026 0.086190 0.284464
O O10 0.316994 0.000000 0.983061
O O11 0.346249 0.313488 0.495906
O O12 0.330713 0.177774 0.490504
#
# Coordination Sequence:
#
# PCOD9189650 Si02
#       5
#     8   8   8   8   8
#     4  10  20  39  62  85 119 151 195 242 283 346
#     4  10  21  37  58  85 118 156 195 238 287 341
#     4  10  21  38  60  86 118 155 194 239 291 341
#     4   9  20  38  57  87 116 153 192 235 294 339
#     4  10  19  38  59  83 120 151 193 239 288 344
#
# _framework density 24.955217999999999
#
# number of rings (size 3 to 8) (size 9 to 14) (size 15 to 20)
#    0.000    2.200    2.000    0.600    0.000    2.000 
#    3.600   11.000    0.000    1.200    0.000    0.000 
#    0.000    0.000    0.000    0.000    0.000    0.000 
#
# Total GULP energy -111777.903890 kJ/mol
# GULP energy per Si atom -5588.895194 kJ/mol
# Density = 2.489842 g / cm^3
# Si number density = 24.955218 Si / 1000 Ang^3
#
#
#
# Elastic Constant Matrix: (Units=GPa)
#
#
# Indices 1 2 3 4 5 6 
#
# 1 117.5341 17.9525 0.8943 0.0000 47.7845 0.0000
# 2 17.9525 118.6821 5.6672 0.0000 10.5598 0.0000
# 3 0.8943 5.6672 84.3368 0.0000 32.6865 0.0000
# 4 0.0000 0.0000 0.0000 28.2764 0.0000 3.8203
# 5 47.7845 10.5598 32.6865 0.0000 44.2144 0.0000
# 6 0.0000 0.0000 0.0000 3.8203 0.0000 24.0634
#
#
#
# Elastic Compliance Matrix: (Units=1/GPa)
#
#
# Indices 1 2 3 4 5 6 
#
# 1 0.021765 -0.000997 0.012419 0.000000 -0.032465 0.000000
# 2 -0.000997 0.008660 -0.000262 0.000000 -0.000797 0.000000
# 3 0.012419 -0.000262 0.023716 0.000000 -0.030891 0.000000
# 4 0.000000 0.000000 0.000000 0.036140 0.000000 -0.005738
# 5 -0.032465 -0.000797 -0.030891 0.000000 0.080731 0.000000
# 6 0.000000 0.000000 0.000000 -0.005738 0.000000 0.042468
#
#
# Mechanical properties :
#
#
# Convention : Reuss Voigt Hill
#
# Bulk Modulus (GPa) = 13.07878 41.06455 27.07166
# Shear Modulus (GPa) = 23.07901 39.04676 31.06289
#
# Velocity S-wave (km/s) = 3.04438 3.95989 3.53192
# Velocity P-wave (km/s) = 4.19642 6.11544 5.24445
#
# Compressibility (1/GPa) = 0.07645973
#
# Stress axis : x y z
#
# Youngs Moduli (GPa) = 45.94562 115.47223 42.16626
#
# Poissons Ratio (x) = 0.11509 -0.52365
# Poissons Ratio (y) = 0.04579 0.01106
# Poissons Ratio (z) = -0.57058 0.03030
#
# Static dielectric constant tensor:
#      x y z
#    x 2.098790 0.000000 -0.082940 
#    y 0.000000 1.963740 0.000000 
#    z -0.082940 0.000000 1.991530 
# 
# From -- ./inp_files/217488.got.cif
#   From: 2010.05.17/outbox.cif.g08.bks.cpg/sg12_109_cif.got.tgz:217488.got - 2010.06.03 13:09:07.
