data_PCOD9189917
_publ_section_title
;
Structure prediction by ZEFSAII (Michael W. Deem and Ramdas Pophale) SiO2 
 PCOD9189917
Probable space group: C 2/M
;
_chemical_formula_sum "Si O2"
_cell_formula_units_Z 44
_cell_length_a 27.491809
_cell_length_b 12.766187
_cell_length_c 8.615915
_cell_angle_alpha 90.000000
_cell_angle_beta 131.399331
_cell_angle_gamma 90.000000
_cell_volume 2268.276381
_symmetry_space_group_name_H-M "C 2/M"
_symmetry_group_IT_number 12
_symmetry_cell_setting 'monoclinic'
loop_
_space_group_symop_operation_xyz
x,y,z
-x,y,-z
-x,-y,-z
x,-y,z
1/2+x,1/2+y,z
1/2-x,1/2+y,-z
1/2-x,1/2-y,-z
1/2+x,1/2-y,z
loop_
_atom_site_type_symbol
_atom_site_label
_atom_site_fract_x
_atom_site_fract_y
_atom_site_fract_z
Si Si1 0.641001 0.500000 0.889943
Si Si2 0.569957 0.121702 0.229680
Si Si3 0.442463 0.500000 0.607187
Si Si4 0.685283 0.279106 0.951989
Si Si5 0.177179 0.764376 0.285574
Si Si6 0.877805 0.000000 0.810655
Si Si7 0.552494 0.266764 0.481035
O O1 0.603968 0.500000 0.647148
O O2 0.686898 0.401286 0.993348
O O3 0.596525 0.500000 0.953517
O O4 0.624603 0.192590 0.262099
O O5 0.557138 0.176210 0.366149
O O6 0.590124 0.000000 0.281426
O O7 0.500000 0.126183 0.000000
O O8 0.419200 0.500000 0.738412
O O9 0.467483 0.379933 0.636102
O O10 0.622414 0.268676 0.711596
O O11 0.750000 0.250000 0.000000
O O12 0.676039 0.230282 0.102194
O O13 0.250000 0.750000 0.500000
O O14 0.158672 0.887458 0.271046
O O15 0.500000 0.244075 0.500000
#
# Coordination Sequence:
#
# PCOD9189917 Si02
#       7
#     4   8   4   8   8   4   8
#     4   8  20  35  59  88 131 153 208 258 311 395
#     4  11  25  45  65  92 132 178 224 269 324 398
#     4  10  19  38  67  94 130 162 205 264 335 385
#     4  10  21  40  61  91 123 164 208 263 327 382
#     4  11  23  41  67  97 130 167 223 275 329 398
#     4  10  20  39  64  96 126 173 209 268 335 392
#     4  11  22  41  66  93 127 165 215 268 328 391
#
# _framework density 19.397988000000002
#
# number of rings (size 3 to 8) (size 9 to 14) (size 15 to 20)
#    0.000    1.636    1.818    2.455    3.818    0.364 
#    6.545    3.636    0.000    0.000    0.000    0.000 
#    0.000    0.000    0.000    0.000    0.000    0.000 
#
# Total GULP energy -122522.576366 kJ/mol
# GULP energy per Si atom -5569.208017 kJ/mol
# Density = 1.935384 g / cm^3
# Si number density = 19.397988 Si / 1000 Ang^3
#
#
#
# Elastic Constant Matrix: (Units=GPa)
#
#
# Indices 1 2 3 4 5 6 
#
# 1 165.3568 76.8419 58.2135 0.0000 -24.7528 0.0000
# 2 76.8419 143.0688 56.8346 0.0000 -1.3563 0.0000
# 3 58.2135 56.8346 75.8777 0.0000 -4.8355 0.0000
# 4 0.0000 0.0000 0.0000 19.3420 0.0000 -7.4150
# 5 -24.7528 -1.3563 -4.8355 0.0000 38.3168 0.0000
# 6 0.0000 0.0000 0.0000 -7.4150 0.0000 25.4085
#
#
#
# Elastic Compliance Matrix: (Units=1/GPa)
#
#
# Indices 1 2 3 4 5 6 
#
# 1 0.010289 -0.003536 -0.004869 0.000000 0.005907 0.000000
# 2 -0.003536 0.011179 -0.005828 0.000000 -0.002624 0.000000
# 3 -0.004869 -0.005828 0.021237 0.000000 -0.000671 0.000000
# 4 0.000000 0.000000 0.000000 0.058214 0.000000 0.016989
# 5 0.005907 -0.002624 -0.000671 0.000000 0.029737 0.000000
# 6 0.000000 0.000000 0.000000 0.016989 0.000000 0.044315
#
#
# Mechanical properties :
#
#
# Convention : Reuss Voigt Hill
#
# Bulk Modulus (GPa) = 70.22592 85.34258 77.78425
# Shear Modulus (GPa) = 24.01748 29.44102 26.72925
#
# Velocity S-wave (km/s) = 3.52254 3.90004 3.71609
# Velocity P-wave (km/s) = 7.26813 8.02319 7.65497
#
# Compressibility (1/GPa) = 0.01423976
#
# Stress axis : x y z
#
# Youngs Moduli (GPa) = 97.19072 89.45257 47.08816
#
# Poissons Ratio (x) = 0.31631 0.22926
# Poissons Ratio (y) = 0.34368 0.27442
# Poissons Ratio (z) = 0.47319 0.52131
#
# Static dielectric constant tensor:
#      x y z
#    x 1.682630 0.000000 -0.038080 
#    y 0.000000 1.694680 0.000000 
#    z -0.038080 0.000000 1.651980 
# 
# From -- ./inp_files/103394.got.cif
#   From: 2010.05.17/outbox.cif.g08.bks.cpg/sg12_52_cif.got.tgz:103394.got - 2010.06.03 13:09:07.
