data_PCOD9189084
_publ_section_title
;
Structure prediction by ZEFSAII (Michael W. Deem and Ramdas Pophale) SiO2 
 PCOD9189084
Probable space group: C 2/M
;
_chemical_formula_sum "Si O2"
_cell_formula_units_Z 48
_cell_length_a 12.871073
_cell_length_b 26.806695
_cell_length_c 7.360996
_cell_angle_alpha 90.000000
_cell_angle_beta 67.774736
_cell_angle_gamma 90.000000
_cell_volume 2351.076155
_symmetry_space_group_name_H-M "C 2/M"
_symmetry_group_IT_number 12
_symmetry_cell_setting 'monoclinic'
loop_
_space_group_symop_operation_xyz
x,y,z
-x,y,-z
-x,-y,-z
x,-y,z
1/2+x,1/2+y,z
1/2-x,1/2+y,-z
1/2-x,1/2-y,-z
1/2+x,1/2-y,z
loop_
_atom_site_type_symbol
_atom_site_label
_atom_site_fract_x
_atom_site_fract_y
_atom_site_fract_z
Si Si1 0.802401 0.683499 0.326446
Si Si2 0.867605 0.500000 0.032995
Si Si3 0.743856 0.601110 0.086768
Si Si4 0.928013 0.232570 0.390160
Si Si5 0.255830 0.898180 0.638729
Si Si6 0.995221 0.874708 0.219419
Si Si7 0.367812 0.000000 0.601136
O O1 0.793602 0.648960 0.156797
O O2 0.894696 0.726707 0.264094
O O3 0.685292 0.711715 0.442096
O O4 0.815013 0.646823 0.492371
O O5 0.849269 0.500000 0.828401
O O6 0.805597 0.551828 0.122371
O O7 0.000000 0.500000 0.000000
O O8 0.609563 0.600540 0.214122
O O9 0.757424 0.606908 0.858258
O O10 0.990652 0.183279 0.278470
O O11 0.000000 0.257307 0.500000
O O12 0.126419 0.897666 0.655523
O O13 0.314214 0.950300 0.556929
O O14 0.000000 0.877376 0.000000
O O15 0.500000 0.000000 0.500000
#
# Coordination Sequence:
#
# PCOD9189084 Si02
#       7
#     8   4   8   8   8   8   4
#     4  10  21  36  60  83 118 159 193 239 294 344
#     4  10  24  41  59  90 118 153 203 238 294 362
#     4  10  20  40  63  86 120 155 192 248 297 349
#     4  10  19  37  55  85 120 153 196 241 289 349
#     4   9  21  37  58  91 114 151 202 237 297 358
#     4   9  18  37  62  86 118 149 190 249 299 347
#     4  10  22  39  61  80 122 159 189 250 291 347
#
# _framework density 20.416181999999999
#
# number of rings (size 3 to 8) (size 9 to 14) (size 15 to 20)
#    0.000    2.333    1.667    0.000    2.333    1.333 
#    6.000    6.667    0.000    3.000    0.000    0.000 
#    0.000    0.000    0.000    0.000    0.000    0.000 
#
# Total GULP energy -133844.877508 kJ/mol
# GULP energy per Si atom -5576.869896 kJ/mol
# Density = 2.036971 g / cm^3
# Si number density = 20.416182 Si / 1000 Ang^3
#
#
#
# Elastic Constant Matrix: (Units=GPa)
#
#
# Indices 1 2 3 4 5 6 
#
# 1 119.4737 87.4937 19.2508 0.0000 4.3928 0.0000
# 2 87.4937 109.6241 24.5166 0.0000 -6.2138 0.0000
# 3 19.2508 24.5166 48.1730 0.0000 12.3539 0.0000
# 4 0.0000 0.0000 0.0000 9.0054 0.0000 36.2236
# 5 4.3928 -6.2138 12.3539 0.0000 29.0648 0.0000
# 6 0.0000 0.0000 0.0000 36.2236 0.0000 250.7152
#
#
#
# Elastic Compliance Matrix: (Units=1/GPa)
#
#
# Indices 1 2 3 4 5 6 
#
# 1 0.021758 -0.018491 0.002888 0.000000 -0.008469 0.000000
# 2 -0.018491 0.026691 -0.009399 0.000000 0.012496 0.000000
# 3 0.002888 -0.009399 0.028075 0.000000 -0.014379 0.000000
# 4 0.000000 0.000000 0.000000 0.265129 0.000000 -0.038306
# 5 -0.008469 0.012496 -0.014379 0.000000 0.044469 0.000000
# 6 0.000000 0.000000 0.000000 -0.038306 0.000000 0.009523
#
#
# Mechanical properties :
#
#
# Convention : Reuss Voigt Hill
#
# Bulk Modulus (GPa) = 37.70828 59.97703 48.84266
# Shear Modulus (GPa) = 11.00134 67.49103 39.24619
#
# Velocity S-wave (km/s) = 2.32384 5.75581 4.38917
# Velocity P-wave (km/s) = 5.07052 8.57983 7.04712
#
# Compressibility (1/GPa) = 0.02651937
#
# Stress axis : x y z
#
# Youngs Moduli (GPa) = 45.96041 37.46610 35.61848
#
# Poissons Ratio (x) = 0.69280 -0.10286
# Poissons Ratio (y) = 0.84987 0.33477
# Poissons Ratio (z) = -0.13273 0.35214
#
# Static dielectric constant tensor:
#      x y z
#    x 1.731180 0.000000 0.002510 
#    y 0.000000 1.727170 0.000000 
#    z 0.002510 0.000000 1.718570 
# 
# From -- ./inp_files/51376.got.cif
#   From: 2010.05.17/outbox.cif.g08.bks.cpg/sg12_26_cif.got.tgz:51376.got - 2010.06.03 13:09:07.
