data_PCOD9189157
_publ_section_title
;
Structure prediction by ZEFSAII (Michael W. Deem and Ramdas Pophale) SiO2 
 PCOD9189157
Probable space group: C 2/M
;
_chemical_formula_sum "Si O2"
_cell_formula_units_Z 32
_cell_length_a 19.246107
_cell_length_b 10.410816
_cell_length_c 24.869900
_cell_angle_alpha 90.000000
_cell_angle_beta 21.197552
_cell_angle_gamma 90.000000
_cell_volume 1801.821622
_symmetry_space_group_name_H-M "C 2/M"
_symmetry_group_IT_number 12
_symmetry_cell_setting 'monoclinic'
loop_
_space_group_symop_operation_xyz
x,y,z
-x,y,-z
-x,-y,-z
x,-y,z
1/2+x,1/2+y,z
1/2-x,1/2+y,-z
1/2-x,1/2-y,-z
1/2+x,1/2-y,z
loop_
_atom_site_type_symbol
_atom_site_label
_atom_site_fract_x
_atom_site_fract_y
_atom_site_fract_z
Si Si1 0.552027 0.755911 0.247733
Si Si2 0.376134 0.000000 0.873190
Si Si3 0.309123 0.000000 0.268211
Si Si4 0.224878 0.500000 0.934976
Si Si5 0.000000 0.781427 0.500000
Si Si6 0.144422 0.347454 0.503090
O O1 0.681878 0.629010 0.154893
O O2 0.351142 0.717255 0.364371
O O3 0.494786 0.803232 0.348221
O O4 0.644980 0.872298 0.146898
O O5 0.591007 0.000000 0.744586
O O6 0.245761 0.000000 0.020848
O O7 0.176285 0.124098 0.358047
O O8 0.494130 0.000000 0.096182
O O9 0.060815 0.697408 0.506833
O O10 0.168176 0.500000 0.488483
#
# Coordination Sequence:
#
# PCOD9189157 Si02
#       6
#     8   4   4   4   4   8
#     4  11  21  37  61  92 117 148 200 250 290 339
#     4  10  19  37  58  88 119 145 192 244 291 341
#     4   9  22  36  62  87 111 158 194 243 287 350
#     4  10  21  37  64  89 117 155 192 246 297 348
#     4  11  21  40  58  86 121 157 196 232 298 356
#     4  11  22  36  60  86 121 155 194 245 291 348
#
# _framework density 17.759805
#
# number of rings (size 3 to 8) (size 9 to 14) (size 15 to 20)
#    0.750    0.750    5.000    1.125    0.000    2.000 
#    0.000    2.500    2.750    1.500    0.000    0.000 
#    0.000    0.000    0.000    0.000    0.000    0.000 
#
# Total GULP energy -89265.968291 kJ/mol
# GULP energy per Si atom -5579.123018 kJ/mol
# Density = 1.771938 g / cm^3
# Si number density = 17.759805 Si / 1000 Ang^3
#
#
#
# Elastic Constant Matrix: (Units=GPa)
#
#
# Indices 1 2 3 4 5 6 
#
# 1 79.0732 17.9053 -5.1400 -0.0012 5.4076 -0.0007
# 2 17.9053 114.2092 -0.8468 0.0001 14.3273 -0.0017
# 3 -5.1400 -0.8468 18.1505 0.0033 2.8690 -0.0018
# 4 -0.0012 0.0001 0.0033 18.8528 -0.0018 13.8922
# 5 5.4076 14.3273 2.8690 -0.0018 18.4843 0.0008
# 6 -0.0007 -0.0017 -0.0018 13.8922 0.0008 12.9676
#
#
#
# Elastic Compliance Matrix: (Units=1/GPa)
#
#
# Indices 1 2 3 4 5 6 
#
# 1 0.013531 -0.001672 0.004280 -0.000006 -0.003327 0.000007
# 2 -0.001672 0.009956 0.001162 -0.000012 -0.007408 0.000014
# 3 0.004280 0.001162 0.058127 -0.000084 -0.011175 0.000100
# 4 -0.000006 -0.000012 -0.000084 0.251881 0.000060 -0.269841
# 5 -0.003327 -0.007408 -0.011175 0.000060 0.062550 -0.000071
# 6 0.000007 0.000014 0.000100 -0.269841 -0.000071 0.366196
#
#
# Mechanical properties :
#
#
# Convention : Reuss Voigt Hill
#
# Bulk Modulus (GPa) = 11.21671 26.14111 18.67891
# Shear Modulus (GPa) = 6.37413 23.36190 14.86801
#
# Velocity S-wave (km/s) = 1.89654 3.63083 2.89653
# Velocity P-wave (km/s) = 3.33546 5.68581 4.66121
#
# Compressibility (1/GPa) = 0.08915267
#
# Stress axis : x y z
#
# Youngs Moduli (GPa) = 73.90510 100.44222 17.20359
#
# Poissons Ratio (x) = 0.16797 -0.07362
# Poissons Ratio (y) = 0.12359 -0.01999
# Poissons Ratio (z) = -0.31628 -0.11670
#
# Static dielectric constant tensor:
#      x y z
#    x 1.585260 0.000000 0.004900 
#    y 0.000000 1.573740 0.000000 
#    z 0.004900 0.000000 1.593560 
# 
# From -- ./inp_files/365335.got.cif
#   From: 2010.05.17/outbox.cif.g08.bks.cpg/sg12_183_cif.got.tgz:365335.got - 2010.06.03 13:09:07.
