data_PCOD9189460
_publ_section_title
;
Structure prediction by ZEFSAII (Michael W. Deem and Ramdas Pophale) SiO2 
 PCOD9189460
Probable space group: C 2/M
;
_chemical_formula_sum "Si O2"
_cell_formula_units_Z 58
_cell_length_a 26.732523
_cell_length_b 14.789787
_cell_length_c 22.069635
_cell_angle_alpha 90.000000
_cell_angle_beta 15.589805
_cell_angle_gamma 90.000000
_cell_volume 2345.000624
_symmetry_space_group_name_H-M "C 2/M"
_symmetry_group_IT_number 12
_symmetry_cell_setting 'monoclinic'
loop_
_space_group_symop_operation_xyz
x,y,z
-x,y,-z
-x,-y,-z
x,-y,z
1/2+x,1/2+y,z
1/2-x,1/2+y,-z
1/2-x,1/2-y,-z
1/2+x,1/2-y,z
loop_
_atom_site_type_symbol
_atom_site_label
_atom_site_fract_x
_atom_site_fract_y
_atom_site_fract_z
Si Si1 0.500000 0.000000 0.500000
Si Si2 0.293336 0.901082 0.212398
Si Si3 0.942881 0.900018 0.212092
Si Si4 0.678424 0.234485 0.927213
Si Si5 0.108341 0.392353 0.687204
Si Si6 0.626282 0.684388 0.516170
Si Si7 0.185632 0.901930 0.053192
Si Si8 0.008647 0.349465 0.596002
O O1 0.455997 0.078743 0.498514
O O2 0.273504 0.827177 0.184879
O O3 0.150745 0.884556 0.432594
O O4 0.273230 0.000000 0.208790
O O5 0.500000 0.894315 0.000000
O O6 0.737044 0.882960 0.477833
O O7 0.067219 0.906308 0.128609
O O8 0.954052 0.000000 0.169535
O O9 0.041890 0.815965 0.065514
O O10 0.861449 0.279461 0.739357
O O11 0.572168 0.170823 0.099986
O O12 0.076704 0.500000 0.733399
O O13 0.230682 0.350522 0.599618
O O14 0.421623 0.673779 0.783900
O O15 0.662203 0.783379 0.445785
O O16 0.166169 0.000000 0.106453
O O17 0.394715 0.891536 0.785557
#
# Coordination Sequence:
#
# PCOD9189460 Si02
#       8
#     2   8   8   8   8   8   8   8
#     4  12  24  48  68  86 134 176 222 244 324 380
#     4  11  22  38  59  85 117 162 206 250 313 384
#     4   8  17  32  58  90 121 161 212 254 311 375
#     4  11  21  36  61  91 122 161 212 259 313 377
#     4  10  19  37  63  90 126 170 203 255 322 384
#     4  11  21  38  63  93 123 160 211 259 314 375
#     4   9  17  36  62  92 121 162 208 255 316 377
#     4  11  24  40  66  95 122 166 212 266 304 378
#
# _framework density 24.733470000000001
#
# number of rings (size 3 to 8) (size 9 to 14) (size 15 to 20)
#    0.000    1.793    2.069    4.138    0.966    0.000 
#    0.000    4.828    1.517    2.897    0.000    0.000 
#    0.000    0.000    0.000    0.000    0.000    0.000 
#
# Total GULP energy -161917.606332 kJ/mol
# GULP energy per Si atom -5583.365736 kJ/mol
# Density = 2.467718 g / cm^3
# Si number density = 24.733470 Si / 1000 Ang^3
#
#
#
# Elastic Constant Matrix: (Units=GPa)
#
#
# Indices 1 2 3 4 5 6 
#
# 1 66.5582 61.4532 24.9636 -0.0070 -4.0756 0.0065
# 2 61.4532 165.4236 19.8620 -0.0226 7.5937 0.0006
# 3 24.9636 19.8620 46.6703 -0.0213 2.1415 0.0122
# 4 -0.0070 -0.0226 -0.0213 22.9198 0.0115 20.8361
# 5 -4.0756 7.5937 2.1415 0.0115 32.4126 -0.0104
# 6 0.0065 0.0006 0.0122 20.8361 -0.0104 34.7588
#
#
#
# Elastic Compliance Matrix: (Units=1/GPa)
#
#
# Indices 1 2 3 4 5 6 
#
# 1 0.028536 -0.009520 -0.011514 -0.000034 0.006579 0.000021
# 2 -0.009520 0.009603 0.001167 0.000020 -0.003524 -0.000012
# 3 -0.011514 0.001167 0.027251 0.000071 -0.003522 -0.000051
# 4 -0.000034 0.000020 0.000071 0.095881 -0.000066 -0.057476
# 5 0.006579 -0.003524 -0.003522 -0.000066 0.032738 0.000050
# 6 0.000021 -0.000012 -0.000051 -0.057476 0.000050 0.063224
#
#
# Mechanical properties :
#
#
# Convention : Reuss Voigt Hill
#
# Bulk Modulus (GPa) = 38.97795 54.57884 46.77840
# Shear Modulus (GPa) = 16.36561 29.50979 22.93770
#
# Velocity S-wave (km/s) = 2.57510 3.45789 3.04862
# Velocity P-wave (km/s) = 4.96336 6.16907 5.59876
#
# Compressibility (1/GPa) = 0.02565553
#
# Stress axis : x y z
#
# Youngs Moduli (GPa) = 35.04349 104.12898 36.69648
#
# Poissons Ratio (x) = 0.99135 0.42252
# Poissons Ratio (y) = 0.33363 -0.04283
# Poissons Ratio (z) = 0.40349 -0.12152
#
# Static dielectric constant tensor:
#      x y z
#    x 2.018090 -0.000010 -0.064850 
#    y -0.000010 1.983520 0.000020 
#    z -0.064850 0.000020 2.022000 
# 
# From -- ./inp_files/328379.got.cif
#   From: 2010.05.17/outbox.cif.g08.bks.cpg/sg12_165_cif.got.tgz:328379.got - 2010.06.03 13:09:07.
