data_PCOD9189640
_publ_section_title
;
Structure prediction by ZEFSAII (Michael W. Deem and Ramdas Pophale) SiO2 
 PCOD9189640
Probable space group: C 2/M
;
_chemical_formula_sum "Si O2"
_cell_formula_units_Z 56
_cell_length_a 27.496957
_cell_length_b 12.869256
_cell_length_c 8.614944
_cell_angle_alpha 90.000000
_cell_angle_beta 64.535482
_cell_angle_gamma 90.000000
_cell_volume 2752.370927
_symmetry_space_group_name_H-M "C 2/M"
_symmetry_group_IT_number 12
_symmetry_cell_setting 'monoclinic'
loop_
_space_group_symop_operation_xyz
x,y,z
-x,y,-z
-x,-y,-z
x,-y,z
1/2+x,1/2+y,z
1/2-x,1/2+y,-z
1/2-x,1/2-y,-z
1/2+x,1/2-y,z
loop_
_atom_site_type_symbol
_atom_site_label
_atom_site_fract_x
_atom_site_fract_y
_atom_site_fract_z
Si Si1 0.742133 0.293973 0.773236
Si Si2 0.900334 0.883643 0.552043
Si Si3 0.025714 0.296161 0.626187
Si Si4 0.124551 0.617375 0.666311
Si Si5 0.070735 0.617991 0.077329
Si Si6 0.838423 0.718405 0.851488
Si Si7 0.691166 0.673854 0.538052
O O1 0.794968 0.332475 0.793481
O O2 0.716553 0.358781 0.666723
O O3 0.763913 0.189260 0.656806
O O4 0.696981 0.267223 0.961078
O O5 0.952942 0.820671 0.427277
O O6 0.870696 0.809537 0.718088
O O7 0.858761 0.886688 0.464474
O O8 0.910510 0.000000 0.593477
O O9 0.078132 0.361217 0.603413
O O10 0.000000 0.332948 0.500000
O O11 0.979389 0.308114 0.817392
O O12 0.145591 0.500000 0.625209
O O13 0.167619 0.708999 0.592911
O O14 0.095637 0.629637 0.872731
O O15 0.050986 0.500000 0.120772
O O16 0.118090 0.642069 0.134221
#
# Coordination Sequence:
#
# PCOD9189640 Si02
#       7
#     8   8   8   8   8   8   8
#     4   9  18  35  61  83 121 161 187 239 293 330
#     4  10  22  41  61  82 112 155 202 244 290 340
#     4  11  22  39  59  88 114 149 187 239 294 339
#     4  10  21  37  60  87 120 154 184 224 288 362
#     4  11  22  38  59  88 120 153 185 228 292 359
#     4  10  19  38  58  87 119 157 196 236 288 337
#     4   9  18  37  60  88 118 154 194 238 287 336
#
# _framework density 20.346095999999999
#
# number of rings (size 3 to 8) (size 9 to 14) (size 15 to 20)
#    0.000    2.000    2.857    0.857    0.000    2.571 
#    0.000   15.000    0.000    6.857    0.000    0.000 
#    0.000    0.000    0.000    0.000    0.000    0.000 
#
# Total GULP energy -156233.697472 kJ/mol
# GULP energy per Si atom -5579.774910 kJ/mol
# Density = 2.029979 g / cm^3
# Si number density = 20.346096 Si / 1000 Ang^3
#
#
#
# Elastic Constant Matrix: (Units=GPa)
#
#
# Indices 1 2 3 4 5 6 
#
# 1 98.7923 15.2663 25.2534 0.0000 11.9178 0.0000
# 2 15.2663 89.8668 41.3451 0.0000 -10.2614 0.0000
# 3 25.2534 41.3451 88.8197 0.0000 -0.4363 0.0000
# 4 0.0000 0.0000 0.0000 9.7979 0.0000 5.1165
# 5 11.9178 -10.2614 -0.4363 0.0000 41.5336 0.0000
# 6 0.0000 0.0000 0.0000 5.1165 0.0000 0.5040
#
#
#
# Elastic Compliance Matrix: (Units=1/GPa)
#
#
# Indices 1 2 3 4 5 6 
#
# 1 0.011427 -0.001077 -0.002765 0.000000 -0.003574 0.000000
# 2 -0.001077 0.014768 -0.006549 0.000000 0.003889 0.000000
# 3 -0.002765 -0.006549 0.015090 0.000000 -0.000666 0.000000
# 4 0.000000 0.000000 0.000000 -0.023726 0.000000 0.240881
# 5 -0.003574 0.003889 -0.000666 0.000000 0.026056 0.000000
# 6 0.000000 0.000000 0.000000 0.240881 0.000000 -0.461277
#
#
# Mechanical properties :
#
#
# Convention : Reuss Voigt Hill
#
# Bulk Modulus (GPa) = 48.77500 49.02316 48.89908
# Shear Modulus (GPa) = -12.81897 23.40803 5.29453
#
# Velocity S-wave (km/s) = -2.51279 3.39557 1.61489
# Velocity P-wave (km/s) = 3.95042 6.28650 5.25005
#
# Compressibility (1/GPa) = 0.02050231
#
# Stress axis : x y z
#
# Youngs Moduli (GPa) = 87.51489 67.71612 66.26864
#
# Poissons Ratio (x) = 0.07294 0.18323
# Poissons Ratio (y) = 0.09426 0.43398
# Poissons Ratio (z) = 0.24198 0.44346
#
# Static dielectric constant tensor:
#      x y z
#    x 1.765820 0.000000 0.016070 
#    y 0.000000 1.684550 0.000000 
#    z 0.016070 0.000000 1.747850 
# 
# From -- ./inp_files/110364.got.cif
#   From: 2010.05.17/outbox.cif.g08.bks.cpg/sg12_56_cif.got.tgz:110364.got - 2010.06.03 13:09:07.
