data_PCOD9189560
_publ_section_title
;
Structure prediction by ZEFSAII (Michael W. Deem and Ramdas Pophale) SiO2 
 PCOD9189560
Probable space group: C 2/M
;
_chemical_formula_sum "Si O2"
_cell_formula_units_Z 40
_cell_length_a 18.525844
_cell_length_b 14.817307
_cell_length_c 9.837189
_cell_angle_alpha 90.000000
_cell_angle_beta 36.434171
_cell_angle_gamma 90.000000
_cell_volume 1603.728168
_symmetry_space_group_name_H-M "C 2/M"
_symmetry_group_IT_number 12
_symmetry_cell_setting 'monoclinic'
loop_
_space_group_symop_operation_xyz
x,y,z
-x,y,-z
-x,-y,-z
x,-y,z
1/2+x,1/2+y,z
1/2-x,1/2+y,-z
1/2-x,1/2-y,-z
1/2+x,1/2-y,z
loop_
_atom_site_type_symbol
_atom_site_label
_atom_site_fract_x
_atom_site_fract_y
_atom_site_fract_z
Si Si1 0.063635 0.659587 0.270313
Si Si2 0.356503 0.391874 0.454410
Si Si3 0.606105 0.601143 0.995303
Si Si4 0.171633 0.145531 0.192428
Si Si5 0.830429 0.610171 0.477225
O O1 0.122025 0.753799 0.233811
O O2 0.000000 0.616295 0.500000
O O3 0.955541 0.658075 0.325672
O O4 0.185505 0.619658 0.022245
O O5 0.361780 0.500000 0.435861
O O6 0.471777 0.357259 0.192275
O O7 0.370409 0.370440 0.591073
O O8 0.230483 0.365317 0.574351
O O9 0.602195 0.500000 0.944365
O O10 0.626791 0.595582 0.125720
O O11 0.726981 0.640560 0.743766
O O12 0.848075 0.500000 0.458409
#
# Coordination Sequence:
#
# PCOD9189560 Si02
#       5
#     8   8   8   8   8
#     4  11  23  42  62  87 128 171 216 258 311 388
#     4  10  21  39  65 100 131 160 209 271 326 373
#     4  10  19  37  66  96 127 167 214 262 316 382
#     4  11  23  39  64  90 127 170 214 263 315 377
#     4  10  22  40  67  97 129 168 210 264 324 379
#
# _framework density 24.941882
#
# number of rings (size 3 to 8) (size 9 to 14) (size 15 to 20)
#    0.000    1.600    2.000    3.000    0.000    6.800 
#    0.000    6.000    8.800    0.000    0.000    0.000 
#    0.000    0.000    0.000    0.000    0.000    0.000 
#
# Total GULP energy -111650.575913 kJ/mol
# GULP energy per Si atom -5582.528796 kJ/mol
# Density = 2.488511 g / cm^3
# Si number density = 24.941882 Si / 1000 Ang^3
#
#
#
# Elastic Constant Matrix: (Units=GPa)
#
#
# Indices 1 2 3 4 5 6 
#
# 1 149.1547 17.2169 29.8816 0.0000 -18.4670 0.0000
# 2 17.2169 49.1518 4.8457 0.0000 2.2933 0.0000
# 3 29.8816 4.8457 135.8992 0.0000 -31.5672 0.0000
# 4 0.0000 0.0000 0.0000 13.7283 0.0000 -4.8922
# 5 -18.4670 2.2933 -31.5672 0.0000 59.9530 0.0000
# 6 0.0000 0.0000 0.0000 -4.8922 0.0000 17.5969
#
#
#
# Elastic Compliance Matrix: (Units=1/GPa)
#
#
# Indices 1 2 3 4 5 6 
#
# 1 0.007451 -0.002583 -0.001128 0.000000 0.001800 0.000000
# 2 -0.002583 0.021405 -0.000650 0.000000 -0.001957 0.000000
# 3 -0.001128 -0.000650 0.008607 0.000000 0.004209 0.000000
# 4 0.000000 0.000000 0.000000 0.080852 0.000000 0.022478
# 5 0.001800 -0.001957 0.004209 0.000000 0.019525 0.000000
# 6 0.000000 0.000000 0.000000 0.022478 0.000000 0.063077
#
#
# Mechanical properties :
#
#
# Convention : Reuss Voigt Hill
#
# Bulk Modulus (GPa) = 34.79186 48.67712 41.73449
# Shear Modulus (GPa) = 22.80798 37.07308 29.94053
#
# Velocity S-wave (km/s) = 3.02726 3.85954 3.46845
# Velocity P-wave (km/s) = 5.11845 6.27853 5.72794
#
# Compressibility (1/GPa) = 0.02874235
#
# Stress axis : x y z
#
# Youngs Moduli (GPa) = 134.20164 46.71765 116.17890
#
# Poissons Ratio (x) = 0.12066 0.13108
# Poissons Ratio (y) = 0.34662 0.07549
# Poissons Ratio (z) = 0.15141 0.03036
#
# Static dielectric constant tensor:
#      x y z
#    x 1.976980 0.000000 -0.017290 
#    y 0.000000 2.048700 0.000000 
#    z -0.017290 0.000000 2.019850 
# 
# From -- ./inp_files/158440.got.cif
#   From: 2010.05.17/outbox.cif.g08.bks.cpg/sg12_80_cif.got.tgz:158440.got - 2010.06.03 13:09:07.
