data_PCOD9189734
_publ_section_title
;
Structure prediction by ZEFSAII (Michael W. Deem and Ramdas Pophale) SiO2 
 PCOD9189734
Probable space group: C 2/M
;
_chemical_formula_sum "Si O2"
_cell_formula_units_Z 56
_cell_length_a 15.171783
_cell_length_b 19.376604
_cell_length_c 19.696723
_cell_angle_alpha 90.000000
_cell_angle_beta 149.905994
_cell_angle_gamma 90.000000
_cell_volume 2903.421659
_symmetry_space_group_name_H-M "C 2/M"
_symmetry_group_IT_number 12
_symmetry_cell_setting 'monoclinic'
loop_
_space_group_symop_operation_xyz
x,y,z
-x,y,-z
-x,-y,-z
x,-y,z
1/2+x,1/2+y,z
1/2-x,1/2+y,-z
1/2-x,1/2-y,-z
1/2+x,1/2-y,z
loop_
_atom_site_type_symbol
_atom_site_label
_atom_site_fract_x
_atom_site_fract_y
_atom_site_fract_z
Si Si1 0.838943 0.313230 0.019083
Si Si2 0.559273 0.079650 0.796483
Si Si3 0.842853 0.918641 0.519064
Si Si4 0.583399 0.500000 0.196143
Si Si5 0.688078 0.379607 0.158107
Si Si6 0.019805 0.867122 0.249537
Si Si7 0.500000 0.339715 0.500000
Si Si8 0.316015 0.259977 0.749231
O O1 0.893193 0.370558 0.110326
O O2 0.018940 0.282332 0.110072
O O3 0.750000 0.250000 0.000000
O O4 0.681304 0.344369 0.869615
O O5 0.358602 0.088398 0.639570
O O6 0.684059 0.096707 0.816250
O O7 0.590535 0.000000 0.836606
O O8 0.875985 0.880067 0.611829
O O9 0.963499 0.886759 0.540987
O O10 0.877755 0.000000 0.551672
O O11 0.652335 0.440223 0.187877
O O12 0.522789 0.437943 0.208390
O O13 0.757368 0.313015 0.244030
O O14 0.500000 0.362521 0.000000
O O15 0.109369 0.807644 0.262671
O O16 0.331695 0.291483 0.375236
#
# Coordination Sequence:
#
# PCOD9189734 Si02
#       8
#     8   8   8   4   8   8   4   8
#     4  10  21  42  63  93 132 173 216 261 320 384
#     4  11  23  39  66  99 130 172 219 263 328 399
#     4  11  25  45  67  93 123 173 220 272 329 376
#     4  10  19  38  61  99 137 159 203 262 333 382
#     4  11  22  37  63  99 137 167 210 263 327 389
#     4  10  22  40  69  94 129 167 211 268 327 389
#     4  12  25  46  66  87 130 168 230 272 312 387
#     4  10  24  40  60  96 130 177 208 267 319 379
#
# _framework density 19.287588
#
# number of rings (size 3 to 8) (size 9 to 14) (size 15 to 20)
#    0.000    1.429    2.857    3.000    5.000    4.000 
#    0.000    0.714    0.000    0.857    0.000    0.000 
#    0.000    0.000    0.000    0.000    0.000    0.000 
#
# Total GULP energy -155885.710022 kJ/mol
# GULP energy per Si atom -5567.346787 kJ/mol
# Density = 1.924369 g / cm^3
# Si number density = 19.287588 Si / 1000 Ang^3
#
#
#
# Elastic Constant Matrix: (Units=GPa)
#
#
# Indices 1 2 3 4 5 6 
#
# 1 35.6782 29.4879 5.9578 0.0024 4.8659 -0.0003
# 2 29.4879 90.9992 41.0400 -0.0013 -3.2453 0.0033
# 3 5.9578 41.0400 59.9803 -0.0145 7.5169 -0.0031
# 4 0.0024 -0.0013 -0.0145 4.1180 -0.0027 -13.4354
# 5 4.8659 -3.2453 7.5169 -0.0027 18.0825 0.0033
# 6 -0.0003 0.0033 -0.0031 -13.4354 0.0033 3.3950
#
#
#
# Elastic Compliance Matrix: (Units=1/GPa)
#
#
# Indices 1 2 3 4 5 6 
#
# 1 0.046936 -0.021888 0.013071 -0.000016 -0.021992 -0.000004
# 2 -0.021888 0.027211 -0.018772 0.000020 0.018577 0.000016
# 3 0.013071 -0.018772 0.030680 -0.000025 -0.019640 -0.000033
# 4 -0.000016 0.000020 -0.000025 -0.020387 0.000030 -0.080679
# 5 -0.021992 0.018577 -0.019640 0.000030 0.072719 0.000010
# 6 -0.000004 0.000016 -0.000033 -0.080679 0.000010 -0.024728
#
#
# Mechanical properties :
#
#
# Convention : Reuss Voigt Hill
#
# Bulk Modulus (GPa) = 20.14261 37.73655 28.93958
# Shear Modulus (GPa) = 24.49082 12.46389 18.47735
#
# Velocity S-wave (km/s) = 3.56725 2.54483 3.09850
# Velocity P-wave (km/s) = 5.23765 5.31437 5.27615
#
# Compressibility (1/GPa) = 0.04964600
#
# Stress axis : x y z
#
# Youngs Moduli (GPa) = 21.30572 36.75043 32.59505
#
# Poissons Ratio (x) = 0.80441 -0.42604
# Poissons Ratio (y) = 0.46635 0.61188
# Poissons Ratio (z) = -0.27848 0.68988
#
# Static dielectric constant tensor:
#      x y z
#    x 1.630250 0.000000 0.002850 
#    y 0.000000 1.661700 0.000000 
#    z 0.002850 0.000000 1.677580 
# 
# From -- ./inp_files/311774.got.cif
#   From: 2010.05.17/outbox.cif.g08.bks.cpg/sg12_156_cif.got.tgz:311774.got - 2010.06.03 13:09:07.
