data_PCOD9189147
_publ_section_title
;
Structure prediction by ZEFSAII (Michael W. Deem and Ramdas Pophale) SiO2 
 PCOD9189147
Probable space group: C 2/M
;
_chemical_formula_sum "Si O2"
_cell_formula_units_Z 44
_cell_length_a 24.209389
_cell_length_b 13.248157
_cell_length_c 5.639653
_cell_angle_alpha 90.000000
_cell_angle_beta 83.929583
_cell_angle_gamma 90.000000
_cell_volume 1798.662151
_symmetry_space_group_name_H-M "C 2/M"
_symmetry_group_IT_number 12
_symmetry_cell_setting 'monoclinic'
loop_
_space_group_symop_operation_xyz
x,y,z
-x,y,-z
-x,-y,-z
x,-y,z
1/2+x,1/2+y,z
1/2-x,1/2+y,-z
1/2-x,1/2-y,-z
1/2+x,1/2-y,z
loop_
_atom_site_type_symbol
_atom_site_label
_atom_site_fract_x
_atom_site_fract_y
_atom_site_fract_z
Si Si1 0.551177 0.889092 0.160936
Si Si2 0.200035 0.670706 0.525055
Si Si3 0.835461 0.890947 0.937342
Si Si4 0.388428 0.343379 0.410880
Si Si5 0.678755 0.845743 0.029109
Si Si6 0.500000 0.279953 0.500000
O O1 0.537242 0.794668 0.328365
O O2 0.552021 0.000000 0.279473
O O3 0.500000 0.891518 0.000000
O O4 0.613037 0.869623 0.038200
O O5 0.250000 0.750000 0.500000
O O6 0.142384 0.733865 0.567652
O O7 0.204968 0.616007 0.773664
O O8 0.199080 0.615287 0.274607
O O9 0.867845 0.890407 0.174185
O O10 0.810862 0.776526 0.958152
O O11 0.805590 0.000000 0.949171
O O12 0.869538 0.888877 0.672993
O O13 0.454848 0.340612 0.373599
#
# Coordination Sequence:
#
# PCOD9189147 Si02
#       6
#     8   8   8   8   8   4
#     4  11  23  38  63  92 125 171 210 252 315 382
#     4  10  19  37  64  88 115 160 208 246 314 370
#     4  10  19  37  58  83 117 155 196 242 294 358
#     4  10  22  35  60  88 117 160 195 254 297 362
#     4  10  21  39  59  90 119 160 198 261 302 357
#     4  12  21  40  61  86 128 162 203 248 319 362
#
# _framework density 24.462626
#
# number of rings (size 3 to 8) (size 9 to 14) (size 15 to 20)
#    0.000    1.636    3.636    3.545    0.000    0.000 
#    0.000    2.727    0.000   26.182    0.000    0.000 
#    0.000    0.000    0.000    0.000    0.000    0.000 
#
# Total GULP energy -122739.972033 kJ/mol
# GULP energy per Si atom -5579.089638 kJ/mol
# Density = 2.440695 g / cm^3
# Si number density = 24.462626 Si / 1000 Ang^3
#
#
#
# Elastic Constant Matrix: (Units=GPa)
#
#
# Indices 1 2 3 4 5 6 
#
# 1 137.1710 19.9085 48.5807 0.0000 14.0729 0.0000
# 2 19.9085 119.9656 25.9406 0.0000 11.2474 0.0000
# 3 48.5807 25.9406 233.5748 0.0000 19.6372 0.0000
# 4 0.0000 0.0000 0.0000 38.7971 0.0000 -3.4019
# 5 14.0729 11.2474 19.6372 0.0000 35.6550 0.0000
# 6 0.0000 0.0000 0.0000 -3.4019 0.0000 8.2670
#
#
#
# Elastic Compliance Matrix: (Units=1/GPa)
#
#
# Indices 1 2 3 4 5 6 
#
# 1 0.008136 -0.000841 -0.001417 0.000000 -0.002166 0.000000
# 2 -0.000841 0.008808 -0.000627 0.000000 -0.002101 0.000000
# 3 -0.001417 -0.000627 0.004804 0.000000 -0.001889 0.000000
# 4 0.000000 0.000000 0.000000 0.026740 0.000000 0.011003
# 5 -0.002166 -0.002101 -0.001889 0.000000 0.030605 0.000000
# 6 0.000000 0.000000 0.000000 0.011003 0.000000 0.125491
#
#
# Mechanical properties :
#
#
# Convention : Reuss Voigt Hill
#
# Bulk Modulus (GPa) = 62.57854 75.50787 69.04320
# Shear Modulus (GPa) = 23.18261 42.96261 33.07261
#
# Velocity S-wave (km/s) = 3.08177 4.19532 3.68090
# Velocity P-wave (km/s) = 6.18869 7.37572 6.80812
#
# Compressibility (1/GPa) = 0.01597992
#
# Stress axis : x y z
#
# Youngs Moduli (GPa) = 122.90814 113.53607 208.14374
#
# Poissons Ratio (x) = 0.09546 0.29489
# Poissons Ratio (y) = 0.10334 0.13043
# Poissons Ratio (z) = 0.17413 0.07115
#
# Static dielectric constant tensor:
#      x y z
#    x 1.995910 0.000000 0.027760 
#    y 0.000000 1.934630 0.000000 
#    z 0.027760 0.000000 1.993420 
# 
# From -- ./inp_files/24272.got.cif
#   From: 2010.05.17/outbox.cif.g08.bks.cpg/sg12_13_cif.got.tgz:24272.got - 2010.06.03 13:09:07.
