data_PCOD9189788
_publ_section_title
;
Structure prediction by ZEFSAII (Michael W. Deem and Ramdas Pophale) SiO2 
 PCOD9189788
Probable space group: C 2/M
;
_chemical_formula_sum "Si O2"
_cell_formula_units_Z 64
_cell_length_a 23.843846
_cell_length_b 22.772252
_cell_length_c 17.444623
_cell_angle_alpha 90.000000
_cell_angle_beta 161.099960
_cell_angle_gamma 90.000000
_cell_volume 3068.167500
_symmetry_space_group_name_H-M "C 2/M"
_symmetry_group_IT_number 12
_symmetry_cell_setting 'monoclinic'
loop_
_space_group_symop_operation_xyz
x,y,z
-x,y,-z
-x,-y,-z
x,-y,z
1/2+x,1/2+y,z
1/2-x,1/2+y,-z
1/2-x,1/2-y,-z
1/2+x,1/2-y,z
loop_
_atom_site_type_symbol
_atom_site_label
_atom_site_fract_x
_atom_site_fract_y
_atom_site_fract_z
Si Si1 0.239282 0.114441 0.272252
Si Si2 0.340922 0.433529 0.354785
Si Si3 0.349581 0.749104 0.865010
Si Si4 0.973843 0.070526 0.245119
Si Si5 0.576108 0.567296 0.212588
Si Si6 0.031310 0.241192 0.627578
Si Si7 0.330899 0.161588 0.965669
Si Si8 0.110824 0.635945 0.796276
O O1 0.183108 0.179422 0.172181
O O2 0.445660 0.110020 0.537952
O O3 0.176270 0.104963 0.278500
O O4 0.125088 0.070587 0.074301
O O5 0.500000 0.433467 0.500000
O O6 0.270317 0.500000 0.265158
O O7 0.416450 0.419344 0.535976
O O8 0.208070 0.386880 0.148600
O O9 0.395157 0.780826 0.003875
O O10 0.161789 0.772757 0.593910
O O11 0.500000 0.760587 0.000000
O O12 0.076798 0.087711 0.301213
O O13 0.943023 0.000000 0.201005
O O14 0.789660 0.103349 0.010707
O O15 0.636875 0.500000 0.286309
O O16 0.152229 0.185099 0.773573
O O17 0.116058 0.294934 0.781691
O O18 0.000000 0.262686 0.500000
O O19 0.430314 0.134921 0.165951
#
# Coordination Sequence:
#
# PCOD9189788 Si02
#       8
#     8   8   8   8   8   8   8   8
#     4  10  21  40  60  88 121 167 195 245 309 359
#     4  10  19  38  63  86 117 158 200 247 302 358
#     4  10  20  37  59  83 118 153 201 249 286 357
#     4  10  23  37  62  97 118 151 210 258 297 358
#     4  10  21  41  66  86 117 165 207 245 308 370
#     4   9  21  36  58  83 122 158 195 243 305 361
#     4  11  22  40  59  90 120 161 202 243 308 367
#     4  11  23  35  58  90 126 157 198 253 304 357
#
# _framework density 20.859358
#
# number of rings (size 3 to 8) (size 9 to 14) (size 15 to 20)
#    0.000    1.875    2.500    2.250    5.250    1.000 
#    2.250    3.750    0.000    0.375    0.000    0.000 
#    0.000    0.000    0.000    0.000    0.000    0.000 
#
# Total GULP energy -178579.332567 kJ/mol
# GULP energy per Si atom -5580.604143 kJ/mol
# Density = 2.081188 g / cm^3
# Si number density = 20.859358 Si / 1000 Ang^3
#
#
#
# Elastic Constant Matrix: (Units=GPa)
#
#
# Indices 1 2 3 4 5 6 
#
# 1 82.1035 15.9839 6.9061 0.0000 -16.0813 0.0000
# 2 15.9839 65.1475 10.1809 0.0000 -3.9108 0.0000
# 3 6.9061 10.1809 44.9479 0.0000 -5.0032 0.0000
# 4 0.0000 0.0000 0.0000 23.9295 0.0000 -6.7180
# 5 -16.0813 -3.9108 -5.0032 0.0000 29.7625 0.0000
# 6 0.0000 0.0000 0.0000 -6.7180 0.0000 35.2086
#
#
#
# Elastic Compliance Matrix: (Units=1/GPa)
#
#
# Indices 1 2 3 4 5 6 
#
# 1 0.014219 -0.002946 -0.000719 0.000000 0.007175 0.000000
# 2 -0.002946 0.016590 -0.003302 0.000000 0.000033 0.000000
# 3 -0.000719 -0.003302 0.023454 0.000000 0.003120 0.000000
# 4 0.000000 0.000000 0.000000 0.044155 0.000000 0.008425
# 5 0.007175 0.000033 0.003120 0.000000 0.038005 0.000000
# 6 0.000000 0.000000 0.000000 0.008425 0.000000 0.030010
#
#
# Mechanical properties :
#
#
# Convention : Reuss Voigt Hill
#
# Bulk Modulus (GPa) = 24.79477 28.70454 26.74965
# Shear Modulus (GPa) = 25.79876 28.38868 27.09372
#
# Velocity S-wave (km/s) = 3.52063 3.69312 3.60790
# Velocity P-wave (km/s) = 5.33281 5.65476 5.49614
#
# Compressibility (1/GPa) = 0.04033108
#
# Stress axis : x y z
#
# Youngs Moduli (GPa) = 70.32857 60.27578 42.63742
#
# Poissons Ratio (x) = 0.17755 0.03065
# Poissons Ratio (y) = 0.20716 0.14077
# Poissons Ratio (z) = 0.05056 0.19900
#
# Static dielectric constant tensor:
#      x y z
#    x 1.771470 0.000000 -0.007030 
#    y 0.000000 1.767680 0.000000 
#    z -0.007030 0.000000 1.778150 
# 
# From -- ./inp_files/290960.got.cif
#   From: 2010.05.17/outbox.cif.g08.bks.cpg/sg12_146_cif.got.tgz:290960.got - 2010.06.03 13:09:07.
