data_PCOD9189107
_publ_section_title
;
Structure prediction by ZEFSAII (Michael W. Deem and Ramdas Pophale) SiO2 
 PCOD9189107
Probable space group: C 2/M
;
_chemical_formula_sum "Si O2"
_cell_formula_units_Z 54
_cell_length_a 12.662941
_cell_length_b 14.486106
_cell_length_c 14.322961
_cell_angle_alpha 90.000000
_cell_angle_beta 81.638390
_cell_angle_gamma 90.000000
_cell_volume 2599.427955
_symmetry_space_group_name_H-M "C 2/M"
_symmetry_group_IT_number 12
_symmetry_cell_setting 'monoclinic'
loop_
_space_group_symop_operation_xyz
x,y,z
-x,y,-z
-x,-y,-z
x,-y,z
1/2+x,1/2+y,z
1/2-x,1/2+y,-z
1/2-x,1/2-y,-z
1/2+x,1/2-y,z
loop_
_atom_site_type_symbol
_atom_site_label
_atom_site_fract_x
_atom_site_fract_y
_atom_site_fract_z
Si Si1 0.112628 0.178664 0.514918
Si Si2 0.706358 0.606452 0.797634
Si Si3 0.500000 0.000000 0.500000
Si Si4 0.315393 0.862097 0.585448
Si Si5 0.500000 0.188188 0.000000
Si Si6 0.349383 0.749607 0.862839
Si Si7 0.941441 0.748184 0.274722
Si Si8 0.668359 0.107680 0.836575
O O1 0.214320 0.118029 0.530270
O O2 0.154309 0.254759 0.435980
O O3 0.083389 0.231068 0.615385
O O4 0.000000 0.134312 0.500000
O O5 0.684945 0.500000 0.821874
O O6 0.776052 0.614220 0.693946
O O7 0.772510 0.660876 0.867768
O O8 0.604012 0.667771 0.783249
O O9 0.416574 0.920719 0.546331
O O10 0.419274 0.247711 0.947337
O O11 0.573717 0.127139 0.922879
O O12 0.435520 0.759440 0.768510
O O13 0.273584 0.662233 0.856429
O O14 0.876057 0.658296 0.250367
O O15 0.686646 0.000000 0.821543
#
# Coordination Sequence:
#
# PCOD9189107 Si02
#       8
#     8   8   2   8   4   8   8   8
#     4  10  19  37  57  79 113 160 192 236 295 355
#     4  10  20  37  57  82 109 148 197 233 278 338
#     4  12  20  36  54  88 112 140 196 264 286 330
#     4  10  21  33  57  84 112 147 199 247 291 333
#     4  10  21  40  57  84 116 146 177 222 283 338
#     4  10  21  37  60  84 113 148 182 229 279 337
#     4   9  21  37  58  80 113 151 187 232 285 333
#     4  10  21  39  60  86 114 144 186 231 275 333
#
# _framework density 20.773800999999999
#
# number of rings (size 3 to 8) (size 9 to 14) (size 15 to 20)
#    0.000    2.074    1.481    1.556    0.000    4.741 
#    1.333    0.741    0.000    0.000    0.000    0.000 
#    0.000    0.000    0.000    0.000    0.000    0.000 
#
# Total GULP energy -150524.955830 kJ/mol
# GULP energy per Si atom -5574.998364 kJ/mol
# Density = 2.072652 g / cm^3
# Si number density = 20.773801 Si / 1000 Ang^3
#
#
#
# Elastic Constant Matrix: (Units=GPa)
#
#
# Indices 1 2 3 4 5 6 
#
# 1 74.9013 27.7658 -5.9902 0.0000 20.9432 0.0000
# 2 27.7658 124.4950 3.3687 0.0000 12.5882 0.0000
# 3 -5.9902 3.3687 47.1547 0.0000 18.7053 0.0000
# 4 0.0000 0.0000 0.0000 813.4100 0.0000-2889.8963
# 5 20.9432 12.5882 18.7053 0.0000 23.9024 0.0000
# 6 0.0000 0.0000 0.0000-2889.8963 0.000010318.5240
#
#
#
# Elastic Compliance Matrix: (Units=1/GPa)
#
#
# Indices 1 2 3 4 5 6 
#
# 1 0.025091 -0.002642 0.016742 0.000000 -0.033695 0.000000
# 2 -0.002642 0.008856 -0.000053 0.000000 -0.002308 0.000000
# 3 0.016742 -0.000053 0.042266 0.000000 -0.047718 0.000000
# 4 0.000000 0.000000 0.000000 0.247503 0.000000 0.069318
# 5 -0.033695 -0.002308 -0.047718 0.000000 0.109919 0.000000
# 6 0.000000 0.000000 0.000000 0.069318 0.000000 0.019511
#
#
# Mechanical properties :
#
#
# Convention : Reuss Voigt Hill
#
# Bulk Modulus (GPa) = 9.58693 32.98216 21.28454
# Shear Modulus (GPa) = 10.87384 2245.92774 1128.40079
#
# Velocity S-wave (km/s) = 2.29036 32.91628 23.33160
# Velocity P-wave (km/s) = 3.40871 38.21719 27.13091
#
# Compressibility (1/GPa) = 0.10430868
#
# Stress axis : x y z
#
# Youngs Moduli (GPa) = 39.85544 112.91164 23.65958
#
# Poissons Ratio (x) = 0.29830 -0.39611
# Poissons Ratio (y) = 0.10529 0.00125
# Poissons Ratio (z) = -0.66727 0.00595
#
# Static dielectric constant tensor:
#      x y z
#    x 1.782370 0.000000 0.036200 
#    y 0.000000 1.687240 0.000000 
#    z 0.036200 0.000000 1.778960 
# 
# From -- ./inp_files/205047.got.cif
#   From: 2010.05.17/outbox.cif.g08.bks.cpg/sg12_103_cif.got.tgz:205047.got - 2010.06.03 13:09:07.
