data_PCOD9189719
_publ_section_title
;
Structure prediction by ZEFSAII (Michael W. Deem and Ramdas Pophale) SiO2 
 PCOD9189719
Probable space group: C 2/M
;
_chemical_formula_sum "Si O2"
_cell_formula_units_Z 40
_cell_length_a 13.373509
_cell_length_b 14.789280
_cell_length_c 16.370820
_cell_angle_alpha 90.000000
_cell_angle_beta 144.631714
_cell_angle_gamma 90.000000
_cell_volume 1874.190773
_symmetry_space_group_name_H-M "C 2/M"
_symmetry_group_IT_number 12
_symmetry_cell_setting 'monoclinic'
loop_
_space_group_symop_operation_xyz
x,y,z
-x,y,-z
-x,-y,-z
x,-y,z
1/2+x,1/2+y,z
1/2-x,1/2+y,-z
1/2-x,1/2-y,-z
1/2+x,1/2-y,z
loop_
_atom_site_type_symbol
_atom_site_label
_atom_site_fract_x
_atom_site_fract_y
_atom_site_fract_z
Si Si1 0.370381 0.823848 0.976896
Si Si2 0.704464 0.000000 0.611439
Si Si3 0.572440 0.500000 0.933185
Si Si4 0.687473 0.854342 0.459827
Si Si5 0.801793 0.000000 0.169186
Si Si6 0.113770 0.000000 0.496477
Si Si7 0.341780 0.847868 0.141916
O O1 0.421545 0.854307 0.102831
O O2 0.500000 0.777723 0.000000
O O3 0.214037 0.755658 0.886526
O O4 0.306824 0.911456 0.886649
O O5 0.500000 0.000000 0.500000
O O6 0.728489 0.089484 0.569880
O O7 0.862826 0.000000 0.783877
O O8 0.640763 0.500000 0.886050
O O9 0.673249 0.412382 0.036300
O O10 0.750000 0.750000 0.500000
O O11 0.484622 0.865134 0.305292
O O12 0.775650 0.910366 0.444984
O O13 0.974874 0.000000 0.333056
O O14 0.000000 0.000000 0.500000
#
# Coordination Sequence:
#
# PCOD9189719 Si02
#       7
#     8   4   4   8   4   4   8
#     4  10  22  37  62  94 126 160 214 264 319 382
#     4  11  26  45  68 100 132 176 225 275 337 400
#     4  10  20  43  69  86 129 173 214 265 323 395
#     4  11  24  45  68  94 138 175 218 276 337 397
#     4  10  19  38  61  88 127 165 203 260 324 379
#     4  11  24  38  63  97 129 170 222 265 326 393
#     4  10  23  40  66  92 126 173 216 261 327 395
#
# _framework density 21.342542999999999
#
# number of rings (size 3 to 8) (size 9 to 14) (size 15 to 20)
#    0.000    1.600    2.000    2.700    8.400    2.400 
#    0.000    1.500    0.000    0.000    0.000    0.000 
#    0.000    0.000    0.000    0.000    0.000    0.000 
#
# Total GULP energy -111491.703279 kJ/mol
# GULP energy per Si atom -5574.585164 kJ/mol
# Density = 2.129397 g / cm^3
# Si number density = 21.342543 Si / 1000 Ang^3
#
#
#
# Elastic Constant Matrix: (Units=GPa)
#
#
# Indices 1 2 3 4 5 6 
#
# 1 75.8677 22.8888 4.0863 0.0002 17.7393 0.0003
# 2 22.8888 143.0309 44.9815 0.0004 3.3123 0.0005
# 3 4.0863 44.9815 145.5297 0.0008 12.9248 0.0010
# 4 0.0002 0.0004 0.0008 22.0065 0.0005 15.4144
# 5 17.7393 3.3123 12.9248 0.0005 22.8165 0.0006
# 6 0.0003 0.0005 0.0010 15.4144 0.0006 -2.6007
#
#
#
# Elastic Compliance Matrix: (Units=1/GPa)
#
#
# Indices 1 2 3 4 5 6 
#
# 1 0.017238 -0.002961 0.001667 0.000000 -0.013917 0.000000
# 2 -0.002961 0.008254 -0.002702 0.000000 0.002634 0.000000
# 3 0.001667 -0.002702 0.008150 0.000000 -0.005521 0.000000
# 4 0.000000 0.000000 0.000000 0.008821 -0.000001 0.052281
# 5 -0.013917 0.002634 -0.005521 -0.000001 0.057393 0.000001
# 6 0.000000 0.000000 0.000000 0.052281 0.000001 -0.074640
#
#
# Mechanical properties :
#
#
# Convention : Reuss Voigt Hill
#
# Bulk Modulus (GPa) = 38.98446 56.48241 47.73343
# Shear Modulus (GPa) = 119.73822 27.94257 73.84039
#
# Velocity S-wave (km/s) = 7.49832 3.62227 5.88837
# Velocity P-wave (km/s) = 9.65775 6.63450 8.28519
#
# Compressibility (1/GPa) = 0.02565125
#
# Stress axis : x y z
#
# Youngs Moduli (GPa) = 58.01045 121.15303 122.69789
#
# Poissons Ratio (x) = 0.35868 -0.20454
# Poissons Ratio (y) = 0.17174 0.33153
# Poissons Ratio (z) = -0.09670 0.32736
#
# Static dielectric constant tensor:
#      x y z
#    x 1.609610 0.000000 0.013400 
#    y 0.000000 1.774610 0.000000 
#    z 0.013400 0.000000 1.825030 
# 
# From -- ./inp_files/270845.got.cif
#   From: 2010.05.17/outbox.cif.g08.bks.cpg/sg12_136_cif.got.tgz:270845.got - 2010.06.03 13:09:07.
