data_PCOD9189026
_publ_section_title
;
Structure prediction by ZEFSAII (Michael W. Deem and Ramdas Pophale) SiO2 
 PCOD9189026
Probable space group: C 2/M
;
_chemical_formula_sum "Si O2"
_cell_formula_units_Z 48
_cell_length_a 30.824578
_cell_length_b 7.591612
_cell_length_c 19.052585
_cell_angle_alpha 90.000000
_cell_angle_beta 33.578051
_cell_angle_gamma 90.000000
_cell_volume 2465.852314
_symmetry_space_group_name_H-M "C 2/M"
_symmetry_group_IT_number 12
_symmetry_cell_setting 'monoclinic'
loop_
_space_group_symop_operation_xyz
x,y,z
-x,y,-z
-x,-y,-z
x,-y,z
1/2+x,1/2+y,z
1/2-x,1/2+y,-z
1/2-x,1/2-y,-z
1/2+x,1/2-y,z
loop_
_atom_site_type_symbol
_atom_site_label
_atom_site_fract_x
_atom_site_fract_y
_atom_site_fract_z
Si Si1 0.230928 0.288129 0.806092
Si Si2 0.701406 0.289401 0.135186
Si Si3 0.126558 0.212005 0.493265
Si Si4 0.975845 0.784628 0.611302
Si Si5 0.839708 0.302485 0.393921
Si Si6 0.388621 0.500000 0.084944
Si Si7 0.570286 0.500000 0.807225
O O1 0.215914 0.500000 0.825032
O O2 0.255384 0.232084 0.851808
O O3 0.305065 0.253085 0.655274
O O4 0.159052 0.171490 0.876170
O O5 0.695497 0.500000 0.149603
O O6 0.611857 0.223035 0.253271
O O7 0.750000 0.250000 0.000000
O O8 0.145871 0.291654 0.542358
O O9 0.043431 0.271755 0.573793
O O10 0.123483 0.000000 0.506406
O O11 0.000000 0.732532 0.500000
O O12 0.976071 0.000000 0.611895
O O13 0.852583 0.500000 0.351016
O O14 0.750000 0.250000 0.500000
O O15 0.896414 0.168247 0.278338
O O16 0.396428 0.500000 0.158590
O O17 0.476551 0.500000 0.936678
#
# Coordination Sequence:
#
# PCOD9189026 Si02
#       7
#     8   8   8   8   8   4   4
#     4  10  22  40  66  95 126 172 221 264 324 390
#     4  10  21  37  58  89 127 170 219 266 322 387
#     4  10  19  36  65  96 129 169 218 270 331 389
#     4   9  16  33  59  86 121 164 213 268 317 378
#     4  12  24  42  68  98 136 165 208 272 329 389
#     4  11  26  44  72  89 133 172 219 265 316 402
#     4  11  26  48  64 102 128 170 216 263 330 392
#
# _framework density 19.465885
#
# number of rings (size 3 to 8) (size 9 to 14) (size 15 to 20)
#    0.000    1.667    3.333    1.000    2.333    4.000 
#    0.000    4.167    0.000    2.000    0.000    0.000 
#    0.000    0.000    0.000    0.000    0.000    0.000 
#
# Total GULP energy -134153.718225 kJ/mol
# GULP energy per Si atom -5589.738259 kJ/mol
# Density = 1.942158 g / cm^3
# Si number density = 19.465885 Si / 1000 Ang^3
#
#
#
# Elastic Constant Matrix: (Units=GPa)
#
#
# Indices 1 2 3 4 5 6 
#
# 1 175.1475 46.5732 95.5694 -0.0032 -14.7662 0.0019
# 2 46.5732 99.4302 51.1262 -0.0103 -3.9091 0.0022
# 3 95.5694 51.1262 155.5131 -0.0133 -1.9121 0.0053
# 4 -0.0032 -0.0103 -0.0133 18.8782 0.0048 -0.6762
# 5 -14.7662 -3.9091 -1.9121 0.0048 31.8742 -0.0023
# 6 0.0019 0.0022 0.0053 -0.6762 -0.0023 19.8787
#
#
#
# Elastic Compliance Matrix: (Units=1/GPa)
#
#
# Indices 1 2 3 4 5 6 
#
# 1 0.009232 -0.001543 -0.005120 -0.000004 0.003781 0.000001
# 2 -0.001543 0.012411 -0.003124 0.000004 0.000620 0.000000
# 3 -0.005120 -0.003124 0.010578 0.000005 -0.002120 -0.000002
# 4 -0.000004 0.000004 0.000005 0.053036 -0.000009 0.001804
# 5 0.003781 0.000620 -0.002120 -0.000009 0.033074 0.000004
# 6 0.000001 0.000000 -0.000002 0.001804 0.000004 0.050366
#
#
# Mechanical properties :
#
#
# Convention : Reuss Voigt Hill
#
# Bulk Modulus (GPa) = 79.07344 90.73649 84.90496
# Shear Modulus (GPa) = 25.97587 29.91435 27.94511
#
# Velocity S-wave (km/s) = 3.65695 3.92440 3.79303
# Velocity P-wave (km/s) = 7.65119 8.20054 7.93062
#
# Compressibility (1/GPa) = 0.01264647
#
# Stress axis : x y z
#
# Youngs Moduli (GPa) = 108.31756 80.57399 94.53900
#
# Poissons Ratio (x) = 0.12434 0.48401
# Poissons Ratio (y) = 0.16715 0.29536
# Poissons Ratio (z) = 0.55455 0.25173
#
# Static dielectric constant tensor:
#      x y z
#    x 1.662120 0.000000 0.004010 
#    y 0.000000 1.715760 0.000000 
#    z 0.004010 0.000000 1.655300 
# 
# From -- ./inp_files/295388.got.cif
#   From: 2010.05.17/outbox.cif.g08.bks.cpg/sg12_148_cif.got.tgz:295388.got - 2010.06.03 13:09:07.
