data_PCOD9189274
_publ_section_title
;
Structure prediction by ZEFSAII (Michael W. Deem and Ramdas Pophale) SiO2 
 PCOD9189274
Probable space group: C 2/M
;
_chemical_formula_sum "Si O2"
_cell_formula_units_Z 58
_cell_length_a 14.427685
_cell_length_b 9.187507
_cell_length_c 24.435053
_cell_angle_alpha 90.000000
_cell_angle_beta 115.062166
_cell_angle_gamma 90.000000
_cell_volume 2934.021496
_symmetry_space_group_name_H-M "C 2/M"
_symmetry_group_IT_number 12
_symmetry_cell_setting 'monoclinic'
loop_
_space_group_symop_operation_xyz
x,y,z
-x,y,-z
-x,-y,-z
x,-y,z
1/2+x,1/2+y,z
1/2-x,1/2+y,-z
1/2-x,1/2-y,-z
1/2+x,1/2-y,z
loop_
_atom_site_type_symbol
_atom_site_label
_atom_site_fract_x
_atom_site_fract_y
_atom_site_fract_z
Si Si1 0.228533 0.676128 0.936641
Si Si2 0.886930 0.836804 0.357831
Si Si3 0.265600 0.163001 0.590212
Si Si4 0.103316 0.674852 0.748955
Si Si5 0.804271 0.677094 0.849125
Si Si6 0.500000 0.000000 0.500000
Si Si7 0.092504 0.222843 0.461460
Si Si8 0.003858 0.325425 0.832562
O O1 0.241010 0.500000 0.940737
O O2 0.298798 0.751066 0.907858
O O3 0.111209 0.708504 0.889177
O O4 0.250000 0.750000 0.000000
O O5 0.789519 0.783404 0.368485
O O6 0.916102 0.728272 0.316935
O O7 0.983353 0.847129 0.422407
O O8 0.864578 0.000000 0.331370
O O9 0.175075 0.153663 0.522499
O O10 0.351169 0.258661 0.582828
O O11 0.305247 0.000000 0.610675
O O12 0.116217 0.500000 0.754727
O O13 0.206371 0.756635 0.793602
O O14 0.017816 0.718404 0.772584
O O15 0.799495 0.500000 0.851113
O O16 0.905327 0.724867 0.841202
O O17 0.563724 0.874796 0.482179
O O18 0.995768 0.500000 0.830036
#
# Coordination Sequence:
#
# PCOD9189274 Si02
#       8
#     8   8   8   8   8   2   8   8
#     4  10  20  36  56  86 122 155 192 230 276 326
#     4  11  23  39  56  80 111 145 181 225 275 332
#     4  10  21  37  56  78 108 143 177 219 279 339
#     4  10  22  39  59  81 110 146 186 233 279 328
#     4  10  19  37  61  83 109 147 190 232 279 329
#     4  12  20  36  58  84 106 140 182 228 276 328
#     4  11  22  36  57  82 108 140 180 226 274 335
#     4   8  18  37  59  80 109 151 189 225 276 335
#
# _framework density 19.768087999999999
#
# number of rings (size 3 to 8) (size 9 to 14) (size 15 to 20)
#    0.000    1.931    2.069    2.483    0.966    2.759 
#    0.000   15.172    0.000    0.000    0.000    0.000 
#    0.000    0.000    0.000    0.000    0.000    0.000 
#
# Total GULP energy -161462.397382 kJ/mol
# GULP energy per Si atom -5567.668875 kJ/mol
# Density = 1.972310 g / cm^3
# Si number density = 19.768088 Si / 1000 Ang^3
#
#
#
# Elastic Constant Matrix: (Units=GPa)
#
#
# Indices 1 2 3 4 5 6 
#
# 1 127.0763 26.2673 22.2544 0.0000 -40.2861 0.0000
# 2 26.2673 93.1263 20.0677 0.0000 -12.5072 0.0000
# 3 22.2544 20.0677 53.7617 0.0000 -22.5691 0.0000
# 4 0.0000 0.0000 0.0000 28.9099 0.0000 -14.6164
# 5 -40.2861 -12.5072 -22.5691 0.0000 24.3870 0.0000
# 6 0.0000 0.0000 0.0000 -14.6164 0.0000 13.7151
#
#
#
# Elastic Compliance Matrix: (Units=1/GPa)
#
#
# Indices 1 2 3 4 5 6 
#
# 1 0.019015 -0.002135 0.009244 0.000000 0.038872 0.000000
# 2 -0.002135 0.012071 -0.004094 0.000000 -0.001125 0.000000
# 3 0.009244 -0.004094 0.035702 0.000000 0.046212 0.000000
# 4 0.000000 0.000000 0.000000 0.075002 0.000000 0.079931
# 5 0.038872 -0.001125 0.046212 0.000000 0.147411 0.000000
# 6 0.000000 0.000000 0.000000 0.079931 0.000000 0.158096
#
#
# Mechanical properties :
#
#
# Convention : Reuss Voigt Hill
#
# Bulk Modulus (GPa) = 13.73276 45.68257 29.70766
# Shear Modulus (GPa) = 10.74023 27.09406 18.91714
#
# Velocity S-wave (km/s) = 2.33343 3.70617 3.09682
# Velocity P-wave (km/s) = 3.77119 6.44001 5.27710
#
# Compressibility (1/GPa) = 0.07281859
#
# Stress axis : x y z
#
# Youngs Moduli (GPa) = 52.58999 82.83986 28.00961
#
# Poissons Ratio (x) = 0.17684 -0.25893
# Poissons Ratio (y) = 0.11227 0.11468
# Poissons Ratio (z) = -0.48615 0.33918
#
# Static dielectric constant tensor:
#      x y z
#    x 1.704590 0.000000 -0.006530 
#    y 0.000000 1.690460 0.000000 
#    z -0.006530 0.000000 1.735140 
# 
# From -- ./inp_files/338085.got.cif
#   From: 2010.05.17/outbox.cif.g08.bks.cpg/sg12_170_cif.got.tgz:338085.got - 2010.06.03 13:09:07.
