data_PCOD9189148
_publ_section_title
;
Structure prediction by ZEFSAII (Michael W. Deem and Ramdas Pophale) SiO2 
 PCOD9189148
Probable space group: C 2/M
;
_chemical_formula_sum "Si O2"
_cell_formula_units_Z 36
_cell_length_a 17.346112
_cell_length_b 17.766763
_cell_length_c 15.935422
_cell_angle_alpha 90.000000
_cell_angle_beta 25.597331
_cell_angle_gamma 90.000000
_cell_volume 2121.786782
_symmetry_space_group_name_H-M "C 2/M"
_symmetry_group_IT_number 12
_symmetry_cell_setting 'monoclinic'
loop_
_space_group_symop_operation_xyz
x,y,z
-x,y,-z
-x,-y,-z
x,-y,z
1/2+x,1/2+y,z
1/2-x,1/2+y,-z
1/2-x,1/2-y,-z
1/2+x,1/2-y,z
loop_
_atom_site_type_symbol
_atom_site_label
_atom_site_fract_x
_atom_site_fract_y
_atom_site_fract_z
Si Si1 0.149425 0.211249 0.782666
Si Si2 0.509332 0.813632 0.209572
Si Si3 0.294399 0.411695 0.409066
Si Si4 0.910310 0.837254 0.769233
Si Si5 0.500000 0.705770 0.500000
O O1 0.181696 0.134460 0.700459
O O2 0.329489 0.242952 0.646277
O O3 0.080078 0.271529 0.781755
O O4 0.000000 0.202296 0.000000
O O5 0.375711 0.875125 0.377316
O O6 0.539281 0.747650 0.249143
O O7 0.701575 0.845507 0.994621
O O8 0.275143 0.500000 0.415732
O O9 0.466059 0.392165 0.298010
O O10 0.952939 0.841613 0.629146
#
# Coordination Sequence:
#
# PCOD9189148 Si02
#       5
#     8   8   8   8   4
#     4  11  21  35  61  89 111 146 194 243 281 322
#     4  10  19  37  58  84 109 149 201 236 274 328
#     4  11  23  39  55  82 127 158 178 221 291 361
#     4  10  20  34  62  85 104 148 201 241 274 323
#     4  12  18  34  62  88 110 132 196 254 278 312
#
# _framework density 16.966832
#
# number of rings (size 3 to 8) (size 9 to 14) (size 15 to 20)
#    0.000    1.333    6.667    1.333    0.000    1.333 
#    0.000    1.111    0.000    2.000    0.000    0.000 
#    0.000    0.000    0.000    0.000    0.000    0.000 
#
# Total GULP energy -100526.916439 kJ/mol
# GULP energy per Si atom -5584.828691 kJ/mol
# Density = 1.692821 g / cm^3
# Si number density = 16.966832 Si / 1000 Ang^3
#
#
#
# Elastic Constant Matrix: (Units=GPa)
#
#
# Indices 1 2 3 4 5 6 
#
# 1 55.8473 -6.4304 24.5221 0.0074 -0.1616 -0.0004
# 2 -6.4304 58.8473 33.4239 -0.0065 -3.4953 0.0085
# 3 24.5221 33.4239 126.4958 0.0106 -5.7420 0.0000
# 4 0.0074 -0.0065 0.0106 1.0591 0.0013 0.5119
# 5 -0.1616 -3.4953 -5.7420 0.0013 40.2352 -0.0005
# 6 -0.0004 0.0085 0.0000 0.5119 -0.0005 6.8065
#
#
#
# Elastic Compliance Matrix: (Units=1/GPa)
#
#
# Indices 1 2 3 4 5 6 
#
# 1 0.020940 0.005396 -0.005495 -0.000057 -0.000231 -0.000001
# 2 0.005396 0.021423 -0.006664 0.000179 0.000932 -0.000040
# 3 -0.005495 -0.006664 0.010774 -0.000120 0.000937 0.000017
# 4 -0.000057 0.000179 -0.000120 0.979851 -0.000033 -0.073694
# 5 -0.000231 0.000932 0.000937 -0.000033 0.025068 0.000003
# 6 -0.000001 -0.000040 0.000017 -0.073694 0.000003 0.152460
#
#
# Mechanical properties :
#
#
# Convention : Reuss Voigt Hill
#
# Bulk Modulus (GPa) = 25.24698 38.24685 31.74692
# Shear Modulus (GPa) = 4.04123 22.26514 13.15318
#
# Velocity S-wave (km/s) = 1.54500 3.62646 2.78731
# Velocity P-wave (km/s) = 4.25384 6.33451 5.39543
#
# Compressibility (1/GPa) = 0.03960870
#
# Stress axis : x y z
#
# Youngs Moduli (GPa) = 47.75637 46.67818 92.81442
#
# Poissons Ratio (x) = -0.25186 0.51006
# Poissons Ratio (y) = -0.25768 0.61855
# Poissons Ratio (z) = 0.26244 0.31108
#
# Static dielectric constant tensor:
#      x y z
#    x 1.575500 0.000000 -0.001780 
#    y 0.000000 1.527640 0.000000 
#    z -0.001780 0.000000 1.576700 
# 
# From -- ./inp_files/72232.got.cif
#   From: 2010.05.17/outbox.cif.g08.bks.cpg/sg12_37_cif.got.tgz:72232.got - 2010.06.03 13:09:07.
