data_PCOD9189866
_publ_section_title
;
Structure prediction by ZEFSAII (Michael W. Deem and Ramdas Pophale) SiO2 
 PCOD9189866
Probable space group: C 2/M
;
_chemical_formula_sum "Si O2"
_cell_formula_units_Z 56
_cell_length_a 21.544052
_cell_length_b 20.666122
_cell_length_c 19.274171
_cell_angle_alpha 90.000000
_cell_angle_beta 160.988863
_cell_angle_gamma 90.000000
_cell_volume 2795.433017
_symmetry_space_group_name_H-M "C 2/M"
_symmetry_group_IT_number 12
_symmetry_cell_setting 'monoclinic'
loop_
_space_group_symop_operation_xyz
x,y,z
-x,y,-z
-x,-y,-z
x,-y,z
1/2+x,1/2+y,z
1/2-x,1/2+y,-z
1/2-x,1/2-y,-z
1/2+x,1/2-y,z
loop_
_atom_site_type_symbol
_atom_site_label
_atom_site_fract_x
_atom_site_fract_y
_atom_site_fract_z
Si Si1 0.478470 0.422331 0.054573
Si Si2 0.785090 0.287131 0.780381
Si Si3 0.662071 0.429386 0.612473
Si Si4 0.795248 0.575427 0.498333
Si Si5 0.198466 0.383059 0.872329
Si Si6 0.960955 0.877735 0.660760
Si Si7 0.443598 0.745466 0.325666
O O1 0.486431 0.500000 0.059662
O O2 0.656264 0.401746 0.289768
O O3 0.500000 0.396396 0.000000
O O4 0.285165 0.404793 0.890233
O O5 0.774718 0.362563 0.744921
O O6 0.706960 0.281115 0.776291
O O7 0.637629 0.247903 0.575831
O O8 0.000000 0.264385 0.000000
O O9 0.500000 0.428889 0.500000
O O10 0.759850 0.500000 0.718922
O O11 0.564630 0.421550 0.434271
O O12 0.752779 0.500000 0.468745
O O13 0.732613 0.616053 0.499293
O O14 0.010248 0.581906 0.700506
O O15 0.137655 0.308965 0.796144
O O16 0.366686 0.395111 0.105529
O O17 0.007537 0.807268 0.680540
#
# Coordination Sequence:
#
# PCOD9189866 Si02
#       7
#     8   8   8   8   8   8   8
#     4   9  20  39  60  84 116 151 192 246 303 356
#     4  10  21  39  62  87 128 159 200 257 303 354
#     4  10  19  38  65  91 121 156 198 251 304 360
#     4  10  22  38  57  87 118 150 197 247 297 360
#     4  11  23  37  63  85 118 160 202 244 300 364
#     4  10  21  40  59  84 124 158 195 245 302 357
#     4  10  22  40  56  89 119 159 205 248 296 357
#
# _framework density 20.032674
#
# number of rings (size 3 to 8) (size 9 to 14) (size 15 to 20)
#    0.000    2.000    2.857    1.286    0.000   10.571 
#    0.000    2.143    0.000    0.000    0.000    0.000 
#    0.000    0.000    0.000    0.000    0.000    0.000 
#
# Total GULP energy -156226.476060 kJ/mol
# GULP energy per Si atom -5579.517002 kJ/mol
# Density = 1.998708 g / cm^3
# Si number density = 20.032674 Si / 1000 Ang^3
#
#
#
# Elastic Constant Matrix: (Units=GPa)
#
#
# Indices 1 2 3 4 5 6 
#
# 1 159.3087 13.1045 56.3986 -0.0023 1.3686 -0.0093
# 2 13.1045 45.6964 3.0356 -0.0013 -10.5382 0.0006
# 3 56.3986 3.0356 77.2260 -0.0008 24.0722 -0.0204
# 4 -0.0023 -0.0013 -0.0008 2.1065 -0.0005 -5.9274
# 5 1.3686 -10.5382 24.0722 -0.0005 26.9046 -0.0205
# 6 -0.0093 0.0006 -0.0204 -5.9274 -0.0205 -7.3072
#
#
#
# Elastic Compliance Matrix: (Units=1/GPa)
#
#
# Indices 1 2 3 4 5 6 
#
# 1 0.009567 -0.000319 -0.009407 -0.000004 0.007805 -0.000004
# 2 -0.000319 0.025798 -0.005459 -0.000016 0.015005 -0.000012
# 3 -0.009407 -0.005459 0.028499 0.000004 -0.027159 0.000005
# 4 -0.000004 -0.000016 0.000004 0.144620 -0.000097 -0.117312
# 5 0.007805 0.015005 -0.027159 -0.000097 0.066948 -0.000042
# 6 -0.000004 -0.000012 0.000005 -0.117312 -0.000042 -0.041691
#
#
# Mechanical properties :
#
#
# Convention : Reuss Voigt Hill
#
# Bulk Modulus (GPa) = 29.85499 47.47874 38.66687
# Shear Modulus (GPa) = 18.16372 18.32027 18.24199
#
# Velocity S-wave (km/s) = 3.01442 3.02738 3.02091
# Velocity P-wave (km/s) = 5.20107 5.99768 5.61352
#
# Compressibility (1/GPa) = 0.03349524
#
# Stress axis : x y z
#
# Youngs Moduli (GPa) = 104.53097 38.76296 35.08870
#
# Poissons Ratio (x) = 0.01235 0.33008
# Poissons Ratio (y) = 0.03330 0.19154
# Poissons Ratio (z) = 0.98332 0.21159
#
# Static dielectric constant tensor:
#      x y z
#    x 1.699380 0.000000 -0.012870 
#    y 0.000000 1.731570 0.000000 
#    z -0.012870 0.000000 1.694850 
# 
# From -- ./inp_files/286066.got.cif
#   From: 2010.05.17/outbox.cif.g08.bks.cpg/sg12_144_cif.got.tgz:286066.got - 2010.06.03 13:09:07.
