data_PCOD9189278
_publ_section_title
;
Structure prediction by ZEFSAII (Michael W. Deem and Ramdas Pophale) SiO2 
 PCOD9189278
Probable space group: C 2/M
;
_chemical_formula_sum "Si O2"
_cell_formula_units_Z 24
_cell_length_a 35.667030
_cell_length_b 5.232609
_cell_length_c 8.973222
_cell_angle_alpha 90.000000
_cell_angle_beta 125.574761
_cell_angle_gamma 90.000000
_cell_volume 1362.118560
_symmetry_space_group_name_H-M "C 2/M"
_symmetry_group_IT_number 12
_symmetry_cell_setting 'monoclinic'
loop_
_space_group_symop_operation_xyz
x,y,z
-x,y,-z
-x,-y,-z
x,-y,z
1/2+x,1/2+y,z
1/2-x,1/2+y,-z
1/2-x,1/2-y,-z
1/2+x,1/2-y,z
loop_
_atom_site_type_symbol
_atom_site_label
_atom_site_fract_x
_atom_site_fract_y
_atom_site_fract_z
Si Si1 0.269553 0.500000 0.463179
Si Si2 0.638041 0.500000 0.171891
Si Si3 0.530903 0.000000 0.719072
Si Si4 0.732241 0.000000 0.042075
Si Si5 0.030595 0.000000 0.922622
Si Si6 0.861432 0.500000 0.029592
O O1 0.250000 0.250000 0.500000
O O2 0.324717 0.500000 0.611014
O O3 0.252674 0.500000 0.255642
O O4 0.584588 0.500000 0.093528
O O5 0.645972 0.250446 0.088725
O O6 0.500000 0.000000 0.500000
O O7 0.522608 0.249984 0.801936
O O8 0.585104 0.000000 0.799592
O O9 0.676853 0.000000 0.931049
O O10 0.750000 0.750000 0.000000
O O11 0.000000 0.000000 0.000000
#
# Coordination Sequence:
#
# PCOD9189278 Si02
#       6
#     4   4   4   4   4   4
#     4  12  21  38  63  81 109 152 199 226 263 354
#     4  10  19  37  61  84 105 153 196 223 272 341
#     4  10  21  39  62  84 111 154 192 223 279 352
#     4  12  24  38  55  86 121 144 182 242 292 315
#     4  10  21  38  61  86 118 142 183 246 286 319
#     4  10  20  38  60  79 114 153 188 226 279 342
#
# _framework density 17.619612
#
# number of rings (size 3 to 8) (size 9 to 14) (size 15 to 20)
#    0.000    1.333    3.333    3.000    0.000    0.000 
#    6.000    0.000    0.000    0.000    0.000    0.000 
#    0.000    0.000    0.000    0.000    0.000    0.000 
#
# Total GULP energy -67028.380319 kJ/mol
# GULP energy per Si atom -5585.698360 kJ/mol
# Density = 1.757951 g / cm^3
# Si number density = 17.619612 Si / 1000 Ang^3
#
#
#
# Elastic Constant Matrix: (Units=GPa)
#
#
# Indices 1 2 3 4 5 6 
#
# 1 166.5437 74.3413 65.6087 0.0000 -2.5714 0.0000
# 2 74.3413 180.3996 56.8301 0.0000 -10.7168 0.0000
# 3 65.6087 56.8301 151.7628 0.0000 4.0343 0.0000
# 4 0.0000 0.0000 0.0000 25.0672 0.0000 4.7234
# 5 -2.5714 -10.7168 4.0343 0.0000 26.0276 0.0000
# 6 0.0000 0.0000 0.0000 4.7234 0.0000 42.2075
#
#
#
# Elastic Compliance Matrix: (Units=1/GPa)
#
#
# Indices 1 2 3 4 5 6 
#
# 1 0.008157 -0.002539 -0.002580 0.000000 0.000160 0.000000
# 2 -0.002539 0.007311 -0.001721 0.000000 0.003026 0.000000
# 3 -0.002580 -0.001721 0.008409 0.000000 -0.002267 0.000000
# 4 0.000000 0.000000 0.000000 0.040752 0.000000 -0.004561
# 5 0.000160 0.003026 -0.002267 0.000000 0.040034 0.000000
# 6 0.000000 0.000000 0.000000 -0.004561 0.000000 0.024203
#
#
# Mechanical properties :
#
#
# Convention : Reuss Voigt Hill
#
# Bulk Modulus (GPa) = 98.05607 99.14067 98.59837
# Shear Modulus (GPa) = 34.25973 38.78887 36.52430
#
# Velocity S-wave (km/s) = 4.41433 4.69706 4.55789
# Velocity P-wave (km/s) = 9.04180 9.26315 9.15314
#
# Compressibility (1/GPa) = 0.01019825
#
# Stress axis : x y z
#
# Youngs Moduli (GPa) = 122.60156 136.77250 118.92013
#
# Poissons Ratio (x) = 0.34728 0.30677
# Poissons Ratio (y) = 0.31130 0.20462
# Poissons Ratio (z) = 0.31626 0.23534
#
# Static dielectric constant tensor:
#      x y z
#    x 1.592640 0.000000 0.038860 
#    y 0.000000 1.590000 0.000000 
#    z 0.038860 0.000000 1.576530 
# 
# From -- ./inp_files/107066.got.cif
#   From: 2010.05.17/outbox.cif.g08.bks.cpg/sg12_54_cif.got.tgz:107066.got - 2010.06.03 13:09:07.
