data_PCOD9189512
_publ_section_title
;
Structure prediction by ZEFSAII (Michael W. Deem and Ramdas Pophale) SiO2 
 PCOD9189512
Probable space group: C 2/M
;
_chemical_formula_sum "Si O2"
_cell_formula_units_Z 32
_cell_length_a 27.766292
_cell_length_b 12.331707
_cell_length_c 10.170567
_cell_angle_alpha 90.000000
_cell_angle_beta 154.052931
_cell_angle_gamma 90.000000
_cell_volume 1523.718156
_symmetry_space_group_name_H-M "C 2/M"
_symmetry_group_IT_number 12
_symmetry_cell_setting 'monoclinic'
loop_
_space_group_symop_operation_xyz
x,y,z
-x,y,-z
-x,-y,-z
x,-y,z
1/2+x,1/2+y,z
1/2-x,1/2+y,-z
1/2-x,1/2-y,-z
1/2+x,1/2-y,z
loop_
_atom_site_type_symbol
_atom_site_label
_atom_site_fract_x
_atom_site_fract_y
_atom_site_fract_z
Si Si1 0.510771 0.626873 0.173812
Si Si2 0.248382 0.876139 0.830961
Si Si3 0.401163 0.000000 0.365600
Si Si4 0.390821 0.000000 0.643092
Si Si5 0.780730 0.191764 0.711669
O O1 0.525722 0.500000 0.189433
O O2 0.620520 0.657625 0.522876
O O3 0.500000 0.677745 0.000000
O O4 0.399127 0.640341 0.977672
O O5 0.297529 0.785913 0.858963
O O6 0.254382 0.000000 0.786329
O O7 0.320698 0.897129 0.137727
O O8 0.500000 0.000000 0.500000
O O9 0.431419 0.000000 0.591429
O O10 0.312250 0.895843 0.478277
O O11 0.500000 0.000000 0.000000
O O12 0.750000 0.250000 0.500000
#
# Coordination Sequence:
#
# PCOD9189512 Si02
#       5
#     8   8   4   4   8
#     4  10  19  37  64  99 141 183 232 289 350 422
#     4   9  23  44  70  98 141 193 240 282 373 423
#     4  10  26  51  76 101 149 196 238 312 375 438
#     4  12  32  47  74 109 145 188 258 300 373 444
#     4  12  25  41  72 110 149 184 243 305 357 430
#
# _framework density 21.001259999999998
#
# number of rings (size 3 to 8) (size 9 to 14) (size 15 to 20)
#    0.750    0.750    3.750    0.000    8.750    1.000 
#    0.000    2.500    0.000    0.000    0.000    0.000 
#    0.000    0.000    0.000    0.000    0.000    0.000 
#
# Total GULP energy -89148.939999 kJ/mol
# GULP energy per Si atom -5571.808750 kJ/mol
# Density = 2.095346 g / cm^3
# Si number density = 21.001260 Si / 1000 Ang^3
#
#
#
# Elastic Constant Matrix: (Units=GPa)
#
#
# Indices 1 2 3 4 5 6 
#
# 1 105.5455 13.4059 67.0427 0.0000 0.9135 0.0000
# 2 13.4059 61.4644 16.5080 0.0000 -18.5479 0.0000
# 3 67.0427 16.5080 153.1549 0.0000 -2.9757 0.0000
# 4 0.0000 0.0000 0.0000 15.4852 0.0000 0.6759
# 5 0.9135 -18.5479 -2.9757 0.0000 36.1122 0.0000
# 6 0.0000 0.0000 0.0000 0.6759 0.0000 37.6029
#
#
#
# Elastic Compliance Matrix: (Units=1/GPa)
#
#
# Indices 1 2 3 4 5 6 
#
# 1 0.013332 -0.001928 -0.005663 0.000000 -0.001794 0.000000
# 2 -0.001928 0.020093 -0.001122 0.000000 0.010276 0.000000
# 3 -0.005663 -0.001122 0.009135 0.000000 0.000320 0.000000
# 4 0.000000 0.000000 0.000000 0.064628 0.000000 -0.001162
# 5 -0.001794 0.010276 0.000320 0.000000 0.033041 0.000000
# 6 0.000000 0.000000 0.000000 -0.001162 0.000000 0.026615
#
#
# Mechanical properties :
#
#
# Convention : Reuss Voigt Hill
#
# Bulk Modulus (GPa) = 39.78759 57.11976 48.45367
# Shear Modulus (GPa) = 25.95392 32.72062 29.33727
#
# Velocity S-wave (km/s) = 3.51925 3.95147 3.74161
# Velocity P-wave (km/s) = 5.95818 6.93370 6.46437
#
# Compressibility (1/GPa) = 0.02513346
#
# Stress axis : x y z
#
# Youngs Moduli (GPa) = 75.00582 49.76980 109.46315
#
# Poissons Ratio (x) = 0.09597 0.61991
# Poissons Ratio (y) = 0.14464 0.12281
# Poissons Ratio (z) = 0.42477 0.05584
#
# Static dielectric constant tensor:
#      x y z
#    x 1.743550 0.000000 -0.001590 
#    y 0.000000 1.746660 0.000000 
#    z -0.001590 0.000000 1.819740 
# 
# From -- ./inp_files/110618.got.cif
#   From: 2010.05.17/outbox.cif.g08.bks.cpg/sg12_56_cif.got.tgz:110618.got - 2010.06.03 13:09:07.
