data_PCOD9189267
_publ_section_title
;
Structure prediction by ZEFSAII (Michael W. Deem and Ramdas Pophale) SiO2 
 PCOD9189267
Probable space group: C 2/M
;
_chemical_formula_sum "Si O2"
_cell_formula_units_Z 48
_cell_length_a 15.499202
_cell_length_b 8.655149
_cell_length_c 26.608647
_cell_angle_alpha 90.000000
_cell_angle_beta 134.349873
_cell_angle_gamma 90.000000
_cell_volume 2552.490068
_symmetry_space_group_name_H-M "C 2/M"
_symmetry_group_IT_number 12
_symmetry_cell_setting 'monoclinic'
loop_
_space_group_symop_operation_xyz
x,y,z
-x,y,-z
-x,-y,-z
x,-y,z
1/2+x,1/2+y,z
1/2-x,1/2+y,-z
1/2-x,1/2-y,-z
1/2+x,1/2-y,z
loop_
_atom_site_type_symbol
_atom_site_label
_atom_site_fract_x
_atom_site_fract_y
_atom_site_fract_z
Si Si1 0.412685 0.811977 0.822833
Si Si2 0.687575 0.685348 0.664753
Si Si3 0.687719 0.814597 0.924307
Si Si4 0.723270 0.184701 0.569105
Si Si5 0.626276 0.186448 0.078304
Si Si6 0.563585 0.184983 0.406951
O O1 0.310316 0.762256 0.742223
O O2 0.548517 0.761799 0.865550
O O3 0.379756 0.764817 0.866164
O O4 0.413748 0.000000 0.822950
O O5 0.682719 0.500000 0.663650
O O6 0.688105 0.742755 0.607725
O O7 0.571043 0.751270 0.645717
O O8 0.764600 0.758530 0.908252
O O9 0.689043 0.000000 0.927522
O O10 0.750000 0.750000 0.000000
O O11 0.628744 0.226491 0.486436
O O12 0.852681 0.244277 0.602346
O O13 0.724252 0.000000 0.573916
O O14 0.636499 0.000000 0.080477
O O15 0.500000 0.227799 0.000000
O O16 0.563524 0.000000 0.402516
#
# Coordination Sequence:
#
# PCOD9189267 Si02
#       6
#     8   8   8   8   8   8
#     4   9  21  39  56  80 116 153 186 228 287 341
#     4  11  22  37  58  84 119 156 191 234 287 345
#     4  11  21  37  59  84 111 142 185 233 281 335
#     4  10  21  38  60  86 116 152 195 239 283 337
#     4  10  19  37  61  81 108 146 183 228 283 336
#     4  10  21  38  60  86 116 151 194 241 286 335
#
# _framework density 18.805167000000001
#
# number of rings (size 3 to 8) (size 9 to 14) (size 15 to 20)
#    0.000    1.833    1.667    2.500    0.000    5.667 
#    0.000    8.333    0.000    0.000    0.000    0.000 
#    0.000    0.000    0.000    0.000    0.000    0.000 
#
# Total GULP energy -134090.914582 kJ/mol
# GULP energy per Si atom -5587.121441 kJ/mol
# Density = 1.876237 g / cm^3
# Si number density = 18.805167 Si / 1000 Ang^3
#
#
#
# Elastic Constant Matrix: (Units=GPa)
#
#
# Indices 1 2 3 4 5 6 
#
# 1 103.0459 13.6387 20.2368 0.0000 30.1069 0.0000
# 2 13.6387 24.2077 13.8278 0.0000 8.3962 0.0000
# 3 20.2368 13.8278 48.9082 0.0000 30.1217 0.0000
# 4 0.0000 0.0000 0.0000 17.4605 0.0000 3.5705
# 5 30.1069 8.3962 30.1217 0.0000 34.2972 0.0000
# 6 0.0000 0.0000 0.0000 3.5705 0.0000 39.1269
#
#
#
# Elastic Compliance Matrix: (Units=1/GPa)
#
#
# Indices 1 2 3 4 5 6 
#
# 1 0.013945 -0.005532 0.005444 0.000000 -0.015668 0.000000
# 2 -0.005532 0.051462 -0.016320 0.000000 0.006591 0.000000
# 3 0.005444 -0.016320 0.050731 0.000000 -0.045338 0.000000
# 4 0.000000 0.000000 0.000000 0.058361 0.000000 -0.005326
# 5 -0.015668 0.006591 -0.045338 0.000000 0.081115 0.000000
# 6 0.000000 0.000000 0.000000 -0.005326 0.000000 0.026044
#
#
# Mechanical properties :
#
#
# Convention : Reuss Voigt Hill
#
# Bulk Modulus (GPa) = 12.00178 30.17429 21.08804
# Shear Modulus (GPa) = 14.60919 26.74082 20.67501
#
# Velocity S-wave (km/s) = 2.79026 3.77502 3.31937
# Velocity P-wave (km/s) = 4.09595 5.92298 5.09207
#
# Compressibility (1/GPa) = 0.08332095
#
# Stress axis : x y z
#
# Youngs Moduli (GPa) = 71.70885 19.43173 19.71173
#
# Poissons Ratio (x) = 0.10750 -0.10730
# Poissons Ratio (y) = 0.39669 0.32170
# Poissons Ratio (z) = -0.39035 0.31713
#
# Static dielectric constant tensor:
#      x y z
#    x 1.621550 0.000000 0.007340 
#    y 0.000000 1.637130 0.000000 
#    z 0.007340 0.000000 1.644620 
# 
# From -- ./inp_files/360227.got.cif
#   From: 2010.05.17/outbox.cif.g08.bks.cpg/sg12_181_cif.got.tgz:360227.got - 2010.06.03 13:09:07.
