data_PCOD9189570
_publ_section_title
;
Structure prediction by ZEFSAII (Michael W. Deem and Ramdas Pophale) SiO2 
 PCOD9189570
Probable space group: C 2/M
;
_chemical_formula_sum "Si O2"
_cell_formula_units_Z 64
_cell_length_a 25.980551
_cell_length_b 15.619706
_cell_length_c 20.365942
_cell_angle_alpha 90.000000
_cell_angle_beta 159.898710
_cell_angle_gamma 90.000000
_cell_volume 2840.410005
_symmetry_space_group_name_H-M "C 2/M"
_symmetry_group_IT_number 12
_symmetry_cell_setting 'monoclinic'
loop_
_space_group_symop_operation_xyz
x,y,z
-x,y,-z
-x,-y,-z
x,-y,z
1/2+x,1/2+y,z
1/2-x,1/2+y,-z
1/2-x,1/2-y,-z
1/2+x,1/2-y,z
loop_
_atom_site_type_symbol
_atom_site_label
_atom_site_fract_x
_atom_site_fract_y
_atom_site_fract_z
Si Si1 0.125693 0.594936 0.795947
Si Si2 0.998182 0.595681 0.068690
Si Si3 0.548319 0.353845 0.838562
Si Si4 0.311054 0.338471 0.451245
Si Si5 0.267150 0.648934 0.591076
Si Si6 0.413144 0.224467 0.460917
Si Si7 0.051577 0.348848 0.849013
Si Si8 0.328886 0.596693 0.806926
O O1 0.064788 0.500000 0.708823
O O2 0.023664 0.668504 0.640510
O O3 0.132709 0.608950 0.883418
O O4 0.293246 0.601339 0.968691
O O5 0.938990 0.500000 0.987802
O O6 0.175696 0.596780 0.294031
O O7 0.919419 0.629513 0.040178
O O8 0.000000 0.643432 0.000000
O O9 0.457399 0.371809 0.663037
O O10 0.425368 0.370797 0.747414
O O11 0.576049 0.252116 0.871452
O O12 0.251155 0.250601 0.415261
O O13 0.353680 0.304873 0.430517
O O14 0.122946 0.628321 0.374721
O O15 0.260360 0.600491 0.651624
O O16 0.500000 0.248463 0.500000
O O17 0.272128 0.163236 0.274621
O O18 0.327412 0.500000 0.831088
O O19 0.500000 0.624451 0.000000
#
# Coordination Sequence:
#
# PCOD9189570 Si02
#       8
#     8   8   8   8   8   8   8   8
#     4  12  26  40  60  95 134 170 207 256 317 376
#     4  11  24  40  65  99 127 156 202 268 334 379
#     4  11  21  39  66  94 124 160 216 262 307 369
#     4  10  20  43  65  90 121 158 212 264 312 374
#     4  10  19  37  67  93 114 157 217 260 311 359
#     4  11  25  42  63  89 124 174 216 252 306 376
#     4  11  20  43  69  88 122 168 211 263 311 377
#     4  10  22  38  57  88 130 166 206 259 310 367
#
# _framework density 22.531956999999998
#
# number of rings (size 3 to 8) (size 9 to 14) (size 15 to 20)
#    0.000    1.250    6.250    1.875    1.750    5.500 
#    0.000    0.000    0.000    0.375    0.000    0.000 
#    0.000    0.000    0.000    0.000    0.000    0.000 
#
# Total GULP energy -178784.638108 kJ/mol
# GULP energy per Si atom -5587.019941 kJ/mol
# Density = 2.248067 g / cm^3
# Si number density = 22.531957 Si / 1000 Ang^3
#
#
#
# Elastic Constant Matrix: (Units=GPa)
#
#
# Indices 1 2 3 4 5 6 
#
# 1 133.7059 -2.0944 11.8421 -0.0006 10.2940 -0.0004
# 2 -2.0944 23.6291 -5.2835 0.0007 3.8062 0.0007
# 3 11.8421 -5.2835 56.5903 -0.0002 15.4286 0.0003
# 4 -0.0006 0.0007 -0.0002 12.6490 0.0007 2.6968
# 5 10.2940 3.8062 15.4286 0.0007 42.8716 0.0011
# 6 -0.0004 0.0007 0.0003 2.6968 0.0011 1.4285
#
#
#
# Elastic Compliance Matrix: (Units=1/GPa)
#
#
# Indices 1 2 3 4 5 6 
#
# 1 0.007706 0.000669 -0.001141 -0.000001 -0.001499 0.000004
# 2 0.000669 0.044653 0.005714 0.000003 -0.006182 -0.000024
# 3 -0.001141 0.005714 0.020520 0.000001 -0.007618 -0.000004
# 4 -0.000001 0.000003 0.000001 0.132312 0.000003 -0.249781
# 5 -0.001499 -0.006182 -0.007618 0.000003 0.026976 -0.000022
# 6 0.000004 -0.000024 -0.000004 -0.249781 -0.000022 1.171559
#
#
# Mechanical properties :
#
#
# Convention : Reuss Voigt Hill
#
# Bulk Modulus (GPa) = 11.99557 24.76152 18.37854
# Shear Modulus (GPa) = 3.51857 25.35389 14.43623
#
# Velocity S-wave (km/s) = 1.25099 3.35810 2.53395
# Velocity P-wave (km/s) = 2.72434 5.10384 4.09091
#
# Compressibility (1/GPa) = 0.08336410
#
# Stress axis : x y z
#
# Youngs Moduli (GPa) = 129.76757 22.39466 48.73244
#
# Poissons Ratio (x) = -0.01499 0.05562
# Poissons Ratio (y) = -0.08685 -0.27847
# Poissons Ratio (z) = 0.14812 -0.12797
#
# Static dielectric constant tensor:
#      x y z
#    x 1.876400 0.000000 -0.044660 
#    y 0.000000 1.816770 0.000000 
#    z -0.044660 0.000000 1.861550 
# 
# From -- ./inp_files/328679.got.cif
#   From: 2010.05.17/outbox.cif.g08.bks.cpg/sg12_165_cif.got.tgz:328679.got - 2010.06.03 13:09:07.
