data_PCOD9189334
_publ_section_title
;
Structure prediction by ZEFSAII (Michael W. Deem and Ramdas Pophale) SiO2 
 PCOD9189334
Probable space group: C 2/M
;
_chemical_formula_sum "Si O2"
_cell_formula_units_Z 48
_cell_length_a 14.399122
_cell_length_b 18.073637
_cell_length_c 23.887164
_cell_angle_alpha 90.000000
_cell_angle_beta 159.403950
_cell_angle_gamma 90.000000
_cell_volume 2186.823545
_symmetry_space_group_name_H-M "C 2/M"
_symmetry_group_IT_number 12
_symmetry_cell_setting 'monoclinic'
loop_
_space_group_symop_operation_xyz
x,y,z
-x,y,-z
-x,-y,-z
x,-y,z
1/2+x,1/2+y,z
1/2-x,1/2+y,-z
1/2-x,1/2-y,-z
1/2+x,1/2-y,z
loop_
_atom_site_type_symbol
_atom_site_label
_atom_site_fract_x
_atom_site_fract_y
_atom_site_fract_z
Si Si1 0.648199 0.364470 0.670714
Si Si2 0.700869 0.411125 0.824399
Si Si3 0.651882 0.915305 0.890040
Si Si4 0.885465 0.913428 0.759132
Si Si5 0.602415 0.821842 0.343599
Si Si6 0.491863 0.795700 0.410997
O O1 0.603780 0.380539 0.710800
O O2 0.359433 0.375047 0.480591
O O3 0.698299 0.276393 0.692854
O O4 0.891785 0.407986 0.782642
O O5 0.708870 0.500000 0.823672
O O6 0.532575 0.395267 0.784328
O O7 0.000000 0.383653 0.000000
O O8 0.613827 0.854080 0.820071
O O9 0.666843 0.000000 0.876813
O O10 0.904097 0.902069 0.071745
O O11 0.634308 0.863641 0.629147
O O12 0.815937 0.000000 0.718831
O O13 0.523210 0.818570 0.363835
O O14 0.738679 0.741085 0.412715
#
# Coordination Sequence:
#
# PCOD9189334 Si02
#       6
#     8   8   8   8   8   8
#     4  10  20  38  62  93 122 171 209 267 313 376
#     4  10  19  37  61  89 127 165 210 262 315 379
#     4  11  22  38  65 100 129 160 210 265 330 382
#     4  10  22  41  67  97 128 166 212 271 323 377
#     4   9  22  43  59  89 126 174 202 262 322 375
#     4   9  22  44  59  90 126 167 217 256 318 387
#
# _framework density 21.949643999999999
#
# number of rings (size 3 to 8) (size 9 to 14) (size 15 to 20)
#    1.000    1.167    1.667    1.000    0.000    5.333 
#    6.000    1.667    0.000    2.000    0.000    0.000 
#    0.000    0.000    0.000    0.000    0.000    0.000 
#
# Total GULP energy -133972.142044 kJ/mol
# GULP energy per Si atom -5582.172585 kJ/mol
# Density = 2.189969 g / cm^3
# Si number density = 21.949644 Si / 1000 Ang^3
#
#
#
# Elastic Constant Matrix: (Units=GPa)
#
#
# Indices 1 2 3 4 5 6 
#
# 1 108.9445 68.8961 36.1232 -0.0845 -12.6924 -0.0912
# 2 68.8961 98.5593 50.2014 -0.0417 -7.0410 -0.0688
# 3 36.1232 50.2014 61.7661 -0.1313 -16.2988 -0.1467
# 4 -0.0845 -0.0417 -0.1313 31.1500 0.0214 7.0368
# 5 -12.6924 -7.0410 -16.2988 0.0214 34.2018 0.0270
# 6 -0.0912 -0.0688 -0.1467 7.0368 0.0270 60.5441
#
#
#
# Elastic Compliance Matrix: (Units=1/GPa)
#
#
# Indices 1 2 3 4 5 6 
#
# 1 0.016985 -0.012089 0.001028 0.000029 0.004304 0.000009
# 2 -0.012089 0.026313 -0.016095 -0.000057 -0.006739 -0.000018
# 3 0.001028 -0.016095 0.031910 0.000097 0.012275 0.000044
# 4 0.000029 -0.000057 0.000097 0.032969 0.000028 -0.003832
# 5 0.004304 -0.006739 0.012275 0.000028 0.035298 0.000010
# 6 0.000009 -0.000018 0.000044 -0.003832 0.000010 0.016962
#
#
# Mechanical properties :
#
#
# Convention : Reuss Voigt Hill
#
# Bulk Modulus (GPa) = 47.85635 64.41237 56.13436
# Shear Modulus (GPa) = 22.55169 32.78246 27.66707
#
# Velocity S-wave (km/s) = 3.20883 3.86881 3.55417
# Velocity P-wave (km/s) = 5.96481 7.02611 6.51710
#
# Compressibility (1/GPa) = 0.02089587
#
# Stress axis : x y z
#
# Youngs Moduli (GPa) = 58.87691 38.00359 31.33857
#
# Poissons Ratio (x) = 0.45942 -0.03222
# Poissons Ratio (y) = 0.71176 0.50439
# Poissons Ratio (z) = -0.06054 0.61167
#
# Static dielectric constant tensor:
#      x y z
#    x 1.806870 -0.000020 -0.020680 
#    y -0.000020 1.787430 -0.000010 
#    z -0.020680 -0.000010 1.832240 
# 
# From -- ./inp_files/341234.got.cif
#   From: 2010.05.17/outbox.cif.g08.bks.cpg/sg12_171_cif.got.tgz:341234.got - 2010.06.03 13:09:07.
