data_PCOD9189236
_publ_section_title
;
Structure prediction by ZEFSAII (Michael W. Deem and Ramdas Pophale) SiO2 
 PCOD9189236
Probable space group: C 2/M
;
_chemical_formula_sum "Si O2"
_cell_formula_units_Z 40
_cell_length_a 13.696924
_cell_length_b 8.117993
_cell_length_c 15.966902
_cell_angle_alpha 90.000000
_cell_angle_beta 71.203984
_cell_angle_gamma 90.000000
_cell_volume 1680.706026
_symmetry_space_group_name_H-M "C 2/M"
_symmetry_group_IT_number 12
_symmetry_cell_setting 'monoclinic'
loop_
_space_group_symop_operation_xyz
x,y,z
-x,y,-z
-x,-y,-z
x,-y,z
1/2+x,1/2+y,z
1/2-x,1/2+y,-z
1/2-x,1/2-y,-z
1/2+x,1/2-y,z
loop_
_atom_site_type_symbol
_atom_site_label
_atom_site_fract_x
_atom_site_fract_y
_atom_site_fract_z
Si Si1 0.526691 0.691742 0.400072
Si Si2 0.782197 0.199420 0.067658
Si Si3 0.538872 0.301305 0.069320
Si Si4 0.074703 0.683905 0.737402
Si Si5 0.222911 0.687586 0.265954
O O1 0.500000 0.753450 0.500000
O O2 0.496594 0.500000 0.403940
O O3 0.474167 0.788921 0.339126
O O4 0.646510 0.711557 0.344971
O O5 0.743312 0.263488 0.168425
O O6 0.920188 0.223909 0.047185
O O7 0.775756 0.000000 0.071073
O O8 0.829643 0.246358 0.957092
O O9 0.536934 0.500000 0.083763
O O10 0.503775 0.210759 0.164252
O O11 0.116975 0.500000 0.733102
O O12 0.165462 0.812667 0.723994
O O13 0.184490 0.500000 0.266993
#
# Coordination Sequence:
#
# PCOD9189236 Si02
#       5
#     8   8   8   8   8
#     4  11  26  48  71  96 127 166 216 276 338 395
#     4  10  21  35  56  86 123 167 210 257 311 371
#     4  10  19  37  60  85 124 171 213 255 308 367
#     4  12  25  41  66 100 135 175 220 266 324 390
#     4  11  23  43  68  96 130 171 219 269 326 389
#
# _framework density 23.799523000000001
#
# number of rings (size 3 to 8) (size 9 to 14) (size 15 to 20)
#    0.000    1.200    2.000    4.200    0.000    8.400 
#    0.000    0.000    0.000    0.000    0.000    0.000 
#    0.000    0.000    0.000    0.000    0.000    0.000 
#
# Total GULP energy -111658.831941 kJ/mol
# GULP energy per Si atom -5582.941597 kJ/mol
# Density = 2.374535 g / cm^3
# Si number density = 23.799523 Si / 1000 Ang^3
#
#
#
# Elastic Constant Matrix: (Units=GPa)
#
#
# Indices 1 2 3 4 5 6 
#
# 1 145.5319 12.3793 82.3571 0.0000 5.5491 0.0000
# 2 12.3793 61.8422 42.5803 0.0000 12.4444 0.0000
# 3 82.3571 42.5803 223.8734 0.0000 0.0439 0.0000
# 4 0.0000 0.0000 0.0000 12.5123 0.0000 -0.4425
# 5 5.5491 12.4444 0.0439 0.0000 34.0629 0.0000
# 6 0.0000 0.0000 0.0000 -0.4425 0.0000 43.9568
#
#
#
# Elastic Compliance Matrix: (Units=1/GPa)
#
#
# Indices 1 2 3 4 5 6 
#
# 1 0.008790 0.000948 -0.003414 0.000000 -0.001774 0.000000
# 2 0.000948 0.020426 -0.004232 0.000000 -0.007611 0.000000
# 3 -0.003414 -0.004232 0.006527 0.000000 0.002094 0.000000
# 4 0.000000 0.000000 0.000000 0.079950 0.000000 0.000805
# 5 -0.001774 -0.007611 0.002094 0.000000 0.032424 0.000000
# 6 0.000000 0.000000 0.000000 0.000805 0.000000 0.022758
#
#
# Mechanical properties :
#
#
# Convention : Reuss Voigt Hill
#
# Bulk Modulus (GPa) = 44.74814 78.43120 61.58967
# Shear Modulus (GPa) = 26.07963 37.70178 31.89070
#
# Velocity S-wave (km/s) = 3.31389 3.98444 3.66453
# Velocity P-wave (km/s) = 5.78666 7.36167 6.62116
#
# Compressibility (1/GPa) = 0.02234730
#
# Stress axis : x y z
#
# Youngs Moduli (GPa) = 113.76417 48.95712 153.20738
#
# Poissons Ratio (x) = -0.04640 0.52298
# Poissons Ratio (y) = -0.10782 0.64839
# Poissons Ratio (z) = 0.38834 0.20719
#
# Static dielectric constant tensor:
#      x y z
#    x 2.253430 0.000000 -0.001350 
#    y 0.000000 1.750690 0.000000 
#    z -0.001350 0.000000 1.836390 
# 
# From -- ./inp_files/211173.got.cif
#   From: 2010.05.17/outbox.cif.g08.bks.cpg/sg12_106_cif.got.tgz:211173.got - 2010.06.03 13:09:07.
