data_PCOD9189997
_publ_section_title
;
Structure prediction by ZEFSAII (Michael W. Deem and Ramdas Pophale) SiO2 
 PCOD9189997
Probable space group: C 2/M
;
_chemical_formula_sum "Si O2"
_cell_formula_units_Z 44
_cell_length_a 16.996246
_cell_length_b 16.628148
_cell_length_c 8.708064
_cell_angle_alpha 90.000000
_cell_angle_beta 76.910148
_cell_angle_gamma 90.000000
_cell_volume 2397.091630
_symmetry_space_group_name_H-M "C 2/M"
_symmetry_group_IT_number 12
_symmetry_cell_setting 'monoclinic'
loop_
_space_group_symop_operation_xyz
x,y,z
-x,y,-z
-x,-y,-z
x,-y,z
1/2+x,1/2+y,z
1/2-x,1/2+y,-z
1/2-x,1/2-y,-z
1/2+x,1/2-y,z
loop_
_atom_site_type_symbol
_atom_site_label
_atom_site_fract_x
_atom_site_fract_y
_atom_site_fract_z
Si Si1 0.000000 0.177364 0.500000
Si Si2 0.414041 0.254833 0.073389
Si Si3 0.091567 0.908712 0.733707
Si Si4 0.356355 0.750051 0.757416
Si Si5 0.213422 0.410433 0.361174
Si Si6 0.716622 0.814405 0.641645
O O1 0.946116 0.123632 0.408761
O O2 0.939308 0.230192 0.630971
O O3 0.431251 0.344060 0.128435
O O4 0.360899 0.215193 0.230937
O O5 0.500000 0.214412 0.000000
O O6 0.367019 0.256098 0.934063
O O7 0.189109 0.907472 0.689390
O O8 0.064911 0.000000 0.773453
O O9 0.324280 0.838460 0.722804
O O10 0.290524 0.684981 0.727830
O O11 0.186766 0.500000 0.329166
O O12 0.195899 0.390710 0.547562
O O13 0.750000 0.750000 0.500000
#
# Coordination Sequence:
#
# PCOD9189997 Si02
#       6
#     4   8   8   8   8   8
#     4  12  21  40  61  92 118 170 200 246 289 368
#     4  12  23  38  61  93 122 160 199 252 301 358
#     4  11  22  39  60  92 128 158 194 248 307 361
#     4  11  22  36  65  87 121 160 211 240 298 359
#     4  10  21  40  65  89 117 159 207 254 297 352
#     4  10  19  39  62  85 115 160 206 240 288 363
#
# _framework density 18.355577
#
# number of rings (size 3 to 8) (size 9 to 14) (size 15 to 20)
#    0.000    1.091    7.273    1.909    0.000    0.364 
#    0.000    2.273    0.000    1.091    0.000    0.000 
#    0.000    0.000    0.000    0.000    0.000    0.000 
#
# Total GULP energy -122698.573037 kJ/mol
# GULP energy per Si atom -5577.207865 kJ/mol
# Density = 1.831380 g / cm^3
# Si number density = 18.355577 Si / 1000 Ang^3
#
#
#
# Elastic Constant Matrix: (Units=GPa)
#
#
# Indices 1 2 3 4 5 6 
#
# 1 55.6501 1.8716 29.0785 0.0000 -9.4771 0.0000
# 2 1.8716 61.3928 18.0290 0.0000 2.5999 0.0000
# 3 29.0785 18.0290 106.5065 0.0000 -4.1417 0.0000
# 4 0.0000 0.0000 0.0000 11.2629 0.0000 1.3737
# 5 -9.4771 2.5999 -4.1417 0.0000 52.1012 0.0000
# 6 0.0000 0.0000 0.0000 1.3737 0.0000 17.9966
#
#
#
# Elastic Compliance Matrix: (Units=1/GPa)
#
#
# Indices 1 2 3 4 5 6 
#
# 1 0.021617 0.000937 -0.005928 0.000000 0.003414 0.000000
# 2 0.000937 0.017243 -0.003211 0.000000 -0.000945 0.000000
# 3 -0.005928 -0.003211 0.011551 0.000000 0.000000 0.000000
# 4 0.000000 0.000000 0.000000 0.089622 0.000000 -0.006841
# 5 0.003414 -0.000945 0.000000 0.000000 0.019862 0.000000
# 6 0.000000 0.000000 0.000000 -0.006841 0.000000 0.056088
#
#
# Mechanical properties :
#
#
# Convention : Reuss Voigt Hill
#
# Bulk Modulus (GPa) = 29.40576 35.72306 32.56441
# Shear Modulus (GPa) = 20.51520 27.91018 24.21269
#
# Velocity S-wave (km/s) = 3.34676 3.90363 3.63587
# Velocity P-wave (km/s) = 5.56680 6.31044 5.95025
#
# Compressibility (1/GPa) = 0.03400694
#
# Stress axis : x y z
#
# Youngs Moduli (GPa) = 46.26068 57.99415 86.57178
#
# Poissons Ratio (x) = -0.05435 0.51317
# Poissons Ratio (y) = -0.04335 0.27802
# Poissons Ratio (z) = 0.27422 0.18625
#
# Static dielectric constant tensor:
#      x y z
#    x 1.682540 0.000000 -0.009030 
#    y 0.000000 1.647300 0.000000 
#    z -0.009030 0.000000 1.652540 
# 
# From -- ./inp_files/61092.got.cif
#   From: 2010.05.17/outbox.cif.g08.bks.cpg/sg12_31_cif.got.tgz:61092.got - 2010.06.03 13:09:07.
