data_PCOD9189022
_publ_section_title
;
Structure prediction by ZEFSAII (Michael W. Deem and Ramdas Pophale) SiO2 
 PCOD9189022
Probable space group: C 2/M
;
_chemical_formula_sum "Si O2"
_cell_formula_units_Z 52
_cell_length_a 9.333245
_cell_length_b 27.215863
_cell_length_c 10.466604
_cell_angle_alpha 90.000000
_cell_angle_beta 119.900169
_cell_angle_gamma 90.000000
_cell_volume 2304.767956
_symmetry_space_group_name_H-M "C 2/M"
_symmetry_group_IT_number 12
_symmetry_cell_setting 'monoclinic'
loop_
_space_group_symop_operation_xyz
x,y,z
-x,y,-z
-x,-y,-z
x,-y,z
1/2+x,1/2+y,z
1/2-x,1/2+y,-z
1/2-x,1/2-y,-z
1/2+x,1/2-y,z
loop_
_atom_site_type_symbol
_atom_site_label
_atom_site_fract_x
_atom_site_fract_y
_atom_site_fract_z
Si Si1 0.698417 0.445098 0.823147
Si Si2 0.393912 0.907364 0.669101
Si Si3 0.239946 0.444018 0.853971
Si Si4 0.415999 0.375672 0.601414
Si Si5 0.087290 0.691840 0.170063
Si Si6 0.061169 0.793170 0.801241
Si Si7 0.000000 0.862626 0.000000
O O1 0.631700 0.500000 0.783191
O O2 0.820870 0.435644 0.760181
O O3 0.550459 0.407367 0.737270
O O4 0.777504 0.440377 0.998466
O O5 0.565553 0.932572 0.712577
O O6 0.255732 0.903073 0.498397
O O7 0.419034 0.851912 0.731461
O O8 0.296608 0.500000 0.851594
O O9 0.366288 0.400094 0.881270
O O10 0.500000 0.370080 0.500000
O O11 0.413599 0.322124 0.663614
O O12 0.992941 0.739421 0.180688
O O13 0.275486 0.704896 0.213409
O O14 0.000000 0.675275 0.000000
O O15 0.088689 0.826092 0.940207
#
# Coordination Sequence:
#
# PCOD9189022 Si02
#       7
#     8   8   8   8   8   8   4
#     4  10  19  36  65  94 126 168 217 265 322 383
#     4  11  22  38  64  92 138 165 214 273 326 386
#     4  11  23  39  65  99 128 172 223 272 325 390
#     4  10  21  43  61  94 138 173 212 265 327 402
#     4  12  24  40  68  99 133 170 227 279 331 386
#     4  12  25  43  67  99 129 180 224 272 335 394
#     4  12  23  44  70  90 136 168 221 280 332 392
#
# _framework density 22.561924000000001
#
# number of rings (size 3 to 8) (size 9 to 14) (size 15 to 20)
#    0.000    0.923    5.385    3.462    2.154    5.231 
#    0.000    0.769    0.000    0.923    0.000    0.000 
#    0.000    0.000    0.000    0.000    0.000    0.000 
#
# Total GULP energy -145456.058590 kJ/mol
# GULP energy per Si atom -5594.463792 kJ/mol
# Density = 2.251057 g / cm^3
# Si number density = 22.561924 Si / 1000 Ang^3
#
#
#
# Elastic Constant Matrix: (Units=GPa)
#
#
# Indices 1 2 3 4 5 6 
#
# 1 54.9651 15.4908 4.2393 0.0000 4.7998 0.0000
# 2 15.4908 101.2187 -7.7667 0.0000 -2.4947 0.0000
# 3 4.2393 -7.7667 52.6179 0.0000 20.8540 0.0000
# 4 0.0000 0.0000 0.0000 41.2074 0.0000 7.6104
# 5 4.7998 -2.4947 20.8540 0.0000 33.5383 0.0000
# 6 0.0000 0.0000 0.0000 7.6104 0.0000 32.0262
#
#
#
# Elastic Compliance Matrix: (Units=1/GPa)
#
#
# Indices 1 2 3 4 5 6 
#
# 1 0.019355 -0.003104 -0.001099 0.000000 -0.002317 0.000000
# 2 -0.003104 0.010492 0.001743 0.000000 0.000141 0.000000
# 3 -0.001099 0.001743 0.025528 0.000000 -0.015586 0.000000
# 4 0.000000 0.000000 0.000000 0.025381 0.000000 -0.006031
# 5 -0.002317 0.000141 -0.015586 0.000000 0.039850 0.000000
# 6 0.000000 0.000000 0.000000 -0.006031 0.000000 0.032658
#
#
# Mechanical properties :
#
#
# Convention : Reuss Voigt Hill
#
# Bulk Modulus (GPa) = 19.81947 25.85875 22.83911
# Shear Modulus (GPa) = 28.57098 34.47691 31.52395
#
# Velocity S-wave (km/s) = 3.56242 3.91333 3.74199
# Velocity P-wave (km/s) = 5.07195 5.64845 5.36795
#
# Compressibility (1/GPa) = 0.05045543
#
# Stress axis : x y z
#
# Youngs Moduli (GPa) = 51.66570 95.31257 39.17255
#
# Poissons Ratio (x) = 0.29582 0.04305
# Poissons Ratio (y) = 0.16035 -0.06827
# Poissons Ratio (z) = 0.05678 -0.16612
#
# Static dielectric constant tensor:
#      x y z
#    x 1.854610 0.000000 -0.017740 
#    y 0.000000 1.815980 0.000000 
#    z -0.017740 0.000000 1.870960 
# 
# From -- ./inp_files/124419.got.cif
#   From: 2010.05.17/outbox.cif.g08.bks.cpg/sg12_63_cif.got.tgz:124419.got - 2010.06.03 13:09:07.
