data_PCOD9189718
_publ_section_title
;
Structure prediction by ZEFSAII (Michael W. Deem and Ramdas Pophale) SiO2 
 PCOD9189718
Probable space group: C 2/M
;
_chemical_formula_sum "Si O2"
_cell_formula_units_Z 40
_cell_length_a 14.211540
_cell_length_b 15.212777
_cell_length_c 8.531132
_cell_angle_alpha 90.000000
_cell_angle_beta 87.537091
_cell_angle_gamma 90.000000
_cell_volume 1842.701280
_symmetry_space_group_name_H-M "C 2/M"
_symmetry_group_IT_number 12
_symmetry_cell_setting 'monoclinic'
loop_
_space_group_symop_operation_xyz
x,y,z
-x,y,-z
-x,-y,-z
x,-y,z
1/2+x,1/2+y,z
1/2-x,1/2+y,-z
1/2-x,1/2-y,-z
1/2+x,1/2-y,z
loop_
_atom_site_type_symbol
_atom_site_label
_atom_site_fract_x
_atom_site_fract_y
_atom_site_fract_z
Si Si1 0.167188 0.901827 0.805966
Si Si2 0.502940 0.851740 0.165884
Si Si3 0.163342 0.205463 0.102074
Si Si4 0.819266 0.283849 0.328307
Si Si5 0.352110 0.905512 0.613729
O O1 0.147531 0.818268 0.694029
O O2 0.279938 0.904889 0.766324
O O3 0.131441 0.000000 0.770264
O O4 0.141063 0.874716 0.985450
O O5 0.571855 0.766552 0.133374
O O6 0.396768 0.830022 0.214865
O O7 0.547304 0.897511 0.313321
O O8 0.500000 0.899509 0.000000
O O9 0.216916 0.192557 0.263038
O O10 0.250000 0.250000 0.000000
O O11 0.829776 0.326633 0.497805
O O12 0.339632 0.000000 0.534256
#
# Coordination Sequence:
#
# PCOD9189718 Si02
#       5
#     8   8   8   8   8
#     4  10  20  38  64  91 120 161 208 251 304 363
#     4  12  21  38  64  90 120 167 206 247 311 369
#     4  10  19  38  61  88 117 160 211 249 304 360
#     4  11  22  39  63  89 129 166 202 255 310 366
#     4  11  24  40  62  94 129 164 204 254 311 371
#
# _framework density 21.707262
#
# number of rings (size 3 to 8) (size 9 to 14) (size 15 to 20)
#    0.000    1.200    8.000    1.200    0.000    2.800 
#    0.000    2.000    0.000    2.400    0.000    0.000 
#    0.000    0.000    0.000    0.000    0.000    0.000 
#
# Total GULP energy -111360.800119 kJ/mol
# GULP energy per Si atom -5568.040006 kJ/mol
# Density = 2.165786 g / cm^3
# Si number density = 21.707262 Si / 1000 Ang^3
#
#
#
# Elastic Constant Matrix: (Units=GPa)
#
#
# Indices 1 2 3 4 5 6 
#
# 1 54.9732 -1.6789 19.7308 0.0000 7.6910 0.0000
# 2 -1.6789 142.0015 58.5801 0.0000 12.8448 0.0000
# 3 19.7308 58.5801 123.6823 0.0000 14.7780 0.0000
# 4 0.0000 0.0000 0.0000 22.5636 0.0000 2.7794
# 5 7.6910 12.8448 14.7780 0.0000 39.3713 0.0000
# 6 0.0000 0.0000 0.0000 2.7794 0.0000 6.3172
#
#
#
# Elastic Compliance Matrix: (Units=1/GPa)
#
#
# Indices 1 2 3 4 5 6 
#
# 1 0.020068 0.002099 -0.003816 0.000000 -0.003172 0.000000
# 2 0.002099 0.009042 -0.004414 0.000000 -0.001703 0.000000
# 3 -0.003816 -0.004414 0.011018 0.000000 -0.001950 0.000000
# 4 0.000000 0.000000 0.000000 0.046859 0.000000 -0.020617
# 5 -0.003172 -0.001703 -0.001950 0.000000 0.027306 0.000000
# 6 0.000000 0.000000 0.000000 -0.020617 0.000000 0.167370
#
#
# Mechanical properties :
#
#
# Convention : Reuss Voigt Hill
#
# Bulk Modulus (GPa) = 35.88779 52.65790 44.27285
# Shear Modulus (GPa) = 16.48998 29.91875 23.20436
#
# Velocity S-wave (km/s) = 2.75917 3.71655 3.27305
# Velocity P-wave (km/s) = 5.16906 6.53665 5.89267
#
# Compressibility (1/GPa) = 0.02786463
#
# Stress axis : x y z
#
# Youngs Moduli (GPa) = 49.82961 110.59622 90.76402
#
# Poissons Ratio (x) = -0.23210 0.34639
# Poissons Ratio (y) = -0.10457 0.40062
# Poissons Ratio (z) = 0.19017 0.48815
#
# Static dielectric constant tensor:
#      x y z
#    x 1.822000 0.000000 0.006250 
#    y 0.000000 1.877410 0.000000 
#    z 0.006250 0.000000 1.886550 
# 
# From -- ./inp_files/59067.got.cif
#   From: 2010.05.17/outbox.cif.g08.bks.cpg/sg12_30_cif.got.tgz:59067.got - 2010.06.03 13:09:07.
