data_PCOD9189204
_publ_section_title
;
Structure prediction by ZEFSAII (Michael W. Deem and Ramdas Pophale) SiO2 
 PCOD9189204
Probable space group: C 2/M
;
_chemical_formula_sum "Si O2"
_cell_formula_units_Z 48
_cell_length_a 20.633153
_cell_length_b 7.517638
_cell_length_c 14.035092
_cell_angle_alpha 90.000000
_cell_angle_beta 88.692061
_cell_angle_gamma 90.000000
_cell_volume 2176.452052
_symmetry_space_group_name_H-M "C 2/M"
_symmetry_group_IT_number 12
_symmetry_cell_setting 'monoclinic'
loop_
_space_group_symop_operation_xyz
x,y,z
-x,y,-z
-x,-y,-z
x,-y,z
1/2+x,1/2+y,z
1/2-x,1/2+y,-z
1/2-x,1/2-y,-z
1/2+x,1/2-y,z
loop_
_atom_site_type_symbol
_atom_site_label
_atom_site_fract_x
_atom_site_fract_y
_atom_site_fract_z
Si Si1 0.862331 0.215966 0.069833
Si Si2 0.803368 0.212447 0.418913
Si Si3 0.948908 0.781848 0.422914
Si Si4 0.027539 0.795254 0.791114
Si Si5 0.884831 0.705066 0.850965
Si Si6 0.749374 0.717585 0.782997
O O1 0.797440 0.268737 0.128365
O O2 0.923226 0.279077 0.131871
O O3 0.863654 0.000000 0.063012
O O4 0.867655 0.284872 0.962953
O O5 0.750000 0.250000 0.500000
O O6 0.875061 0.275523 0.444263
O O7 0.780791 0.278384 0.315923
O O8 0.808441 0.000000 0.409206
O O9 0.000000 0.720940 0.500000
O O10 0.966640 0.720980 0.315488
O O11 0.951003 0.000000 0.424570
O O12 0.953928 0.791589 0.828691
O O13 0.048990 0.000000 0.780618
O O14 0.892905 0.500000 0.822718
O O15 0.822823 0.779104 0.796702
O O16 0.750600 0.500000 0.782729
#
# Coordination Sequence:
#
# PCOD9189204 Si02
#       6
#     8   8   8   8   8   8
#     4  10  19  37  60  78 101 143 191 226 260 313
#     4  10  20  37  59  83 110 141 176 220 271 322
#     4   9  18  34  58  84 107 136 180 227 264 307
#     4  10  20  36  58  81 107 142 183 224 265 315
#     4  11  23  35  52  81 114 145 175 220 274 322
#     4   9  19  37  57  77 109 147 180 216 268 324
#
# _framework density 22.05424
#
# number of rings (size 3 to 8) (size 9 to 14) (size 15 to 20)
#    0.000    2.167    1.667    1.500    2.333    2.667 
#    0.000    3.333    0.000    1.000    0.000    0.000 
#    0.000    0.000    0.000    0.000    0.000    0.000 
#
# Total GULP energy -134122.753459 kJ/mol
# GULP energy per Si atom -5588.448061 kJ/mol
# Density = 2.200404 g / cm^3
# Si number density = 22.054240 Si / 1000 Ang^3
#
#
#
# Elastic Constant Matrix: (Units=GPa)
#
#
# Indices 1 2 3 4 5 6 
#
# 1 111.5869 -7.3225 25.0220 0.0000 14.7679 0.0000
# 2 -7.3225 55.2793 -9.8813 0.0000 6.2255 0.0000
# 3 25.0220 -9.8813 82.7149 0.0000 7.1910 0.0000
# 4 0.0000 0.0000 0.0000 13.3088 0.0000 -5.0252
# 5 14.7679 6.2255 7.1910 0.0000 46.7072 0.0000
# 6 0.0000 0.0000 0.0000 -5.0252 0.0000 15.1238
#
#
#
# Elastic Compliance Matrix: (Units=1/GPa)
#
#
# Indices 1 2 3 4 5 6 
#
# 1 0.010017 0.001185 -0.002635 0.000000 -0.002919 0.000000
# 2 0.001185 0.019005 0.002194 0.000000 -0.003245 0.000000
# 3 -0.002635 0.002194 0.013280 0.000000 -0.001504 0.000000
# 4 0.000000 0.000000 0.000000 0.085918 0.000000 0.028548
# 5 -0.002919 -0.003245 -0.001504 0.000000 0.022997 0.000000
# 6 0.000000 0.000000 0.000000 0.028548 0.000000 0.075607
#
#
# Mechanical properties :
#
#
# Convention : Reuss Voigt Hill
#
# Bulk Modulus (GPa) = 22.83696 29.46861 26.15279
# Shear Modulus (GPa) = 20.83937 31.14548 25.99242
#
# Velocity S-wave (km/s) = 3.07728 3.76203 3.43675
# Velocity P-wave (km/s) = 4.79621 5.67991 5.25666
#
# Compressibility (1/GPa) = 0.04378866
#
# Stress axis : x y z
#
# Youngs Moduli (GPa) = 99.83499 52.61887 75.30336
#
# Poissons Ratio (x) = -0.06233 0.19841
# Poissons Ratio (y) = -0.11827 -0.16522
# Poissons Ratio (z) = 0.26304 -0.11545
#
# Static dielectric constant tensor:
#      x y z
#    x 1.778130 0.000000 0.019500 
#    y 0.000000 1.889250 0.000000 
#    z 0.019500 0.000000 1.761590 
# 
# From -- ./inp_files/221554.got.cif
#   From: 2010.05.17/outbox.cif.g08.bks.cpg/sg12_111_cif.got.tgz:221554.got - 2010.06.03 13:09:07.
