data_PCOD9189699
_publ_section_title
;
Structure prediction by ZEFSAII (Michael W. Deem and Ramdas Pophale) SiO2 
 PCOD9189699
Probable space group: C 2/M
;
_chemical_formula_sum "Si O2"
_cell_formula_units_Z 60
_cell_length_a 11.157994
_cell_length_b 14.443584
_cell_length_c 18.643348
_cell_angle_alpha 90.000000
_cell_angle_beta 70.564188
_cell_angle_gamma 90.000000
_cell_volume 2833.371610
_symmetry_space_group_name_H-M "C 2/M"
_symmetry_group_IT_number 12
_symmetry_cell_setting 'monoclinic'
loop_
_space_group_symop_operation_xyz
x,y,z
-x,y,-z
-x,-y,-z
x,-y,z
1/2+x,1/2+y,z
1/2-x,1/2+y,-z
1/2-x,1/2-y,-z
1/2+x,1/2-y,z
loop_
_atom_site_type_symbol
_atom_site_label
_atom_site_fract_x
_atom_site_fract_y
_atom_site_fract_z
Si Si1 0.793048 0.106822 0.611613
Si Si2 0.683611 0.729391 0.255070
Si Si3 0.160167 0.891748 0.126347
Si Si4 0.000000 0.652809 0.500000
Si Si5 0.206374 0.104263 0.553394
Si Si6 0.060155 0.276590 0.640538
Si Si7 0.855703 0.888083 0.025660
Si Si8 0.351043 0.393014 0.188396
O O1 0.835980 0.164264 0.671702
O O2 0.833955 0.126830 0.521199
O O3 0.645327 0.133754 0.637671
O O4 0.819070 0.000000 0.618738
O O5 0.714820 0.668142 0.179996
O O6 0.543034 0.771038 0.276954
O O7 0.782350 0.812524 0.246037
O O8 0.004821 0.886704 0.159108
O O9 0.192872 0.000000 0.129123
O O10 0.202728 0.857975 0.038565
O O11 0.860510 0.604817 0.526387
O O12 0.001554 0.707402 0.425164
O O13 0.147140 0.185483 0.612790
O O14 0.162187 0.000000 0.579703
O O15 0.803186 0.874920 0.115818
O O16 0.864696 0.000000 0.015912
O O17 0.000000 0.851429 0.000000
O O18 0.319765 0.500000 0.214319
#
# Coordination Sequence:
#
# PCOD9189699 Si02
#       8
#     8   8   8   4   8   8   8   8
#     4  10  22  39  55  74 104 140 174 215 266 313
#     4  12  22  33  52  80 111 143 177 212 258 318
#     4   9  18  33  54  79 106 139 179 221 263 310
#     4  10  19  38  61  78 100 136 183 226 259 304
#     4  10  21  38  60  82 104 134 176 222 266 311
#     4  11  22  37  54  78 109 140 175 217 263 312
#     4   7  12  28  53  76 101 135 175 220 264 303
#     4   9  19  36  55  77 107 141 178 220 264 309
#
# _framework density 21.176185
#
# number of rings (size 3 to 8) (size 9 to 14) (size 15 to 20)
#    0.000    2.267    0.000    6.200    0.000    2.667 
#    0.000    5.000    0.000    0.800    0.000    0.000 
#    0.000   13.333    0.000    0.000    0.000    0.000 
#
# Total GULP energy -167201.156591 kJ/mol
# GULP energy per Si atom -5573.371886 kJ/mol
# Density = 2.112799 g / cm^3
# Si number density = 21.176185 Si / 1000 Ang^3
#
#
#
# Elastic Constant Matrix: (Units=GPa)
#
#
# Indices 1 2 3 4 5 6 
#
# 1 34.7098 14.9728 2.4784 0.0000 8.4404 0.0000
# 2 14.9728 78.3866 32.5168 0.0000 4.4095 0.0000
# 3 2.4784 32.5168 53.0268 0.0000 18.9312 0.0000
# 4 0.0000 0.0000 0.0000 133.0015 0.0000 -1.6692
# 5 8.4404 4.4095 18.9312 0.0000 26.1299 0.0000
# 6 0.0000 0.0000 0.0000 -1.6692 0.0000 9.1655
#
#
#
# Elastic Compliance Matrix: (Units=1/GPa)
#
#
# Indices 1 2 3 4 5 6 
#
# 1 0.037167 -0.010837 0.011521 0.000000 -0.018524 0.000000
# 2 -0.010837 0.021090 -0.016734 0.000000 0.012065 0.000000
# 3 0.011521 -0.016734 0.038986 0.000000 -0.029143 0.000000
# 4 0.000000 0.000000 0.000000 0.007536 0.000000 0.001372
# 5 -0.018524 0.012065 -0.029143 0.000000 0.063332 0.000000
# 6 0.000000 0.000000 0.000000 0.001372 0.000000 0.109355
#
#
# Mechanical properties :
#
#
# Convention : Reuss Voigt Hill
#
# Bulk Modulus (GPa) = 15.35041 29.56214 22.45627
# Shear Modulus (GPa) = 15.09305 41.40304 28.24804
#
# Velocity S-wave (km/s) = 2.67261 4.42653 3.65629
# Velocity P-wave (km/s) = 4.09737 6.33371 5.33406
#
# Compressibility (1/GPa) = 0.06514484
#
# Stress axis : x y z
#
# Youngs Moduli (GPa) = 26.90569 47.41574 25.65052
#
# Poissons Ratio (x) = 0.51383 -0.29553
# Poissons Ratio (y) = 0.29157 0.42922
# Poissons Ratio (z) = -0.30999 0.79343
#
# Static dielectric constant tensor:
#      x y z
#    x 1.819080 0.000000 0.041590 
#    y 0.000000 1.786550 0.000000 
#    z 0.041590 0.000000 1.808910 
# 
# From -- ./inp_files/263306.got.cif
#   From: 2010.05.17/outbox.cif.g08.bks.cpg/sg12_132_cif.got.tgz:263306.got - 2010.06.03 13:09:07.
