data_PCOD9189545
_publ_section_title
;
Structure prediction by ZEFSAII (Michael W. Deem and Ramdas Pophale) SiO2 
 PCOD9189545
Probable space group: C 2/M
;
_chemical_formula_sum "Si O2"
_cell_formula_units_Z 56
_cell_length_a 21.235926
_cell_length_b 14.689823
_cell_length_c 13.991839
_cell_angle_alpha 90.000000
_cell_angle_beta 147.112647
_cell_angle_gamma 90.000000
_cell_volume 2370.029118
_symmetry_space_group_name_H-M "C 2/M"
_symmetry_group_IT_number 12
_symmetry_cell_setting 'monoclinic'
loop_
_space_group_symop_operation_xyz
x,y,z
-x,y,-z
-x,-y,-z
x,-y,z
1/2+x,1/2+y,z
1/2-x,1/2+y,-z
1/2-x,1/2-y,-z
1/2+x,1/2-y,z
loop_
_atom_site_type_symbol
_atom_site_label
_atom_site_fract_x
_atom_site_fract_y
_atom_site_fract_z
Si Si1 0.370489 0.390784 0.045951
Si Si2 0.769599 0.643027 0.533050
Si Si3 0.025583 0.607867 0.927542
Si Si4 0.164438 0.388718 0.929210
Si Si5 0.584755 0.603090 0.440275
Si Si6 0.234945 0.103681 0.286549
Si Si7 0.466761 0.790784 0.559570
O O1 0.366233 0.500000 0.037724
O O2 0.280891 0.365523 0.017587
O O3 0.340430 0.361640 0.899413
O O4 0.498568 0.368409 0.243831
O O5 0.750000 0.750000 0.500000
O O6 0.906333 0.620883 0.715118
O O7 0.711928 0.608298 0.557595
O O8 0.699749 0.602348 0.352924
O O9 0.041406 0.500000 0.960829
O O10 0.138462 0.635110 0.007745
O O11 0.000000 0.649316 0.000000
O O12 0.148579 0.500000 0.900071
O O13 0.066785 0.328438 0.754084
O O14 0.559740 0.500000 0.440111
O O15 0.556578 0.683242 0.476664
O O16 0.345946 0.166659 0.434589
O O17 0.268458 0.000000 0.305271
O O18 0.500000 0.829097 0.500000
#
# Coordination Sequence:
#
# PCOD9189545 Si02
#       7
#     8   8   8   8   8   8   8
#     4   9  21  40  65  97 130 170 213 261 329 393
#     4  12  23  43  64  95 132 171 218 264 323 387
#     4  10  21  39  64  94 125 165 217 269 321 374
#     4  10  19  37  65  97 133 164 207 276 335 379
#     4  11  25  46  63  86 136 185 220 257 309 392
#     4  11  21  39  69 101 129 160 211 277 336 383
#     4  12  23  39  64 100 126 168 217 269 333 382
#
# _framework density 23.628402999999999
#
# number of rings (size 3 to 8) (size 9 to 14) (size 15 to 20)
#    0.000    1.286    4.286    1.714    0.000    2.000 
#    7.714    2.143    0.000    0.000    0.000    0.000 
#    0.000    0.000    0.000    0.000    0.000    0.000 
#
# Total GULP energy -156169.002934 kJ/mol
# GULP energy per Si atom -5577.464390 kJ/mol
# Density = 2.357462 g / cm^3
# Si number density = 23.628403 Si / 1000 Ang^3
#
#
#
# Elastic Constant Matrix: (Units=GPa)
#
#
# Indices 1 2 3 4 5 6 
#
# 1 113.4398 -11.7974 10.4907 0.0000 -16.3372 0.0000
# 2 -11.7974 90.6938 -10.2204 0.0000 -0.9966 0.0000
# 3 10.4907 -10.2204 11.7618 0.0000 5.5386 0.0000
# 4 0.0000 0.0000 0.0000 16.4804 0.0000 -10.4173
# 5 -16.3372 -0.9966 5.5386 0.0000 33.2390 0.0000
# 6 0.0000 0.0000 0.0000 -10.4173 0.0000 29.0116
#
#
#
# Elastic Compliance Matrix: (Units=1/GPa)
#
#
# Indices 1 2 3 4 5 6 
#
# 1 0.011198 0.000004 -0.013646 0.000000 0.007778 0.000000
# 2 0.000004 0.012294 0.011399 0.000000 -0.001529 0.000000
# 3 -0.013646 0.011399 0.119470 0.000000 -0.026273 0.000000
# 4 0.000000 0.000000 0.000000 0.078494 0.000000 0.028185
# 5 0.007778 -0.001529 -0.026273 0.000000 0.038240 0.000000
# 6 0.000000 0.000000 0.000000 0.028185 0.000000 0.044590
#
#
# Mechanical properties :
#
#
# Convention : Reuss Voigt Hill
#
# Bulk Modulus (GPa) = 7.22146 21.42680 14.32413
# Shear Modulus (GPa) = 14.08727 30.90769 22.49748
#
# Velocity S-wave (km/s) = 2.44437 3.62065 3.08902
# Velocity P-wave (km/s) = 3.32107 5.15430 4.33568
#
# Compressibility (1/GPa) = 0.13847613
#
# Stress axis : x y z
#
# Youngs Moduli (GPa) = 89.30310 81.33740 8.37033
#
# Poissons Ratio (x) = -0.00034 0.11423
# Poissons Ratio (y) = -0.00038 -0.09542
# Poissons Ratio (z) = 1.21867 -0.92719
#
# Static dielectric constant tensor:
#      x y z
#    x 1.851000 0.000000 -0.073930 
#    y 0.000000 1.910110 0.000000 
#    z -0.073930 0.000000 1.873520 
# 
# From -- ./inp_files/233763.got.cif
#   From: 2010.05.17/outbox.cif.g08.bks.cpg/sg12_117_cif.got.tgz:233763.got - 2010.06.03 13:09:07.
