data_PCOD9189942
_publ_section_title
;
Structure prediction by ZEFSAII (Michael W. Deem and Ramdas Pophale) SiO2 
 PCOD9189942
Probable space group: C 2/M
;
_chemical_formula_sum "Si O2"
_cell_formula_units_Z 40
_cell_length_a 10.846426
_cell_length_b 23.566625
_cell_length_c 14.073571
_cell_angle_alpha 90.000000
_cell_angle_beta 32.000127
_cell_angle_gamma 90.000000
_cell_volume 1906.336686
_symmetry_space_group_name_H-M "C 2/M"
_symmetry_group_IT_number 12
_symmetry_cell_setting 'monoclinic'
loop_
_space_group_symop_operation_xyz
x,y,z
-x,y,-z
-x,-y,-z
x,-y,z
1/2+x,1/2+y,z
1/2-x,1/2+y,-z
1/2-x,1/2-y,-z
1/2+x,1/2-y,z
loop_
_atom_site_type_symbol
_atom_site_label
_atom_site_fract_x
_atom_site_fract_y
_atom_site_fract_z
Si Si1 0.460664 0.848068 0.236864
Si Si2 0.817914 0.757862 0.703446
Si Si3 0.585105 0.650673 0.634719
Si Si4 0.715011 0.934322 0.786049
Si Si5 0.003969 0.850653 0.900056
O O1 0.349977 0.804568 0.234167
O O2 0.332013 0.841276 0.421635
O O3 0.384780 0.909310 0.246475
O O4 0.733481 0.839482 0.057258
O O5 0.664347 0.703117 0.821824
O O6 0.000000 0.745297 0.500000
O O7 0.948514 0.789399 0.705278
O O8 0.429706 0.604170 0.680776
O O9 0.600049 0.632152 0.734003
O O10 0.779848 0.000000 0.737515
O O11 0.500000 0.928189 0.000000
O O12 0.000000 0.887420 0.000000
#
# Coordination Sequence:
#
# PCOD9189942 Si02
#       5
#     8   8   8   8   8
#     4  10  22  40  58  87 120 151 191 246 292 342
#     4   9  22  37  57  84 115 156 201 244 286 337
#     4  10  23  41  57  86 124 147 196 251 285 343
#     4  10  19  38  70  97 114 141 186 245 307 349
#     4  12  26  35  56  82 118 168 202 232 283 344
#
# _framework density 20.982652000000002
#
# number of rings (size 3 to 8) (size 9 to 14) (size 15 to 20)
#    0.000    1.800    2.000    2.400    8.400    3.200 
#    0.000    0.000    0.000    2.400    0.000    2.800 
#    0.000    0.000    0.000    0.000    0.000    0.000 
#
# Total GULP energy -111697.557920 kJ/mol
# GULP energy per Si atom -5584.877896 kJ/mol
# Density = 2.093489 g / cm^3
# Si number density = 20.982652 Si / 1000 Ang^3
#
#
#
# Elastic Constant Matrix: (Units=GPa)
#
#
# Indices 1 2 3 4 5 6 
#
# 1 61.9442 4.7294 9.5573 -0.0030 28.7626 0.0034
# 2 4.7294 68.2819 2.7680 0.0000 -13.0002 0.0004
# 3 9.5573 2.7680 47.2475 0.0010 -1.7942 -0.0026
# 4 -0.0030 0.0000 0.0010 29.9882 0.0054 -12.1747
# 5 28.7626 -13.0002 -1.7942 0.0054 32.9274 -0.0054
# 6 0.0034 0.0004 -0.0026 -12.1747 -0.0054 18.0067
#
#
#
# Elastic Compliance Matrix: (Units=1/GPa)
#
#
# Indices 1 2 3 4 5 6 
#
# 1 0.032964 -0.008155 -0.007421 0.000003 -0.032419 -0.000014
# 2 -0.008155 0.017875 0.001143 -0.000002 0.014243 0.000004
# 3 -0.007421 0.001143 0.022910 0.000000 0.008182 0.000007
# 4 0.000003 -0.000002 0.000000 0.045963 -0.000006 0.031077
# 5 -0.032419 0.014243 0.008182 -0.000006 0.064757 0.000022
# 6 -0.000014 0.000004 0.000007 0.031077 0.000022 0.076547
#
#
# Mechanical properties :
#
#
# Convention : Reuss Voigt Hill
#
# Bulk Modulus (GPa) = 22.27963 23.50922 22.89442
# Shear Modulus (GPa) = 16.40186 26.87905 21.64046
#
# Velocity S-wave (km/s) = 2.79890 3.58301 3.21495
# Velocity P-wave (km/s) = 4.59198 5.32407 4.97152
#
# Compressibility (1/GPa) = 0.04488406
#
# Stress axis : x y z
#
# Youngs Moduli (GPa) = 30.33595 55.94295 43.64889
#
# Poissons Ratio (x) = 0.45619 0.32393
# Poissons Ratio (y) = 0.24738 -0.04990
# Poissons Ratio (z) = 0.22513 -0.06395
#
# Static dielectric constant tensor:
#      x y z
#    x 1.800340 0.000000 0.045760 
#    y 0.000000 1.749520 0.000000 
#    z 0.045760 0.000000 1.774880 
# 
# From -- ./inp_files/208526.got.cif
#   From: 2010.05.17/outbox.cif.g08.bks.cpg/sg12_105_cif.got.tgz:208526.got - 2010.06.03 13:09:07.
