data_PCOD9189984
_publ_section_title
;
Structure prediction by ZEFSAII (Michael W. Deem and Ramdas Pophale) SiO2 
 PCOD9189984
Probable space group: C 2/M
;
_chemical_formula_sum "Si O2"
_cell_formula_units_Z 64
_cell_length_a 14.985830
_cell_length_b 16.857429
_cell_length_c 12.274433
_cell_angle_alpha 90.000000
_cell_angle_beta 84.483459
_cell_angle_gamma 90.000000
_cell_volume 3086.437361
_symmetry_space_group_name_H-M "C 2/M"
_symmetry_group_IT_number 12
_symmetry_cell_setting 'monoclinic'
loop_
_space_group_symop_operation_xyz
x,y,z
-x,y,-z
-x,-y,-z
x,-y,z
1/2+x,1/2+y,z
1/2-x,1/2+y,-z
1/2-x,1/2-y,-z
1/2+x,1/2-y,z
loop_
_atom_site_type_symbol
_atom_site_label
_atom_site_fract_x
_atom_site_fract_y
_atom_site_fract_z
Si Si1 0.399892 0.410365 0.472527
Si Si2 0.458716 0.314407 0.853611
Si Si3 0.775312 0.209077 0.382871
Si Si4 0.349959 0.587820 0.718540
Si Si5 0.149729 0.825271 0.922795
Si Si6 0.194985 0.590625 0.227482
Si Si7 0.984409 0.373128 0.875288
Si Si8 0.323745 0.165152 0.193584
O O1 0.500000 0.391977 0.500000
O O2 0.400563 0.500000 0.428976
O O3 0.358372 0.348723 0.395509
O O4 0.339975 0.408981 0.589657
O O5 0.419673 0.345033 0.745938
O O6 0.559893 0.341930 0.862737
O O7 0.463071 0.220661 0.870380
O O8 0.387389 0.342893 0.952941
O O9 0.750000 0.250000 0.500000
O O10 0.703095 0.153168 0.327527
O O11 0.805417 0.277496 0.297569
O O12 0.384876 0.500000 0.741194
O O13 0.258253 0.605066 0.792290
O O14 0.232168 0.875699 0.867907
O O15 0.172260 0.730714 0.904765
O O16 0.216371 0.500000 0.257793
O O17 0.098458 0.589889 0.179399
O O18 0.082402 0.379910 0.810799
O O19 0.000000 0.396099 0.000000
#
# Coordination Sequence:
#
# PCOD9189984 Si02
#       8
#     8   8   8   8   8   8   8   8
#     4  10  23  40  61  91 126 161 197 251 322 385
#     4  10  19  39  61  92 119 160 209 257 304 380
#     4  11  22  42  68  93 118 164 210 268 311 372
#     4  11  24  37  58  90 126 162 200 254 315 381
#     4   9  20  38  62  87 120 162 203 258 314 364
#     4  11  26  41  61  94 132 167 207 261 319 376
#     4  11  23  42  68  90 122 171 219 265 307 365
#     4  10  21  40  62  89 117 158 216 260 303 357
#
# _framework density 20.735882
#
# number of rings (size 3 to 8) (size 9 to 14) (size 15 to 20)
#    0.000    1.625    3.750    1.875    7.000    2.750 
#    0.000    1.250    0.000    0.750    0.000    0.000 
#    0.000    0.000    0.000    0.000    0.000    0.000 
#
# Total GULP energy -178600.122384 kJ/mol
# GULP energy per Si atom -5581.253825 kJ/mol
# Density = 2.068869 g / cm^3
# Si number density = 20.735882 Si / 1000 Ang^3
#
#
#
# Elastic Constant Matrix: (Units=GPa)
#
#
# Indices 1 2 3 4 5 6 
#
# 1 96.8209 29.0066 10.9267 0.0000 -4.8817 0.0000
# 2 29.0066 54.7790 23.5685 0.0000 7.6334 0.0000
# 3 10.9267 23.5685 55.6389 0.0000 -2.6186 0.0000
# 4 0.0000 0.0000 0.0000 5.2262 0.0000 12.9184
# 5 -4.8817 7.6334 -2.6186 0.0000 28.6851 0.0000
# 6 0.0000 0.0000 0.0000 12.9184 0.0000 -4.1600
#
#
#
# Elastic Compliance Matrix: (Units=1/GPa)
#
#
# Indices 1 2 3 4 5 6 
#
# 1 0.012770 -0.007797 0.000999 0.000000 0.004339 0.000000
# 2 -0.007797 0.028502 -0.011009 0.000000 -0.009917 0.000000
# 3 0.000999 -0.011009 0.022684 0.000000 0.005170 0.000000
# 4 0.000000 0.000000 0.000000 0.022054 0.000000 0.068487
# 5 0.004339 -0.009917 0.005170 0.000000 0.038711 0.000000
# 6 0.000000 0.000000 0.000000 0.068487 0.000000 -0.027707
#
#
# Mechanical properties :
#
#
# Convention : Reuss Voigt Hill
#
# Bulk Modulus (GPa) = 35.28254 37.13805 36.21029
# Shear Modulus (GPa) = 35.19275 15.53272 25.36273
#
# Velocity S-wave (km/s) = 4.12417 2.73989 3.50113
# Velocity P-wave (km/s) = 6.30321 5.28756 5.81759
#
# Compressibility (1/GPa) = 0.02834263
#
# Stress axis : x y z
#
# Youngs Moduli (GPa) = 78.30758 35.08525 44.08480
#
# Poissons Ratio (x) = 0.27354 -0.04404
# Poissons Ratio (y) = 0.61053 0.48533
# Poissons Ratio (z) = -0.07822 0.38625
#
# Static dielectric constant tensor:
#      x y z
#    x 1.759930 0.000000 -0.001770 
#    y 0.000000 1.739930 0.000000 
#    z -0.001770 0.000000 1.775330 
# 
# From -- ./inp_files/146134.got.cif
#   From: 2010.05.17/outbox.cif.g08.bks.cpg/sg12_74_cif.got.tgz:146134.got - 2010.06.03 13:09:07.
