data_PCOD9189006
_publ_section_title
;
Structure prediction by ZEFSAII (Michael W. Deem and Ramdas Pophale) SiO2 
 PCOD9189006
Probable space group: C 2/M
;
_chemical_formula_sum "Si O2"
_cell_formula_units_Z 52
_cell_length_a 8.489512
_cell_length_b 25.782185
_cell_length_c 15.209271
_cell_angle_alpha 90.000000
_cell_angle_beta 137.034735
_cell_angle_gamma 90.000000
_cell_volume 2268.880713
_symmetry_space_group_name_H-M "C 2/M"
_symmetry_group_IT_number 12
_symmetry_cell_setting 'monoclinic'
loop_
_space_group_symop_operation_xyz
x,y,z
-x,y,-z
-x,-y,-z
x,-y,z
1/2+x,1/2+y,z
1/2-x,1/2+y,-z
1/2-x,1/2-y,-z
1/2+x,1/2-y,z
loop_
_atom_site_type_symbol
_atom_site_label
_atom_site_fract_x
_atom_site_fract_y
_atom_site_fract_z
Si Si1 0.036854 0.716791 0.367259
Si Si2 0.410732 0.310617 0.710976
Si Si3 0.753525 0.500000 0.948516
Si Si4 0.006243 0.384378 0.231568
Si Si5 0.253178 0.115515 0.950252
Si Si6 0.502933 0.500000 0.395216
Si Si7 0.012540 0.889599 0.399477
Si Si8 0.487518 0.000000 0.222436
O O1 0.250000 0.750000 0.500000
O O2 0.168124 0.707588 0.649295
O O3 0.048793 0.662329 0.317699
O O4 0.953845 0.759424 0.262476
O O5 0.563242 0.344211 0.839608
O O6 0.367427 0.346033 0.607306
O O7 0.656236 0.557192 0.890509
O O8 0.000000 0.500000 0.000000
O O9 0.792405 0.500000 0.069241
O O10 0.240302 0.386538 0.268802
O O11 0.983651 0.442709 0.264731
O O12 0.808280 0.378253 0.077073
O O13 0.500000 0.121240 0.000000
O O14 0.500000 0.500000 0.500000
O O15 0.607422 0.445707 0.411665
O O16 0.229362 0.500000 0.266240
O O17 0.000000 0.884638 0.500000
#
# Coordination Sequence:
#
# PCOD9189006 Si02
#       8
#     8   8   4   8   8   4   8   4
#     4  12  28  49  70  94 132 183 244 301 357 416
#     4  12  26  44  67  97 131 180 236 296 351 418
#     4   8  16  30  61 102 142 186 218 272 327 421
#     4  10  20  41  68  99 142 185 227 287 343 419
#     4  10  20  39  68 107 147 181 231 276 349 416
#     4   8  16  28  53  95 132 171 221 278 331 400
#     4  10  19  36  64  96 134 178 230 280 339 407
#     4   8  16  32  62  97 134 182 226 266 344 419
#
# _framework density 22.918789
#
# number of rings (size 3 to 8) (size 9 to 14) (size 15 to 20)
#    0.000    1.846    1.538    2.308    2.154    1.231 
#    0.000    1.538    0.000    2.769    0.000   11.846 
#    0.000    0.000    0.000    0.000    0.000    0.000 
#
# Total GULP energy -144875.992547 kJ/mol
# GULP energy per Si atom -5572.153560 kJ/mol
# Density = 2.286662 g / cm^3
# Si number density = 22.918789 Si / 1000 Ang^3
#
#
#
# Elastic Constant Matrix: (Units=GPa)
#
#
# Indices 1 2 3 4 5 6 
#
# 1 84.4648 71.2624 25.7269 0.0000 -0.7451 0.0000
# 2 71.2624 249.4379 65.5006 0.0000 -8.9851 0.0000
# 3 25.7269 65.5006 137.9110 0.0000 -9.9261 0.0000
# 4 0.0000 0.0000 0.0000 28.7598 0.0000 -9.4310
# 5 -0.7451 -8.9851 -9.9261 0.0000 19.7331 0.0000
# 6 0.0000 0.0000 0.0000 -9.4310 0.0000 31.1897
#
#
#
# Elastic Compliance Matrix: (Units=1/GPa)
#
#
# Indices 1 2 3 4 5 6 
#
# 1 0.015766 -0.004300 -0.001034 0.000000 -0.001883 0.000000
# 2 -0.004300 0.005773 -0.001829 0.000000 0.001547 0.000000
# 3 -0.001034 -0.001829 0.008560 0.000000 0.003434 0.000000
# 4 0.000000 0.000000 0.000000 0.038598 0.000000 0.011671
# 5 -0.001883 0.001547 0.003434 0.000000 0.053037 0.000000
# 6 0.000000 0.000000 0.000000 0.011671 0.000000 0.035591
#
#
# Mechanical properties :
#
#
# Convention : Reuss Voigt Hill
#
# Bulk Modulus (GPa) = 63.40061 88.53261 75.96661
# Shear Modulus (GPa) = 28.26320 36.55811 32.41065
#
# Velocity S-wave (km/s) = 3.51549 3.99822 3.76460
# Velocity P-wave (km/s) = 6.64842 7.74771 7.21902
#
# Compressibility (1/GPa) = 0.01577272
#
# Stress axis : x y z
#
# Youngs Moduli (GPa) = 63.42804 173.20517 116.82804
#
# Poissons Ratio (x) = 0.74486 0.12081
# Poissons Ratio (y) = 0.27277 0.21363
# Poissons Ratio (z) = 0.06559 0.31671
#
# Static dielectric constant tensor:
#      x y z
#    x 1.807850 0.000000 0.085610 
#    y 0.000000 1.911300 0.000000 
#    z 0.085610 0.000000 1.541110 
# 
# From -- ./inp_files/312312.got.cif
#   From: 2010.05.17/outbox.cif.g08.bks.cpg/sg12_157_cif.got.tgz:312312.got - 2010.06.03 13:09:07.
