data_PCOD9189766
_publ_section_title
;
Structure prediction by ZEFSAII (Michael W. Deem and Ramdas Pophale) SiO2 
 PCOD9189766
Probable space group: C 2/M
;
_chemical_formula_sum "Si O2"
_cell_formula_units_Z 52
_cell_length_a 18.854133
_cell_length_b 9.526636
_cell_length_c 23.986724
_cell_angle_alpha 90.000000
_cell_angle_beta 145.434237
_cell_angle_gamma 90.000000
_cell_volume 2444.384368
_symmetry_space_group_name_H-M "C 2/M"
_symmetry_group_IT_number 12
_symmetry_cell_setting 'monoclinic'
loop_
_space_group_symop_operation_xyz
x,y,z
-x,y,-z
-x,-y,-z
x,-y,z
1/2+x,1/2+y,z
1/2-x,1/2+y,-z
1/2-x,1/2-y,-z
1/2+x,1/2-y,z
loop_
_atom_site_type_symbol
_atom_site_label
_atom_site_fract_x
_atom_site_fract_y
_atom_site_fract_z
Si Si1 0.209575 0.765517 0.549385
Si Si2 0.493880 0.163140 0.130031
Si Si3 0.791936 0.831752 0.330736
Si Si4 0.623903 0.661079 0.042618
Si Si5 0.153152 0.832070 0.756267
Si Si6 0.497411 0.155993 0.736644
Si Si7 0.201790 0.000000 0.464681
O O1 0.165741 0.757681 0.584874
O O2 0.347969 0.836924 0.643592
O O3 0.141770 0.877509 0.466811
O O4 0.232556 0.622057 0.532157
O O5 0.642886 0.195260 0.224402
O O6 0.455012 0.174435 0.169559
O O7 0.479055 0.000000 0.103105
O O8 0.415375 0.264982 0.040287
O O9 0.858832 0.791951 0.316488
O O10 0.805013 0.000000 0.347778
O O11 0.666042 0.500000 0.061603
O O12 0.724802 0.754581 0.140012
O O13 0.500000 0.658318 0.000000
O O14 0.047883 0.774969 0.729461
O O15 0.165708 0.000000 0.767578
O O16 0.530182 0.000000 0.737209
#
# Coordination Sequence:
#
# PCOD9189766 Si02
#       7
#     8   8   8   8   8   8   4
#     4  10  19  38  62  92 113 144 184 234 273 334
#     4   9  18  35  60  78 105 150 200 236 277 322
#     4   9  17  35  57  83 111 148 191 233 271 332
#     4  11  22  36  53  83 116 148 188 250 284 319
#     4  11  23  36  58  81 113 157 194 225 284 335
#     4  10  21  39  57  83 118 152 181 235 285 332
#     4  10  20  34  66  94 112 140 184 230 284 328
#
# _framework density 21.273250999999998
#
# number of rings (size 3 to 8) (size 9 to 14) (size 15 to 20)
#    0.000    2.000    3.077    1.846    1.077    1.846 
#    6.923    0.000    0.000    5.538    0.000    0.000 
#    0.000    0.000    0.000    0.000    0.000    0.000 
#
# Total GULP energy -144748.980977 kJ/mol
# GULP energy per Si atom -5567.268499 kJ/mol
# Density = 2.122483 g / cm^3
# Si number density = 21.273251 Si / 1000 Ang^3
#
#
#
# Elastic Constant Matrix: (Units=GPa)
#
#
# Indices 1 2 3 4 5 6 
#
# 1 77.0361 29.3911 23.0368 -0.0001 -22.2247 0.0000
# 2 29.3911 137.7190 45.9657 0.0000 -28.5703 0.0000
# 3 23.0368 45.9657 68.6096 -0.0001 -27.1973 -0.0001
# 4 -0.0001 0.0000 -0.0001 11.1248 -0.0001 -34.7030
# 5 -22.2247 -28.5703 -27.1973 -0.0001 37.1337 0.0000
# 6 0.0000 0.0000 -0.0001 -34.7030 0.0000 16.9007
#
#
#
# Elastic Compliance Matrix: (Units=1/GPa)
#
#
# Indices 1 2 3 4 5 6 
#
# 1 0.016118 -0.001381 -0.001527 0.000000 0.007466 0.000000
# 2 -0.001381 0.009840 -0.004869 0.000000 0.003178 0.000000
# 3 -0.001527 -0.004869 0.023254 0.000000 0.012372 0.000000
# 4 0.000000 0.000000 0.000000 -0.016630 0.000000 -0.034147
# 5 0.007466 0.003178 0.012372 0.000000 0.042904 0.000000
# 6 0.000000 0.000000 0.000000 -0.034147 0.000000 -0.010947
#
#
# Mechanical properties :
#
#
# Convention : Reuss Voigt Hill
#
# Bulk Modulus (GPa) = 29.71062 53.35022 41.53042
# Shear Modulus (GPa) = 54.75552 25.36327 40.05939
#
# Velocity S-wave (km/s) = 5.07888 3.45666 4.34416
# Velocity P-wave (km/s) = 6.95628 6.40814 6.68783
#
# Compressibility (1/GPa) = 0.03365800
#
# Stress axis : x y z
#
# Youngs Moduli (GPa) = 62.04074 101.62196 43.00304
#
# Poissons Ratio (x) = 0.14038 0.06567
# Poissons Ratio (y) = 0.08571 0.20938
# Poissons Ratio (z) = 0.09474 0.49479
#
# Static dielectric constant tensor:
#      x y z
#    x 1.787800 0.000000 0.029060 
#    y 0.000000 1.706040 0.000000 
#    z 0.029060 0.000000 1.841660 
# 
# From -- ./inp_files/274408.got.cif
#   From: 2010.05.17/outbox.cif.g08.bks.cpg/sg12_138_cif.got.tgz:274408.got - 2010.06.03 13:09:07.
