data_PCOD9189585
_publ_section_title
;
Structure prediction by ZEFSAII (Michael W. Deem and Ramdas Pophale) SiO2 
 PCOD9189585
Probable space group: C 2/M
;
_chemical_formula_sum "Si O2"
_cell_formula_units_Z 36
_cell_length_a 15.559047
_cell_length_b 8.774075
_cell_length_c 23.511640
_cell_angle_alpha 90.000000
_cell_angle_beta 29.964300
_cell_angle_gamma 90.000000
_cell_volume 1603.128113
_symmetry_space_group_name_H-M "C 2/M"
_symmetry_group_IT_number 12
_symmetry_cell_setting 'monoclinic'
loop_
_space_group_symop_operation_xyz
x,y,z
-x,y,-z
-x,-y,-z
x,-y,z
1/2+x,1/2+y,z
1/2-x,1/2+y,-z
1/2-x,1/2-y,-z
1/2+x,1/2-y,z
loop_
_atom_site_type_symbol
_atom_site_label
_atom_site_fract_x
_atom_site_fract_y
_atom_site_fract_z
Si Si1 0.808348 0.272552 0.235110
Si Si2 0.054047 0.500000 0.404909
Si Si3 0.896797 0.170699 0.760476
Si Si4 0.087061 0.500000 0.627646
Si Si5 0.122403 0.173814 0.986379
Si Si6 0.295308 0.500000 0.612248
O O1 0.678398 0.137275 0.320312
O O2 0.723531 0.343441 0.226835
O O3 0.792014 0.363872 0.302777
O O4 0.999531 0.224279 0.108089
O O5 0.900604 0.500000 0.447312
O O6 0.000000 0.500000 0.500000
O O7 0.997696 0.334384 0.694033
O O8 0.977667 0.000000 0.721368
O O9 0.772987 0.209661 0.884658
O O10 0.256033 0.500000 0.568444
O O11 0.185358 0.000000 0.958381
O O12 0.000000 0.169405 0.000000
O O13 0.500000 0.500000 0.500000
#
# Coordination Sequence:
#
# PCOD9189585 Si02
#       6
#     8   4   8   4   8   4
#     4  10  20  37  64  94 133 174 225 277 332 400
#     4  10  20  41  69  98 123 175 232 281 338 401
#     4  10  19  37  69 101 133 174 223 274 340 411
#     4  10  24  45  68  96 142 176 217 289 346 392
#     4   9  16  30  60 101 133 172 218 272 337 403
#     4  12  26  46  64  92 135 181 230 290 339 393
#
# _framework density 22.456098000000001
#
# number of rings (size 3 to 8) (size 9 to 14) (size 15 to 20)
#    0.000    2.000    3.333    0.667    1.556    1.333 
#    2.000   11.111    0.000    0.000    0.000    0.000 
#    0.000    0.000    0.000    0.000    0.000    0.000 
#
# Total GULP energy -100272.819942 kJ/mol
# GULP energy per Si atom -5570.712219 kJ/mol
# Density = 2.240499 g / cm^3
# Si number density = 22.456098 Si / 1000 Ang^3
#
#
#
# Elastic Constant Matrix: (Units=GPa)
#
#
# Indices 1 2 3 4 5 6 
#
# 1 96.9486 27.6029 40.7258 0.0000 15.9248 0.0000
# 2 27.6029 156.7083 39.4697 0.0001 2.2047 -0.0001
# 3 40.7258 39.4697 131.1034 -0.0003 30.9957 -0.0001
# 4 0.0000 0.0001 -0.0003 -9.3361 0.0000 18.6908
# 5 15.9248 2.2047 30.9957 0.0000 22.0836 0.0000
# 6 0.0000 -0.0001 -0.0001 18.6908 0.0000 5.7336
#
#
#
# Elastic Compliance Matrix: (Units=1/GPa)
#
#
# Indices 1 2 3 4 5 6 
#
# 1 0.012623 -0.001641 -0.001966 0.000000 -0.006179 0.000000
# 2 -0.001641 0.007286 -0.002681 0.000000 0.004220 0.000000
# 3 -0.001966 -0.002681 0.012942 0.000000 -0.016479 0.000000
# 4 0.000000 0.000000 0.000000 -0.014232 0.000000 0.046394
# 5 -0.006179 0.004220 -0.016479 0.000000 0.072446 0.000000
# 6 0.000000 0.000000 0.000000 0.046394 0.000000 0.023174
#
#
# Mechanical properties :
#
#
# Convention : Reuss Voigt Hill
#
# Bulk Modulus (GPa) = 49.32637 66.70636 58.01636
# Shear Modulus (GPa) = 37.43237 22.16035 29.79636
#
# Velocity S-wave (km/s) = 4.08721 3.14479 3.64658
# Velocity P-wave (km/s) = 6.65486 6.55408 6.60466
#
# Compressibility (1/GPa) = 0.02027313
#
# Stress axis : x y z
#
# Youngs Moduli (GPa) = 79.22071 137.24258 77.27066
#
# Poissons Ratio (x) = 0.22525 0.15193
# Poissons Ratio (y) = 0.13002 0.20719
# Poissons Ratio (z) = 0.15576 0.36800
#
# Static dielectric constant tensor:
#      x y z
#    x 1.858320 0.000000 -0.007910 
#    y 0.000000 1.876080 0.000000 
#    z -0.007910 0.000000 1.790450 
# 
# From -- ./inp_files/308862.got.cif
#   From: 2010.05.17/outbox.cif.g08.bks.cpg/sg12_155_cif.got.tgz:308862.got - 2010.06.03 13:09:07.
