data_PCOD9189499
_publ_section_title
;
Structure prediction by ZEFSAII (Michael W. Deem and Ramdas Pophale) SiO2 
 PCOD9189499
Probable space group: C 2/M
;
_chemical_formula_sum "Si O2"
_cell_formula_units_Z 48
_cell_length_a 21.959691
_cell_length_b 14.699510
_cell_length_c 6.914481
_cell_angle_alpha 90.000000
_cell_angle_beta 93.633012
_cell_angle_gamma 90.000000
_cell_volume 2227.486227
_symmetry_space_group_name_H-M "C 2/M"
_symmetry_group_IT_number 12
_symmetry_cell_setting 'monoclinic'
loop_
_space_group_symop_operation_xyz
x,y,z
-x,y,-z
-x,-y,-z
x,-y,z
1/2+x,1/2+y,z
1/2-x,1/2+y,-z
1/2-x,1/2-y,-z
1/2+x,1/2-y,z
loop_
_atom_site_type_symbol
_atom_site_label
_atom_site_fract_x
_atom_site_fract_y
_atom_site_fract_z
Si Si1 0.108852 0.856463 0.779494
Si Si2 0.024161 0.099529 0.282718
Si Si3 0.662770 0.103393 0.278952
Si Si4 0.792881 0.900022 0.520014
Si Si5 0.431879 0.781130 0.531898
Si Si6 0.690082 0.277434 0.104965
O O1 0.042360 0.892497 0.831861
O O2 0.150071 0.901180 0.618008
O O3 0.094095 0.761891 0.670073
O O4 0.151233 0.847024 0.971672
O O5 0.061218 0.195327 0.309949
O O6 0.000000 0.094006 0.500000
O O7 0.052825 0.000000 0.246197
O O8 0.730304 0.112463 0.386934
O O9 0.611306 0.137625 0.415025
O O10 0.657360 0.180353 0.116569
O O11 0.655016 0.000000 0.215790
O O12 0.798114 0.822028 0.682712
O O13 0.789717 0.000000 0.612980
O O14 0.500000 0.811322 0.500000
O O15 0.750000 0.250000 0.000000
#
# Coordination Sequence:
#
# PCOD9189499 Si02
#       6
#     8   8   8   8   8   8
#     4  10  19  37  64  91 127 158 197 250 315 375
#     4   8  16  32  60  90 120 156 193 243 309 371
#     4  11  23  41  61  87 125 167 212 261 307 361
#     4  11  23  38  63  94 126 161 202 249 316 382
#     4   9  19  38  64  88 117 168 211 252 311 358
#     4  12  23  38  64  90 131 165 204 251 312 375
#
# _framework density 21.548953999999998
#
# number of rings (size 3 to 8) (size 9 to 14) (size 15 to 20)
#    0.000    2.167    3.333    2.000    0.000    3.000 
#    0.000    4.167    0.000    6.000    0.000    0.000 
#    0.000    0.000    0.000    0.000    0.000    0.000 
#
# Total GULP energy -133782.217659 kJ/mol
# GULP energy per Si atom -5574.259069 kJ/mol
# Density = 2.149991 g / cm^3
# Si number density = 21.548954 Si / 1000 Ang^3
#
#
#
# Elastic Constant Matrix: (Units=GPa)
#
#
# Indices 1 2 3 4 5 6 
#
# 1 94.3862 10.3083 6.6232 0.0000 -7.9574 0.0000
# 2 10.3083 114.8577 18.0623 0.0000 -8.4318 0.0000
# 3 6.6232 18.0623 47.1628 0.0000 -4.8836 0.0000
# 4 0.0000 0.0000 0.0000 7.0567 0.0000 -9.4164
# 5 -7.9574 -8.4318 -4.8836 0.0000 34.3295 0.0000
# 6 0.0000 0.0000 0.0000 -9.4164 0.0000 19.4049
#
#
#
# Elastic Compliance Matrix: (Units=1/GPa)
#
#
# Indices 1 2 3 4 5 6 
#
# 1 0.010927 -0.000652 -0.001055 0.000000 0.002223 0.000000
# 2 -0.000652 0.009414 -0.003339 0.000000 0.001686 0.000000
# 3 -0.001055 -0.003339 0.022857 0.000000 0.002187 0.000000
# 4 0.000000 0.000000 0.000000 0.402046 0.000000 0.195097
# 5 0.002223 0.001686 0.002187 0.000000 0.030370 0.000000
# 6 0.000000 0.000000 0.000000 0.195097 0.000000 0.146206
#
#
# Mechanical properties :
#
#
# Convention : Reuss Voigt Hill
#
# Bulk Modulus (GPa) = 30.20565 36.26603 33.23584
# Shear Modulus (GPa) = 7.77670 26.91909 17.34789
#
# Velocity S-wave (km/s) = 1.90176 3.53825 2.84041
# Velocity P-wave (km/s) = 4.34395 5.79296 5.11997
#
# Compressibility (1/GPa) = 0.03310639
#
# Stress axis : x y z
#
# Youngs Moduli (GPa) = 91.51344 106.22708 43.75118
#
# Poissons Ratio (x) = 0.06922 0.04615
# Poissons Ratio (y) = 0.05964 0.14609
# Poissons Ratio (z) = 0.09653 0.35471
#
# Static dielectric constant tensor:
#      x y z
#    x 1.879920 0.000000 -0.002370 
#    y 0.000000 1.785200 0.000000 
#    z -0.002370 0.000000 1.870020 
# 
# From -- ./inp_files/28153.got.cif
#   From: 2010.05.17/outbox.cif.g08.bks.cpg/sg12_15_cif.got.tgz:28153.got - 2010.06.03 13:09:07.
