data_PCOD9189937
_publ_section_title
;
Structure prediction by ZEFSAII (Michael W. Deem and Ramdas Pophale) SiO2 
 PCOD9189937
Probable space group: C 2/M
;
_chemical_formula_sum "Si O2"
_cell_formula_units_Z 32
_cell_length_a 17.496544
_cell_length_b 12.642354
_cell_length_c 11.178401
_cell_angle_alpha 90.000000
_cell_angle_beta 30.095314
_cell_angle_gamma 90.000000
_cell_volume 1239.877734
_symmetry_space_group_name_H-M "C 2/M"
_symmetry_group_IT_number 12
_symmetry_cell_setting 'monoclinic'
loop_
_space_group_symop_operation_xyz
x,y,z
-x,y,-z
-x,-y,-z
x,-y,z
1/2+x,1/2+y,z
1/2-x,1/2+y,-z
1/2-x,1/2-y,-z
1/2+x,1/2-y,z
loop_
_atom_site_type_symbol
_atom_site_label
_atom_site_fract_x
_atom_site_fract_y
_atom_site_fract_z
Si Si1 0.972532 0.000000 0.762513
Si Si2 0.704625 0.500000 0.671952
Si Si3 0.230168 0.500000 0.758368
Si Si4 0.500000 0.829709 0.000000
Si Si5 0.960341 0.500000 0.750568
Si Si6 0.000000 0.681170 0.500000
Si Si7 0.331051 0.681741 0.080379
O O1 0.085948 0.000000 0.725490
O O2 0.090521 0.000000 0.496419
O O3 0.873073 0.894647 0.913638
O O4 0.683791 0.601342 0.786754
O O5 0.879581 0.500000 0.396700
O O6 0.150579 0.400382 0.800779
O O7 0.171076 0.500000 0.974170
O O8 0.529422 0.757980 0.076699
O O9 0.967878 0.601760 0.654436
O O10 0.835498 0.735360 0.705968
#
# Coordination Sequence:
#
# PCOD9189937 Si02
#       7
#     4   4   4   4   4   4   8
#     4  11  19  36  62 101 131 164 207 275 328 369
#     4   9  15  31  61  96 120 154 215 280 304 351
#     4  11  26  39  57  97 145 171 197 266 344 384
#     4  11  22  43  64  98 132 171 216 265 318 384
#     4   9  18  40  61  88 130 175 207 253 331 386
#     4   9  20  40  74  93 118 168 228 271 304 379
#     4  10  19  38  69  99 120 166 226 268 306 371
#
# _framework density 25.808996
#
# number of rings (size 3 to 8) (size 9 to 14) (size 15 to 20)
#    0.000    2.000    2.500    4.500    0.000    1.000 
#    9.000    3.750    5.500    2.250    0.000    0.000 
#    0.000    0.000    0.000    0.000    0.000    0.000 
#
# Total GULP energy -89512.582144 kJ/mol
# GULP energy per Si atom -5594.536384 kJ/mol
# Density = 2.575025 g / cm^3
# Si number density = 25.808996 Si / 1000 Ang^3
#
#
#
# Elastic Constant Matrix: (Units=GPa)
#
#
# Indices 1 2 3 4 5 6 
#
# 1 110.8430 23.2061 54.6787 0.0000 -12.2108 0.0000
# 2 23.2061 70.3634 19.3285 0.0000 -6.6176 0.0000
# 3 54.6787 19.3285 190.3616 0.0000 -2.3852 0.0000
# 4 0.0000 0.0000 0.0000 11.4286 0.0000 -33.4711
# 5 -12.2108 -6.6176 -2.3852 0.0000 52.0925 0.0000
# 6 0.0000 0.0000 0.0000 -33.4711 0.0000 74.4196
#
#
#
# Elastic Compliance Matrix: (Units=1/GPa)
#
#
# Indices 1 2 3 4 5 6 
#
# 1 0.011276 -0.002709 -0.002937 0.000000 0.002165 0.000000
# 2 -0.002709 0.015439 -0.000773 0.000000 0.001291 0.000000
# 3 -0.002937 -0.000773 0.006169 0.000000 -0.000504 0.000000
# 4 0.000000 0.000000 0.000000 -0.275831 0.000000 -0.124058
# 5 0.002165 0.001291 -0.000504 0.000000 0.019845 0.000000
# 6 0.000000 0.000000 0.000000 -0.124058 0.000000 -0.042359
#
#
# Mechanical properties :
#
#
# Convention : Reuss Voigt Hill
#
# Bulk Modulus (GPa) = 49.88399 62.88827 56.38613
# Shear Modulus (GPa) = -20.32999 45.87845 12.77423
#
# Velocity S-wave (km/s) = -2.80966 4.22075 2.22717
# Velocity P-wave (km/s) = 2.97397 6.94065 5.33934
#
# Compressibility (1/GPa) = 0.02004651
#
# Stress axis : x y z
#
# Youngs Moduli (GPa) = 88.68408 64.77058 162.10318
#
# Poissons Ratio (x) = 0.17544 0.47605
# Poissons Ratio (y) = 0.24021 0.12538
# Poissons Ratio (z) = 0.26044 0.05010
#
# Static dielectric constant tensor:
#      x y z
#    x 2.032850 0.000000 -0.003020 
#    y 0.000000 2.074890 0.000000 
#    z -0.003020 0.000000 2.005200 
# 
# From -- ./inp_files/156488.got.cif
#   From: 2010.05.17/outbox.cif.g08.bks.cpg/sg12_79_cif.got.tgz:156488.got - 2010.06.03 13:09:07.
