data_PCOD9189765
_publ_section_title
;
Structure prediction by ZEFSAII (Michael W. Deem and Ramdas Pophale) SiO2 
 PCOD9189765
Probable space group: C 2/M
;
_chemical_formula_sum "Si O2"
_cell_formula_units_Z 56
_cell_length_a 9.018218
_cell_length_b 31.403184
_cell_length_c 16.171047
_cell_angle_alpha 90.000000
_cell_angle_beta 38.906217
_cell_angle_gamma 90.000000
_cell_volume 2876.239479
_symmetry_space_group_name_H-M "C 2/M"
_symmetry_group_IT_number 12
_symmetry_cell_setting 'monoclinic'
loop_
_space_group_symop_operation_xyz
x,y,z
-x,y,-z
-x,-y,-z
x,-y,z
1/2+x,1/2+y,z
1/2-x,1/2+y,-z
1/2-x,1/2-y,-z
1/2+x,1/2-y,z
loop_
_atom_site_type_symbol
_atom_site_label
_atom_site_fract_x
_atom_site_fract_y
_atom_site_fract_z
Si Si1 0.380744 0.665269 0.807948
Si Si2 0.244218 0.000000 0.655614
Si Si3 0.237004 0.500000 0.153062
Si Si4 0.593124 0.837987 0.091356
Si Si5 0.995146 0.265176 0.239572
Si Si6 0.509544 0.767798 0.409295
Si Si7 0.747793 0.594101 0.654473
Si Si8 0.265726 0.092736 0.846502
O O1 0.450968 0.715035 0.778249
O O2 0.586028 0.632949 0.695395
O O3 0.155809 0.660088 0.846925
O O4 0.293829 0.653011 0.937440
O O5 0.500000 0.000000 0.500000
O O6 0.258354 0.000000 0.749201
O O7 0.140372 0.046866 0.681040
O O8 0.132282 0.545815 0.175237
O O9 0.500000 0.500000 0.000000
O O10 0.624830 0.790333 0.111822
O O11 0.599290 0.870237 0.164512
O O12 0.072917 0.286552 0.292815
O O13 0.713494 0.266694 0.342069
O O14 0.500000 0.793113 0.500000
O O15 0.250000 0.750000 0.500000
O O16 0.770341 0.597047 0.744980
O O17 0.000000 0.596154 0.500000
O O18 0.000000 0.094113 0.000000
#
# Coordination Sequence:
#
# PCOD9189765 Si02
#       8
#     8   4   4   8   8   8   8   8
#     4  11  24  41  56  85 120 160 203 256 301 359
#     4   8  16  34  61  89 123 153 194 245 299 362
#     4   8  16  30  59  89 119 147 196 248 297 354
#     4  11  24  40  58  83 123 156 204 255 301 358
#     4  11  21  40  56  81 114 161 207 249 300 352
#     4   9  20  37  58  81 112 151 196 251 306 358
#     4  10  21  39  64  95 121 158 202 250 303 367
#     4  10  19  38  62  91 118 159 201 248 299 362
#
# _framework density 19.469866
#
# number of rings (size 3 to 8) (size 9 to 14) (size 15 to 20)
#    0.000    2.000    2.857    0.429    2.000    1.714 
#    5.143    1.429    0.000    1.714    0.000    6.000 
#    0.000    0.000    0.000    0.000    0.000    0.000 
#
# Total GULP energy -155895.645552 kJ/mol
# GULP energy per Si atom -5567.701627 kJ/mol
# Density = 1.942555 g / cm^3
# Si number density = 19.469866 Si / 1000 Ang^3
#
#
#
# Elastic Constant Matrix: (Units=GPa)
#
#
# Indices 1 2 3 4 5 6 
#
# 1 79.3782 29.1246 31.4022 0.0000 13.0255 0.0000
# 2 29.1246 139.7147 22.4139 0.0000 -6.6228 0.0000
# 3 31.4022 22.4139 86.7565 0.0000 14.7125 0.0000
# 4 0.0000 0.0000 0.0000 22.9466 0.0000 2.3030
# 5 13.0255 -6.6228 14.7125 0.0000 26.7988 0.0000
# 6 0.0000 0.0000 0.0000 2.3030 0.0000 19.1035
#
#
#
# Elastic Compliance Matrix: (Units=1/GPa)
#
#
# Indices 1 2 3 4 5 6 
#
# 1 0.016392 -0.003079 -0.004033 0.000000 -0.006514 0.000000
# 2 -0.003079 0.008303 -0.001800 0.000000 0.004537 0.000000
# 3 -0.004033 -0.001800 0.014549 0.000000 -0.006472 0.000000
# 4 0.000000 0.000000 0.000000 0.044113 0.000000 -0.005318
# 5 -0.006514 0.004537 -0.006472 0.000000 0.045155 0.000000
# 6 0.000000 0.000000 0.000000 -0.005318 0.000000 0.052988
#
#
# Mechanical properties :
#
#
# Convention : Reuss Voigt Hill
#
# Bulk Modulus (GPa) = 46.68537 52.41452 49.54995
# Shear Modulus (GPa) = 24.21729 28.63035 26.42382
#
# Velocity S-wave (km/s) = 3.53063 3.83886 3.68797
# Velocity P-wave (km/s) = 6.37580 6.82850 6.60603
#
# Compressibility (1/GPa) = 0.02141998
#
# Stress axis : x y z
#
# Youngs Moduli (GPa) = 61.00547 120.43749 68.73370
#
# Poissons Ratio (x) = 0.37080 0.27721
# Poissons Ratio (y) = 0.18782 0.12373
# Poissons Ratio (z) = 0.24604 0.21680
#
# Static dielectric constant tensor:
#      x y z
#    x 1.680560 0.000000 0.031720 
#    y 0.000000 1.725680 0.000000 
#    z 0.031720 0.000000 1.750680 
# 
# From -- ./inp_files/260138.got.cif
#   From: 2010.05.17/outbox.cif.g08.bks.cpg/sg12_131_cif.got.tgz:260138.got - 2010.06.03 13:09:07.
