data_PCOD9189730
_publ_section_title
;
Structure prediction by ZEFSAII (Michael W. Deem and Ramdas Pophale) SiO2 
 PCOD9189730
Probable space group: C 2/M
;
_chemical_formula_sum "Si O2"
_cell_formula_units_Z 48
_cell_length_a 14.706888
_cell_length_b 23.309504
_cell_length_c 11.732528
_cell_angle_alpha 90.000000
_cell_angle_beta 31.995257
_cell_angle_gamma 90.000000
_cell_volume 2131.069361
_symmetry_space_group_name_H-M "C 2/M"
_symmetry_group_IT_number 12
_symmetry_cell_setting 'monoclinic'
loop_
_space_group_symop_operation_xyz
x,y,z
-x,y,-z
-x,-y,-z
x,-y,z
1/2+x,1/2+y,z
1/2-x,1/2+y,-z
1/2-x,1/2-y,-z
1/2+x,1/2-y,z
loop_
_atom_site_type_symbol
_atom_site_label
_atom_site_fract_x
_atom_site_fract_y
_atom_site_fract_z
Si Si1 0.261237 0.150762 0.322606
Si Si2 0.303032 0.722745 0.256028
Si Si3 0.549502 0.500000 0.812000
Si Si4 0.085930 0.124602 0.711059
Si Si5 0.860472 0.000000 0.760795
Si Si6 0.878989 0.612782 0.974371
Si Si7 0.728828 0.808648 0.096326
O O1 0.263623 0.216919 0.355361
O O2 0.106399 0.122313 0.553108
O O3 0.272666 0.152507 0.175470
O O4 0.426110 0.114000 0.187784
O O5 0.296008 0.670550 0.350509
O O6 0.500000 0.729138 0.000000
O O7 0.189760 0.710469 0.265568
O O8 0.629723 0.562785 0.713998
O O9 0.439030 0.500000 0.807811
O O10 0.500000 0.500000 0.000000
O O11 0.898967 0.151414 0.928783
O O12 0.728963 0.945614 0.901028
O O13 0.000000 0.000000 0.500000
O O14 0.889154 0.646767 0.845375
O O15 0.750000 0.750000 0.000000
#
# Coordination Sequence:
#
# PCOD9189730 Si02
#       7
#     8   8   4   8   4   8   8
#     4  11  22  42  62  93 134 172 215 271 345 401
#     4  10  19  38  61  93 128 167 211 269 330 397
#     4  12  24  45  69  97 133 177 224 274 337 402
#     4  11  24  38  67  94 126 172 226 267 323 409
#     4  12  26  44  69 105 133 169 236 284 320 405
#     4  11  23  40  64  91 131 172 212 271 338 389
#     4  11  20  38  63  90 125 167 212 271 325 387
#
# _framework density 22.523904999999999
#
# number of rings (size 3 to 8) (size 9 to 14) (size 15 to 20)
#    0.000    1.000    5.000    4.000    0.000    2.000 
#    0.000    2.500    0.000    1.000    0.000    0.000 
#    0.000    0.000    0.000    0.000    0.000    0.000 
#
# Total GULP energy -133621.645993 kJ/mol
# GULP energy per Si atom -5567.568583 kJ/mol
# Density = 2.247264 g / cm^3
# Si number density = 22.523905 Si / 1000 Ang^3
#
#
#
# Elastic Constant Matrix: (Units=GPa)
#
#
# Indices 1 2 3 4 5 6 
#
# 1 97.3274 23.1345 20.5965 -0.0006 15.2883 -0.0047
# 2 23.1345 158.1821 24.6302 -0.0030 -5.1341 -0.0021
# 3 20.5965 24.6302 67.8954 0.0030 10.8525 -0.0053
# 4 -0.0006 -0.0030 0.0030 -1.0617 -0.0039 7.7471
# 5 15.2883 -5.1341 10.8525 -0.0039 21.0474 0.0031
# 6 -0.0047 -0.0021 -0.0053 7.7471 0.0031 23.8411
#
#
#
# Elastic Compliance Matrix: (Units=1/GPa)
#
#
# Indices 1 2 3 4 5 6 
#
# 1 0.012422 -0.001825 -0.001736 0.000014 -0.008573 -0.000001
# 2 -0.001825 0.007165 -0.002765 -0.000015 0.004499 0.000004
# 3 -0.001736 -0.002765 0.017616 0.000036 -0.008497 -0.000007
# 4 0.000014 -0.000015 0.000036 -0.279396 -0.000098 0.090789
# 5 -0.008573 0.004499 -0.008497 -0.000098 0.059218 0.000021
# 6 -0.000001 0.000004 -0.000007 0.090789 0.000021 0.012443
#
#
# Mechanical properties :
#
#
# Convention : Reuss Voigt Hill
#
# Bulk Modulus (GPa) = 40.72900 51.12527 45.92714
# Shear Modulus (GPa) = -33.40101 25.76827 -3.81637
#
# Velocity S-wave (km/s) = -3.85504 3.38604 -1.30309
# Velocity P-wave (km/s) = 1.30126 6.16721 4.26270
#
# Compressibility (1/GPa) = 0.02455253
#
# Stress axis : x y z
#
# Youngs Moduli (GPa) = 80.49956 139.56280 56.76554
#
# Poissons Ratio (x) = 0.25467 0.09855
# Poissons Ratio (y) = 0.14689 0.15695
# Poissons Ratio (z) = 0.13976 0.38587
#
# Static dielectric constant tensor:
#      x y z
#    x 1.951940 0.000010 0.001080 
#    y 0.000010 1.560060 0.000010 
#    z 0.001080 0.000010 1.871580 
# 
# From -- ./inp_files/147959.got.cif
#   From: 2010.05.17/outbox.cif.g08.bks.cpg/sg12_74_cif.got.tgz:147959.got - 2010.06.03 13:09:07.
