data_PCOD9189321
_publ_section_title
;
Structure prediction by ZEFSAII (Michael W. Deem and Ramdas Pophale) SiO2 
 PCOD9189321
Probable space group: C 2/M
;
_chemical_formula_sum "Si O2"
_cell_formula_units_Z 58
_cell_length_a 19.438922
_cell_length_b 7.363867
_cell_length_c 19.426720
_cell_angle_alpha 90.000000
_cell_angle_beta 130.272602
_cell_angle_gamma 90.000000
_cell_volume 2121.726207
_symmetry_space_group_name_H-M "C 2/M"
_symmetry_group_IT_number 12
_symmetry_cell_setting 'monoclinic'
loop_
_space_group_symop_operation_xyz
x,y,z
-x,y,-z
-x,-y,-z
x,-y,z
1/2+x,1/2+y,z
1/2-x,1/2+y,-z
1/2-x,1/2-y,-z
1/2+x,1/2-y,z
loop_
_atom_site_type_symbol
_atom_site_label
_atom_site_fract_x
_atom_site_fract_y
_atom_site_fract_z
Si Si1 0.918319 0.217684 0.698760
Si Si2 0.767957 0.709092 0.253630
Si Si3 0.000000 0.000000 0.500000
Si Si4 0.475752 0.788919 0.591430
Si Si5 0.676912 0.211335 0.852670
Si Si6 0.065536 0.293907 0.130846
Si Si7 0.720074 0.779503 0.583435
Si Si8 0.876439 0.721398 0.036291
O O1 0.983592 0.271676 0.678830
O O2 0.934659 0.293973 0.785259
O O3 0.815552 0.278070 0.613672
O O4 0.918870 0.000000 0.705077
O O5 0.798177 0.500000 0.277782
O O6 0.818773 0.791138 0.221098
O O7 0.659793 0.706830 0.170836
O O8 0.777960 0.785760 0.336326
O O9 0.028799 0.159762 0.574845
O O10 0.373049 0.719584 0.509826
O O11 0.484850 0.000000 0.579003
O O12 0.624452 0.287874 0.884672
O O13 0.652128 0.000000 0.831281
O O14 0.781964 0.219126 0.944012
O O15 0.070591 0.500000 0.108656
O O16 0.965430 0.218726 0.052831
O O17 0.719730 0.000000 0.582159
O O18 0.877347 0.500000 0.037621
#
# Coordination Sequence:
#
# PCOD9189321 Si02
#       8
#     8   8   2   8   8   8   8   8
#     4  10  19  37  61  88 117 145 190 247 290 342
#     4   9  18  35  55  81 112 142 182 236 285 337
#     4  12  26  44  56  86 128 156 202 246 288 350
#     4  11  22  41  63  85 118 163 199 239 296 347
#     4   9  18  34  56  76 101 141 188 230 278 340
#     4  10  20  34  53  82 113 146 184 230 287 344
#     4   8  17  34  60  86 112 146 189 241 295 344
#     4   9  19  35  53  75 108 143 184 232 278 339
#
# _framework density 27.336234000000001
#
# number of rings (size 3 to 8) (size 9 to 14) (size 15 to 20)
#    0.000    2.483    0.690    2.276    0.000    2.207 
#    8.690    2.759    0.000    0.000    0.000    0.000 
#    0.000    0.000    0.000    0.000    0.000    0.000 
#
# Total GULP energy -162095.923001 kJ/mol
# GULP energy per Si atom -5589.514586 kJ/mol
# Density = 2.727402 g / cm^3
# Si number density = 27.336234 Si / 1000 Ang^3
#
#
#
# Elastic Constant Matrix: (Units=GPa)
#
#
# Indices 1 2 3 4 5 6 
#
# 1 173.4890 -2.6400 33.1670 0.0000 -8.9782 0.0000
# 2 -2.6400 150.5952 -3.3765 0.0000 -10.8265 0.0000
# 3 33.1670 -3.3765 83.3510 0.0000 -11.9280 0.0000
# 4 0.0000 0.0000 0.0000 13.8274 0.0000 -6.9303
# 5 -8.9782 -10.8265 -11.9280 0.0000 68.3714 0.0000
# 6 0.0000 0.0000 0.0000 -6.9303 0.0000 -4.6612
#
#
#
# Elastic Compliance Matrix: (Units=1/GPa)
#
#
# Indices 1 2 3 4 5 6 
#
# 1 0.006250 0.000085 -0.002425 0.000000 0.000411 0.000000
# 2 0.000085 0.006733 0.000403 0.000000 0.001148 0.000000
# 3 -0.002425 0.000403 0.013274 0.000000 0.002061 0.000000
# 4 0.000000 0.000000 0.000000 0.041440 0.000000 -0.061613
# 5 0.000411 0.001148 0.002061 0.000000 0.015221 0.000000
# 6 0.000000 0.000000 0.000000 -0.061613 0.000000 -0.122931
#
#
# Mechanical properties :
#
#
# Convention : Reuss Voigt Hill
#
# Bulk Modulus (GPa) = 44.67550 51.30405 47.98977
# Shear Modulus (GPa) = -174.35320 40.85983 -66.74669
#
# Velocity S-wave (km/s) = -7.99496 3.87035 -4.94671
# Velocity P-wave (km/s) = 8.29744 6.22746 3.87725
#
# Compressibility (1/GPa) = 0.02238363
#
# Stress axis : x y z
#
# Youngs Moduli (GPa) = 159.99528 148.51436 75.33734
#
# Poissons Ratio (x) = -0.01259 0.18268
# Poissons Ratio (y) = -0.01356 -0.03038
# Poissons Ratio (z) = 0.38796 -0.05989
#
# Static dielectric constant tensor:
#      x y z
#    x 2.163570 0.000000 0.032310 
#    y 0.000000 2.041230 0.000000 
#    z 0.032310 0.000000 2.211040 
# 
# From -- ./inp_files/314831.got.cif
#   From: 2010.05.17/outbox.cif.g08.bks.cpg/sg12_158_cif.got.tgz:314831.got - 2010.06.03 13:09:07.
