data_PCOD9189474
_publ_section_title
;
Structure prediction by ZEFSAII (Michael W. Deem and Ramdas Pophale) SiO2 
 PCOD9189474
Probable space group: C 2/M
;
_chemical_formula_sum "Si O2"
_cell_formula_units_Z 64
_cell_length_a 21.749392
_cell_length_b 14.990530
_cell_length_c 25.489915
_cell_angle_alpha 90.000000
_cell_angle_beta 21.493647
_cell_angle_gamma 90.000000
_cell_volume 3044.988525
_symmetry_space_group_name_H-M "C 2/M"
_symmetry_group_IT_number 12
_symmetry_cell_setting 'monoclinic'
loop_
_space_group_symop_operation_xyz
x,y,z
-x,y,-z
-x,-y,-z
x,-y,z
1/2+x,1/2+y,z
1/2-x,1/2+y,-z
1/2-x,1/2-y,-z
1/2+x,1/2-y,z
loop_
_atom_site_type_symbol
_atom_site_label
_atom_site_fract_x
_atom_site_fract_y
_atom_site_fract_z
Si Si1 0.741904 0.819759 0.957818
Si Si2 0.208087 0.606408 0.177426
Si Si3 0.346865 0.894279 0.507874
Si Si4 0.445663 0.098932 0.809639
Si Si5 0.012042 0.750804 0.046516
Si Si6 0.700520 0.607216 0.430004
Si Si7 0.932825 0.893900 0.352886
Si Si8 0.182754 0.270671 0.373560
O O1 0.921061 0.839650 0.790852
O O2 0.750000 0.750000 0.000000
O O3 0.673018 0.903050 0.045817
O O4 0.611494 0.797594 0.014941
O O5 0.240535 0.500000 0.152896
O O6 0.149450 0.634857 0.165399
O O7 0.043988 0.625097 0.342782
O O8 0.372421 0.663198 0.058109
O O9 0.242997 0.875778 0.537116
O O10 0.272689 0.834696 0.613048
O O11 0.330283 0.000000 0.532094
O O12 0.617859 0.139951 0.693020
O O13 0.497125 0.000000 0.751002
O O14 0.828825 0.773343 0.214604
O O15 0.000000 0.700969 0.000000
O O16 0.704165 0.500000 0.416478
O O17 0.579316 0.624488 0.575582
O O18 0.662974 0.669819 0.410956
O O19 0.963671 0.000000 0.322612
O O20 0.000000 0.301064 0.500000
#
# Coordination Sequence:
#
# PCOD9189474 Si02
#       8
#     8   8   8   8   8   8   8   8
#     4  12  23  38  63  97 129 169 214 266 319 384
#     4  10  21  40  66  94 131 173 209 259 326 389
#     4  10  22  41  66 101 135 166 211 266 325 391
#     4  10  19  37  63  93 128 164 206 263 325 381
#     4  12  27  44  61  92 132 170 218 267 323 393
#     4  10  22  42  68  97 129 166 215 275 330 383
#     4  10  22  39  65 100 134 164 207 269 332 388
#     4  12  27  44  67  90 123 178 224 269 322 384
#
# _framework density 21.018141
#
# number of rings (size 3 to 8) (size 9 to 14) (size 15 to 20)
#    0.000    1.250    3.750    1.875    3.500    1.750 
#    0.000    0.000    0.000    1.875    0.000    0.000 
#    0.000    0.000    0.000    0.000    0.000    0.000 
#
# Total GULP energy -178656.735147 kJ/mol
# GULP energy per Si atom -5583.022973 kJ/mol
# Density = 2.097030 g / cm^3
# Si number density = 21.018141 Si / 1000 Ang^3
#
#
#
# Elastic Constant Matrix: (Units=GPa)
#
#
# Indices 1 2 3 4 5 6 
#
# 1 91.3241 17.5614 28.7795 0.0007 10.5373 0.0001
# 2 17.5614 48.8517 29.5031 -0.0033 12.1707 0.0028
# 3 28.7795 29.5031 133.5935 -0.0042 15.6944 -0.0019
# 4 0.0007 -0.0033 -0.0042 31.1352 0.0010 -1.3590
# 5 10.5373 12.1707 15.6944 0.0010 37.9647 0.0007
# 6 0.0001 0.0028 -0.0019 -1.3590 0.0007 20.0318
#
#
#
# Elastic Compliance Matrix: (Units=1/GPa)
#
#
# Indices 1 2 3 4 5 6 
#
# 1 0.012274 -0.002892 -0.001802 -0.000001 -0.001735 0.000000
# 2 -0.002892 0.025533 -0.004360 0.000002 -0.005580 -0.000004
# 3 -0.001802 -0.004360 0.009053 0.000001 -0.001845 0.000002
# 4 -0.000001 0.000002 0.000001 0.032213 -0.000002 0.002185
# 5 -0.001735 -0.005580 -0.001845 -0.000002 0.029373 -0.000001
# 6 0.000000 -0.000004 0.000002 0.002185 -0.000001 0.050069
#
#
# Mechanical properties :
#
#
# Convention : Reuss Voigt Hill
#
# Bulk Modulus (GPa) = 34.77948 47.27303 41.02626
# Shear Modulus (GPa) = 26.85166 31.02135 28.93650
#
# Velocity S-wave (km/s) = 3.57816 3.84595 3.71447
# Velocity P-wave (km/s) = 5.80123 6.50094 6.16102
#
# Compressibility (1/GPa) = 0.02875259
#
# Stress axis : x y z
#
# Youngs Moduli (GPa) = 81.47248 39.16453 110.45865
#
# Poissons Ratio (x) = 0.11327 0.19901
# Poissons Ratio (y) = 0.23562 0.48163
# Poissons Ratio (z) = 0.14679 0.17077
#
# Static dielectric constant tensor:
#      x y z
#    x 1.774400 0.000000 -0.002330 
#    y 0.000000 1.825100 0.000010 
#    z -0.002330 0.000010 1.754740 
# 
# From -- ./inp_files/347850.got.cif
#   From: 2010.05.17/outbox.cif.g08.bks.cpg/sg12_174_cif.got.tgz:347850.got - 2010.06.03 13:09:07.
