data_PCOD9189040
_publ_section_title
;
Structure prediction by ZEFSAII (Michael W. Deem and Ramdas Pophale) SiO2 
 PCOD9189040
Probable space group: C 2/M
;
_chemical_formula_sum "Si O2"
_cell_formula_units_Z 48
_cell_length_a 9.232479
_cell_length_b 14.931949
_cell_length_c 23.145113
_cell_angle_alpha 90.000000
_cell_angle_beta 37.264107
_cell_angle_gamma 90.000000
_cell_volume 1931.973101
_symmetry_space_group_name_H-M "C 2/M"
_symmetry_group_IT_number 12
_symmetry_cell_setting 'monoclinic'
loop_
_space_group_symop_operation_xyz
x,y,z
-x,y,-z
-x,-y,-z
x,-y,z
1/2+x,1/2+y,z
1/2-x,1/2+y,-z
1/2-x,1/2-y,-z
1/2+x,1/2-y,z
loop_
_atom_site_type_symbol
_atom_site_label
_atom_site_fract_x
_atom_site_fract_y
_atom_site_fract_z
Si Si1 0.536970 0.699484 0.203627
Si Si2 0.411976 0.000000 0.231067
Si Si3 0.330002 0.846301 0.344257
Si Si4 0.391416 0.500000 0.109432
Si Si5 0.998941 0.201951 0.086942
Si Si6 0.658065 0.500000 0.614543
Si Si7 0.917737 0.000000 0.237363
Si Si8 0.271530 0.644850 0.500805
O O1 0.394208 0.746741 0.301567
O O2 0.413320 0.713643 0.181012
O O3 0.561761 0.592891 0.200308
O O4 0.791653 0.747694 0.118559
O O5 0.434276 0.911662 0.263409
O O6 0.688035 0.000000 0.122706
O O7 0.140515 0.000000 0.291882
O O8 0.389103 0.872693 0.391303
O O9 0.049811 0.866545 0.427912
O O10 0.515895 0.597055 0.067075
O O11 0.324067 0.500000 0.201168
O O12 0.250000 0.250000 0.000000
O O13 0.742229 0.500000 0.653817
O O14 0.751675 0.584811 0.548310
O O15 0.250000 0.750000 0.500000
#
# Coordination Sequence:
#
# PCOD9189040 Si02
#       8
#     8   4   8   4   8   4   4   8
#     4  11  24  42  69  95 131 174 218 272 331 398
#     4  10  19  36  66  92 120 164 227 269 316 382
#     4  10  21  36  59  91 122 169 224 268 320 378
#     4  10  22  44  67 100 129 174 210 274 332 393
#     4  11  25  45  69 100 132 168 216 272 337 402
#     4  10  21  38  61  96 131 173 226 278 320 377
#     4  10  24  38  61  97 135 166 218 260 335 396
#     4  10  21  35  57  87 128 168 217 275 319 370
#
# _framework density 24.845067
#
# number of rings (size 3 to 8) (size 9 to 14) (size 15 to 20)
#    0.000    1.667    1.667    2.000    7.000    2.667 
#    0.000    5.833    0.000    4.000    0.000    0.000 
#    0.000    0.000    0.000    0.000    0.000    0.000 
#
# Total GULP energy -133921.606163 kJ/mol
# GULP energy per Si atom -5580.066923 kJ/mol
# Density = 2.478852 g / cm^3
# Si number density = 24.845067 Si / 1000 Ang^3
#
#
#
# Elastic Constant Matrix: (Units=GPa)
#
#
# Indices 1 2 3 4 5 6 
#
# 1 99.7798 39.7686 32.3893 0.0008 14.4018 0.0014
# 2 39.7686 150.4654 28.1766 -0.0010 1.4214 0.0001
# 3 32.3893 28.1766 83.8880 -0.0030 12.4586 0.0038
# 4 0.0008 -0.0010 -0.0030 46.3325 0.0003 -2.7132
# 5 14.4018 1.4214 12.4586 0.0003 44.8893 -0.0015
# 6 0.0014 0.0001 0.0038 -2.7132 -0.0015 11.8241
#
#
#
# Elastic Compliance Matrix: (Units=1/GPa)
#
#
# Indices 1 2 3 4 5 6 
#
# 1 0.012665 -0.002654 -0.003554 -0.000001 -0.002993 -0.000001
# 2 -0.002654 0.007657 -0.001708 0.000000 0.001083 0.000001
# 3 -0.003554 -0.001708 0.014278 0.000001 -0.002768 -0.000004
# 4 -0.000001 0.000000 0.000001 0.021877 0.000000 0.005020
# 5 -0.002993 0.001083 -0.002768 0.000000 0.023971 0.000004
# 6 -0.000001 0.000001 -0.000004 0.005020 0.000004 0.085725
#
#
# Mechanical properties :
#
#
# Convention : Reuss Voigt Hill
#
# Bulk Modulus (GPa) = 53.28189 59.42246 56.35217
# Shear Modulus (GPa) = 26.55867 36.19575 31.37721
#
# Velocity S-wave (km/s) = 3.27306 3.82102 3.55761
# Velocity P-wave (km/s) = 5.98131 6.59061 6.29334
#
# Compressibility (1/GPa) = 0.01876810
#
# Stress axis : x y z
#
# Youngs Moduli (GPa) = 78.95474 130.59840 70.03847
#
# Poissons Ratio (x) = 0.34656 0.24894
# Poissons Ratio (y) = 0.20952 0.11963
# Poissons Ratio (z) = 0.28063 0.22308
#
# Static dielectric constant tensor:
#      x y z
#    x 1.971260 0.000000 0.036950 
#    y 0.000000 1.921470 0.000000 
#    z 0.036950 0.000000 2.065110 
# 
# From -- ./inp_files/358383.got.cif
#   From: 2010.05.17/outbox.cif.g08.bks.cpg/sg12_180_cif.got.tgz:358383.got - 2010.06.03 13:09:07.
