data_PCOD9189741
_publ_section_title
;
Structure prediction by ZEFSAII (Michael W. Deem and Ramdas Pophale) SiO2 
 PCOD9189741
Probable space group: C 2/M
;
_chemical_formula_sum "Si O2"
_cell_formula_units_Z 40
_cell_length_a 7.833858
_cell_length_b 17.599484
_cell_length_c 16.715977
_cell_angle_alpha 90.000000
_cell_angle_beta 130.331345
_cell_angle_gamma 90.000000
_cell_volume 1756.877592
_symmetry_space_group_name_H-M "C 2/M"
_symmetry_group_IT_number 12
_symmetry_cell_setting 'monoclinic'
loop_
_space_group_symop_operation_xyz
x,y,z
-x,y,-z
-x,-y,-z
x,-y,z
1/2+x,1/2+y,z
1/2-x,1/2+y,-z
1/2-x,1/2-y,-z
1/2+x,1/2-y,z
loop_
_atom_site_type_symbol
_atom_site_label
_atom_site_fract_x
_atom_site_fract_y
_atom_site_fract_z
Si Si1 0.111371 0.000000 0.693983
Si Si2 0.017336 0.835315 0.373209
Si Si3 0.629319 0.727282 0.243070
Si Si4 0.195357 0.500000 0.674291
Si Si5 0.231065 0.834592 0.106951
Si Si6 0.131910 0.500000 0.845521
Si Si7 0.000000 0.628144 0.500000
O O1 0.372189 0.000000 0.789826
O O2 0.052726 0.921853 0.629990
O O3 0.953807 0.000000 0.724569
O O4 0.006344 0.820394 0.274036
O O5 0.282290 0.829768 0.469580
O O6 0.832428 0.774980 0.345511
O O7 0.451119 0.786521 0.152859
O O8 0.715019 0.674573 0.198077
O O9 0.151624 0.500000 0.754712
O O10 0.088233 0.427098 0.597140
O O11 0.261675 0.921885 0.092523
O O12 0.000000 0.805368 0.000000
#
# Coordination Sequence:
#
# PCOD9189741 Si02
#       7
#     4   8   8   4   8   4   4
#     4  10  19  38  62  83 114 158 200 239 290 360
#     4  10  20  38  59  85 118 157 198 241 293 354
#     4  10  22  38  61  83 121 163 185 238 315 352
#     4   9  20  37  61  87 122 159 194 244 303 351
#     4  11  22  39  61  89 117 151 202 247 293 361
#     4  12  22  39  67  90 116 159 199 252 305 341
#     4   9  18  36  60  86 120 155 198 246 284 347
#
# _framework density 22.767664
#
# number of rings (size 3 to 8) (size 9 to 14) (size 15 to 20)
#    0.000    1.800    2.000    3.900    0.000    0.800 
#    0.000    8.000    0.000    2.400    0.000    0.000 
#    0.000    0.000    0.000    0.000    0.000    0.000 
#
# Total GULP energy -111718.112472 kJ/mol
# GULP energy per Si atom -5585.905624 kJ/mol
# Density = 2.271584 g / cm^3
# Si number density = 22.767664 Si / 1000 Ang^3
#
#
#
# Elastic Constant Matrix: (Units=GPa)
#
#
# Indices 1 2 3 4 5 6 
#
# 1 64.2329 11.5615 23.1552 0.0000 22.9810 0.0000
# 2 11.5615 106.0924 19.5932 0.0000 16.3340 0.0000
# 3 23.1552 19.5932 86.1877 0.0000 43.9870 0.0000
# 4 0.0000 0.0000 0.0000 6.7928 0.0000 -3.9904
# 5 22.9810 16.3340 43.9870 0.0000 47.8767 0.0000
# 6 0.0000 0.0000 0.0000 -3.9904 0.0000 3.7682
#
#
#
# Elastic Compliance Matrix: (Units=1/GPa)
#
#
# Indices 1 2 3 4 5 6 
#
# 1 0.018872 -0.000663 -0.000775 0.000000 -0.008120 0.000000
# 2 -0.000663 0.010017 -0.000974 0.000000 -0.002204 0.000000
# 3 -0.000775 -0.000974 0.021978 0.000000 -0.019488 0.000000
# 4 0.000000 0.000000 0.000000 0.389540 0.000000 0.412505
# 5 -0.008120 -0.002204 -0.019488 0.000000 0.043442 0.000000
# 6 0.000000 0.000000 0.000000 0.412505 0.000000 0.702201
#
#
# Mechanical properties :
#
#
# Convention : Reuss Voigt Hill
#
# Bulk Modulus (GPa) = 21.71871 40.57030 31.14450
# Shear Modulus (GPa) = 4.14517 25.16775 14.65646
#
# Velocity S-wave (km/s) = 1.35077 3.32839 2.53996
# Velocity P-wave (km/s) = 3.46306 5.71216 4.72343
#
# Compressibility (1/GPa) = 0.04604326
#
# Stress axis : x y z
#
# Youngs Moduli (GPa) = 52.98727 99.82741 45.49910
#
# Poissons Ratio (x) = 0.06621 0.03527
# Poissons Ratio (y) = 0.03515 0.04432
# Poissons Ratio (z) = 0.04107 0.09724
#
# Static dielectric constant tensor:
#      x y z
#    x 1.826030 0.000000 0.037870 
#    y 0.000000 1.889390 0.000000 
#    z 0.037870 0.000000 1.828680 
# 
# From -- ./inp_files/120379.got.cif
#   From: 2010.05.17/outbox.cif.g08.bks.cpg/sg12_61_cif.got.tgz:120379.got - 2010.06.03 13:09:07.
