data_PCOD9189996
_publ_section_title
;
Structure prediction by ZEFSAII (Michael W. Deem and Ramdas Pophale) SiO2 
 PCOD9189996
Probable space group: C 2/M
;
_chemical_formula_sum "Si O2"
_cell_formula_units_Z 52
_cell_length_a 7.948443
_cell_length_b 20.344238
_cell_length_c 17.870024
_cell_angle_alpha 90.000000
_cell_angle_beta 55.499174
_cell_angle_gamma 90.000000
_cell_volume 2381.431203
_symmetry_space_group_name_H-M "C 2/M"
_symmetry_group_IT_number 12
_symmetry_cell_setting 'monoclinic'
loop_
_space_group_symop_operation_xyz
x,y,z
-x,y,-z
-x,-y,-z
x,-y,z
1/2+x,1/2+y,z
1/2-x,1/2+y,-z
1/2-x,1/2-y,-z
1/2+x,1/2-y,z
loop_
_atom_site_type_symbol
_atom_site_label
_atom_site_fract_x
_atom_site_fract_y
_atom_site_fract_z
Si Si1 0.216701 0.108012 0.484075
Si Si2 0.506291 0.212513 0.646828
Si Si3 0.129576 0.500000 0.659127
Si Si4 0.520807 0.423688 0.832010
Si Si5 0.838078 0.576564 0.973729
Si Si6 0.617151 0.650119 0.663434
Si Si7 0.039580 0.613304 0.214970
O O1 0.296989 0.180638 0.442979
O O2 0.369550 0.057409 0.406740
O O3 0.188574 0.102019 0.579585
O O4 0.000000 0.093516 0.500000
O O5 0.497417 0.290439 0.654574
O O6 0.315019 0.184624 0.649434
O O7 0.500013 0.180718 0.731460
O O8 0.129121 0.558896 0.722914
O O9 0.472119 0.500000 0.831155
O O10 0.499142 0.384026 0.760820
O O11 0.755022 0.417569 0.799167
O O12 0.374502 0.400947 0.935989
O O13 0.814322 0.500000 0.954727
O O14 0.915960 0.617399 0.883660
O O15 0.000000 0.577917 0.000000
#
# Coordination Sequence:
#
# PCOD9189996 Si02
#       7
#     8   8   4   8   8   8   8
#     4  11  23  39  59  86 120 158 199 244 298 357
#     4  10  23  40  61  88 113 165 199 244 295 348
#     4  10  21  36  59  90 116 156 196 242 308 338
#     4  10  21  37  61  92 116 157 198 241 302 346
#     4  10  20  34  56  90 123 156 192 240 299 352
#     4  11  23  41  62  86 123 154 206 245 290 354
#     4  10  19  39  62  84 122 153 200 244 291 357
#
# _framework density 21.835608000000001
#
# number of rings (size 3 to 8) (size 9 to 14) (size 15 to 20)
#    0.000    1.692    1.538    2.538    1.077    4.923 
#    2.769    3.077    0.000    0.000    0.000    0.000 
#    0.000    0.000    0.000    0.000    0.000    0.000 
#
# Total GULP energy -144855.444461 kJ/mol
# GULP energy per Si atom -5571.363248 kJ/mol
# Density = 2.178591 g / cm^3
# Si number density = 21.835608 Si / 1000 Ang^3
#
#
#
# Elastic Constant Matrix: (Units=GPa)
#
#
# Indices 1 2 3 4 5 6 
#
# 1 47.9497 -4.0468 10.1897 0.0000 9.8837 0.0000
# 2 -4.0468 43.2810 16.1825 0.0000 8.1442 0.0000
# 3 10.1897 16.1825 137.0731 0.0000 30.9860 0.0000
# 4 0.0000 0.0000 0.0000 30.9771 0.0000 2.3493
# 5 9.8837 8.1442 30.9860 0.0000 26.2051 0.0000
# 6 0.0000 0.0000 0.0000 2.3493 0.0000 15.2583
#
#
#
# Elastic Compliance Matrix: (Units=1/GPa)
#
#
# Indices 1 2 3 4 5 6 
#
# 1 0.023268 0.004051 0.000083 0.000000 -0.010133 0.000000
# 2 0.004051 0.025506 -0.001604 0.000000 -0.007559 0.000000
# 3 0.000083 -0.001604 0.010063 0.000000 -0.011431 0.000000
# 4 0.000000 0.000000 0.000000 0.032663 0.000000 -0.005029
# 5 -0.010133 -0.007559 -0.011431 0.000000 0.057848 0.000000
# 6 0.000000 0.000000 0.000000 -0.005029 0.000000 0.066312
#
#
# Mechanical properties :
#
#
# Convention : Reuss Voigt Hill
#
# Bulk Modulus (GPa) = 15.65017 30.32829 22.98923
# Shear Modulus (GPa) = 21.56114 28.21999 24.89056
#
# Velocity S-wave (km/s) = 3.14575 3.59887 3.37991
# Velocity P-wave (km/s) = 4.51411 5.58469 5.07769
#
# Compressibility (1/GPa) = 0.06389709
#
# Stress axis : x y z
#
# Youngs Moduli (GPa) = 42.97710 39.20719 99.37734
#
# Poissons Ratio (x) = -0.15884 -0.00820
# Poissons Ratio (y) = -0.17412 0.15936
# Poissons Ratio (z) = -0.00355 0.06287
#
# Static dielectric constant tensor:
#      x y z
#    x 1.855120 0.000000 -0.056570 
#    y 0.000000 1.826220 0.000000 
#    z -0.056570 0.000000 1.829250 
# 
# From -- ./inp_files/197078.got.cif
#   From: 2010.05.17/outbox.cif.g08.bks.cpg/sg12_99_cif.got.tgz:197078.got - 2010.06.03 13:09:07.
