data_PCOD9189706
_publ_section_title
;
Structure prediction by ZEFSAII (Michael W. Deem and Ramdas Pophale) SiO2 
 PCOD9189706
Probable space group: C 2/M
;
_chemical_formula_sum "Si O2"
_cell_formula_units_Z 44
_cell_length_a 14.612414
_cell_length_b 19.813278
_cell_length_c 12.707146
_cell_angle_alpha 90.000000
_cell_angle_beta 147.921466
_cell_angle_gamma 90.000000
_cell_volume 1953.832014
_symmetry_space_group_name_H-M "C 2/M"
_symmetry_group_IT_number 12
_symmetry_cell_setting 'monoclinic'
loop_
_space_group_symop_operation_xyz
x,y,z
-x,y,-z
-x,-y,-z
x,-y,z
1/2+x,1/2+y,z
1/2-x,1/2+y,-z
1/2-x,1/2-y,-z
1/2+x,1/2-y,z
loop_
_atom_site_type_symbol
_atom_site_label
_atom_site_fract_x
_atom_site_fract_y
_atom_site_fract_z
Si Si1 0.224545 0.234813 0.756273
Si Si2 0.000000 0.635697 0.500000
Si Si3 0.431185 0.884610 0.210406
Si Si4 0.544520 0.358628 0.750707
Si Si5 0.942400 0.500000 0.064078
Si Si6 0.935390 0.261368 0.768827
Si Si7 0.528687 0.500000 0.651631
O O1 0.102006 0.184439 0.702758
O O2 0.287381 0.212718 0.702077
O O3 0.153418 0.309818 0.666788
O O4 0.392682 0.239238 0.992782
O O5 0.014463 0.592860 0.620464
O O6 0.521599 0.812807 0.281717
O O7 0.494928 0.934199 0.180767
O O8 0.225966 0.873561 0.989753
O O9 0.425130 0.312321 0.707750
O O10 0.466155 0.430300 0.641769
O O11 0.735360 0.500000 0.865259
O O12 0.000000 0.500000 0.000000
O O13 0.500000 0.500000 0.500000
#
# Coordination Sequence:
#
# PCOD9189706 Si02
#       7
#     8   4   8   8   4   8   4
#     4  10  21  33  61  88 118 155 195 260 287 359
#     4  12  20  37  56  93 124 146 210 246 306 347
#     4  10  21  36  61  87 118 163 192 250 301 360
#     4  10  19  41  58  88 124 159 199 244 313 359
#     4  10  24  43  61  85 122 157 198 244 311 373
#     4  10  19  38  61  85 116 162 207 231 310 354
#     4  10  24  38  63  84 115 159 194 249 300 351
#
# _framework density 22.519846999999999
#
# number of rings (size 3 to 8) (size 9 to 14) (size 15 to 20)
#    0.000    1.818    3.636    1.091    8.909    1.091 
#    3.273    0.000    0.000    3.273    0.000    0.000 
#    0.000    0.000    0.000    0.000    0.000    0.000 
#
# Total GULP energy -122894.478326 kJ/mol
# GULP energy per Si atom -5586.112651 kJ/mol
# Density = 2.246859 g / cm^3
# Si number density = 22.519847 Si / 1000 Ang^3
#
#
#
# Elastic Constant Matrix: (Units=GPa)
#
#
# Indices 1 2 3 4 5 6 
#
# 1 84.6879 27.8726 40.2571 0.0000 -33.3275 0.0000
# 2 27.8726 113.5604 16.8912 0.0000 -22.0654 0.0000
# 3 40.2571 16.8912 113.1967 0.0000 -25.8292 0.0000
# 4 0.0000 0.0000 0.0000 18.2348 0.0000 -18.2764
# 5 -33.3275 -22.0654 -25.8292 0.0000 46.2034 0.0000
# 6 0.0000 0.0000 0.0000 -18.2764 0.0000 26.7530
#
#
#
# Elastic Compliance Matrix: (Units=1/GPa)
#
#
# Indices 1 2 3 4 5 6 
#
# 1 0.018267 -0.001947 -0.003910 0.000000 0.010060 0.000000
# 2 -0.001947 0.009934 -0.000032 0.000000 0.003322 0.000000
# 3 -0.003910 -0.000032 0.010984 0.000000 0.003304 0.000000
# 4 0.000000 0.000000 0.000000 0.173937 0.000000 0.118826
# 5 0.010060 0.003322 0.003304 0.000000 0.032334 0.000000
# 6 0.000000 0.000000 0.000000 0.118826 0.000000 0.118556
#
#
# Mechanical properties :
#
#
# Convention : Reuss Voigt Hill
#
# Bulk Modulus (GPa) = 36.48847 53.49851 44.99349
# Shear Modulus (GPa) = 12.98955 33.33319 23.16137
#
# Velocity S-wave (km/s) = 2.40428 3.85147 3.21048
# Velocity P-wave (km/s) = 4.89340 6.60198 5.81083
#
# Compressibility (1/GPa) = 0.02740592
#
# Stress axis : x y z
#
# Youngs Moduli (GPa) = 54.74439 100.66449 91.04509
#
# Poissons Ratio (x) = 0.19600 0.35601
# Poissons Ratio (y) = 0.10659 0.00291
# Poissons Ratio (z) = 0.21406 0.00321
#
# Static dielectric constant tensor:
#      x y z
#    x 1.864660 0.000000 0.007470 
#    y 0.000000 1.843720 0.000000 
#    z 0.007470 0.000000 1.881330 
# 
# From -- ./inp_files/63738.got.cif
#   From: 2010.05.17/outbox.cif.g08.bks.cpg/sg12_32_cif.got.tgz:63738.got - 2010.06.03 13:09:07.
