data_PCOD9189631
_publ_section_title
;
Structure prediction by ZEFSAII (Michael W. Deem and Ramdas Pophale) SiO2 
 PCOD9189631
Probable space group: C 2/M
;
_chemical_formula_sum "Si O2"
_cell_formula_units_Z 64
_cell_length_a 21.595140
_cell_length_b 24.477207
_cell_length_c 7.409962
_cell_angle_alpha 90.000000
_cell_angle_beta 125.226358
_cell_angle_gamma 90.000000
_cell_volume 3199.572340
_symmetry_space_group_name_H-M "C 2/M"
_symmetry_group_IT_number 12
_symmetry_cell_setting 'monoclinic'
loop_
_space_group_symop_operation_xyz
x,y,z
-x,y,-z
-x,-y,-z
x,-y,z
1/2+x,1/2+y,z
1/2-x,1/2+y,-z
1/2-x,1/2-y,-z
1/2+x,1/2-y,z
loop_
_atom_site_type_symbol
_atom_site_label
_atom_site_fract_x
_atom_site_fract_y
_atom_site_fract_z
Si Si1 0.146559 0.937903 0.008358
Si Si2 0.586051 0.724666 0.291043
Si Si3 0.755931 0.171445 0.358121
Si Si4 0.665164 0.561057 0.606204
Si Si5 0.737175 0.846488 0.737429
Si Si6 0.422131 0.809831 0.433247
Si Si7 0.853705 0.754224 0.001935
Si Si8 0.489913 0.617143 0.700488
O O1 0.155645 0.939208 0.806592
O O2 0.067335 0.907131 0.909892
O O3 0.144334 0.000000 0.070438
O O4 0.217302 0.902990 0.196450
O O5 0.666541 0.705854 0.511691
O O6 0.564009 0.780382 0.352391
O O7 0.600193 0.732013 0.102544
O O8 0.531768 0.674976 0.252530
O O9 0.777292 0.109569 0.344778
O O10 0.728570 0.174160 0.518296
O O11 0.695844 0.201126 0.132052
O O12 0.686960 0.500000 0.585512
O O13 0.582388 0.577733 0.391568
O O14 0.653734 0.845948 0.681036
O O15 0.794964 0.804194 0.932702
O O16 0.500000 0.837142 0.500000
O O17 0.402923 0.761410 0.257405
O O18 0.500000 0.622707 0.500000
#
# Coordination Sequence:
#
# PCOD9189631 Si02
#       8
#     8   8   8   8   8   8   8   8
#     4  10  21  36  58  87 116 160 208 247 294 350
#     4  10  20  37  53  88 119 154 205 236 288 353
#     4  10  19  38  58  79 115 158 201 250 291 350
#     4   9  18  32  55  84 117 157 201 245 293 351
#     4  11  22  39  57  83 117 150 204 252 297 352
#     4  12  25  37  58  86 118 154 194 243 301 367
#     4  11  22  39  61  82 118 163 195 249 295 350
#     4   9  18  32  56  80 123 163 201 240 290 349
#
# _framework density 20.002672
#
# number of rings (size 3 to 8) (size 9 to 14) (size 15 to 20)
#    0.000    1.750    2.500    2.625    7.000    2.500 
#    2.250    1.875    0.000    7.875    0.000    0.000 
#    0.000    4.000    0.000    0.000    0.000    0.000 
#
# Total GULP energy -179021.394386 kJ/mol
# GULP energy per Si atom -5594.418575 kJ/mol
# Density = 1.995714 g / cm^3
# Si number density = 20.002672 Si / 1000 Ang^3
#
#
#
# Elastic Constant Matrix: (Units=GPa)
#
#
# Indices 1 2 3 4 5 6 
#
# 1 88.5165 42.6102 26.3116 0.0000 19.7506 0.0000
# 2 42.6102 107.7471 13.2597 0.0000 24.0967 0.0000
# 3 26.3116 13.2597 56.1917 0.0000 6.5430 0.0000
# 4 0.0000 0.0000 0.0000 20.0756 0.0000 5.4283
# 5 19.7506 24.0967 6.5430 0.0000 31.9824 0.0000
# 6 0.0000 0.0000 0.0000 5.4283 0.0000 27.2962
#
#
#
# Elastic Compliance Matrix: (Units=1/GPa)
#
#
# Indices 1 2 3 4 5 6 
#
# 1 0.016511 -0.004551 -0.006012 0.000000 -0.005537 0.000000
# 2 -0.004551 0.012576 -0.000062 0.000000 -0.006652 0.000000
# 3 -0.006012 -0.000062 0.020681 0.000000 -0.000471 0.000000
# 4 0.000000 0.000000 0.000000 0.052643 0.000000 -0.010469
# 5 -0.005537 -0.006652 -0.000471 0.000000 0.039795 0.000000
# 6 0.000000 0.000000 0.000000 -0.010469 0.000000 0.038717
#
#
# Mechanical properties :
#
#
# Convention : Reuss Voigt Hill
#
# Bulk Modulus (GPa) = 35.06710 46.31316 40.69013
# Shear Modulus (GPa) = 23.62060 27.22241 25.42150
#
# Velocity S-wave (km/s) = 3.44011 3.69309 3.56884
# Velocity P-wave (km/s) = 5.77481 6.43343 6.11299
#
# Compressibility (1/GPa) = 0.02851676
#
# Stress axis : x y z
#
# Youngs Moduli (GPa) = 60.56593 79.51558 48.35343
#
# Poissons Ratio (x) = 0.36189 0.29072
# Poissons Ratio (y) = 0.27565 0.00300
# Poissons Ratio (z) = 0.36415 0.00493
#
# Static dielectric constant tensor:
#      x y z
#    x 1.751540 0.000000 -0.011910 
#    y 0.000000 1.686170 0.000000 
#    z -0.011910 0.000000 1.737020 
# 
# From -- ./inp_files/90698.got.cif
#   From: 2010.05.17/outbox.cif.g08.bks.cpg/sg12_46_cif.got.tgz:90698.got - 2010.06.03 13:09:07.
