data_PCOD9189121
_publ_section_title
;
Structure prediction by ZEFSAII (Michael W. Deem and Ramdas Pophale) SiO2 
 PCOD9189121
Probable space group: C 2/M
;
_chemical_formula_sum "Si O2"
_cell_formula_units_Z 56
_cell_length_a 18.401579
_cell_length_b 14.036872
_cell_length_c 17.802179
_cell_angle_alpha 90.000000
_cell_angle_beta 140.523408
_cell_angle_gamma 90.000000
_cell_volume 2923.437342
_symmetry_space_group_name_H-M "C 2/M"
_symmetry_group_IT_number 12
_symmetry_cell_setting 'monoclinic'
loop_
_space_group_symop_operation_xyz
x,y,z
-x,y,-z
-x,-y,-z
x,-y,z
1/2+x,1/2+y,z
1/2-x,1/2+y,-z
1/2-x,1/2-y,-z
1/2+x,1/2-y,z
loop_
_atom_site_type_symbol
_atom_site_label
_atom_site_fract_x
_atom_site_fract_y
_atom_site_fract_z
Si Si1 0.378194 0.108406 0.440140
Si Si2 0.279376 0.705332 0.416156
Si Si3 0.525611 0.388102 0.344717
Si Si4 0.969012 0.226370 0.796567
Si Si5 0.391176 0.208633 0.962869
Si Si6 0.816808 0.887008 0.283133
Si Si7 0.150993 0.891128 0.166636
O O1 0.500000 0.129496 0.500000
O O2 0.337114 0.189763 0.464346
O O3 0.281757 0.110427 0.298483
O O4 0.380387 0.000000 0.472431
O O5 0.347164 0.640589 0.528555
O O6 0.143447 0.713629 0.315903
O O7 0.300585 0.665891 0.348996
O O8 0.519295 0.500000 0.323850
O O9 0.489894 0.328855 0.243508
O O10 0.439655 0.366426 0.344521
O O11 0.920178 0.151205 0.819599
O O12 0.064981 0.286029 0.917051
O O13 0.281757 0.147384 0.852759
O O14 0.366033 0.316222 0.913616
O O15 0.500000 0.175012 0.000000
O O16 0.808350 0.000000 0.288676
O O17 0.120860 0.000000 0.125724
#
# Coordination Sequence:
#
# PCOD9189121 Si02
#       7
#     8   8   8   8   8   8   8
#     4   9  16  27  49  80 111 140 177 232 290 333
#     4  11  20  38  59  84 115 153 198 238 285 343
#     4  11  24  38  58  87 120 155 192 240 294 344
#     4  10  21  37  56  81 119 149 187 234 291 345
#     4  10  19  37  57  85 112 146 196 238 290 341
#     4  11  22  38  60  87 116 153 199 243 285 338
#     4   9  17  30  54  83 109 141 187 237 283 341
#
# _framework density 19.155532000000001
#
# number of rings (size 3 to 8) (size 9 to 14) (size 15 to 20)
#    0.000    1.857    4.286    2.571    0.000    5.714 
#    0.000    0.000    0.000    0.857    0.000    0.000 
#    0.000    0.000    0.000    0.000    0.000    0.000 
#
# Total GULP energy -156297.396741 kJ/mol
# GULP energy per Si atom -5582.049884 kJ/mol
# Density = 1.911193 g / cm^3
# Si number density = 19.155532 Si / 1000 Ang^3
#
#
#
# Elastic Constant Matrix: (Units=GPa)
#
#
# Indices 1 2 3 4 5 6 
#
# 1 32.7400 14.2959 11.1256 0.0000 -8.5609 0.0000
# 2 14.2959 46.9118 1.9415 0.0000 0.7608 0.0000
# 3 11.1256 1.9415 54.7414 0.0000 -1.3993 0.0000
# 4 0.0000 0.0000 0.0000 19.5794 0.0000 -2.9016
# 5 -8.5609 0.7608 -1.3993 0.0000 25.1269 0.0000
# 6 0.0000 0.0000 0.0000 -2.9016 0.0000 12.8991
#
#
#
# Elastic Compliance Matrix: (Units=1/GPa)
#
#
# Indices 1 2 3 4 5 6 
#
# 1 0.042624 -0.012900 -0.007835 0.000000 0.014477 0.000000
# 2 -0.012900 0.025264 0.001596 0.000000 -0.005071 0.000000
# 3 -0.007835 0.001596 0.019762 0.000000 -0.001617 0.000000
# 4 0.000000 0.000000 0.000000 0.052835 0.000000 0.011885
# 5 0.014477 -0.005071 -0.001617 0.000000 0.044794 0.000000
# 6 0.000000 0.000000 0.000000 0.011885 0.000000 0.080198
#
#
# Mechanical properties :
#
#
# Convention : Reuss Voigt Hill
#
# Bulk Modulus (GPa) = 20.25431 21.01324 20.63377
# Shear Modulus (GPa) = 15.61459 18.65643 17.13551
#
# Velocity S-wave (km/s) = 2.85818 3.12419 2.99414
# Velocity P-wave (km/s) = 4.63560 4.89977 4.76951
#
# Compressibility (1/GPa) = 0.04937221
#
# Stress axis : x y z
#
# Youngs Moduli (GPa) = 23.46078 39.58219 50.60153
#
# Poissons Ratio (x) = 0.51060 0.39648
# Poissons Ratio (y) = 0.30264 -0.08077
# Poissons Ratio (z) = 0.18383 -0.06318
#
# Static dielectric constant tensor:
#      x y z
#    x 1.652270 0.000000 0.002670 
#    y 0.000000 1.675040 0.000000 
#    z 0.002670 0.000000 1.687300 
# 
# From -- ./inp_files/277871.got.cif
#   From: 2010.05.17/outbox.cif.g08.bks.cpg/sg12_139_cif.got.tgz:277871.got - 2010.06.03 13:09:07.
