data_PCOD9189162
_publ_section_title
;
Structure prediction by ZEFSAII (Michael W. Deem and Ramdas Pophale) SiO2 
 PCOD9189162
Probable space group: C 2/M
;
_chemical_formula_sum "Si O2"
_cell_formula_units_Z 48
_cell_length_a 9.594536
_cell_length_b 16.680812
_cell_length_c 29.739969
_cell_angle_alpha 90.000000
_cell_angle_beta 31.614263
_cell_angle_gamma 90.000000
_cell_volume 2495.036857
_symmetry_space_group_name_H-M "C 2/M"
_symmetry_group_IT_number 12
_symmetry_cell_setting 'monoclinic'
loop_
_space_group_symop_operation_xyz
x,y,z
-x,y,-z
-x,-y,-z
x,-y,z
1/2+x,1/2+y,z
1/2-x,1/2+y,-z
1/2-x,1/2-y,-z
1/2+x,1/2-y,z
loop_
_atom_site_type_symbol
_atom_site_label
_atom_site_fract_x
_atom_site_fract_y
_atom_site_fract_z
Si Si1 0.308583 0.319469 0.267197
Si Si2 0.200080 0.909823 0.219033
Si Si3 0.271365 0.402217 0.028063
Si Si4 0.759689 0.405744 0.398773
Si Si5 0.551482 0.594592 0.861306
Si Si6 0.848600 0.368306 0.274457
O O1 0.457845 0.357859 0.268358
O O2 0.451655 0.352691 0.182741
O O3 0.329545 0.224944 0.267177
O O4 0.008017 0.351596 0.345665
O O5 0.479994 0.875899 0.123457
O O6 0.226367 0.911770 0.265262
O O7 0.168388 0.000000 0.210040
O O8 0.272119 0.500000 0.029838
O O9 0.500000 0.375037 0.000000
O O10 0.346655 0.380605 0.956472
O O11 0.500000 0.391798 0.500000
O O12 0.834476 0.500000 0.381861
O O13 0.710360 0.386880 0.359865
O O14 0.514621 0.500000 0.860920
O O15 0.845530 0.605198 0.802079
#
# Coordination Sequence:
#
# PCOD9189162 Si02
#       6
#     8   8   8   8   8   8
#     4  11  23  37  54  87 121 144 179 237 293 331
#     4  11  20  34  58  84 112 148 195 243 278 317
#     4   9  17  31  54  83 109 148 204 243 268 317
#     4  10  22  43  67  85 107 147 191 224 272 352
#     4  10  19  37  59  77 111 161 204 231 267 333
#     4  11  21  37  58  84 116 152 183 224 285 348
#
# _framework density 19.238192999999999
#
# number of rings (size 3 to 8) (size 9 to 14) (size 15 to 20)
#    0.000    1.667    1.667    6.000    0.000    1.333 
#    0.000    8.333    0.000    3.000    0.000    0.000 
#    0.000    0.000    0.000    0.000    0.000    0.000 
#
# Total GULP energy -134068.975885 kJ/mol
# GULP energy per Si atom -5586.207329 kJ/mol
# Density = 1.919441 g / cm^3
# Si number density = 19.238193 Si / 1000 Ang^3
#
#
#
# Elastic Constant Matrix: (Units=GPa)
#
#
# Indices 1 2 3 4 5 6 
#
# 1 80.6895 3.7516 28.3933 -0.0343 13.1085 -0.0068
# 2 3.7516 78.9188 16.1875 -0.0759 2.0750 -0.0468
# 3 28.3933 16.1875 93.3753 0.1067 27.0223 0.0743
# 4 -0.0343 -0.0759 0.1067 -8.3126 0.0000 11.7962
# 5 13.1085 2.0750 27.0223 0.0000 25.2514 0.0090
# 6 -0.0068 -0.0468 0.0743 11.7962 0.0090 52.5775
#
#
#
# Elastic Compliance Matrix: (Units=1/GPa)
#
#
# Indices 1 2 3 4 5 6 
#
# 1 0.014148 0.000082 -0.003171 -0.000068 -0.003958 0.000022
# 2 0.000082 0.013207 -0.002880 -0.000103 0.001954 0.000039
# 3 -0.003171 -0.002880 0.016844 0.000168 -0.016143 -0.000062
# 4 -0.000068 -0.000103 0.000168 -0.091246 -0.000143 0.020471
# 5 -0.003958 0.001954 -0.016143 -0.000143 0.058771 0.000046
# 6 0.000022 0.000039 -0.000062 0.020471 0.000046 0.014427
#
#
# Mechanical properties :
#
#
# Convention : Reuss Voigt Hill
#
# Bulk Modulus (GPa) = 30.99646 38.84981 34.92314
# Shear Modulus (GPa) = 102.36987 27.54669 64.95828
#
# Velocity S-wave (km/s) = 7.30255 3.78812 5.81709
# Velocity P-wave (km/s) = 9.34077 6.27464 7.95679
#
# Compressibility (1/GPa) = 0.03226175
#
# Stress axis : x y z
#
# Youngs Moduli (GPa) = 70.68070 75.71976 59.36679
#
# Poissons Ratio (x) = -0.00620 0.18824
# Poissons Ratio (y) = -0.00578 0.17096
# Poissons Ratio (z) = 0.22411 0.21805
#
# Static dielectric constant tensor:
#      x y z
#    x 1.659950 0.000030 0.017300 
#    y 0.000030 1.793100 -0.000180 
#    z 0.017300 -0.000180 1.658300 
# 
# From -- ./inp_files/251516.got.cif
#   From: 2010.05.17/outbox.cif.g08.bks.cpg/sg12_126_cif.got.tgz:251516.got - 2010.06.03 13:09:07.
