data_PCOD9189329
_publ_section_title
;
Structure prediction by ZEFSAII (Michael W. Deem and Ramdas Pophale) SiO2 
 PCOD9189329
Probable space group: C 2/M
;
_chemical_formula_sum "Si O2"
_cell_formula_units_Z 36
_cell_length_a 20.095869
_cell_length_b 7.587776
_cell_length_c 11.309672
_cell_angle_alpha 90.000000
_cell_angle_beta 96.577002
_cell_angle_gamma 90.000000
_cell_volume 1713.182722
_symmetry_space_group_name_H-M "C 2/M"
_symmetry_group_IT_number 12
_symmetry_cell_setting 'monoclinic'
loop_
_space_group_symop_operation_xyz
x,y,z
-x,y,-z
-x,-y,-z
x,-y,z
1/2+x,1/2+y,z
1/2-x,1/2+y,-z
1/2-x,1/2-y,-z
1/2+x,1/2-y,z
loop_
_atom_site_type_symbol
_atom_site_label
_atom_site_fract_x
_atom_site_fract_y
_atom_site_fract_z
Si Si1 0.867136 0.795230 0.844560
Si Si2 0.885180 0.500000 0.653607
Si Si3 0.468470 0.000000 0.280968
Si Si4 0.171969 0.500000 0.609918
Si Si5 0.419371 0.294554 0.104829
Si Si6 0.721124 0.705770 0.787156
O O1 0.875602 0.669640 0.734703
O O2 0.788814 0.771858 0.862685
O O3 0.879498 0.000000 0.820821
O O4 0.912314 0.743906 0.966219
O O5 0.837157 0.500000 0.531580
O O6 0.963103 0.500000 0.633497
O O7 0.402519 0.000000 0.348108
O O8 0.464270 0.168950 0.193756
O O9 0.208685 0.329022 0.671014
O O10 0.438975 0.500000 0.116100
O O11 0.344532 0.277271 0.144726
O O12 0.728554 0.500000 0.758591
#
# Coordination Sequence:
#
# PCOD9189329 Si02
#       6
#     8   4   4   4   8   8
#     4  11  22  37  56  91 124 152 182 232 302 354
#     4  12  26  40  57  83 120 161 201 236 280 343
#     4  10  22  42  63  83 110 156 205 241 282 337
#     4  10  23  42  62  82 112 156 202 248 282 328
#     4   9  20  36  62  89 117 148 189 242 290 344
#     4  10  19  37  61  89 116 149 193 238 291 347
#
# _framework density 21.01352
#
# number of rings (size 3 to 8) (size 9 to 14) (size 15 to 20)
#    0.000    1.778    2.222    1.667    0.000    4.444 
#    0.000    2.222    0.000    6.667    0.000    0.000 
#    0.000    0.000    0.000    0.000    0.000    0.000 
#
# Total GULP energy -100652.566813 kJ/mol
# GULP energy per Si atom -5591.809267 kJ/mol
# Density = 2.096569 g / cm^3
# Si number density = 21.013520 Si / 1000 Ang^3
#
#
#
# Elastic Constant Matrix: (Units=GPa)
#
#
# Indices 1 2 3 4 5 6 
#
# 1 46.0940 -8.6442 -10.9146 0.0000 5.1520 0.0000
# 2 -8.6442 93.4732 51.9018 0.0000 1.6627 0.0000
# 3 -10.9146 51.9018 118.6838 0.0000 13.3131 0.0000
# 4 0.0000 0.0000 0.0000 21.1443 0.0000 -2.9656
# 5 5.1520 1.6627 13.3131 0.0000 27.0563 0.0000
# 6 0.0000 0.0000 0.0000 -2.9656 0.0000 3.4708
#
#
#
# Elastic Compliance Matrix: (Units=1/GPa)
#
#
# Indices 1 2 3 4 5 6 
#
# 1 0.023049 0.000932 0.002340 0.000000 -0.005598 0.000000
# 2 0.000932 0.014303 -0.006404 0.000000 0.002095 0.000000
# 3 0.002340 -0.006404 0.012116 0.000000 -0.006014 0.000000
# 4 0.000000 0.000000 0.000000 0.053734 0.000000 0.045913
# 5 -0.005598 0.002095 -0.006014 0.000000 0.040856 0.000000
# 6 0.000000 0.000000 0.000000 0.045913 0.000000 0.327346
#
#
# Mechanical properties :
#
#
# Convention : Reuss Voigt Hill
#
# Bulk Modulus (GPa) = 23.14600 35.88188 29.51394
# Shear Modulus (GPa) = 10.16115 25.39483 17.77799
#
# Velocity S-wave (km/s) = 2.20137 3.48012 2.91181
# Velocity P-wave (km/s) = 4.18331 5.76723 5.03791
#
# Compressibility (1/GPa) = 0.04320400
#
# Stress axis : x y z
#
# Youngs Moduli (GPa) = 43.38519 69.91459 82.53419
#
# Poissons Ratio (x) = -0.06514 -0.19314
# Poissons Ratio (y) = -0.04042 0.52857
# Poissons Ratio (z) = -0.10153 0.44775
#
# Static dielectric constant tensor:
#      x y z
#    x 1.807280 0.000000 -0.039580 
#    y 0.000000 1.723790 0.000000 
#    z -0.039580 0.000000 1.701090 
# 
# From -- ./inp_files/93065.got.cif
#   From: 2010.05.17/outbox.cif.g08.bks.cpg/sg12_47_cif.got.tgz:93065.got - 2010.06.03 13:09:07.
