data_PCOD9189642
_publ_section_title
;
Structure prediction by ZEFSAII (Michael W. Deem and Ramdas Pophale) SiO2 
 PCOD9189642
Probable space group: C 2/M
;
_chemical_formula_sum "Si O2"
_cell_formula_units_Z 48
_cell_length_a 14.032561
_cell_length_b 13.792142
_cell_length_c 12.242803
_cell_angle_alpha 90.000000
_cell_angle_beta 76.568947
_cell_angle_gamma 90.000000
_cell_volume 2304.656319
_symmetry_space_group_name_H-M "C 2/M"
_symmetry_group_IT_number 12
_symmetry_cell_setting 'monoclinic'
loop_
_space_group_symop_operation_xyz
x,y,z
-x,y,-z
-x,-y,-z
x,-y,z
1/2+x,1/2+y,z
1/2-x,1/2+y,-z
1/2-x,1/2-y,-z
1/2+x,1/2-y,z
loop_
_atom_site_type_symbol
_atom_site_label
_atom_site_fract_x
_atom_site_fract_y
_atom_site_fract_z
Si Si1 0.688144 0.106958 0.312375
Si Si2 0.116751 0.387182 0.996781
Si Si3 0.348471 0.775807 0.224536
Si Si4 0.930931 0.736066 0.788417
Si Si5 0.222679 0.642672 0.545126
Si Si6 0.077824 0.891807 0.392796
O O1 0.771796 0.187122 0.259081
O O2 0.586695 0.148120 0.292204
O O3 0.682964 0.100056 0.444434
O O4 0.711191 0.000000 0.262750
O O5 0.145777 0.500000 0.010474
O O6 0.168894 0.340235 0.877909
O O7 0.127019 0.310031 0.092993
O O8 0.000000 0.390746 0.000000
O O9 0.460659 0.740983 0.196889
O O10 0.343803 0.845381 0.331531
O O11 0.903783 0.828036 0.719771
O O12 0.250000 0.750000 0.500000
O O13 0.323047 0.600579 0.564880
O O14 0.000000 0.847523 0.500000
O O15 0.042675 0.000000 0.372690
#
# Coordination Sequence:
#
# PCOD9189642 Si02
#       6
#     8   8   8   8   8   8
#     4  11  23  40  61  92 131 163 201 257 320 373
#     4   9  20  40  63  89 122 164 207 253 312 369
#     4  10  22  40  65  88 121 165 209 258 305 370
#     4  11  22  39  64  90 125 159 207 256 310 363
#     4  10  19  38  58  88 122 159 200 251 305 365
#     4  11  22  37  61  90 124 165 204 245 307 378
#
# _framework density 20.827400999999998
#
# number of rings (size 3 to 8) (size 9 to 14) (size 15 to 20)
#    0.000    1.667    3.333    3.000    0.000    4.667 
#    0.000    1.667    0.000    3.000    0.000    0.000 
#    0.000    0.000    0.000    0.000    0.000    0.000 
#
# Total GULP energy -133630.748915 kJ/mol
# GULP energy per Si atom -5567.947871 kJ/mol
# Density = 2.078000 g / cm^3
# Si number density = 20.827401 Si / 1000 Ang^3
#
#
#
# Elastic Constant Matrix: (Units=GPa)
#
#
# Indices 1 2 3 4 5 6 
#
# 1 37.9759 16.0243 5.5065 0.0000 8.3877 0.0000
# 2 16.0243 131.7904 59.3140 0.0000 -0.3014 0.0000
# 3 5.5065 59.3140 148.0558 0.0000 14.8565 0.0000
# 4 0.0000 0.0000 0.0000 17.4278 0.0000 -15.8264
# 5 8.3877 -0.3014 14.8565 0.0000 26.3943 0.0000
# 6 0.0000 0.0000 0.0000 -15.8264 0.0000 -11.0422
#
#
#
# Elastic Compliance Matrix: (Units=1/GPa)
#
#
# Indices 1 2 3 4 5 6 
#
# 1 0.030335 -0.004498 0.001745 0.000000 -0.010673 0.000000
# 2 -0.004498 0.010060 -0.004259 0.000000 0.003941 0.000000
# 3 0.001745 -0.004259 0.008962 0.000000 -0.005648 0.000000
# 4 0.000000 0.000000 0.000000 0.024931 0.000000 -0.035732
# 5 -0.010673 0.003941 -0.005648 0.000000 0.044503 0.000000
# 6 0.000000 0.000000 0.000000 -0.035732 0.000000 -0.039348
#
#
# Mechanical properties :
#
#
# Convention : Reuss Voigt Hill
#
# Bulk Modulus (GPa) = 28.30162 53.27907 40.79035
# Shear Modulus (GPa) = 47.50857 22.35448 34.93153
#
# Velocity S-wave (km/s) = 4.78123 3.27971 4.09979
# Velocity P-wave (km/s) = 6.64066 6.32288 6.48371
#
# Compressibility (1/GPa) = 0.03533367
#
# Stress axis : x y z
#
# Youngs Moduli (GPa) = 32.96535 99.40003 111.58120
#
# Poissons Ratio (x) = 0.44711 -0.19469
# Poissons Ratio (y) = 0.14828 0.47518
# Poissons Ratio (z) = -0.05752 0.42330
#
# Static dielectric constant tensor:
#      x y z
#    x 1.817730 0.000000 -0.000790 
#    y 0.000000 1.765530 0.000000 
#    z -0.000790 0.000000 1.788500 
# 
# From -- ./inp_files/142727.got.cif
#   From: 2010.05.17/outbox.cif.g08.bks.cpg/sg12_72_cif.got.tgz:142727.got - 2010.06.03 13:09:07.
