data_PCOD9189268
_publ_section_title
;
Structure prediction by ZEFSAII (Michael W. Deem and Ramdas Pophale) SiO2 
 PCOD9189268
Probable space group: C 2/M
;
_chemical_formula_sum "Si O2"
_cell_formula_units_Z 56
_cell_length_a 20.692353
_cell_length_b 7.749559
_cell_length_c 27.249407
_cell_angle_alpha 90.000000
_cell_angle_beta 141.702278
_cell_angle_gamma 90.000000
_cell_volume 2708.064087
_symmetry_space_group_name_H-M "C 2/M"
_symmetry_group_IT_number 12
_symmetry_cell_setting 'monoclinic'
loop_
_space_group_symop_operation_xyz
x,y,z
-x,y,-z
-x,-y,-z
x,-y,z
1/2+x,1/2+y,z
1/2-x,1/2+y,-z
1/2-x,1/2-y,-z
1/2+x,1/2-y,z
loop_
_atom_site_type_symbol
_atom_site_label
_atom_site_fract_x
_atom_site_fract_y
_atom_site_fract_z
Si Si1 0.991700 0.710962 0.234434
Si Si2 0.655591 0.796508 0.480340
Si Si3 0.129436 0.292834 0.934188
Si Si4 0.774430 0.707667 0.646498
Si Si5 0.729415 0.794256 0.244555
Si Si6 0.563870 0.209009 0.691691
Si Si7 0.483322 0.788460 0.934206
O O1 0.991392 0.500000 0.233695
O O2 0.934347 0.770992 0.151182
O O3 0.937229 0.765988 0.252238
O O4 0.112260 0.765755 0.305272
O O5 0.750000 0.750000 0.500000
O O6 0.688065 0.753425 0.555063
O O7 0.543681 0.724767 0.396838
O O8 0.645435 0.000000 0.470592
O O9 0.119622 0.500000 0.928414
O O10 0.075300 0.232449 0.952149
O O11 0.250000 0.250000 0.000000
O O12 0.777243 0.500000 0.649928
O O13 0.760345 0.773060 0.693606
O O14 0.833795 0.762793 0.276371
O O15 0.626436 0.730333 0.154841
O O16 0.714492 0.000000 0.240053
O O17 0.562164 0.000000 0.690587
O O18 0.482625 0.000000 0.934707
O O19 0.500000 0.730913 0.000000
#
# Coordination Sequence:
#
# PCOD9189268 Si02
#       7
#     8   8   8   8   8   8   8
#     4   9  17  35  58  77 106 152 189 217 273 342
#     4  11  22  37  59  86 114 147 187 233 283 332
#     4  10  20  35  57  83 112 145 185 229 276 333
#     4  10  19  37  61  81 109 150 192 229 275 335
#     4  10  21  37  59  84 111 148 191 232 274 330
#     4  10  22  38  56  79 112 149 182 226 284 340
#     4   9  18  34  56  81 111 147 184 227 280 330
#
# _framework density 20.678979999999999
#
# number of rings (size 3 to 8) (size 9 to 14) (size 15 to 20)
#    0.000    2.143    2.857    0.429    2.000    2.286 
#    0.000    4.286    0.000    0.857    0.000    0.000 
#    0.000    0.000    0.000    0.000    0.000    0.000 
#
# Total GULP energy -156360.520699 kJ/mol
# GULP energy per Si atom -5584.304311 kJ/mol
# Density = 2.063191 g / cm^3
# Si number density = 20.678980 Si / 1000 Ang^3
#
#
#
# Elastic Constant Matrix: (Units=GPa)
#
#
# Indices 1 2 3 4 5 6 
#
# 1 183.4982 0.7646 86.3788 0.0000 -11.2467 0.0002
# 2 0.7646 27.3717 2.8647 0.0001 -4.2573 0.0008
# 3 86.3788 2.8647 137.2427 0.0000 -13.7717 0.0000
# 4 0.0000 0.0001 0.0000 18.6643 0.0000 5.7141
# 5 -11.2467 -4.2573 -13.7717 0.0000 41.8881 0.0001
# 6 0.0002 0.0008 0.0000 5.7141 0.0001 24.1386
#
#
#
# Elastic Compliance Matrix: (Units=1/GPa)
#
#
# Indices 1 2 3 4 5 6 
#
# 1 0.007758 0.000372 -0.004837 0.000000 0.000530 0.000000
# 2 0.000372 0.037161 -0.000642 0.000000 0.003666 -0.000001
# 3 -0.004837 -0.000642 0.010556 0.000000 0.002106 0.000000
# 4 0.000000 0.000000 0.000000 0.057765 0.000000 -0.013674
# 5 0.000530 0.003666 0.002106 0.000000 0.025081 0.000000
# 6 0.000000 -0.000001 0.000000 -0.013674 0.000000 0.044664
#
#
# Mechanical properties :
#
#
# Convention : Reuss Voigt Hill
#
# Bulk Modulus (GPa) = 22.09451 58.68097 40.38774
# Shear Modulus (GPa) = 24.00563 34.14516 29.07540
#
# Velocity S-wave (km/s) = 3.41085 4.06791 3.75378
# Velocity P-wave (km/s) = 5.12051 7.10651 6.19363
#
# Compressibility (1/GPa) = 0.04526011
#
# Stress axis : x y z
#
# Youngs Moduli (GPa) = 128.90640 26.90990 94.73731
#
# Poissons Ratio (x) = -0.01001 0.45825
# Poissons Ratio (y) = -0.04796 0.06082
# Poissons Ratio (z) = 0.62353 0.01728
#
# Static dielectric constant tensor:
#      x y z
#    x 1.704200 0.000000 -0.013690 
#    y 0.000000 1.829600 0.000000 
#    z -0.013690 0.000000 1.730910 
# 
# From -- ./inp_files/363131.got.cif
#   From: 2010.05.17/outbox.cif.g08.bks.cpg/sg12_182_cif.got.tgz:363131.got - 2010.06.03 13:09:07.
