data_PCOD9189012
_publ_section_title
;
Structure prediction by ZEFSAII (Michael W. Deem and Ramdas Pophale) SiO2 
 PCOD9189012
Probable space group: C 2/M
;
_chemical_formula_sum "Si O2"
_cell_formula_units_Z 40
_cell_length_a 13.844562
_cell_length_b 23.325294
_cell_length_c 11.337181
_cell_angle_alpha 90.000000
_cell_angle_beta 30.855478
_cell_angle_gamma 90.000000
_cell_volume 1877.683511
_symmetry_space_group_name_H-M "C 2/M"
_symmetry_group_IT_number 12
_symmetry_cell_setting 'monoclinic'
loop_
_space_group_symop_operation_xyz
x,y,z
-x,y,-z
-x,-y,-z
x,-y,z
1/2+x,1/2+y,z
1/2-x,1/2+y,-z
1/2-x,1/2-y,-z
1/2+x,1/2-y,z
loop_
_atom_site_type_symbol
_atom_site_label
_atom_site_fract_x
_atom_site_fract_y
_atom_site_fract_z
Si Si1 0.338603 0.360457 0.969286
Si Si2 0.405208 0.854409 0.986616
Si Si3 0.280545 0.064754 0.693735
Si Si4 0.760865 0.667927 0.534241
Si Si5 0.718530 0.264792 0.799386
O O1 0.224276 0.383229 0.976458
O O2 0.336896 0.408094 0.074284
O O3 0.231218 0.307359 0.146488
O O4 0.543422 0.335532 0.721310
O O5 0.585871 0.829680 0.727840
O O6 0.500000 0.885239 0.000000
O O7 0.281604 0.800794 0.163153
O O8 0.500000 0.063763 0.500000
O O9 0.275757 0.108288 0.590176
O O10 0.222446 0.000000 0.727370
O O11 0.807075 0.716837 0.582753
O O12 0.500000 0.279265 0.000000
#
# Coordination Sequence:
#
# PCOD9189012 Si02
#       5
#     8   8   8   8   8
#     4  10  20  36  55  84 113 144 184 231 282 331
#     4  11  22  36  53  78 116 159 194 224 269 331
#     4  10  19  36  65  92 110 138 179 235 299 338
#     4  10  21  38  57  82 118 145 185 241 279 327
#     4   8  18  33  52  79 106 144 190 226 275 321
#
# _framework density 21.302844
#
# number of rings (size 3 to 8) (size 9 to 14) (size 15 to 20)
#    0.000    2.200    2.000    2.400    0.000    9.600 
#    0.000    6.000    0.000    2.400    0.000    2.800 
#    0.000    0.000    0.000    0.000    0.000    0.000 
#
# Total GULP energy -111593.392511 kJ/mol
# GULP energy per Si atom -5579.669626 kJ/mol
# Density = 2.125436 g / cm^3
# Si number density = 21.302844 Si / 1000 Ang^3
#
#
#
# Elastic Constant Matrix: (Units=GPa)
#
#
# Indices 1 2 3 4 5 6 
#
# 1 109.1742 6.9084 6.0906 -0.0003 7.2455 -0.0002
# 2 6.9084 74.3262 -3.7027 -0.0002 8.1950 0.0000
# 3 6.0906 -3.7027 81.6830 -0.0023 -1.7592 0.0010
# 4 -0.0003 -0.0002 -0.0023 13.7817 0.0012 -4.2063
# 5 7.2455 8.1950 -1.7592 0.0012 32.4045 -0.0005
# 6 -0.0002 0.0000 0.0010 -4.2063 -0.0005 14.7716
#
#
#
# Elastic Compliance Matrix: (Units=1/GPa)
#
#
# Indices 1 2 3 4 5 6 
#
# 1 0.009377 -0.000694 -0.000773 0.000000 -0.001963 0.000000
# 2 -0.000694 0.013916 0.000611 0.000001 -0.003331 0.000000
# 3 -0.000773 0.000611 0.012343 0.000002 0.000688 0.000000
# 4 0.000000 0.000001 0.000002 0.079467 -0.000003 0.022629
# 5 -0.001963 -0.003331 0.000688 -0.000003 0.032179 0.000000
# 6 0.000000 0.000000 0.000000 0.022629 0.000000 0.074141
#
#
# Mechanical properties :
#
#
# Convention : Reuss Voigt Hill
#
# Bulk Modulus (GPa) = 29.47719 31.53066 30.50392
# Shear Modulus (GPa) = 21.32722 29.25069 25.28895
#
# Velocity S-wave (km/s) = 3.16752 3.70954 3.44919
# Velocity P-wave (km/s) = 5.21966 5.76028 5.49662
#
# Compressibility (1/GPa) = 0.03392454
#
# Stress axis : x y z
#
# Youngs Moduli (GPa) = 106.64420 71.85767 81.02029
#
# Poissons Ratio (x) = 0.04984 0.06262
# Poissons Ratio (y) = 0.07397 -0.04949
# Poissons Ratio (z) = 0.08243 -0.04389
#
# Static dielectric constant tensor:
#      x y z
#    x 1.844780 0.000000 -0.027430 
#    y 0.000000 1.747830 0.000000 
#    z -0.027430 0.000000 1.815110 
# 
# From -- ./inp_files/66636.got.cif
#   From: 2010.05.17/outbox.cif.g08.bks.cpg/sg12_34_cif.got.tgz:66636.got - 2010.06.03 13:09:07.
