data_PCOD9189031
_publ_section_title
;
Structure prediction by ZEFSAII (Michael W. Deem and Ramdas Pophale) SiO2 
 PCOD9189031
Probable space group: C 2/M
;
_chemical_formula_sum "Si O2"
_cell_formula_units_Z 34
_cell_length_a 19.316140
_cell_length_b 13.624433
_cell_length_c 11.503047
_cell_angle_alpha 90.000000
_cell_angle_beta 31.460276
_cell_angle_gamma 90.000000
_cell_volume 1579.956174
_symmetry_space_group_name_H-M "C 2/M"
_symmetry_group_IT_number 12
_symmetry_cell_setting 'monoclinic'
loop_
_space_group_symop_operation_xyz
x,y,z
-x,y,-z
-x,-y,-z
x,-y,z
1/2+x,1/2+y,z
1/2-x,1/2+y,-z
1/2-x,1/2-y,-z
1/2+x,1/2-y,z
loop_
_atom_site_type_symbol
_atom_site_label
_atom_site_fract_x
_atom_site_fract_y
_atom_site_fract_z
Si Si1 0.902296 0.611961 0.539456
Si Si2 0.000000 0.000000 0.000000
Si Si3 0.097324 0.390988 0.044001
Si Si4 0.614299 0.319130 0.984264
Si Si5 0.615801 0.385352 0.242902
O O1 0.863826 0.500000 0.627753
O O2 0.000000 0.647280 0.500000
O O3 0.983718 0.607615 0.304682
O O4 0.766968 0.669830 0.726883
O O5 0.962655 0.088526 0.959247
O O6 0.099103 0.500000 0.985136
O O7 0.073178 0.291011 0.009360
O O8 0.240187 0.378153 0.902998
O O9 0.608375 0.326499 0.133397
O O10 0.500000 0.361046 0.500000
O O11 0.598580 0.500000 0.236726
#
# Coordination Sequence:
#
# PCOD9189031 Si02
#       5
#     8   2   8   8   8
#     4  10  19  36  66 100 134 169 220 282 332 384
#     4  12  28  48  66  96 130 192 226 270 304 426
#     4  10  23  38  64 102 136 169 214 285 346 382
#     4  12  23  42  67  97 140 179 226 261 332 406
#     4  10  20  36  64 107 143 166 205 282 355 388
#
# _framework density 21.519586
#
# number of rings (size 3 to 8) (size 9 to 14) (size 15 to 20)
#    0.000    1.412    4.706    0.706    3.294    0.000 
#    0.000    1.765    0.000    0.000    0.000    0.000 
#    0.000    0.000    0.000    0.000    0.000    0.000 
#
# Total GULP energy -94696.751129 kJ/mol
# GULP energy per Si atom -5570.397125 kJ/mol
# Density = 2.147061 g / cm^3
# Si number density = 21.519586 Si / 1000 Ang^3
#
#
#
# Elastic Constant Matrix: (Units=GPa)
#
#
# Indices 1 2 3 4 5 6 
#
# 1 68.6142 42.4049 17.9609 0.0000 12.4984 0.0000
# 2 42.4049 238.8094 17.9021 0.0000 3.0840 0.0000
# 3 17.9609 17.9021 116.7639 0.0000 4.5834 0.0000
# 4 0.0000 0.0000 0.0000 30.7186 0.0000 -2.1832
# 5 12.4984 3.0840 4.5834 0.0000 -8.4538 0.0000
# 6 0.0000 0.0000 0.0000 -2.1832 0.0000 3.8404
#
#
#
# Elastic Compliance Matrix: (Units=1/GPa)
#
#
# Indices 1 2 3 4 5 6 
#
# 1 0.013480 -0.002443 -0.002395 0.000000 0.017739 0.000000
# 2 -0.002443 0.004667 -0.000259 0.000000 -0.002050 0.000000
# 3 -0.002395 -0.000259 0.008925 0.000000 0.001203 0.000000
# 4 0.000000 0.000000 0.000000 0.033924 0.000000 0.019286
# 5 0.017739 -0.002050 0.001203 0.000000 -0.092159 0.000000
# 6 0.000000 0.000000 0.000000 0.019286 0.000000 0.271355
#
#
# Mechanical properties :
#
#
# Convention : Reuss Voigt Hill
#
# Bulk Modulus (GPa) = 59.25241 64.52483 61.88862
# Shear Modulus (GPa) = 19.53020 28.28234 23.90627
#
# Velocity S-wave (km/s) = 3.01583 3.62921 3.33664
# Velocity P-wave (km/s) = 6.30246 6.90006 6.60802
#
# Compressibility (1/GPa) = 0.01687695
#
# Stress axis : x y z
#
# Youngs Moduli (GPa) = 74.18472 214.26257 112.04161
#
# Poissons Ratio (x) = 0.52347 0.26837
# Poissons Ratio (y) = 0.18124 0.02905
# Poissons Ratio (z) = 0.17769 0.05556
#
# Static dielectric constant tensor:
#      x y z
#    x 1.736190 0.000000 -0.008580 
#    y 0.000000 1.856020 0.000000 
#    z -0.008580 0.000000 1.735010 
# 
# From -- ./inp_files/128952.got.cif
#   From: 2010.05.17/outbox.cif.g08.bks.cpg/sg12_65_cif.got.tgz:128952.got - 2010.06.03 13:09:07.
