data_PCOD9189836
_publ_section_title
;
Structure prediction by ZEFSAII (Michael W. Deem and Ramdas Pophale) SiO2 
 PCOD9189836
Probable space group: C 2/M
;
_chemical_formula_sum "Si O2"
_cell_formula_units_Z 48
_cell_length_a 22.425495
_cell_length_b 28.051256
_cell_length_c 9.040452
_cell_angle_alpha 90.000000
_cell_angle_beta 26.511729
_cell_angle_gamma 90.000000
_cell_volume 2538.576179
_symmetry_space_group_name_H-M "C 2/M"
_symmetry_group_IT_number 12
_symmetry_cell_setting 'monoclinic'
loop_
_space_group_symop_operation_xyz
x,y,z
-x,y,-z
-x,-y,-z
x,-y,z
1/2+x,1/2+y,z
1/2-x,1/2+y,-z
1/2-x,1/2-y,-z
1/2+x,1/2-y,z
loop_
_atom_site_type_symbol
_atom_site_label
_atom_site_fract_x
_atom_site_fract_y
_atom_site_fract_z
Si Si1 0.872193 0.551359 0.889726
Si Si2 0.868818 0.098326 0.714151
Si Si3 0.763573 0.228114 0.637183
Si Si4 0.994449 0.153070 0.168113
Si Si5 0.249651 0.171810 0.789603
Si Si6 0.539962 0.847432 0.234007
O O1 0.859489 0.500000 0.995116
O O2 0.894781 0.600287 0.928306
O O3 0.000000 0.549231 0.500000
O O4 0.745738 0.561057 0.065619
O O5 0.917865 0.121464 0.454719
O O6 0.000000 0.077800 0.500000
O O7 0.812941 0.142829 0.934276
O O8 0.750000 0.250000 0.500000
O O9 0.904679 0.200583 0.343047
O O10 0.756096 0.271060 0.772299
O O11 0.644441 0.191730 0.943477
O O12 0.000000 0.127587 0.000000
O O13 0.144413 0.161206 0.892672
O O14 0.402854 0.155345 0.445981
O O15 0.500000 0.840941 0.500000
#
# Coordination Sequence:
#
# PCOD9189836 Si02
#       6
#     8   8   8   8   8   8
#     4  10  19  38  64  91 122 153 198 266 322 359
#     4  10  21  38  60  90 122 157 203 250 311 372
#     4  12  24  39  57  87 127 171 207 248 301 369
#     4  11  22  39  54  84 123 162 204 245 300 356
#     4  11  22  36  59  84 124 162 201 249 300 362
#     4  11  22  40  60  92 124 159 212 253 308 367
#
# _framework density 18.908235999999999
#
# number of rings (size 3 to 8) (size 9 to 14) (size 15 to 20)
#    0.000    1.167    6.667    1.000    0.000    5.000 
#    0.000    0.000    0.000    0.500    0.000   11.667 
#    0.000    0.000    0.000    0.000    0.000    0.000 
#
# Total GULP energy -133769.486207 kJ/mol
# GULP energy per Si atom -5573.728592 kJ/mol
# Density = 1.886520 g / cm^3
# Si number density = 18.908236 Si / 1000 Ang^3
#
#
#
# Elastic Constant Matrix: (Units=GPa)
#
#
# Indices 1 2 3 4 5 6 
#
# 1 95.5910 39.7949 57.3932 -0.0010 -28.3257 0.0009
# 2 39.7949 111.6914 46.3666 0.0006 -9.1224 -0.0001
# 3 57.3932 46.3666 95.3068 -0.0001 -37.5656 0.0015
# 4 -0.0010 0.0006 -0.0001 33.4840 0.0012 -15.0880
# 5 -28.3257 -9.1224 -37.5656 0.0012 44.5877 -0.0011
# 6 0.0009 -0.0001 0.0015 -15.0880 -0.0011 13.5423
#
#
#
# Elastic Compliance Matrix: (Units=1/GPa)
#
#
# Indices 1 2 3 4 5 6 
#
# 1 0.017305 -0.002732 -0.007455 0.000001 0.004154 0.000001
# 2 -0.002732 0.012016 -0.005863 0.000000 -0.004216 0.000001
# 3 -0.007455 -0.005863 0.023198 -0.000002 0.013609 -0.000003
# 4 0.000001 0.000000 -0.000002 0.059974 -0.000001 0.066819
# 5 0.004154 -0.004216 0.013609 -0.000001 0.035670 0.000000
# 6 0.000001 0.000001 -0.000003 0.066819 0.000000 0.148289
#
#
# Mechanical properties :
#
#
# Convention : Reuss Voigt Hill
#
# Bulk Modulus (GPa) = 48.96947 65.52208 57.24577
# Shear Modulus (GPa) = 14.90948 28.92509 21.91728
#
# Velocity S-wave (km/s) = 2.81110 3.91546 3.40831
# Velocity P-wave (km/s) = 6.04079 7.42758 6.76979
#
# Compressibility (1/GPa) = 0.02042089
#
# Stress axis : x y z
#
# Youngs Moduli (GPa) = 57.78570 83.22298 43.10737
#
# Poissons Ratio (x) = 0.22735 0.32136
# Poissons Ratio (y) = 0.15786 0.25272
# Poissons Ratio (z) = 0.43078 0.48790
#
# Static dielectric constant tensor:
#      x y z
#    x 1.692220 0.000000 -0.011080 
#    y 0.000000 1.674470 0.000000 
#    z -0.011080 0.000000 1.699090 
# 
# From -- ./inp_files/91366.got.cif
#   From: 2010.05.17/outbox.cif.g08.bks.cpg/sg12_46_cif.got.tgz:91366.got - 2010.06.03 13:09:07.
