data_PCOD9189790
_publ_section_title
;
Structure prediction by ZEFSAII (Michael W. Deem and Ramdas Pophale) SiO2 
 PCOD9189790
Probable space group: C 2/M
;
_chemical_formula_sum "Si O2"
_cell_formula_units_Z 64
_cell_length_a 21.724995
_cell_length_b 8.229350
_cell_length_c 16.554885
_cell_angle_alpha 90.000000
_cell_angle_beta 90.285670
_cell_angle_gamma 90.000000
_cell_volume 2959.688390
_symmetry_space_group_name_H-M "C 2/M"
_symmetry_group_IT_number 12
_symmetry_cell_setting 'monoclinic'
loop_
_space_group_symop_operation_xyz
x,y,z
-x,y,-z
-x,-y,-z
x,-y,z
1/2+x,1/2+y,z
1/2-x,1/2+y,-z
1/2-x,1/2-y,-z
1/2+x,1/2-y,z
loop_
_atom_site_type_symbol
_atom_site_label
_atom_site_fract_x
_atom_site_fract_y
_atom_site_fract_z
Si Si1 0.017809 0.184201 0.126466
Si Si2 0.591175 0.802636 0.279668
Si Si3 0.233784 0.696156 0.270817
Si Si4 0.110755 0.684813 0.855211
Si Si5 0.359762 0.196494 0.323666
Si Si6 0.485561 0.802090 0.409337
Si Si7 0.628901 0.315992 0.024770
Si Si8 0.738141 0.183672 0.090905
O O1 0.064144 0.215565 0.200611
O O2 0.057805 0.198302 0.046175
O O3 0.962261 0.307289 0.133965
O O4 0.992714 0.000000 0.130796
O O5 0.663351 0.757888 0.292625
O O6 0.542225 0.759499 0.350178
O O7 0.588864 0.000000 0.270072
O O8 0.234736 0.500000 0.266454
O O9 0.288667 0.749355 0.331331
O O10 0.249704 0.760644 0.179371
O O11 0.132649 0.500000 0.861455
O O12 0.123152 0.752014 0.766921
O O13 0.138598 0.780932 0.930501
O O14 0.417397 0.251774 0.378977
O O15 0.360453 0.000000 0.325220
O O16 0.500000 0.746856 0.500000
O O17 0.483521 0.000000 0.409453
O O18 0.647849 0.500000 0.045587
O O19 0.664014 0.192355 0.082530
O O20 0.758705 0.000000 0.094201
O O21 0.750000 0.250000 0.000000
#
# Coordination Sequence:
#
# PCOD9189790 Si02
#       8
#     8   8   8   8   8   8   8   8
#     4  11  22  35  54  81 114 152 194 247 303 349
#     4  10  19  38  63  87 117 153 200 241 288 361
#     4  10  22  37  57  83 116 159 197 241 293 345
#     4  11  22  36  55  80 112 155 203 248 295 348
#     4  10  21  37  59  87 117 151 194 242 290 348
#     4   9  18  37  67  96 118 146 190 242 293 354
#     4  11  23  36  50  76 113 151 198 251 302 347
#     4  11  22  36  53  74 106 154 207 252 297 343
#
# _framework density 21.623899000000002
#
# number of rings (size 3 to 8) (size 9 to 14) (size 15 to 20)
#    0.000    1.625    2.500    2.625    0.000    7.500 
#    0.000    0.625    0.000    1.500    0.000    0.000 
#    0.000    0.000    0.000    0.000    0.000    0.000 
#
# Total GULP energy -178492.873609 kJ/mol
# GULP energy per Si atom -5577.902300 kJ/mol
# Density = 2.157468 g / cm^3
# Si number density = 21.623899 Si / 1000 Ang^3
#
#
#
# Elastic Constant Matrix: (Units=GPa)
#
#
# Indices 1 2 3 4 5 6 
#
# 1 132.2264 19.9472 50.2485 0.0000 33.5166 0.0000
# 2 19.9472 28.7030 10.7289 0.0000 3.6075 0.0000
# 3 50.2485 10.7289 94.0240 0.0000 23.5793 0.0000
# 4 0.0000 0.0000 0.0000 13.5490 0.0000 3.8970
# 5 33.5166 3.6075 23.5793 0.0000 33.0885 0.0000
# 6 0.0000 0.0000 0.0000 3.8970 0.0000 35.7256
#
#
#
# Elastic Compliance Matrix: (Units=1/GPa)
#
#
# Indices 1 2 3 4 5 6 
#
# 1 0.012102 -0.005956 -0.003503 0.000000 -0.009114 0.000000
# 2 -0.005956 0.039364 -0.002125 0.000000 0.003256 0.000000
# 3 -0.003503 -0.002125 0.014370 0.000000 -0.006461 0.000000
# 4 0.000000 0.000000 0.000000 0.076197 0.000000 -0.008312
# 5 -0.009114 0.003256 -0.006461 0.000000 0.043703 0.000000
# 6 0.000000 0.000000 0.000000 -0.008312 0.000000 0.028898
#
#
# Mechanical properties :
#
#
# Convention : Reuss Voigt Hill
#
# Bulk Modulus (GPa) = 23.43632 46.31140 34.87386
# Shear Modulus (GPa) = 19.83937 28.07455 23.95696
#
# Velocity S-wave (km/s) = 3.03227 3.60712 3.33211
# Velocity P-wave (km/s) = 4.80845 6.22990 5.56475
#
# Compressibility (1/GPa) = 0.04266882
#
# Stress axis : x y z
#
# Youngs Moduli (GPa) = 82.62768 25.40401 69.58837
#
# Poissons Ratio (x) = 0.15130 0.24375
# Poissons Ratio (y) = 0.49212 0.14789
# Poissons Ratio (z) = 0.28942 0.05399
#
# Static dielectric constant tensor:
#      x y z
#    x 1.958960 0.000000 -0.033010 
#    y 0.000000 1.777710 0.000000 
#    z -0.033010 0.000000 1.772860 
# 
# From -- ./inp_files/281229.got.cif
#   From: 2010.05.17/outbox.cif.g08.bks.cpg/sg12_141_cif.got.tgz:281229.got - 2010.06.03 13:09:07.
