data_PCOD9189926
_publ_section_title
;
Structure prediction by ZEFSAII (Michael W. Deem and Ramdas Pophale) SiO2 
 PCOD9189926
Probable space group: C 2/M
;
_chemical_formula_sum "Si O2"
_cell_formula_units_Z 56
_cell_length_a 11.454117
_cell_length_b 15.038029
_cell_length_c 17.319523
_cell_angle_alpha 90.000000
_cell_angle_beta 74.527013
_cell_angle_gamma 90.000000
_cell_volume 2875.118226
_symmetry_space_group_name_H-M "C 2/M"
_symmetry_group_IT_number 12
_symmetry_cell_setting 'monoclinic'
loop_
_space_group_symop_operation_xyz
x,y,z
-x,y,-z
-x,-y,-z
x,-y,z
1/2+x,1/2+y,z
1/2-x,1/2+y,-z
1/2-x,1/2-y,-z
1/2+x,1/2-y,z
loop_
_atom_site_type_symbol
_atom_site_label
_atom_site_fract_x
_atom_site_fract_y
_atom_site_fract_z
Si Si1 0.801133 0.723939 0.731205
Si Si2 0.189543 0.601964 0.815889
Si Si3 0.521385 0.738143 0.586015
Si Si4 0.092104 0.598958 0.159679
Si Si5 0.860746 0.314272 0.008507
Si Si6 0.868587 0.596265 0.481182
Si Si7 0.161116 0.101247 0.648562
O O1 0.764802 0.824187 0.756983
O O2 0.847308 0.673971 0.799113
O O3 0.694576 0.664991 0.713460
O O4 0.906443 0.721997 0.649223
O O5 0.233481 0.500000 0.805071
O O6 0.178892 0.636622 0.906064
O O7 0.052800 0.603462 0.807029
O O8 0.500000 0.719508 0.500000
O O9 0.626550 0.814293 0.570402
O O10 0.552548 0.648102 0.623631
O O11 0.132368 0.500000 0.175866
O O12 0.120790 0.617477 0.065228
O O13 0.750000 0.250000 0.000000
O O14 0.000000 0.276634 0.000000
O O15 0.855249 0.500000 0.443133
O O16 0.767994 0.601431 0.565198
O O17 0.000000 0.595333 0.500000
O O18 0.141179 0.000000 0.675856
#
# Coordination Sequence:
#
# PCOD9189926 Si02
#       7
#     8   8   8   8   8   8   8
#     4  12  22  38  62  85 122 157 195 255 306 360
#     4  10  22  40  62  92 126 162 205 250 300 361
#     4  11  23  39  60  81 116 154 203 249 305 365
#     4  10  21  38  63  94 121 158 205 248 299 364
#     4  10  19  38  68  95 127 167 209 254 304 368
#     4   9  17  34  59  83 103 136 191 248 296 345
#     4  11  23  39  59  83 112 151 197 251 311 363
#
# _framework density 19.477461000000002
#
# number of rings (size 3 to 8) (size 9 to 14) (size 15 to 20)
#    0.000    1.571    4.286    2.143    0.000    3.143 
#    0.000    0.714    0.000    3.429    0.000    0.000 
#    0.000    0.000    0.000    0.000    0.000    0.000 
#
# Total GULP energy -156155.199559 kJ/mol
# GULP energy per Si atom -5576.971413 kJ/mol
# Density = 1.943313 g / cm^3
# Si number density = 19.477461 Si / 1000 Ang^3
#
#
#
# Elastic Constant Matrix: (Units=GPa)
#
#
# Indices 1 2 3 4 5 6 
#
# 1 44.3774 37.6406 6.5968 0.0000 11.3638 0.0000
# 2 37.6406 152.5383 28.7017 0.0000 8.0429 0.0000
# 3 6.5968 28.7017 62.1562 0.0000 10.8506 0.0000
# 4 0.0000 0.0000 0.0000 18.3212 0.0000 3.5738
# 5 11.3638 8.0429 10.8506 0.0000 21.0219 0.0000
# 6 0.0000 0.0000 0.0000 3.5738 0.0000 21.4636
#
#
#
# Elastic Compliance Matrix: (Units=1/GPa)
#
#
# Indices 1 2 3 4 5 6 
#
# 1 0.032904 -0.007817 0.002968 0.000000 -0.016328 0.000000
# 2 -0.007817 0.009061 -0.003832 0.000000 0.002737 0.000000
# 3 0.002968 -0.003832 0.019307 0.000000 -0.010103 0.000000
# 4 0.000000 0.000000 0.000000 0.056414 0.000000 -0.009393
# 5 -0.016328 0.002737 -0.010103 0.000000 0.060564 0.000000
# 6 0.000000 0.000000 0.000000 -0.009393 0.000000 0.048155
#
#
# Mechanical properties :
#
#
# Convention : Reuss Voigt Hill
#
# Bulk Modulus (GPa) = 22.77410 44.99446 33.88428
# Shear Modulus (GPa) = 19.34948 24.57018 21.95983
#
# Velocity S-wave (km/s) = 3.15529 3.55557 3.36139
# Velocity P-wave (km/s) = 4.99924 6.32511 5.70085
#
# Compressibility (1/GPa) = 0.04390953
#
# Stress axis : x y z
#
# Youngs Moduli (GPa) = 30.39112 110.35727 51.79472
#
# Poissons Ratio (x) = 0.86267 -0.15372
# Poissons Ratio (y) = 0.23757 0.19850
# Poissons Ratio (z) = -0.09020 0.42294
#
# Static dielectric constant tensor:
#      x y z
#    x 1.698290 0.000000 -0.001910 
#    y 0.000000 1.712530 0.000000 
#    z -0.001910 0.000000 1.670520 
# 
# From -- ./inp_files/262828.got.cif
#   From: 2010.05.17/outbox.cif.g08.bks.cpg/sg12_132_cif.got.tgz:262828.got - 2010.06.03 13:09:07.
