data_PCOD9189297
_publ_section_title
;
Structure prediction by ZEFSAII (Michael W. Deem and Ramdas Pophale) SiO2 
 PCOD9189297
Probable space group: C 2/M
;
_chemical_formula_sum "Si O2"
_cell_formula_units_Z 58
_cell_length_a 21.913377
_cell_length_b 26.902777
_cell_length_c 8.164027
_cell_angle_alpha 90.000000
_cell_angle_beta 147.789713
_cell_angle_gamma 90.000000
_cell_volume 2565.435123
_symmetry_space_group_name_H-M "C 2/M"
_symmetry_group_IT_number 12
_symmetry_cell_setting 'monoclinic'
loop_
_space_group_symop_operation_xyz
x,y,z
-x,y,-z
-x,-y,-z
x,-y,z
1/2+x,1/2+y,z
1/2-x,1/2+y,-z
1/2-x,1/2-y,-z
1/2+x,1/2-y,z
loop_
_atom_site_type_symbol
_atom_site_label
_atom_site_fract_x
_atom_site_fract_y
_atom_site_fract_z
Si Si1 0.448009 0.445451 0.063954
Si Si2 0.167085 0.214401 0.465945
Si Si3 0.245924 0.704368 0.865120
Si Si4 0.183422 0.425545 0.475701
Si Si5 0.601914 0.172050 0.129350
Si Si6 0.542825 0.669557 0.853841
Si Si7 0.500000 0.000000 0.000000
Si Si8 0.928230 0.383340 0.491927
O O1 0.481985 0.500000 0.213958
O O2 0.473407 0.390277 0.191201
O O3 0.500000 0.444486 0.000000
O O4 0.310667 0.443958 0.746023
O O5 0.185650 0.271321 0.566342
O O6 0.300320 0.199652 0.749319
O O7 0.084559 0.191468 0.417390
O O8 0.107383 0.192463 0.164160
O O9 0.167031 0.659688 0.754140
O O10 0.250000 0.750000 0.000000
O O11 0.371601 0.685964 0.095832
O O12 0.169327 0.368852 0.389625
O O13 0.094908 0.457380 0.173327
O O14 0.137428 0.426481 0.557739
O O15 0.500000 0.198959 0.000000
O O16 0.524075 0.141365 0.825009
O O17 0.000000 0.400710 0.500000
#
# Coordination Sequence:
#
# PCOD9189297 Si02
#       8
#     8   8   8   8   8   8   2   8
#     4  11  20  36  66  97 124 163 211 265 326 378
#     4  11  23  39  63  91 126 163 210 264 321 381
#     4  12  27  42  61  89 126 176 214 258 320 392
#     4  11  20  38  63  91 129 158 198 267 316 376
#     4  10  19  37  61  85 121 164 202 253 322 369
#     4  11  22  43  62  93 133 159 219 269 316 380
#     4  12  20  36  64 104 120 150 208 254 332 374
#     4  11  23  40  60  85 126 167 214 248 316 377
#
# _framework density 22.608250000000002
#
# number of rings (size 3 to 8) (size 9 to 14) (size 15 to 20)
#    0.000    0.966    6.897    2.069    3.862    0.000 
#    2.483    0.345    0.000    0.000    0.000    2.897 
#    0.000    0.276    0.000    0.000    0.000    0.000 
#
# Total GULP energy -161459.909925 kJ/mol
# GULP energy per Si atom -5567.583101 kJ/mol
# Density = 2.255679 g / cm^3
# Si number density = 22.608250 Si / 1000 Ang^3
#
#
#
# Elastic Constant Matrix: (Units=GPa)
#
#
# Indices 1 2 3 4 5 6 
#
# 1 168.3004 35.6872 43.1201 0.0000 44.3998 0.0000
# 2 35.6872 149.7356 14.6123 0.0000 22.8402 0.0000
# 3 43.1201 14.6123 49.8158 0.0000 33.8820 0.0000
# 4 0.0000 0.0000 0.0000 0.5636 0.0000 -9.2709
# 5 44.3998 22.8402 33.8820 0.0000 47.1733 0.0000
# 6 0.0000 0.0000 0.0000 -9.2709 0.0000 102.1926
#
#
#
# Elastic Compliance Matrix: (Units=1/GPa)
#
#
# Indices 1 2 3 4 5 6 
#
# 1 0.008337 -0.000901 -0.003738 0.000000 -0.004726 0.000000
# 2 -0.000901 0.007315 0.000912 0.000000 -0.003348 0.000000
# 3 -0.003738 0.000912 0.040958 0.000000 -0.026341 0.000000
# 4 0.000000 0.000000 0.000000 -3.603734 0.000000 -0.326930
# 5 -0.004726 -0.003348 -0.026341 0.000000 0.046187 0.000000
# 6 0.000000 0.000000 0.000000 -0.326930 0.000000 -0.019874
#
#
# Mechanical properties :
#
#
# Convention : Reuss Voigt Hill
#
# Bulk Modulus (GPa) = 20.34374 61.63233 40.98804
# Shear Modulus (GPa) = -1.42981 48.28139 23.42579
#
# Velocity S-wave (km/s) = -0.79612 4.62623 3.22244
# Velocity P-wave (km/s) = 2.85882 7.47370 5.65814
#
# Compressibility (1/GPa) = 0.04915516
#
# Stress axis : x y z
#
# Youngs Moduli (GPa) = 119.94186 136.70487 24.41534
#
# Poissons Ratio (x) = 0.12323 0.09127
# Poissons Ratio (y) = 0.10812 -0.02226
# Poissons Ratio (z) = 0.44835 -0.12466
#
# Static dielectric constant tensor:
#      x y z
#    x 1.891190 0.000000 -0.085620 
#    y 0.000000 1.858620 0.000000 
#    z -0.085620 0.000000 1.911760 
# 
# From -- ./inp_files/100089.got.cif
#   From: 2010.05.17/outbox.cif.g08.bks.cpg/sg12_51_cif.got.tgz:100089.got - 2010.06.03 13:09:07.
