data_PCOD9189159
_publ_section_title
;
Structure prediction by ZEFSAII (Michael W. Deem and Ramdas Pophale) SiO2 
 PCOD9189159
Probable space group: C 2/M
;
_chemical_formula_sum "Si O2"
_cell_formula_units_Z 42
_cell_length_a 13.897115
_cell_length_b 15.646416
_cell_length_c 9.520191
_cell_angle_alpha 90.000000
_cell_angle_beta 129.432976
_cell_angle_gamma 90.000000
_cell_volume 1598.856669
_symmetry_space_group_name_H-M "C 2/M"
_symmetry_group_IT_number 12
_symmetry_cell_setting 'monoclinic'
loop_
_space_group_symop_operation_xyz
x,y,z
-x,y,-z
-x,-y,-z
x,-y,z
1/2+x,1/2+y,z
1/2-x,1/2+y,-z
1/2-x,1/2-y,-z
1/2+x,1/2-y,z
loop_
_atom_site_type_symbol
_atom_site_label
_atom_site_fract_x
_atom_site_fract_y
_atom_site_fract_z
Si Si1 0.315792 0.102820 0.846428
Si Si2 0.203421 0.101508 0.468855
Si Si3 0.819062 0.099909 0.863730
Si Si4 0.438756 0.666492 0.243828
Si Si5 0.053120 0.364715 0.755733
Si Si6 0.500000 0.000000 0.500000
O O1 0.303508 0.135213 0.674409
O O2 0.186994 0.135460 0.797479
O O3 0.314079 0.000000 0.839601
O O4 0.424539 0.125281 0.056970
O O5 0.197851 0.137987 0.306531
O O6 0.064229 0.117695 0.399128
O O7 0.217955 0.000000 0.469520
O O8 0.684556 0.100892 0.813004
O O9 0.857323 0.000000 0.891415
O O10 0.910150 0.149355 0.052320
O O11 0.459513 0.765964 0.289228
O O12 0.963925 0.425781 0.584879
#
# Coordination Sequence:
#
# PCOD9189159 Si02
#       6
#     8   8   8   8   8   2
#     4  10  19  37  58  90 126 160 199 254 309 359
#     4  10  21  35  64  95 131 161 195 245 318 376
#     4  10  19  39  64  94 128 166 199 248 310 369
#     4  11  21  35  60  95 124 159 209 253 297 368
#     4  11  23  41  65  87 115 161 221 257 296 358
#     4  12  24  44  72  82 110 168 224 258 288 368
#
# _framework density 26.268771999999998
#
# number of rings (size 3 to 8) (size 9 to 14) (size 15 to 20)
#    0.000    1.524    1.905    6.286    2.667    3.048 
#    0.000    3.810    4.190    1.143    0.000    0.000 
#    0.000    0.000    0.000    0.000    0.000    0.000 
#
# Total GULP energy -117385.365868 kJ/mol
# GULP energy per Si atom -5589.779327 kJ/mol
# Density = 2.620898 g / cm^3
# Si number density = 26.268772 Si / 1000 Ang^3
#
#
#
# Elastic Constant Matrix: (Units=GPa)
#
#
# Indices 1 2 3 4 5 6 
#
# 1 70.7773 -0.7694 38.5675 0.0000 4.7600 0.0000
# 2 -0.7694 95.4408 16.0365 0.0000 19.7311 0.0000
# 3 38.5675 16.0365 231.6068 0.0000 -10.1877 0.0000
# 4 0.0000 0.0000 0.0000 44.6609 0.0000 36.3310
# 5 4.7600 19.7311 -10.1877 0.0000 48.5533 0.0000
# 6 0.0000 0.0000 0.0000 36.3310 0.0000 -36.1881
#
#
#
# Elastic Compliance Matrix: (Units=1/GPa)
#
#
# Indices 1 2 3 4 5 6 
#
# 1 0.015862 0.001145 -0.002836 0.000000 -0.002615 0.000000
# 2 0.001145 0.011758 -0.001231 0.000000 -0.005149 0.000000
# 3 -0.002836 -0.001231 0.004955 0.000000 0.001818 0.000000
# 4 0.000000 0.000000 0.000000 0.012325 0.000000 0.012374
# 5 -0.002615 -0.005149 0.001818 0.000000 0.023326 0.000000
# 6 0.000000 0.000000 0.000000 0.012374 0.000000 -0.015211
#
#
# Mechanical properties :
#
#
# Convention : Reuss Voigt Hill
#
# Bulk Modulus (GPa) = 37.40865 56.16601 46.78733
# Shear Modulus (GPa) = 73.77785 34.33789 54.05787
#
# Velocity S-wave (km/s) = 5.30535 3.61941 4.54130
# Velocity P-wave (km/s) = 7.19727 6.23655 6.73406
#
# Compressibility (1/GPa) = 0.02673179
#
# Stress axis : x y z
#
# Youngs Moduli (GPa) = 63.04215 85.04628 201.81206
#
# Poissons Ratio (x) = -0.09738 0.57229
# Poissons Ratio (y) = -0.07219 0.24849
# Poissons Ratio (z) = 0.17877 0.10472
#
# Static dielectric constant tensor:
#      x y z
#    x 2.207930 0.000000 0.024020 
#    y 0.000000 1.691180 0.000000 
#    z 0.024020 0.000000 2.207680 
# 
# From -- ./inp_files/61637.got.cif
#   From: 2010.05.17/outbox.cif.g08.bks.cpg/sg12_31_cif.got.tgz:61637.got - 2010.06.03 13:09:07.
