data_PCOD9189762
_publ_section_title
;
Structure prediction by ZEFSAII (Michael W. Deem and Ramdas Pophale) SiO2 
 PCOD9189762
Probable space group: C 2/M
;
_chemical_formula_sum "Si O2"
_cell_formula_units_Z 48
_cell_length_a 5.260480
_cell_length_b 13.913515
_cell_length_c 32.049433
_cell_angle_alpha 90.000000
_cell_angle_beta 80.765385
_cell_angle_gamma 90.000000
_cell_volume 2315.352476
_symmetry_space_group_name_H-M "C 2/M"
_symmetry_group_IT_number 12
_symmetry_cell_setting 'monoclinic'
loop_
_space_group_symop_operation_xyz
x,y,z
-x,y,-z
-x,-y,-z
x,-y,z
1/2+x,1/2+y,z
1/2-x,1/2+y,-z
1/2-x,1/2-y,-z
1/2+x,1/2-y,z
loop_
_atom_site_type_symbol
_atom_site_label
_atom_site_fract_x
_atom_site_fract_y
_atom_site_fract_z
Si Si1 0.887691 0.000000 0.657339
Si Si2 0.491173 0.315045 0.955284
Si Si3 0.693376 0.312924 0.866786
Si Si4 0.659148 0.366208 0.417945
Si Si5 0.127356 0.655436 0.452502
Si Si6 0.280557 0.316643 0.227320
Si Si7 0.166969 0.500000 0.287491
O O1 0.874533 0.907747 0.627062
O O2 0.632820 0.000000 0.692203
O O3 0.147069 0.000000 0.677177
O O4 0.207010 0.270321 0.955290
O O5 0.588869 0.366792 0.910663
O O6 0.500000 0.366302 0.000000
O O7 0.481386 0.226449 0.867833
O O8 0.691069 0.357185 0.820818
O O9 0.402263 0.392684 0.449857
O O10 0.684130 0.251849 0.424465
O O11 0.920059 0.401771 0.431736
O O12 0.000000 0.680521 0.500000
O O13 0.538114 0.256987 0.232175
O O14 0.229733 0.404237 0.259599
#
# Coordination Sequence:
#
# PCOD9189762 Si02
#       7
#     4   8   8   8   8   8   4
#     4  12  26  44  57  86 124 154 189 238 304 342
#     4   8  12  18  31  58  95 134 170 214 274 333
#     4   8  14  25  45  69 101 135 180 235 277 347
#     4  10  20  37  57  82 117 150 185 228 271 327
#     4  10  19  38  62  89 116 152 196 223 259 329
#     4  10  21  41  63  89 113 151 202 248 312 355
#     4  12  26  46  62  88 124 152 202 264 290 366
#
# _framework density 20.731186000000001
#
# number of rings (size 3 to 8) (size 9 to 14) (size 15 to 20)
#    0.000    2.333    0.000    4.500    0.000    0.000 
#   18.000    4.583    0.000    0.000    0.000    0.583 
#    0.000    0.000    0.000   57.500    0.000    4.000 
#
# Total GULP energy -133646.543899 kJ/mol
# GULP energy per Si atom -5568.605996 kJ/mol
# Density = 2.068400 g / cm^3
# Si number density = 20.731186 Si / 1000 Ang^3
#
#
#
# Elastic Constant Matrix: (Units=GPa)
#
#
# Indices 1 2 3 4 5 6 
#
# 1 120.2564 -1.4630 -16.0373 0.0000 3.4468 0.0000
# 2 -1.4630 79.4331 24.9611 0.0000 1.1707 0.0000
# 3 -16.0373 24.9611 90.7393 0.0000 -0.3899 0.0000
# 4 0.0000 0.0000 0.0000 -12.9986 0.0000 1.5995
# 5 3.4468 1.1707 -0.3899 0.0000 38.3507 0.0000
# 6 0.0000 0.0000 0.0000 1.5995 0.0000 -0.0238
#
#
#
# Elastic Compliance Matrix: (Units=1/GPa)
#
#
# Indices 1 2 3 4 5 6 
#
# 1 0.008546 -0.000334 0.001599 0.000000 -0.000742 0.000000
# 2 -0.000334 0.013802 -0.003858 0.000000 -0.000430 0.000000
# 3 0.001599 -0.003858 0.012365 0.000000 0.000100 0.000000
# 4 0.000000 0.000000 0.000000 0.010603 0.000000 0.711381
# 5 -0.000742 -0.000430 0.000100 0.000000 0.026156 0.000000
# 6 0.000000 0.000000 0.000000 0.711381 0.000000 5.781336
#
#
# Mechanical properties :
#
#
# Convention : Reuss Voigt Hill
#
# Bulk Modulus (GPa) = 33.86695 33.92781 33.89738
# Shear Modulus (GPa) = 0.85210 23.93018 12.39114
#
# Velocity S-wave (km/s) = 0.64181 3.40120 2.44745
# Velocity P-wave (km/s) = 4.11350 5.64139 4.93691
#
# Compressibility (1/GPa) = 0.02952731
#
# Stress axis : x y z
#
# Youngs Moduli (GPa) = 117.01351 72.45541 80.87474
#
# Poissons Ratio (x) = 0.02421 -0.12933
# Poissons Ratio (y) = 0.03910 0.31198
# Poissons Ratio (z) = -0.18712 0.27950
#
# Static dielectric constant tensor:
#      x y z
#    x 1.786580 0.000000 0.000250 
#    y 0.000000 1.746420 0.000000 
#    z 0.000250 0.000000 1.794020 
# 
# From -- ./inp_files/371444.got.cif
#   From: 2010.05.17/outbox.cif.g08.bks.cpg/sg12_186_cif.got.tgz:371444.got - 2010.06.03 13:09:07.
