data_PCOD9189893
_publ_section_title
;
Structure prediction by ZEFSAII (Michael W. Deem and Ramdas Pophale) SiO2 
 PCOD9189893
Probable space group: C 2/M
;
_chemical_formula_sum "Si O2"
_cell_formula_units_Z 46
_cell_length_a 11.282320
_cell_length_b 17.602324
_cell_length_c 10.484446
_cell_angle_alpha 90.000000
_cell_angle_beta 111.986600
_cell_angle_gamma 90.000000
_cell_volume 1930.726667
_symmetry_space_group_name_H-M "C 2/M"
_symmetry_group_IT_number 12
_symmetry_cell_setting 'monoclinic'
loop_
_space_group_symop_operation_xyz
x,y,z
-x,y,-z
-x,-y,-z
x,-y,z
1/2+x,1/2+y,z
1/2-x,1/2+y,-z
1/2-x,1/2-y,-z
1/2+x,1/2-y,z
loop_
_atom_site_type_symbol
_atom_site_label
_atom_site_fract_x
_atom_site_fract_y
_atom_site_fract_z
Si Si1 0.000000 0.000000 0.000000
Si Si2 0.560050 0.675420 0.388494
Si Si3 0.802379 0.139160 0.910538
Si Si4 0.719988 0.915018 0.427396
Si Si5 0.023717 0.339968 0.730932
Si Si6 0.163818 0.088593 0.809125
Si Si7 0.000000 0.275859 0.000000
O O1 0.893821 0.932258 0.921492
O O2 0.500000 0.653438 0.500000
O O3 0.704239 0.646596 0.457856
O O4 0.530218 0.762742 0.353222
O O5 0.472318 0.630019 0.254509
O O6 0.673899 0.145628 0.776392
O O7 0.763845 0.125189 0.043623
O O8 0.880174 0.217800 0.937416
O O9 0.568806 0.903850 0.361782
O O10 0.765270 0.905489 0.297384
O O11 0.758062 0.000000 0.482169
O O12 0.003859 0.325060 0.873540
O O13 0.139204 0.000000 0.828437
#
# Coordination Sequence:
#
# PCOD9189893 Si02
#       7
#     2   8   8   8   8   8   4
#     4  10  24  44  60  94 130 176 208 236 320 416
#     4  10  22  40  65  90 126 171 220 265 315 378
#     4  11  23  40  64  94 131 168 211 257 327 388
#     4  10  23  40  62  96 126 171 220 266 324 375
#     4  12  24  39  67  94 134 164 211 275 321 382
#     4  10  19  38  66  92 128 165 213 268 318 390
#     4  11  24  39  63 100 127 166 208 264 333 386
#
# _framework density 23.825227999999999
#
# number of rings (size 3 to 8) (size 9 to 14) (size 15 to 20)
#    0.000    1.391    2.609    2.609    6.087    2.087 
#    0.000    2.174    0.000    0.522    0.000    0.000 
#    0.000    0.000    0.000    0.000    0.000    0.000 
#
# Total GULP energy -128434.719254 kJ/mol
# GULP energy per Si atom -5584.118228 kJ/mol
# Density = 2.377100 g / cm^3
# Si number density = 23.825228 Si / 1000 Ang^3
#
#
#
# Elastic Constant Matrix: (Units=GPa)
#
#
# Indices 1 2 3 4 5 6 
#
# 1 53.6373 33.9962 36.9100 0.0000 24.3988 0.0000
# 2 33.9962 89.0153 41.4777 0.0000 25.3973 0.0000
# 3 36.9100 41.4777 90.5086 0.0000 37.0515 0.0000
# 4 0.0000 0.0000 0.0000 33.6664 0.0000 3.9891
# 5 24.3988 25.3973 37.0515 0.0000 52.3048 0.0000
# 6 0.0000 0.0000 0.0000 3.9891 0.0000 28.3637
#
#
#
# Elastic Compliance Matrix: (Units=1/GPa)
#
#
# Indices 1 2 3 4 5 6 
#
# 1 0.030332 -0.006670 -0.006826 0.000000 -0.006075 0.000000
# 2 -0.006670 0.016151 -0.003866 0.000000 -0.001992 0.000000
# 3 -0.006826 -0.003866 0.019059 0.000000 -0.008440 0.000000
# 4 0.000000 0.000000 0.000000 0.030207 0.000000 -0.004248
# 5 -0.006075 -0.001992 -0.008440 0.000000 0.028898 0.000000
# 6 0.000000 0.000000 0.000000 -0.004248 0.000000 0.035854
#
#
# Mechanical properties :
#
#
# Convention : Reuss Voigt Hill
#
# Bulk Modulus (GPa) = 32.44844 50.88101 41.66473
# Shear Modulus (GPa) = 24.33111 30.91880 27.62495
#
# Velocity S-wave (km/s) = 3.19914 3.60631 3.40881
# Velocity P-wave (km/s) = 5.22446 6.22439 5.74621
#
# Compressibility (1/GPa) = 0.03081812
#
# Stress axis : x y z
#
# Youngs Moduli (GPa) = 32.96830 61.91431 52.46894
#
# Poissons Ratio (x) = 0.41299 0.35815
# Poissons Ratio (y) = 0.21991 0.20284
# Poissons Ratio (z) = 0.22504 0.23935
#
# Static dielectric constant tensor:
#      x y z
#    x 2.142390 0.000000 -0.094130 
#    y 0.000000 1.849320 0.000000 
#    z -0.094130 0.000000 1.920110 
# 
# From -- ./inp_files/134129.got.cif
#   From: 2010.05.17/outbox.cif.g08.bks.cpg/sg12_68_cif.got.tgz:134129.got - 2010.06.03 13:09:07.
