data_PCOD9189136
_publ_section_title
;
Structure prediction by ZEFSAII (Michael W. Deem and Ramdas Pophale) SiO2 
 PCOD9189136
Probable space group: C 2/M
;
_chemical_formula_sum "Si O2"
_cell_formula_units_Z 44
_cell_length_a 20.026337
_cell_length_b 14.985327
_cell_length_c 23.184985
_cell_angle_alpha 90.000000
_cell_angle_beta 160.457448
_cell_angle_gamma 90.000000
_cell_volume 2327.445754
_symmetry_space_group_name_H-M "C 2/M"
_symmetry_group_IT_number 12
_symmetry_cell_setting 'monoclinic'
loop_
_space_group_symop_operation_xyz
x,y,z
-x,y,-z
-x,-y,-z
x,-y,z
1/2+x,1/2+y,z
1/2-x,1/2+y,-z
1/2-x,1/2-y,-z
1/2+x,1/2-y,z
loop_
_atom_site_type_symbol
_atom_site_label
_atom_site_fract_x
_atom_site_fract_y
_atom_site_fract_z
Si Si1 0.753239 0.210603 0.901966
Si Si2 0.794803 0.599775 0.621494
Si Si3 0.394537 0.394905 0.357062
Si Si4 0.000000 0.704997 0.000000
Si Si5 0.889227 0.600917 0.563572
Si Si6 0.017103 0.213626 0.221430
O O1 0.604732 0.146599 0.745572
O O2 0.606942 0.278386 0.819197
O O3 0.909419 0.244973 0.981891
O O4 0.880619 0.172578 0.059844
O O5 0.845086 0.500000 0.686029
O O6 0.563531 0.617020 0.446504
O O7 0.821456 0.596803 0.575011
O O8 0.926401 0.683575 0.749414
O O9 0.500000 0.357642 0.500000
O O10 0.362231 0.500000 0.339088
O O11 0.186771 0.351440 0.174134
O O12 0.898612 0.500000 0.548278
O O13 0.722841 0.660779 0.397031
#
# Coordination Sequence:
#
# PCOD9189136 Si02
#       6
#     8   8   8   4   8   8
#     4  10  22  35  55  81 108 138 178 220 264 319
#     4   9  17  32  55  80 107 139 175 217 263 314
#     4  10  20  32  48  75 110 143 175 210 254 319
#     4  12  21  34  53  76 106 146 176 212 270 322
#     4  10  20  36  58  79 103 138 182 231 273 309
#     4  10  19  37  58  80 107 141 178 222 268 315
#
# _framework density 18.904844000000001
#
# number of rings (size 3 to 8) (size 9 to 14) (size 15 to 20)
#    0.000    2.000    0.000    5.727    0.000    0.727 
#    0.000    5.000    0.000    2.182    0.000    0.000 
#    0.000    0.000    0.000    0.000    0.000    0.000 
#
# Total GULP energy -122570.688095 kJ/mol
# GULP energy per Si atom -5571.394913 kJ/mol
# Density = 1.886182 g / cm^3
# Si number density = 18.904844 Si / 1000 Ang^3
#
#
#
# Elastic Constant Matrix: (Units=GPa)
#
#
# Indices 1 2 3 4 5 6 
#
# 1 70.8811 9.5582 9.6007 0.0001 21.5749 -0.0035
# 2 9.5582 35.8321 16.8319 0.0271 6.3939 0.0008
# 3 9.6007 16.8319 86.7606 0.0791 1.4831 0.0041
# 4 0.0001 0.0271 0.0791 15.6028 0.0120 5.3293
# 5 21.5749 6.3939 1.4831 0.0120 32.2385 -0.0028
# 6 -0.0035 0.0008 0.0041 5.3293 -0.0028 15.6177
#
#
#
# Elastic Compliance Matrix: (Units=1/GPa)
#
#
# Indices 1 2 3 4 5 6 
#
# 1 0.018127 -0.002099 -0.001400 0.000021 -0.011650 -0.000005
# 2 -0.002099 0.032081 -0.005911 -0.000024 -0.004686 0.000007
# 3 -0.001400 -0.005911 0.012802 -0.000062 0.001520 0.000018
# 4 0.000021 -0.000024 -0.000062 0.072547 -0.000036 -0.024755
# 5 -0.011650 -0.004686 0.001520 -0.000036 0.039675 0.000017
# 6 -0.000005 0.000007 0.000018 -0.024755 0.000017 0.072477
#
#
# Mechanical properties :
#
#
# Convention : Reuss Voigt Hill
#
# Bulk Modulus (GPa) = 22.62978 29.49503 26.06241
# Shear Modulus (GPa) = 17.77728 23.19069 20.48398
#
# Velocity S-wave (km/s) = 3.06985 3.50624 3.29527
# Velocity P-wave (km/s) = 4.95597 5.65927 5.31925
#
# Compressibility (1/GPa) = 0.04418956
#
# Stress axis : x y z
#
# Youngs Moduli (GPa) = 55.16661 31.17118 78.11436
#
# Poissons Ratio (x) = 0.06543 0.10932
# Poissons Ratio (y) = 0.11580 0.46177
# Poissons Ratio (z) = 0.07721 0.18427
#
# Static dielectric constant tensor:
#      x y z
#    x 1.674470 0.000000 -0.000420 
#    y 0.000000 1.705640 -0.000020 
#    z -0.000420 -0.000020 1.660960 
# 
# From -- ./inp_files/347425.got.cif
#   From: 2010.05.17/outbox.cif.g08.bks.cpg/sg12_174_cif.got.tgz:347425.got - 2010.06.03 13:09:07.
