data_PCOD9189519
_publ_section_title
;
Structure prediction by ZEFSAII (Michael W. Deem and Ramdas Pophale) SiO2 
 PCOD9189519
Probable space group: C 2/M
;
_chemical_formula_sum "Si O2"
_cell_formula_units_Z 40
_cell_length_a 15.545363
_cell_length_b 17.268194
_cell_length_c 10.314949
_cell_angle_alpha 90.000000
_cell_angle_beta 48.482687
_cell_angle_gamma 90.000000
_cell_volume 2073.265287
_symmetry_space_group_name_H-M "C 2/M"
_symmetry_group_IT_number 12
_symmetry_cell_setting 'monoclinic'
loop_
_space_group_symop_operation_xyz
x,y,z
-x,y,-z
-x,-y,-z
x,-y,z
1/2+x,1/2+y,z
1/2-x,1/2+y,-z
1/2-x,1/2-y,-z
1/2+x,1/2-y,z
loop_
_atom_site_type_symbol
_atom_site_label
_atom_site_fract_x
_atom_site_fract_y
_atom_site_fract_z
Si Si1 0.254085 0.659740 0.967823
Si Si2 0.865189 0.409013 0.158202
Si Si3 0.503603 0.406234 0.343231
Si Si4 0.763823 0.906177 0.456220
Si Si5 0.130022 0.406484 0.339510
O O1 0.203118 0.639701 0.878512
O O2 0.383878 0.628224 0.836093
O O3 0.250000 0.750000 0.000000
O O4 0.176784 0.618674 0.154001
O O5 0.833643 0.500000 0.171313
O O6 0.828273 0.387625 0.340013
O O7 0.000000 0.401372 0.000000
O O8 0.500000 0.385068 0.500000
O O9 0.509628 0.500000 0.332416
O O10 0.388044 0.380677 0.384204
O O11 0.717005 0.878208 0.365074
O O12 0.769615 0.000000 0.442174
O O13 0.128089 0.500000 0.345074
O O14 0.000000 0.379945 0.500000
#
# Coordination Sequence:
#
# PCOD9189519 Si02
#       5
#     8   8   8   8   8
#     4  12  25  39  56  88 127 165 195 237 306 377
#     4  10  19  37  65  90 114 154 213 262 294 348
#     4  10  19  37  65  89 115 152 203 255 292 344
#     4   9  18  34  62  94 112 143 199 254 305 343
#     4  10  21  40  64  89 119 153 200 258 302 346
#
# _framework density 19.293237999999999
#
# number of rings (size 3 to 8) (size 9 to 14) (size 15 to 20)
#    0.000    1.800    2.000    3.000    0.000    4.800 
#    3.600    4.000    0.000    0.000    0.000    0.000 
#    0.000    0.000    0.000    0.000    0.000    0.000 
#
# Total GULP energy -111703.531359 kJ/mol
# GULP energy per Si atom -5585.176568 kJ/mol
# Density = 1.924933 g / cm^3
# Si number density = 19.293238 Si / 1000 Ang^3
#
#
#
# Elastic Constant Matrix: (Units=GPa)
#
#
# Indices 1 2 3 4 5 6 
#
# 1 55.6512 5.5484 -8.9766 0.0000 -4.2191 0.0000
# 2 5.5484 14.5752 -3.5394 0.0000 -9.3704 0.0000
# 3 -8.9766 -3.5394 75.2948 0.0000 -16.4288 0.0000
# 4 0.0000 0.0000 0.0000 -5.3021 0.0000 8.1667
# 5 -4.2191 -9.3704 -16.4288 0.0000 34.3450 0.0000
# 6 0.0000 0.0000 0.0000 8.1667 0.0000 0.2116
#
#
#
# Elastic Compliance Matrix: (Units=1/GPa)
#
#
# Indices 1 2 3 4 5 6 
#
# 1 0.019056 -0.005321 0.002474 0.000000 0.002073 0.000000
# 2 -0.005321 0.091865 0.010060 0.000000 0.029222 0.000000
# 3 0.002474 0.010060 0.016429 0.000000 0.010907 0.000000
# 4 0.000000 0.000000 0.000000 -0.003120 0.000000 0.120423
# 5 0.002073 0.029222 0.010907 0.000000 0.042561 0.000000
# 6 0.000000 0.000000 0.000000 0.120423 0.000000 0.078183
#
#
# Mechanical properties :
#
#
# Convention : Reuss Voigt Hill
#
# Bulk Modulus (GPa) = 7.05336 14.62064 10.83700
# Shear Modulus (GPa) = 17.99818 16.01682 17.00750
#
# Velocity S-wave (km/s) = 3.05761 2.88441 2.97227
# Velocity P-wave (km/s) = 4.01611 4.32292 4.17234
#
# Compressibility (1/GPa) = 0.14177649
#
# Stress axis : x y z
#
# Youngs Moduli (GPa) = 52.47769 10.88551 60.86840
#
# Poissons Ratio (x) = 0.05792 -0.15059
# Poissons Ratio (y) = 0.27922 -0.61234
# Poissons Ratio (z) = -0.12983 -0.10951
#
# Static dielectric constant tensor:
#      x y z
#    x 1.677610 0.000000 -0.007170 
#    y 0.000000 1.715170 0.000000 
#    z -0.007170 0.000000 1.645280 
# 
# From -- ./inp_files/60824.got.cif
#   From: 2010.05.17/outbox.cif.g08.bks.cpg/sg12_31_cif.got.tgz:60824.got - 2010.06.03 13:09:07.
