data_PCOD9189185
_publ_section_title
;
Structure prediction by ZEFSAII (Michael W. Deem and Ramdas Pophale) SiO2 
 PCOD9189185
Probable space group: C 2/M
;
_chemical_formula_sum "Si O2"
_cell_formula_units_Z 36
_cell_length_a 24.607524
_cell_length_b 10.810699
_cell_length_c 6.826059
_cell_angle_alpha 90.000000
_cell_angle_beta 63.628901
_cell_angle_gamma 90.000000
_cell_volume 1626.929310
_symmetry_space_group_name_H-M "C 2/M"
_symmetry_group_IT_number 12
_symmetry_cell_setting 'monoclinic'
loop_
_space_group_symop_operation_xyz
x,y,z
-x,y,-z
-x,-y,-z
x,-y,z
1/2+x,1/2+y,z
1/2-x,1/2+y,-z
1/2-x,1/2-y,-z
1/2+x,1/2-y,z
loop_
_atom_site_type_symbol
_atom_site_label
_atom_site_fract_x
_atom_site_fract_y
_atom_site_fract_z
Si Si1 0.587050 0.853276 0.224041
Si Si2 0.412713 0.500000 0.218632
Si Si3 0.210626 0.000000 0.336318
Si Si4 0.470512 0.712340 0.358520
Si Si5 0.214046 0.733832 0.855726
Si Si6 0.319388 0.500000 0.080618
O O1 0.524937 0.806485 0.221171
O O2 0.582732 0.789917 0.447209
O O3 0.587365 0.000000 0.242576
O O4 0.645888 0.808578 0.015237
O O5 0.351042 0.500000 0.444369
O O6 0.448288 0.621243 0.229342
O O7 0.389992 0.500000 0.031896
O O8 0.250960 0.122789 0.305250
O O9 0.190825 0.000000 0.136615
O O10 0.500000 0.642115 0.500000
O O11 0.209026 0.874081 0.789230
O O12 0.250000 0.750000 0.000000
#
# Coordination Sequence:
#
# PCOD9189185 Si02
#       6
#     8   4   4   8   8   4
#     4   9  17  33  60  88 114 161 212 243 297 373
#     4  12  21  41  60  90 129 157 197 261 303 358
#     4  10  22  39  68  86 121 171 198 250 310 355
#     4   8  19  31  58  84 121 153 202 245 301 353
#     4  10  19  37  59  87 120 158 199 248 302 361
#     4  10  24  36  62  94 121 158 214 239 308 370
#
# _framework density 22.127573000000002
#
# number of rings (size 3 to 8) (size 9 to 14) (size 15 to 20)
#    1.333    0.889    1.111    4.333    0.000    1.778 
#    0.000    2.222    4.889    1.333    0.000    0.000 
#    0.000    0.000    0.000    0.000    0.000    0.000 
#
# Total GULP energy -100369.650968 kJ/mol
# GULP energy per Si atom -5576.091720 kJ/mol
# Density = 2.207721 g / cm^3
# Si number density = 22.127573 Si / 1000 Ang^3
#
#
#
# Elastic Constant Matrix: (Units=GPa)
#
#
# Indices 1 2 3 4 5 6 
#
# 1 71.7113 42.5237 30.7056 0.0000 3.4902 0.0000
# 2 42.5237 197.1454 43.0426 0.0000 -5.7215 0.0000
# 3 30.7056 43.0426 114.1168 0.0000 -25.3579 0.0000
# 4 0.0000 0.0000 0.0000 78.4656 0.0000 -401.6006
# 5 3.4902 -5.7215 -25.3579 0.0000 32.3079 0.0000
# 6 0.0000 0.0000 0.0000 -401.6006 0.0000 1677.0651
#
#
#
# Elastic Compliance Matrix: (Units=1/GPa)
#
#
# Indices 1 2 3 4 5 6 
#
# 1 0.018298 -0.002988 -0.005273 0.000000 -0.006644 0.000000
# 2 -0.002988 0.006033 -0.001408 0.000000 0.000286 0.000000
# 3 -0.005273 -0.001408 0.013062 0.000000 0.010572 0.000000
# 4 0.000000 0.000000 0.000000 -0.056484 0.000000 -0.013526
# 5 -0.006644 0.000286 0.010572 0.000000 0.040019 0.000000
# 6 0.000000 0.000000 0.000000 -0.013526 0.000000 -0.002643
#
#
# Mechanical properties :
#
#
# Convention : Reuss Voigt Hill
#
# Bulk Modulus (GPa) = 55.38678 68.39081 61.88879
# Shear Modulus (GPa) = 114.57133 375.34782 244.95958
#
# Velocity S-wave (km/s) = 7.20347 13.03830 10.53298
# Velocity P-wave (km/s) = 9.70936 16.05109 13.26479
#
# Compressibility (1/GPa) = 0.01805485
#
# Stress axis : x y z
#
# Youngs Moduli (GPa) = 54.65077 165.76480 76.55836
#
# Poissons Ratio (x) = 0.49538 0.40367
# Poissons Ratio (y) = 0.16332 0.10777
# Poissons Ratio (z) = 0.28816 0.23334
#
# Static dielectric constant tensor:
#      x y z
#    x 1.829710 0.000000 0.010240 
#    y 0.000000 1.812480 0.000000 
#    z 0.010240 0.000000 1.827210 
# 
# From -- ./inp_files/83325.got.cif
#   From: 2010.05.17/outbox.cif.g08.bks.cpg/sg12_42_cif.got.tgz:83325.got - 2010.06.03 13:09:07.
