data_PCOD9189296
_publ_section_title
;
Structure prediction by ZEFSAII (Michael W. Deem and Ramdas Pophale) SiO2 
 PCOD9189296
Probable space group: C 2/M
;
_chemical_formula_sum "Si O2"
_cell_formula_units_Z 64
_cell_length_a 26.262717
_cell_length_b 8.113140
_cell_length_c 14.486304
_cell_angle_alpha 90.000000
_cell_angle_beta 94.593105
_cell_angle_gamma 90.000000
_cell_volume 3076.729017
_symmetry_space_group_name_H-M "C 2/M"
_symmetry_group_IT_number 12
_symmetry_cell_setting 'monoclinic'
loop_
_space_group_symop_operation_xyz
x,y,z
-x,y,-z
-x,-y,-z
x,-y,z
1/2+x,1/2+y,z
1/2-x,1/2+y,-z
1/2-x,1/2-y,-z
1/2+x,1/2-y,z
loop_
_atom_site_type_symbol
_atom_site_label
_atom_site_fract_x
_atom_site_fract_y
_atom_site_fract_z
Si Si1 0.356160 0.192411 0.887973
Si Si2 0.651851 0.693542 0.907038
Si Si3 0.386618 0.800739 0.602112
Si Si4 0.771014 0.698398 0.601704
Si Si5 0.551263 0.200621 0.560463
Si Si6 0.450623 0.310106 0.784799
Si Si7 0.746104 0.701431 0.795815
Si Si8 0.440696 0.192524 0.227763
O O1 0.405582 0.276798 0.851019
O O2 0.302010 0.253571 0.839607
O O3 0.360027 0.000000 0.863163
O O4 0.354380 0.214636 0.997224
O O5 0.659545 0.500000 0.928468
O O6 0.700624 0.756016 0.855820
O O7 0.601591 0.715750 0.837939
O O8 0.329755 0.745312 0.618022
O O9 0.402557 0.753788 0.500796
O O10 0.426551 0.734189 0.682007
O O11 0.388589 0.000000 0.608101
O O12 0.771571 0.500000 0.603887
O O13 0.750000 0.750000 0.500000
O O14 0.740801 0.754897 0.688421
O O15 0.500000 0.255515 0.500000
O O16 0.556422 0.257260 0.666219
O O17 0.548590 0.000000 0.564325
O O18 0.465192 0.500000 0.789489
O O19 0.502525 0.209140 0.805405
O O20 0.745261 0.500000 0.797364
O O21 0.426432 0.000000 0.228312
#
# Coordination Sequence:
#
# PCOD9189296 Si02
#       8
#     8   8   8   8   8   8   8   8
#     4  11  22  43  70  92 116 159 211 252 305 376
#     4  11  24  42  62  92 129 159 197 258 319 362
#     4  10  19  37  61  85 120 165 209 251 298 362
#     4  10  21  37  58  88 126 167 204 246 300 356
#     4   9  17  32  59  88 113 151 202 250 286 337
#     4  12  24  39  62  94 126 158 202 260 316 362
#     4   9  20  40  65  90 125 165 201 248 307 366
#     4  11  23  41  63  89 124 168 212 249 300 371
#
# _framework density 20.801310999999998
#
# number of rings (size 3 to 8) (size 9 to 14) (size 15 to 20)
#    0.000    1.625    2.500    2.625    1.750    1.000 
#    0.000    6.875    0.000    0.000    0.000    0.000 
#    0.000    0.000    0.000    0.000    0.000    0.000 
#
# Total GULP energy -178828.631186 kJ/mol
# GULP energy per Si atom -5588.394725 kJ/mol
# Density = 2.075397 g / cm^3
# Si number density = 20.801311 Si / 1000 Ang^3
#
#
#
# Elastic Constant Matrix: (Units=GPa)
#
#
# Indices 1 2 3 4 5 6 
#
# 1 80.8311 -8.6625 37.1477 0.0000 -19.8517 0.0000
# 2 -8.6625 20.5538 -9.5343 0.0000 -2.5269 0.0000
# 3 37.1477 -9.5343 121.0156 0.0000 -13.8821 0.0000
# 4 0.0000 0.0000 0.0000 25.5908 0.0000 2.2013
# 5 -19.8517 -2.5269 -13.8821 0.0000 32.8724 0.0000
# 6 0.0000 0.0000 0.0000 2.2013 0.0000 15.3847
#
#
#
# Elastic Compliance Matrix: (Units=1/GPa)
#
#
# Indices 1 2 3 4 5 6 
#
# 1 0.017029 0.006624 -0.003644 0.000000 0.009254 0.000000
# 2 0.006624 0.054167 0.003332 0.000000 0.009571 0.000000
# 3 -0.003644 0.003332 0.009901 0.000000 0.002237 0.000000
# 4 0.000000 0.000000 0.000000 0.039564 0.000000 -0.005661
# 5 0.009254 0.009571 0.002237 0.000000 0.037690 0.000000
# 6 0.000000 0.000000 0.000000 -0.005661 0.000000 0.065810
#
#
# Mechanical properties :
#
#
# Convention : Reuss Voigt Hill
#
# Bulk Modulus (GPa) = 10.66987 28.92249 19.79618
# Shear Modulus (GPa) = 20.59520 28.33287 24.46404
#
# Velocity S-wave (km/s) = 3.14999 3.69463 3.43313
# Velocity P-wave (km/s) = 4.28607 5.66875 5.02519
#
# Compressibility (1/GPa) = 0.09372187
#
# Stress axis : x y z
#
# Youngs Moduli (GPa) = 58.72429 18.46145 100.99958
#
# Poissons Ratio (x) = -0.12229 0.36802
# Poissons Ratio (y) = -0.38901 -0.33654
# Poissons Ratio (z) = 0.21398 -0.06152
#
# Static dielectric constant tensor:
#      x y z
#    x 1.732420 0.000000 -0.019560 
#    y 0.000000 1.737790 0.000000 
#    z -0.019560 0.000000 1.724990 
# 
# From -- ./inp_files/244083.got.cif
#   From: 2010.05.17/outbox.cif.g08.bks.cpg/sg12_123_cif.got.tgz:244083.got - 2010.06.03 13:09:07.
