data_PCOD9189672
_publ_section_title
;
Structure prediction by ZEFSAII (Michael W. Deem and Ramdas Pophale) SiO2 
 PCOD9189672
Probable space group: C 2/M
;
_chemical_formula_sum "Si O2"
_cell_formula_units_Z 36
_cell_length_a 14.532105
_cell_length_b 19.406227
_cell_length_c 7.697355
_cell_angle_alpha 90.000000
_cell_angle_beta 45.023671
_cell_angle_gamma 90.000000
_cell_volume 1535.590802
_symmetry_space_group_name_H-M "C 2/M"
_symmetry_group_IT_number 12
_symmetry_cell_setting 'monoclinic'
loop_
_space_group_symop_operation_xyz
x,y,z
-x,y,-z
-x,-y,-z
x,-y,z
1/2+x,1/2+y,z
1/2-x,1/2+y,-z
1/2-x,1/2-y,-z
1/2+x,1/2-y,z
loop_
_atom_site_type_symbol
_atom_site_label
_atom_site_fract_x
_atom_site_fract_y
_atom_site_fract_z
Si Si1 0.240377 0.078433 0.457644
Si Si2 0.758624 0.074235 0.122684
Si Si3 0.500000 0.130512 0.500000
Si Si4 0.382586 0.793964 0.334354
Si Si5 0.012178 0.168676 0.283663
O O1 0.238015 0.073478 0.671466
O O2 0.349419 0.137074 0.267219
O O3 0.101653 0.112183 0.594806
O O4 0.259068 0.000000 0.367391
O O5 0.610301 0.085017 0.261625
O O6 0.808172 0.000000 0.995763
O O7 0.850259 0.134137 0.934117
O O8 0.582375 0.174690 0.524794
O O9 0.250000 0.750000 0.500000
O O10 0.492414 0.734614 0.185622
O O11 0.000000 0.189236 0.500000
#
# Coordination Sequence:
#
# PCOD9189672 Si02
#       5
#     8   8   4   8   8
#     4   9  19  37  60  85 116 157 203 247 287 342
#     4  10  21  36  60  89 116 154 200 248 294 345
#     4  10  19  38  60  80 113 154 206 252 283 340
#     4   9  19  36  57  85 119 154 194 238 296 352
#     4  11  21  35  58  91 125 155 191 240 302 362
#
# _framework density 23.443746999999998
#
# number of rings (size 3 to 8) (size 9 to 14) (size 15 to 20)
#    0.000    2.222    1.111    1.667    0.000    5.333 
#    0.000    0.000    9.778    4.000    0.000   15.556 
#    0.000    0.000    0.000    0.000    0.000    0.000 
#
# Total GULP energy -100319.207361 kJ/mol
# GULP energy per Si atom -5573.289298 kJ/mol
# Density = 2.339039 g / cm^3
# Si number density = 23.443747 Si / 1000 Ang^3
#
#
#
# Elastic Constant Matrix: (Units=GPa)
#
#
# Indices 1 2 3 4 5 6 
#
# 1 88.3282 23.1318 16.6180 0.0000 -5.3271 0.0000
# 2 23.1318 178.7172 37.0986 0.0000 -19.1485 0.0000
# 3 16.6180 37.0986 68.1659 0.0000 -16.9129 0.0000
# 4 0.0000 0.0000 0.0000 177.2851 0.0000 -103.9916
# 5 -5.3271 -19.1485 -16.9129 0.0000 39.4733 0.0000
# 6 0.0000 0.0000 0.0000 -103.9916 0.0000 63.7552
#
#
#
# Elastic Compliance Matrix: (Units=1/GPa)
#
#
# Indices 1 2 3 4 5 6 
#
# 1 0.012045 -0.001063 -0.002330 0.000000 0.000111 0.000000
# 2 -0.001063 0.006516 -0.002840 0.000000 0.001800 0.000000
# 3 -0.002330 -0.002840 0.018311 0.000000 0.006153 0.000000
# 4 0.000000 0.000000 0.000000 0.130491 0.000000 0.212845
# 5 0.000111 0.001800 0.006153 0.000000 0.028858 0.000000
# 6 0.000000 0.000000 0.000000 0.212845 0.000000 0.362859
#
#
# Mechanical properties :
#
#
# Convention : Reuss Voigt Hill
#
# Bulk Modulus (GPa) = 40.97697 54.32311 47.65004
# Shear Modulus (GPa) = 8.62543 73.32688 40.97615
#
# Velocity S-wave (km/s) = 1.92021 5.59872 4.18527
# Velocity P-wave (km/s) = 4.73635 8.06327 6.61246
#
# Compressibility (1/GPa) = 0.02440395
#
# Stress axis : x y z
#
# Youngs Moduli (GPa) = 83.02204 153.47984 54.61338
#
# Poissons Ratio (x) = 0.16321 0.12725
# Poissons Ratio (y) = 0.08829 0.15511
# Poissons Ratio (z) = 0.19345 0.43590
#
# Static dielectric constant tensor:
#      x y z
#    x 1.877460 0.000000 0.031810 
#    y 0.000000 1.933910 0.000000 
#    z 0.031810 0.000000 1.963370 
# 
# From -- ./inp_files/49002.got.cif
#   From: 2010.05.17/outbox.cif.g08.bks.cpg/sg12_25_cif.got.tgz:49002.got - 2010.06.03 13:09:07.
