data_PCOD9189461
_publ_section_title
;
Structure prediction by ZEFSAII (Michael W. Deem and Ramdas Pophale) SiO2 
 PCOD9189461
Probable space group: C 2/M
;
_chemical_formula_sum "Si O2"
_cell_formula_units_Z 50
_cell_length_a 14.905525
_cell_length_b 7.500623
_cell_length_c 17.678031
_cell_angle_alpha 90.000000
_cell_angle_beta 72.020362
_cell_angle_gamma 90.000000
_cell_volume 1879.900873
_symmetry_space_group_name_H-M "C 2/M"
_symmetry_group_IT_number 12
_symmetry_cell_setting 'monoclinic'
loop_
_space_group_symop_operation_xyz
x,y,z
-x,y,-z
-x,-y,-z
x,-y,z
1/2+x,1/2+y,z
1/2-x,1/2+y,-z
1/2-x,1/2-y,-z
1/2+x,1/2-y,z
loop_
_atom_site_type_symbol
_atom_site_label
_atom_site_fract_x
_atom_site_fract_y
_atom_site_fract_z
Si Si1 0.093264 0.285791 0.788716
Si Si2 0.784840 0.204754 0.388093
Si Si3 0.753903 0.702530 0.139461
Si Si4 0.590721 0.797458 0.079453
Si Si5 0.500000 0.500000 0.000000
Si Si6 0.133921 0.285815 0.315875
Si Si7 0.448180 0.712523 0.439798
O O1 0.105852 0.500000 0.779615
O O2 0.143275 0.207144 0.702443
O O3 0.151321 0.219950 0.847568
O O4 0.984518 0.251027 0.833802
O O5 0.689946 0.282513 0.376327
O O6 0.846967 0.285091 0.439636
O O7 0.765515 0.000000 0.411373
O O8 0.773733 0.500000 0.111075
O O9 0.694442 0.790598 0.088665
O O10 0.684482 0.704757 0.230452
O O11 0.567078 0.655919 0.022134
O O12 0.569629 0.000000 0.061715
O O13 0.145375 0.500000 0.307839
O O14 0.024969 0.244038 0.354280
O O15 0.500000 0.789143 0.500000
O O16 0.437547 0.500000 0.452215
#
# Coordination Sequence:
#
# PCOD9189461 Si02
#       7
#     8   8   8   8   2   8   8
#     4   9  20  36  61  90 118 147 193 249 298 351
#     4   9  19  34  54  80 111 145 188 240 297 353
#     4  10  19  37  63  91 118 151 193 245 302 352
#     4  11  23  42  65  89 124 160 202 247 290 352
#     4  12  26  44  64  90 124 170 200 236 292 362
#     4  10  20  34  53  83 113 143 188 244 297 347
#     4  10  21  36  52  73 108 154 199 237 291 363
#
# _framework density 26.597148000000001
#
# number of rings (size 3 to 8) (size 9 to 14) (size 15 to 20)
#    0.000    2.080    0.800    2.160    1.120    5.440 
#    0.000    0.800    0.000    0.000    0.000    0.000 
#    0.000    0.000    0.000    0.000    0.000    0.000 
#
# Total GULP energy -139725.200508 kJ/mol
# GULP energy per Si atom -5589.008020 kJ/mol
# Density = 2.653661 g / cm^3
# Si number density = 26.597148 Si / 1000 Ang^3
#
#
#
# Elastic Constant Matrix: (Units=GPa)
#
#
# Indices 1 2 3 4 5 6 
#
# 1 162.8588 7.9217 17.7503 0.0000 28.2308 0.0000
# 2 7.9217 120.8501 14.5467 0.0000 19.4011 0.0001
# 3 17.7503 14.5467 89.9464 0.0000 -1.1935 0.0000
# 4 0.0000 0.0000 0.0000 14.7441 0.0000 15.6411
# 5 28.2308 19.4011 -1.1935 0.0000 55.7284 0.0000
# 6 0.0000 0.0001 0.0000 15.6411 0.0000 -3.0178
#
#
#
# Elastic Compliance Matrix: (Units=1/GPa)
#
#
# Indices 1 2 3 4 5 6 
#
# 1 0.006916 0.000307 -0.001463 0.000000 -0.003642 0.000000
# 2 0.000307 0.008974 -0.001556 0.000000 -0.003313 0.000000
# 3 -0.001463 -0.001556 0.011678 0.000000 0.001533 0.000000
# 4 0.000000 0.000000 0.000000 0.010437 0.000000 0.054095
# 5 -0.003642 -0.003313 0.001533 0.000000 0.020975 0.000000
# 6 0.000000 0.000000 0.000000 0.054095 0.000000 -0.050993
#
#
# Mechanical properties :
#
#
# Convention : Reuss Voigt Hill
#
# Bulk Modulus (GPa) = 45.15606 50.45475 47.80541
# Shear Modulus (GPa) = 240.47245 35.72004 138.09624
#
# Velocity S-wave (km/s) = 9.51888 3.66868 7.21347
# Velocity P-wave (km/s) = 11.73997 6.07921 9.34836
#
# Compressibility (1/GPa) = 0.02214542
#
# Stress axis : x y z
#
# Youngs Moduli (GPa) = 144.59053 111.43628 85.62823
#
# Poissons Ratio (x) = -0.03426 0.12526
# Poissons Ratio (y) = -0.04445 0.13323
# Poissons Ratio (z) = 0.21152 0.17339
#
# Static dielectric constant tensor:
#      x y z
#    x 2.042440 0.000000 0.025630 
#    y 0.000000 1.961990 0.000000 
#    z 0.025630 0.000000 2.136850 
# 
# From -- ./inp_files/308398.got.cif
#   From: 2010.05.17/outbox.cif.g08.bks.cpg/sg12_155_cif.got.tgz:308398.got - 2010.06.03 13:09:07.
