data_PCOD9189244
_publ_section_title
;
Structure prediction by ZEFSAII (Michael W. Deem and Ramdas Pophale) SiO2 
 PCOD9189244
Probable space group: C 2/M
;
_chemical_formula_sum "Si O2"
_cell_formula_units_Z 56
_cell_length_a 14.396163
_cell_length_b 13.162872
_cell_length_c 22.217430
_cell_angle_alpha 90.000000
_cell_angle_beta 38.154926
_cell_angle_gamma 90.000000
_cell_volume 2600.950536
_symmetry_space_group_name_H-M "C 2/M"
_symmetry_group_IT_number 12
_symmetry_cell_setting 'monoclinic'
loop_
_space_group_symop_operation_xyz
x,y,z
-x,y,-z
-x,-y,-z
x,-y,z
1/2+x,1/2+y,z
1/2-x,1/2+y,-z
1/2-x,1/2-y,-z
1/2+x,1/2-y,z
loop_
_atom_site_type_symbol
_atom_site_label
_atom_site_fract_x
_atom_site_fract_y
_atom_site_fract_z
Si Si1 0.760663 0.610838 0.266457
Si Si2 0.649773 0.616698 0.857480
Si Si3 0.553930 0.199286 0.067912
Si Si4 0.346963 0.883409 0.506457
Si Si5 0.675034 0.251754 0.136332
Si Si6 0.520341 0.383689 0.680104
Si Si7 0.168535 0.320150 0.349719
O O1 0.774322 0.500000 0.288232
O O2 0.905113 0.631894 0.150596
O O3 0.613769 0.613899 0.299564
O O4 0.736956 0.707226 0.321471
O O5 0.616860 0.500000 0.887984
O O6 0.505169 0.689232 0.922568
O O7 0.757890 0.669742 0.851498
O O8 0.735137 0.625307 0.750297
O O9 0.620721 0.204174 0.101197
O O10 0.686546 0.174314 0.953843
O O11 0.495116 0.819404 0.416284
O O12 0.330652 0.875716 0.587220
O O13 0.180626 0.853293 0.570189
O O14 0.377482 0.000000 0.472981
O O15 0.539799 0.311772 0.236524
O O16 0.540491 0.500000 0.691687
#
# Coordination Sequence:
#
# PCOD9189244 Si02
#       7
#     8   8   8   8   8   8   8
#     4  10  21  38  57  82 115 155 196 238 290 351
#     4  11  22  39  63  91 122 158 201 253 308 363
#     4  10  23  39  60  84 122 159 193 249 304 364
#     4  10  20  35  61  92 116 149 200 248 296 357
#     4  11  22  39  59  90 118 153 203 246 304 362
#     4  10  20  35  57  83 112 148 197 244 283 345
#     4  10  19  37  60  86 119 154 191 249 305 350
#
# _framework density 21.530591000000001
#
# number of rings (size 3 to 8) (size 9 to 14) (size 15 to 20)
#    0.000    1.714    2.857    3.857    0.000    4.571 
#    0.000    5.714    0.000    0.000    0.000    0.000 
#    0.000    0.000    0.000    0.000    0.000    0.000 
#
# Total GULP energy -156331.348272 kJ/mol
# GULP energy per Si atom -5583.262438 kJ/mol
# Density = 2.148159 g / cm^3
# Si number density = 21.530591 Si / 1000 Ang^3
#
#
#
# Elastic Constant Matrix: (Units=GPa)
#
#
# Indices 1 2 3 4 5 6 
#
# 1 52.8221 5.6492 -20.8486 0.0000 -11.8619 0.0000
# 2 5.6492 95.6978 15.3679 0.0000 -2.2360 0.0000
# 3 -20.8486 15.3679 84.6765 -0.0002 -23.2148 0.0000
# 4 0.0000 0.0000 -0.0002 3.1439 0.0000 -7.9215
# 5 -11.8619 -2.2360 -23.2148 0.0000 36.4182 0.0000
# 6 0.0000 0.0000 0.0000 -7.9215 0.0000 16.8766
#
#
#
# Elastic Compliance Matrix: (Units=1/GPa)
#
#
# Indices 1 2 3 4 5 6 
#
# 1 0.027625 -0.003153 0.011860 -0.000004 0.016365 -0.000002
# 2 -0.003153 0.011138 -0.003504 0.000001 -0.002577 0.000000
# 3 0.011860 -0.003504 0.019832 -0.000006 0.016290 -0.000003
# 4 -0.000004 0.000001 -0.000006 -1.741481 -0.000004 -0.817408
# 5 0.016365 -0.002577 0.016290 -0.000004 0.043015 -0.000002
# 6 -0.000002 0.000000 -0.000003 -0.817408 -0.000002 -0.324418
#
#
# Mechanical properties :
#
#
# Convention : Reuss Voigt Hill
#
# Bulk Modulus (GPa) = 14.49254 25.94815 20.22035
# Shear Modulus (GPa) = -2.56188 26.82293 12.13053
#
# Velocity S-wave (km/s) = -1.09200 3.53343 2.37620
# Velocity P-wave (km/s) = 2.27064 5.35955 4.11586
#
# Compressibility (1/GPa) = 0.06900102
#
# Stress axis : x y z
#
# Youngs Moduli (GPa) = 36.19938 89.78099 50.42405
#
# Poissons Ratio (x) = 0.28308 -0.59805
# Poissons Ratio (y) = 0.11414 0.17670
# Poissons Ratio (z) = -0.42934 0.31462
#
# Static dielectric constant tensor:
#      x y z
#    x 1.813290 0.000000 -0.046210 
#    y 0.000000 1.795220 0.000000 
#    z -0.046210 0.000000 1.799010 
# 
# From -- ./inp_files/340279.got.cif
#   From: 2010.05.17/outbox.cif.g08.bks.cpg/sg12_171_cif.got.tgz:340279.got - 2010.06.03 13:09:07.
