data_PCOD9189773
_publ_section_title
;
Structure prediction by ZEFSAII (Michael W. Deem and Ramdas Pophale) SiO2 
 PCOD9189773
Probable space group: C 2/M
;
_chemical_formula_sum "Si O2"
_cell_formula_units_Z 56
_cell_length_a 13.753252
_cell_length_b 26.543743
_cell_length_c 13.899534
_cell_angle_alpha 90.000000
_cell_angle_beta 32.128177
_cell_angle_gamma 90.000000
_cell_volume 2698.537641
_symmetry_space_group_name_H-M "C 2/M"
_symmetry_group_IT_number 12
_symmetry_cell_setting 'monoclinic'
loop_
_space_group_symop_operation_xyz
x,y,z
-x,y,-z
-x,-y,-z
x,-y,z
1/2+x,1/2+y,z
1/2-x,1/2+y,-z
1/2-x,1/2-y,-z
1/2+x,1/2-y,z
loop_
_atom_site_type_symbol
_atom_site_label
_atom_site_fract_x
_atom_site_fract_y
_atom_site_fract_z
Si Si1 0.142293 0.856234 0.966090
Si Si2 0.960805 0.769523 0.826272
Si Si3 0.649841 0.192060 0.804607
Si Si4 0.262135 0.403609 0.607627
Si Si5 0.846679 0.940822 0.750000
Si Si6 0.588696 0.233381 0.324783
Si Si7 0.377169 0.940554 0.871350
O O1 0.280290 0.812787 0.812904
O O2 0.258635 0.904175 0.902574
O O3 0.044056 0.827866 0.138914
O O4 0.000000 0.867409 0.000000
O O5 0.034389 0.749377 0.662671
O O6 0.058807 0.739777 0.829500
O O7 0.750000 0.750000 0.000000
O O8 0.721435 0.154264 0.665121
O O9 0.805434 0.214660 0.741190
O O10 0.500000 0.167391 0.000000
O O11 0.273708 0.428283 0.704816
O O12 0.461505 0.412219 0.396278
O O13 0.091395 0.426310 0.693230
O O14 0.889725 0.000000 0.716821
O O15 0.701476 0.930583 0.955250
O O16 0.500000 0.219461 0.500000
O O17 0.354557 0.000000 0.869563
#
# Coordination Sequence:
#
# PCOD9189773 Si02
#       7
#     8   8   8   8   8   8   8
#     4  11  22  46  66  86 126 175 219 273 324 376
#     4  10  19  38  63  81 122 169 203 253 314 375
#     4  12  21  37  60  93 125 172 213 251 312 391
#     4  11  22  35  64  98 137 169 206 263 329 395
#     4  10  22  41  62  95 136 170 212 268 328 395
#     4  11  24  38  61  95 132 164 212 261 318 390
#     4  11  24  42  69  94 121 171 226 273 329 385
#
# _framework density 20.75198
#
# number of rings (size 3 to 8) (size 9 to 14) (size 15 to 20)
#    0.000    1.143    4.286    4.714    4.000    2.000 
#    5.143    0.000    0.000    0.429    0.000    0.000 
#    0.000    0.000    0.000    0.000    0.000    0.000 
#
# Total GULP energy -156432.913853 kJ/mol
# GULP energy per Si atom -5586.889780 kJ/mol
# Density = 2.070475 g / cm^3
# Si number density = 20.751980 Si / 1000 Ang^3
#
#
#
# Elastic Constant Matrix: (Units=GPa)
#
#
# Indices 1 2 3 4 5 6 
#
# 1 119.9815 36.2325 15.5477 0.0008 -12.5985 -0.0010
# 2 36.2325 104.1403 12.3668 0.0003 -13.3001 0.0010
# 3 15.5477 12.3668 46.0508 0.0012 -0.4159 0.0015
# 4 0.0008 0.0003 0.0012 10.5936 -0.0007 -0.7092
# 5 -12.5985 -13.3001 -0.4159 -0.0007 33.0749 0.0000
# 6 -0.0010 0.0010 0.0015 -0.7092 0.0000 22.6851
#
#
#
# Elastic Compliance Matrix: (Units=1/GPa)
#
#
# Indices 1 2 3 4 5 6 
#
# 1 0.009769 -0.002769 -0.002531 0.000000 0.002576 0.000001
# 2 -0.002769 0.011250 -0.002055 0.000000 0.003443 0.000000
# 3 -0.002531 -0.002055 0.023108 -0.000003 -0.001500 -0.000002
# 4 0.000000 0.000000 -0.000003 0.094595 0.000002 0.002957
# 5 0.002576 0.003443 -0.001500 0.000002 0.032581 0.000000
# 6 0.000001 0.000000 -0.000002 0.002957 0.000000 0.044174
#
#
# Mechanical properties :
#
#
# Convention : Reuss Voigt Hill
#
# Bulk Modulus (GPa) = 33.99543 44.27407 39.13475
# Shear Modulus (GPa) = 20.83382 27.00574 23.91978
#
# Velocity S-wave (km/s) = 3.17194 3.61135 3.39875
# Velocity P-wave (km/s) = 5.46190 6.22658 5.85673
#
# Compressibility (1/GPa) = 0.02941572
#
# Stress axis : x y z
#
# Youngs Moduli (GPa) = 102.36006 88.89114 43.27489
#
# Poissons Ratio (x) = 0.24618 0.10955
# Poissons Ratio (y) = 0.28348 0.08893
# Poissons Ratio (z) = 0.25911 0.18267
#
# Static dielectric constant tensor:
#      x y z
#    x 1.779200 0.000000 0.011870 
#    y 0.000000 1.732440 0.000000 
#    z 0.011870 0.000000 1.853760 
# 
# From -- ./inp_files/218683.got.cif
#   From: 2010.05.17/outbox.cif.g08.bks.cpg/sg12_110_cif.got.tgz:218683.got - 2010.06.03 13:09:07.
