data_PCOD9189826
_publ_section_title
;
Structure prediction by ZEFSAII (Michael W. Deem and Ramdas Pophale) SiO2 
 PCOD9189826
Probable space group: C 2/M
;
_chemical_formula_sum "Si O2"
_cell_formula_units_Z 56
_cell_length_a 12.295994
_cell_length_b 17.548995
_cell_length_c 18.373441
_cell_angle_alpha 90.000000
_cell_angle_beta 134.215553
_cell_angle_gamma 90.000000
_cell_volume 2841.559305
_symmetry_space_group_name_H-M "C 2/M"
_symmetry_group_IT_number 12
_symmetry_cell_setting 'monoclinic'
loop_
_space_group_symop_operation_xyz
x,y,z
-x,y,-z
-x,-y,-z
x,-y,z
1/2+x,1/2+y,z
1/2-x,1/2+y,-z
1/2-x,1/2-y,-z
1/2+x,1/2-y,z
loop_
_atom_site_type_symbol
_atom_site_label
_atom_site_fract_x
_atom_site_fract_y
_atom_site_fract_z
Si Si1 0.709252 0.154634 0.256412
Si Si2 0.397000 0.091497 0.131728
Si Si3 0.523213 0.322197 0.352198
Si Si4 0.556867 0.590967 0.944315
Si Si5 0.289248 0.586053 0.449465
Si Si6 0.471430 0.858135 0.329820
Si Si7 0.177858 0.834139 0.274890
O O1 0.543859 0.123647 0.158549
O O2 0.848844 0.149995 0.265887
O O3 0.757872 0.108724 0.351482
O O4 0.693421 0.243233 0.270590
O O5 0.407438 0.122858 0.219373
O O6 0.406222 0.000000 0.139933
O O7 0.234137 0.112364 0.022868
O O8 0.596620 0.355961 0.459198
O O9 0.518869 0.230686 0.353061
O O10 0.624419 0.347964 0.331772
O O11 0.543299 0.500000 0.925695
O O12 0.451038 0.634769 0.838967
O O13 0.500000 0.605715 0.000000
O O14 0.345140 0.500000 0.481441
O O15 0.124560 0.594369 0.410473
O O16 0.338375 0.869669 0.325821
#
# Coordination Sequence:
#
# PCOD9189826 Si02
#       7
#     8   8   8   8   8   8   8
#     4  10  22  39  61  88 118 159 204 244 291 356
#     4  10  19  38  64  87 113 156 208 246 279 348
#     4  11  23  39  58  89 126 155 195 250 305 350
#     4  10  21  37  61  90 121 159 199 240 295 361
#     4  11  23  41  64  86 115 163 211 242 285 359
#     4  10  20  37  60  88 118 155 199 246 299 349
#     4  11  22  37  61  90 126 155 190 253 307 350
#
# _framework density 19.70749
#
# number of rings (size 3 to 8) (size 9 to 14) (size 15 to 20)
#    0.000    1.571    4.286    2.571    0.000    4.000 
#    0.000    1.429    0.000    1.714    0.000    0.000 
#    0.000    0.000    0.000    0.000    0.000    0.000 
#
# Total GULP energy -156398.052234 kJ/mol
# GULP energy per Si atom -5585.644723 kJ/mol
# Density = 1.966263 g / cm^3
# Si number density = 19.707490 Si / 1000 Ang^3
#
#
#
# Elastic Constant Matrix: (Units=GPa)
#
#
# Indices 1 2 3 4 5 6 
#
# 1 116.7109 0.7833 4.4041 0.0000 23.8296 0.0000
# 2 0.7833 39.6260 -1.1447 0.0000 3.2122 0.0000
# 3 4.4041 -1.1447 28.3842 0.0000 11.8878 0.0000
# 4 0.0000 0.0000 0.0000 28.7122 0.0000 -8.9200
# 5 23.8296 3.2122 11.8878 0.0000 27.8982 0.0000
# 6 0.0000 0.0000 0.0000 -8.9200 0.0000 19.3436
#
#
#
# Elastic Compliance Matrix: (Units=1/GPa)
#
#
# Indices 1 2 3 4 5 6 
#
# 1 0.010552 0.000698 0.002677 0.000000 -0.010234 0.000000
# 2 0.000698 0.025697 0.002942 0.000000 -0.004809 0.000000
# 3 0.002677 0.002942 0.043861 0.000000 -0.021315 0.000000
# 4 0.000000 0.000000 0.000000 0.040652 0.000000 0.018746
# 5 -0.010234 -0.004809 -0.021315 0.000000 0.054223 0.000000
# 6 0.000000 0.000000 0.000000 0.018746 0.000000 0.060341
#
#
# Mechanical properties :
#
#
# Convention : Reuss Voigt Hill
#
# Bulk Modulus (GPa) = 10.78218 21.42297 16.10258
# Shear Modulus (GPa) = 19.71557 27.23603 23.47580
#
# Velocity S-wave (km/s) = 3.16636 3.72158 3.45514
# Velocity P-wave (km/s) = 4.34174 5.41857 4.90977
#
# Compressibility (1/GPa) = 0.09274564
#
# Stress axis : x y z
#
# Youngs Moduli (GPa) = 94.76794 38.91510 22.79912
#
# Poissons Ratio (x) = -0.02718 -0.06104
# Poissons Ratio (y) = -0.06618 -0.06708
# Poissons Ratio (z) = -0.25372 -0.11449
#
# Static dielectric constant tensor:
#      x y z
#    x 1.735530 0.000000 0.027770 
#    y 0.000000 1.665990 0.000000 
#    z 0.027770 0.000000 1.660720 
# 
# From -- ./inp_files/264286.got.cif
#   From: 2010.05.17/outbox.cif.g08.bks.cpg/sg12_133_cif.got.tgz:264286.got - 2010.06.03 13:09:07.
