data_PCOD9189607
_publ_section_title
;
Structure prediction by ZEFSAII (Michael W. Deem and Ramdas Pophale) SiO2 
 PCOD9189607
Probable space group: C 2/M
;
_chemical_formula_sum "Si O2"
_cell_formula_units_Z 60
_cell_length_a 23.028452
_cell_length_b 30.455554
_cell_length_c 8.774586
_cell_angle_alpha 90.000000
_cell_angle_beta 149.577150
_cell_angle_gamma 90.000000
_cell_volume 3116.251185
_symmetry_space_group_name_H-M "C 2/M"
_symmetry_group_IT_number 12
_symmetry_cell_setting 'monoclinic'
loop_
_space_group_symop_operation_xyz
x,y,z
-x,y,-z
-x,-y,-z
x,-y,z
1/2+x,1/2+y,z
1/2-x,1/2+y,-z
1/2-x,1/2-y,-z
1/2+x,1/2-y,z
loop_
_atom_site_type_symbol
_atom_site_label
_atom_site_fract_x
_atom_site_fract_y
_atom_site_fract_z
Si Si1 0.155088 0.363913 0.070632
Si Si2 0.155015 0.122260 0.754927
Si Si3 0.000000 0.588226 0.500000
Si Si4 0.633596 0.114106 0.345822
Si Si5 0.986651 0.162890 0.805937
Si Si6 0.293575 0.948782 0.222479
Si Si7 0.213009 0.813290 0.151626
Si Si8 0.233929 0.224525 0.625472
O O1 0.247008 0.374413 0.150318
O O2 0.187206 0.388763 0.298601
O O3 0.167521 0.312474 0.136313
O O4 0.039141 0.380975 0.729813
O O5 0.043339 0.130064 0.400453
O O6 0.183251 0.078618 0.913460
O O7 0.173690 0.163312 0.908666
O O8 0.895732 0.559611 0.330570
O O9 0.663265 0.073817 0.523208
O O10 0.686685 0.156757 0.548584
O O11 0.500000 0.118825 0.000000
O O12 0.885012 0.198484 0.608679
O O13 0.000000 0.140026 0.000000
O O14 0.104566 0.185011 0.020508
O O15 0.272101 0.000000 0.190810
O O16 0.252274 0.763591 0.222777
O O17 0.250000 0.250000 0.500000
#
# Coordination Sequence:
#
# PCOD9189607 Si02
#       8
#     8   8   4   8   8   8   8   8
#     4  10  20  37  54  82 120 163 200 243 304 366
#     4   9  22  40  60  85 122 158 204 251 312 373
#     4  10  19  38  54  84 124 162 192 244 319 370
#     4  11  21  37  60  87 122 162 198 252 310 377
#     4  11  21  38  61  85 119 167 207 254 302 365
#     4  10  21  38  63  92 120 155 201 254 317 387
#     4  11  22  39  59  88 119 166 212 250 308 353
#     4  11  21  37  56  88 123 160 214 256 298 351
#
# _framework density 19.253903000000001
#
# number of rings (size 3 to 8) (size 9 to 14) (size 15 to 20)
#    0.000    1.600    4.000    1.400    0.000    4.000 
#    2.400    0.667    0.000    6.800    0.000    0.000 
#    0.000    0.000    0.000    0.000    0.000    0.000 
#
# Total GULP energy -167217.167314 kJ/mol
# GULP energy per Si atom -5573.905577 kJ/mol
# Density = 1.921008 g / cm^3
# Si number density = 19.253903 Si / 1000 Ang^3
#
#
#
# Elastic Constant Matrix: (Units=GPa)
#
#
# Indices 1 2 3 4 5 6 
#
# 1 75.3580 22.9099 20.9587 0.0000 -17.9444 0.0000
# 2 22.9099 133.4290 60.7700 0.0000 -10.8527 0.0000
# 3 20.9587 60.7700 112.3324 0.0000 -19.4923 0.0000
# 4 0.0000 0.0000 0.0000 16.2178 0.0000 -1.0264
# 5 -17.9444 -10.8527 -19.4923 0.0000 39.1081 0.0000
# 6 0.0000 0.0000 0.0000 -1.0264 0.0000 23.9706
#
#
#
# Elastic Compliance Matrix: (Units=1/GPa)
#
#
# Indices 1 2 3 4 5 6 
#
# 1 0.015525 -0.001768 -0.000864 0.000000 0.006202 0.000000
# 2 -0.001768 0.010146 -0.005267 0.000000 -0.000621 0.000000
# 3 -0.000864 -0.005267 0.012688 0.000000 0.004466 0.000000
# 4 0.000000 0.000000 0.000000 0.061828 0.000000 0.002647
# 5 0.006202 -0.000621 0.004466 0.000000 0.030470 0.000000
# 6 0.000000 0.000000 0.000000 0.002647 0.000000 0.041831
#
#
# Mechanical properties :
#
#
# Convention : Reuss Voigt Hill
#
# Bulk Modulus (GPa) = 44.32353 58.93297 51.62825
# Shear Modulus (GPa) = 25.53560 30.29136 27.91348
#
# Velocity S-wave (km/s) = 3.64573 3.97073 3.81170
# Velocity P-wave (km/s) = 6.38689 7.19007 6.80035
#
# Compressibility (1/GPa) = 0.02256138
#
# Stress axis : x y z
#
# Youngs Moduli (GPa) = 64.41413 98.55637 78.81702
#
# Poissons Ratio (x) = 0.17421 0.06810
# Poissons Ratio (y) = 0.11386 0.41513
# Poissons Ratio (z) = 0.05566 0.51909
#
# Static dielectric constant tensor:
#      x y z
#    x 1.727850 0.000000 0.012900 
#    y 0.000000 1.660500 0.000000 
#    z 0.012900 0.000000 1.765120 
# 
# From -- ./inp_files/106994.got.cif
#   From: 2010.05.17/outbox.cif.g08.bks.cpg/sg12_54_cif.got.tgz:106994.got - 2010.06.03 13:09:07.
