data_PCOD9189251
_publ_section_title
;
Structure prediction by ZEFSAII (Michael W. Deem and Ramdas Pophale) SiO2 
 PCOD9189251
Probable space group: C 2/M
;
_chemical_formula_sum "Si O2"
_cell_formula_units_Z 52
_cell_length_a 18.576460
_cell_length_b 9.450186
_cell_length_c 23.712652
_cell_angle_alpha 90.000000
_cell_angle_beta 145.395261
_cell_angle_gamma 90.000000
_cell_volume 2364.091890
_symmetry_space_group_name_H-M "C 2/M"
_symmetry_group_IT_number 12
_symmetry_cell_setting 'monoclinic'
loop_
_space_group_symop_operation_xyz
x,y,z
-x,y,-z
-x,-y,-z
x,-y,z
1/2+x,1/2+y,z
1/2-x,1/2+y,-z
1/2-x,1/2-y,-z
1/2+x,1/2-y,z
loop_
_atom_site_type_symbol
_atom_site_label
_atom_site_fract_x
_atom_site_fract_y
_atom_site_fract_z
Si Si1 0.365121 0.338297 0.943324
Si Si2 0.355775 0.331096 0.256457
Si Si3 0.000321 0.660974 0.257542
Si Si4 0.788471 0.665104 0.322674
Si Si5 0.287532 0.254569 0.447205
Si Si6 0.984123 0.162674 0.140121
Si Si7 0.809225 0.000000 0.534225
O O1 0.317727 0.500000 0.903350
O O2 0.273174 0.223588 0.857478
O O3 0.500000 0.330280 0.000000
O O4 0.396023 0.319357 0.029100
O O5 0.364671 0.500000 0.261494
O O6 0.457732 0.257318 0.281569
O O7 0.348761 0.263347 0.313949
O O8 0.960178 0.500000 0.238966
O O9 0.950441 0.730476 0.168031
O O10 0.151952 0.666341 0.351388
O O11 0.816023 0.500000 0.329139
O O12 0.829637 0.704439 0.412695
O O13 0.633658 0.680936 0.221023
O O14 0.365395 0.374770 0.528754
O O15 0.255518 0.122191 0.466275
O O16 0.973647 0.000000 0.154052
#
# Coordination Sequence:
#
# PCOD9189251 Si02
#       7
#     8   8   8   8   8   8   4
#     4  10  19  38  60  84 116 159 202 252 292 345
#     4  12  26  37  57  85 122 162 203 245 300 341
#     4  11  23  40  59  86 121 162 196 242 295 356
#     4  10  19  37  60  88 119 159 196 239 289 355
#     4  10  21  38  67  96 120 150 192 241 286 355
#     4   9  19  35  62  86 114 153 205 249 294 339
#     4  10  20  38  66 100 120 144 190 240 294 346
#
# _framework density 21.995761000000002
#
# number of rings (size 3 to 8) (size 9 to 14) (size 15 to 20)
#    0.000    1.692    3.077    1.846    3.231    2.154 
#    0.000    0.000    0.000    5.538    0.000    0.000 
#    0.000    0.000    0.000    0.000    0.000    0.000 
#
# Total GULP energy -144902.919916 kJ/mol
# GULP energy per Si atom -5573.189228 kJ/mol
# Density = 2.194570 g / cm^3
# Si number density = 21.995761 Si / 1000 Ang^3
#
#
#
# Elastic Constant Matrix: (Units=GPa)
#
#
# Indices 1 2 3 4 5 6 
#
# 1 90.7258 75.1035 33.8559 0.0000 -24.4121 0.0000
# 2 75.1035 219.2038 58.1702 0.0000 -34.9788 0.0000
# 3 33.8559 58.1702 59.8461 0.0000 -26.3502 0.0000
# 4 0.0000 0.0000 0.0000 14.3667 0.0000 9.9272
# 5 -24.4121 -34.9788 -26.3502 0.0000 38.2002 0.0000
# 6 0.0000 0.0000 0.0000 9.9272 0.0000 28.9820
#
#
#
# Elastic Compliance Matrix: (Units=1/GPa)
#
#
# Indices 1 2 3 4 5 6 
#
# 1 0.017034 -0.004152 -0.003564 0.000000 0.004625 0.000000
# 2 -0.004152 0.007287 -0.004258 0.000000 0.001082 0.000000
# 3 -0.003564 -0.004258 0.028932 0.000000 0.013781 0.000000
# 4 0.000000 0.000000 0.000000 0.091189 0.000000 -0.031235
# 5 0.004625 0.001082 0.013781 0.000000 0.039631 0.000000
# 6 0.000000 0.000000 0.000000 -0.031235 0.000000 0.045203
#
#
# Mechanical properties :
#
#
# Convention : Reuss Voigt Hill
#
# Bulk Modulus (GPa) = 34.12348 78.22611 56.17479
# Shear Modulus (GPa) = 19.01205 29.81950 24.41577
#
# Velocity S-wave (km/s) = 2.94317 3.68597 3.33531
# Velocity P-wave (km/s) = 5.20548 7.33188 6.35821
#
# Compressibility (1/GPa) = 0.02930534
#
# Stress axis : x y z
#
# Youngs Moduli (GPa) = 58.70589 137.22739 34.56418
#
# Poissons Ratio (x) = 0.56982 0.12318
# Poissons Ratio (y) = 0.24377 0.14716
# Poissons Ratio (z) = 0.20922 0.58425
#
# Static dielectric constant tensor:
#      x y z
#    x 1.804210 0.000000 0.044870 
#    y 0.000000 1.755120 0.000000 
#    z 0.044870 0.000000 1.916040 
# 
# From -- ./inp_files/274507.got.cif
#   From: 2010.05.17/outbox.cif.g08.bks.cpg/sg12_138_cif.got.tgz:274507.got - 2010.06.03 13:09:07.
