data_PCOD9189103
_publ_section_title
;
Structure prediction by ZEFSAII (Michael W. Deem and Ramdas Pophale) SiO2 
 PCOD9189103
Probable space group: C 2/M
;
_chemical_formula_sum "Si O2"
_cell_formula_units_Z 56
_cell_length_a 10.710291
_cell_length_b 16.991322
_cell_length_c 18.351704
_cell_angle_alpha 90.000000
_cell_angle_beta 129.031640
_cell_angle_gamma 90.000000
_cell_volume 2594.257694
_symmetry_space_group_name_H-M "C 2/M"
_symmetry_group_IT_number 12
_symmetry_cell_setting 'monoclinic'
loop_
_space_group_symop_operation_xyz
x,y,z
-x,y,-z
-x,-y,-z
x,-y,z
1/2+x,1/2+y,z
1/2-x,1/2+y,-z
1/2-x,1/2-y,-z
1/2+x,1/2-y,z
loop_
_atom_site_type_symbol
_atom_site_label
_atom_site_fract_x
_atom_site_fract_y
_atom_site_fract_z
Si Si1 0.445138 0.909837 0.588994
Si Si2 0.829207 0.132283 0.399930
Si Si3 0.721902 0.182079 0.777041
Si Si4 0.250318 0.298031 0.575589
Si Si5 0.613105 0.643701 0.735408
Si Si6 0.534592 0.587548 0.858392
Si Si7 0.675599 0.685563 0.028927
O O1 0.307105 0.904886 0.600341
O O2 0.586776 0.857499 0.676500
O O3 0.362216 0.870952 0.487240
O O4 0.493584 0.000000 0.595103
O O5 0.805178 0.228427 0.390715
O O6 0.834619 0.102409 0.319658
O O7 0.000000 0.118050 0.500000
O O8 0.711563 0.275727 0.775238
O O9 0.889508 0.149549 0.808741
O O10 0.714674 0.163661 0.861193
O O11 0.250000 0.250000 0.500000
O O12 0.426740 0.329708 0.657216
O O13 0.623908 0.597913 0.814657
O O14 0.468508 0.500000 0.840263
O O15 0.643163 0.609926 0.966872
O O16 0.500000 0.709090 0.000000
O O17 0.750000 0.750000 0.000000
#
# Coordination Sequence:
#
# PCOD9189103 Si02
#       7
#     8   8   8   8   8   8   8
#     4  11  23  38  59  93 130 168 218 272 334 391
#     4  11  20  37  61  85 118 168 220 263 317 388
#     4  11  22  41  70  95 130 169 225 268 323 402
#     4  10  19  37  56  88 116 162 215 265 316 376
#     4  12  21  38  68  90 126 170 220 269 320 394
#     4  11  26  44  66 102 137 170 217 280 345 393
#     4  10  22  42  73 104 134 177 225 280 339 413
#
# _framework density 21.586137000000001
#
# number of rings (size 3 to 8) (size 9 to 14) (size 15 to 20)
#    0.000    1.143    7.143    1.286    0.000    4.571 
#    0.000    0.000    0.000    3.429    0.000    0.000 
#    0.000    0.000    0.000    0.000    0.000    0.000 
#
# Total GULP energy -156399.098224 kJ/mol
# GULP energy per Si atom -5585.682079 kJ/mol
# Density = 2.153701 g / cm^3
# Si number density = 21.586137 Si / 1000 Ang^3
#
#
#
# Elastic Constant Matrix: (Units=GPa)
#
#
# Indices 1 2 3 4 5 6 
#
# 1 68.6893 9.8182 2.6591 0.0000 -30.0079 0.0000
# 2 9.8182 78.1757 5.0528 0.0000 2.3143 0.0000
# 3 2.6591 5.0528 49.1260 0.0000 -18.3431 0.0000
# 4 0.0000 0.0000 0.0000 8.2457 0.0000 -6.9149
# 5 -30.0079 2.3143 -18.3431 0.0000 33.9490 0.0000
# 6 0.0000 0.0000 0.0000 -6.9149 0.0000 8.6546
#
#
#
# Elastic Compliance Matrix: (Units=1/GPa)
#
#
# Indices 1 2 3 4 5 6 
#
# 1 0.028638 -0.005222 0.010738 0.000000 0.031471 0.000000
# 2 -0.005222 0.013939 -0.004045 0.000000 -0.007752 0.000000
# 3 0.010738 -0.004045 0.029862 0.000000 0.025902 0.000000
# 4 0.000000 0.000000 0.000000 0.367539 0.000000 0.293658
# 5 0.031471 -0.007752 0.025902 0.000000 0.071797 0.000000
# 6 0.000000 0.000000 0.000000 0.293658 0.000000 0.350174
#
#
# Mechanical properties :
#
#
# Convention : Reuss Voigt Hill
#
# Bulk Modulus (GPa) = 13.26636 25.67235 19.46935
# Shear Modulus (GPa) = 5.65525 22.06726 13.86126
#
# Velocity S-wave (km/s) = 1.62035 3.20079 2.53679
# Velocity P-wave (km/s) = 3.10803 5.05756 4.19754
#
# Compressibility (1/GPa) = 0.07537865
#
# Stress axis : x y z
#
# Youngs Moduli (GPa) = 34.91907 71.74354 33.48715
#
# Poissons Ratio (x) = 0.37467 -0.35958
# Poissons Ratio (y) = 0.18236 0.13547
# Poissons Ratio (z) = -0.37496 0.29024
#
# Static dielectric constant tensor:
#      x y z
#    x 1.820600 0.000000 -0.023880 
#    y 0.000000 1.833290 0.000000 
#    z -0.023880 0.000000 1.828910 
# 
# From -- ./inp_files/264291.got.cif
#   From: 2010.05.17/outbox.cif.g08.bks.cpg/sg12_133_cif.got.tgz:264291.got - 2010.06.03 13:09:07.
