data_PCOD9189396
_publ_section_title
;
Structure prediction by ZEFSAII (Michael W. Deem and Ramdas Pophale) SiO2 
 PCOD9189396
Probable space group: C 2/M
;
_chemical_formula_sum "Si O2"
_cell_formula_units_Z 58
_cell_length_a 25.488743
_cell_length_b 8.766136
_cell_length_c 22.423161
_cell_angle_alpha 90.000000
_cell_angle_beta 40.236574
_cell_angle_gamma 90.000000
_cell_volume 3236.302257
_symmetry_space_group_name_H-M "C 2/M"
_symmetry_group_IT_number 12
_symmetry_cell_setting 'monoclinic'
loop_
_space_group_symop_operation_xyz
x,y,z
-x,y,-z
-x,-y,-z
x,-y,z
1/2+x,1/2+y,z
1/2-x,1/2+y,-z
1/2-x,1/2-y,-z
1/2+x,1/2-y,z
loop_
_atom_site_type_symbol
_atom_site_label
_atom_site_fract_x
_atom_site_fract_y
_atom_site_fract_z
Si Si1 0.300970 0.683356 0.809781
Si Si2 0.278705 0.685527 0.692787
Si Si3 0.500000 0.000000 0.000000
Si Si4 0.690961 0.682920 0.000781
Si Si5 0.444499 0.316024 0.490272
Si Si6 0.100217 0.669825 0.812690
Si Si7 0.528394 0.818730 0.301091
Si Si8 0.507104 0.681304 0.194485
O O1 0.301580 0.500000 0.812612
O O2 0.299682 0.732047 0.742048
O O3 0.222709 0.747067 0.911625
O O4 0.381725 0.746407 0.770840
O O5 0.277371 0.500000 0.695192
O O6 0.352397 0.730030 0.585850
O O7 0.188525 0.734303 0.752932
O O8 0.453030 0.868856 0.082216
O O9 0.697817 0.500000 0.994086
O O10 0.750000 0.750000 0.000000
O O11 0.598513 0.725307 0.095141
O O12 0.500000 0.280477 0.500000
O O13 0.448256 0.500000 0.479286
O O14 0.478863 0.238346 0.401505
O O15 0.113348 0.500000 0.773795
O O16 0.052749 0.768970 0.806018
O O17 0.490693 0.761233 0.271825
O O18 0.535057 0.000000 0.295299
O O19 0.505357 0.500000 0.204677
#
# Coordination Sequence:
#
# PCOD9189396 Si02
#       8
#     8   8   2   8   8   8   8   8
#     4  11  21  35  59  87 120 156 198 246 302 366
#     4   9  19  36  61  88 118 155 199 247 301 365
#     4   8  20  36  66  88 122 156 204 248 292 346
#     4  11  23  36  53  82 117 156 197 241 298 361
#     4  10  19  37  62  88 120 159 200 249 308 364
#     4   9  20  38  62  90 119 158 205 244 297 350
#     4  12  24  38  58  88 121 158 203 251 308 369
#     4  11  24  41  60  84 122 165 205 251 302 365
#
# _framework density 17.921688
#
# number of rings (size 3 to 8) (size 9 to 14) (size 15 to 20)
#    0.414    1.241    2.759    2.483    1.931    1.931 
#    0.000    3.103    0.000    0.000    0.000    0.000 
#    0.000    0.000    0.000    0.000    0.000    0.000 
#
# Total GULP energy -161585.692976 kJ/mol
# GULP energy per Si atom -5571.920447 kJ/mol
# Density = 1.788090 g / cm^3
# Si number density = 17.921688 Si / 1000 Ang^3
#
#
#
# Elastic Constant Matrix: (Units=GPa)
#
#
# Indices 1 2 3 4 5 6 
#
# 1 88.0278 21.6278 48.6364 0.0007 -7.8915 -0.0009
# 2 21.6278 46.2331 35.5694 0.0002 3.7950 -0.0016
# 3 48.6364 35.5694 125.2937 0.0000 12.3148 -0.0004
# 4 0.0007 0.0002 0.0000 27.4446 0.0001 4.4032
# 5 -7.8915 3.7950 12.3148 0.0001 23.6647 0.0001
# 6 -0.0009 -0.0016 -0.0004 4.4032 0.0001 26.7099
#
#
#
# Elastic Compliance Matrix: (Units=1/GPa)
#
#
# Indices 1 2 3 4 5 6 
#
# 1 0.016603 -0.003671 -0.006328 0.000000 0.009419 0.000000
# 2 -0.003671 0.028489 -0.006422 0.000000 -0.002451 0.000002
# 3 -0.006328 -0.006422 0.013034 0.000000 -0.007863 0.000000
# 4 0.000000 0.000000 0.000000 0.037427 0.000000 -0.006170
# 5 0.009419 -0.002451 -0.007863 0.000000 0.049883 0.000000
# 6 0.000000 0.000002 0.000000 -0.006170 0.000000 0.038456
#
#
# Mechanical properties :
#
#
# Convention : Reuss Voigt Hill
#
# Bulk Modulus (GPa) = 39.55265 52.35800 45.95533
# Shear Modulus (GPa) = 22.20630 25.81189 24.00910
#
# Velocity S-wave (km/s) = 3.52387 3.79919 3.66412
# Velocity P-wave (km/s) = 6.21888 6.96588 6.60295
#
# Compressibility (1/GPa) = 0.02528275
#
# Stress axis : x y z
#
# Youngs Moduli (GPa) = 60.23035 35.10185 76.72430
#
# Poissons Ratio (x) = 0.12886 0.48555
# Poissons Ratio (y) = 0.22112 0.49269
# Poissons Ratio (z) = 0.38116 0.22541
#
# Static dielectric constant tensor:
#      x y z
#    x 1.608280 0.000000 -0.004560 
#    y 0.000000 1.607260 0.000000 
#    z -0.004560 0.000000 1.619400 
# 
# From -- ./inp_files/324534.got.cif
#   From: 2010.05.17/outbox.cif.g08.bks.cpg/sg12_163_cif.got.tgz:324534.got - 2010.06.03 13:09:07.
