data_PCOD9189602
_publ_section_title
;
Structure prediction by ZEFSAII (Michael W. Deem and Ramdas Pophale) SiO2 
 PCOD9189602
Probable space group: C 2/M
;
_chemical_formula_sum "Si O2"
_cell_formula_units_Z 50
_cell_length_a 10.794207
_cell_length_b 28.316222
_cell_length_c 9.262295
_cell_angle_alpha 90.000000
_cell_angle_beta 106.886341
_cell_angle_gamma 90.000000
_cell_volume 2708.965253
_symmetry_space_group_name_H-M "C 2/M"
_symmetry_group_IT_number 12
_symmetry_cell_setting 'monoclinic'
loop_
_space_group_symop_operation_xyz
x,y,z
-x,y,-z
-x,-y,-z
x,-y,z
1/2+x,1/2+y,z
1/2-x,1/2+y,-z
1/2-x,1/2-y,-z
1/2+x,1/2-y,z
loop_
_atom_site_type_symbol
_atom_site_label
_atom_site_fract_x
_atom_site_fract_y
_atom_site_fract_z
Si Si1 0.547590 0.818641 0.356651
Si Si2 0.220414 0.665659 0.889008
Si Si3 0.380785 0.661509 0.202430
Si Si4 0.702504 0.363009 0.508743
Si Si5 0.500000 0.500000 0.000000
Si Si6 0.394876 0.409288 0.793109
Si Si7 0.383459 0.721836 0.729648
O O1 0.500000 0.803633 0.500000
O O2 0.424792 0.828752 0.214950
O O3 0.643864 0.862407 0.413103
O O4 0.629619 0.775701 0.317455
O O5 0.281803 0.617969 0.841698
O O6 0.309317 0.707167 0.849461
O O7 0.249112 0.664740 0.068252
O O8 0.362868 0.644009 0.358905
O O9 0.477118 0.623860 0.159931
O O10 0.463642 0.709554 0.219187
O O11 0.651478 0.405190 0.390271
O O12 0.672386 0.315535 0.405547
O O13 0.432467 0.458456 0.875184
#
# Coordination Sequence:
#
# PCOD9189602 Si02
#       7
#     8   8   8   8   2   8   8
#     4  12  21  34  55  78 112 169 210 235 274 347
#     4  10  21  37  54  77 124 153 194 252 286 327
#     4  10  19  38  54  79 122 152 183 252 297 324
#     4  10  21  36  56  79 120 156 192 236 295 333
#     4  12  20  36  78  98 106 138 192 228 306 374
#     4  10  19  38  62  91 108 143 181 237 298 350
#     4  10  20  33  54  76 109 161 209 246 272 324
#
# _framework density 18.457232999999999
#
# number of rings (size 3 to 8) (size 9 to 14) (size 15 to 20)
#    0.000    1.920    4.800    4.800    2.240    1.280 
#    2.880    1.600    0.000    1.920    0.000    1.120 
#    0.000    0.000    0.000    0.000    0.000    0.000 
#
# Total GULP energy -139198.073613 kJ/mol
# GULP energy per Si atom -5567.922945 kJ/mol
# Density = 1.841522 g / cm^3
# Si number density = 18.457233 Si / 1000 Ang^3
#
#
#
# Elastic Constant Matrix: (Units=GPa)
#
#
# Indices 1 2 3 4 5 6 
#
# 1 40.7338 11.3901 31.5110 0.0000 9.7272 0.0000
# 2 11.3901 87.5567 31.7297 0.0000 4.3145 0.0000
# 3 31.5110 31.7297 144.2825 0.0000 20.3410 0.0000
# 4 0.0000 0.0000 0.0000 27.7497 0.0000 6.5000
# 5 9.7272 4.3145 20.3410 0.0000 37.0287 0.0000
# 6 0.0000 0.0000 0.0000 6.5000 0.0000 2.4688
#
#
#
# Elastic Compliance Matrix: (Units=1/GPa)
#
#
# Indices 1 2 3 4 5 6 
#
# 1 0.030502 -0.001698 -0.005622 0.000000 -0.004727 0.000000
# 2 -0.001698 0.012505 -0.002424 0.000000 0.000321 0.000000
# 3 -0.005622 -0.002424 0.009153 0.000000 -0.003268 0.000000
# 4 0.000000 0.000000 0.000000 0.094021 0.000000 -0.247549
# 5 -0.004727 0.000321 -0.003268 0.000000 0.030006 0.000000
# 6 0.000000 0.000000 0.000000 -0.247549 0.000000 1.056831
#
#
# Mechanical properties :
#
#
# Convention : Reuss Voigt Hill
#
# Bulk Modulus (GPa) = 30.60781 46.87053 38.73917
# Shear Modulus (GPa) = 3.95759 26.64560 15.30159
#
# Velocity S-wave (km/s) = 1.46589 3.80365 2.88241
# Velocity P-wave (km/s) = 4.41409 6.68876 5.66674
#
# Compressibility (1/GPa) = 0.03267140
#
# Stress axis : x y z
#
# Youngs Moduli (GPa) = 32.78470 79.96928 109.25856
#
# Poissons Ratio (x) = 0.13577 0.61424
# Poissons Ratio (y) = 0.05566 0.26489
# Poissons Ratio (z) = 0.18431 0.19388
#
# Static dielectric constant tensor:
#      x y z
#    x 1.692590 0.000000 0.009490 
#    y 0.000000 1.590190 0.000000 
#    z 0.009490 0.000000 1.725900 
# 
# From -- ./inp_files/54373.got.cif
#   From: 2010.05.17/outbox.cif.g08.bks.cpg/sg12_28_cif.got.tgz:54373.got - 2010.06.03 13:09:07.
