data_PCOD9189160
_publ_section_title
;
Structure prediction by ZEFSAII (Michael W. Deem and Ramdas Pophale) SiO2 
 PCOD9189160
Probable space group: C 2/M
;
_chemical_formula_sum "Si O2"
_cell_formula_units_Z 56
_cell_length_a 9.674691
_cell_length_b 22.851563
_cell_length_c 14.993560
_cell_angle_alpha 90.000000
_cell_angle_beta 54.539962
_cell_angle_gamma 90.000000
_cell_volume 2699.974797
_symmetry_space_group_name_H-M "C 2/M"
_symmetry_group_IT_number 12
_symmetry_cell_setting 'monoclinic'
loop_
_space_group_symop_operation_xyz
x,y,z
-x,y,-z
-x,-y,-z
x,-y,z
1/2+x,1/2+y,z
1/2-x,1/2+y,-z
1/2-x,1/2-y,-z
1/2+x,1/2-y,z
loop_
_atom_site_type_symbol
_atom_site_label
_atom_site_fract_x
_atom_site_fract_y
_atom_site_fract_z
Si Si1 0.231093 0.875190 0.351956
Si Si2 0.582624 0.066826 0.195887
Si Si3 0.148258 0.257346 0.754357
Si Si4 0.831151 0.880437 0.255114
Si Si5 0.880965 0.930479 0.426442
Si Si6 0.132260 0.898174 0.014342
Si Si7 0.241673 0.725769 0.101664
O O1 0.409723 0.898234 0.249474
O O2 0.230656 0.805599 0.335130
O O3 0.217679 0.894854 0.459909
O O4 0.073837 0.907115 0.363511
O O5 0.696183 0.093931 0.234326
O O6 0.545713 0.000000 0.232183
O O7 0.689942 0.070011 0.063384
O O8 0.191668 0.189242 0.721004
O O9 0.160700 0.260387 0.857716
O O10 0.956037 0.271946 0.797381
O O11 0.816509 0.914759 0.352662
O O12 0.024304 0.887721 0.143496
O O13 0.873349 0.000000 0.446218
O O14 0.176565 0.837575 0.945872
O O15 0.000000 0.931313 0.000000
O O16 0.250000 0.750000 0.000000
#
# Coordination Sequence:
#
# PCOD9189160 Si02
#       7
#     8   8   8   8   8   8   8
#     4  11  24  43  66  91 122 166 217 270 324 376
#     4  11  22  40  65  93 127 167 217 266 312 373
#     4  12  22  38  64  97 130 161 209 262 321 382
#     4  11  23  40  64  97 128 165 213 260 320 383
#     4  11  25  47  68  86 122 174 222 267 320 380
#     4  10  19  37  58  93 129 165 201 247 318 373
#     4  12  20  36  61  95 133 171 200 247 314 388
#
# _framework density 20.740935
#
# number of rings (size 3 to 8) (size 9 to 14) (size 15 to 20)
#    0.000    0.857    5.714    3.429    0.000    4.286 
#    0.000    3.571    0.000    1.714    0.000    0.000 
#    0.000    0.000    0.000    0.000    0.000    0.000 
#
# Total GULP energy -156190.705662 kJ/mol
# GULP energy per Si atom -5578.239488 kJ/mol
# Density = 2.069373 g / cm^3
# Si number density = 20.740935 Si / 1000 Ang^3
#
#
#
# Elastic Constant Matrix: (Units=GPa)
#
#
# Indices 1 2 3 4 5 6 
#
# 1 30.1324 -2.3261 -1.1910 0.0000 -1.9043 0.0000
# 2 -2.3261 125.0055 21.9392 0.0000 3.6672 0.0000
# 3 -1.1910 21.9392 50.4031 0.0000 8.9357 0.0000
# 4 0.0000 0.0000 0.0000 -80.4807 0.0000 -6.5112
# 5 -1.9043 3.6672 8.9357 0.0000 33.8550 0.0000
# 6 0.0000 0.0000 0.0000 -6.5112 0.0000 21.2280
#
#
#
# Elastic Compliance Matrix: (Units=1/GPa)
#
#
# Indices 1 2 3 4 5 6 
#
# 1 0.033348 0.000525 0.000248 0.000000 0.001753 0.000000
# 2 0.000525 0.008670 -0.003777 0.000000 0.000087 0.000000
# 3 0.000248 -0.003777 0.022466 0.000000 -0.005507 0.000000
# 4 0.000000 0.000000 0.000000 -0.012124 0.000000 -0.003719
# 5 0.001753 0.000087 -0.005507 0.000000 0.031080 0.000000
# 6 0.000000 0.000000 0.000000 -0.003719 0.000000 0.045967
#
#
# Mechanical properties :
#
#
# Convention : Reuss Voigt Hill
#
# Bulk Modulus (GPa) = 17.10039 26.93170 22.01604
# Shear Modulus (GPa) = 32.27782 7.39504 19.83643
#
# Velocity S-wave (km/s) = 3.94920 1.89028 3.09591
# Velocity P-wave (km/s) = 5.39050 4.21630 4.83915
#
# Compressibility (1/GPa) = 0.05847820
#
# Stress axis : x y z
#
# Youngs Moduli (GPa) = 29.98676 115.34403 44.51148
#
# Poissons Ratio (x) = -0.06061 -0.01106
# Poissons Ratio (y) = -0.01576 0.16811
# Poissons Ratio (z) = -0.00745 0.43563
#
# Static dielectric constant tensor:
#      x y z
#    x 1.770130 0.000000 0.001160 
#    y 0.000000 1.850520 0.000000 
#    z 0.001160 0.000000 1.787540 
# 
# From -- ./inp_files/198800.got.cif
#   From: 2010.05.17/outbox.cif.g08.bks.cpg/sg12_100_cif.got.tgz:198800.got - 2010.06.03 13:09:07.
