data_PCOD9189647
_publ_section_title
;
Structure prediction by ZEFSAII (Michael W. Deem and Ramdas Pophale) SiO2 
 PCOD9189647
Probable space group: C 2/M
;
_chemical_formula_sum "Si O2"
_cell_formula_units_Z 40
_cell_length_a 23.939816
_cell_length_b 11.872366
_cell_length_c 5.816012
_cell_angle_alpha 90.000000
_cell_angle_beta 77.082196
_cell_angle_gamma 90.000000
_cell_volume 1611.204550
_symmetry_space_group_name_H-M "C 2/M"
_symmetry_group_IT_number 12
_symmetry_cell_setting 'monoclinic'
loop_
_space_group_symop_operation_xyz
x,y,z
-x,y,-z
-x,-y,-z
x,-y,z
1/2+x,1/2+y,z
1/2-x,1/2+y,-z
1/2-x,1/2-y,-z
1/2+x,1/2-y,z
loop_
_atom_site_type_symbol
_atom_site_label
_atom_site_fract_x
_atom_site_fract_y
_atom_site_fract_z
Si Si1 0.951148 0.270627 0.234039
Si Si2 0.608475 0.620701 0.411635
Si Si3 0.151776 0.500000 0.001653
Si Si4 0.224314 0.873685 0.600613
Si Si5 0.415830 0.000000 0.439031
Si Si6 0.840815 0.258513 0.018843
O O1 0.945914 0.158815 0.390418
O O2 0.951875 0.385829 0.376385
O O3 0.889283 0.269732 0.167445
O O4 0.000000 0.268973 0.000000
O O5 0.599288 0.500000 0.304435
O O6 0.666770 0.612496 0.505234
O O7 0.623122 0.722958 0.232803
O O8 0.114433 0.500000 0.278115
O O9 0.120621 0.500000 0.775279
O O10 0.185326 0.382468 0.979435
O O11 0.250000 0.750000 0.500000
O O12 0.202177 0.840413 0.874833
O O13 0.253025 0.000000 0.568770
#
# Coordination Sequence:
#
# PCOD9189647 Si02
#       6
#     8   8   4   8   4   8
#     4  10  21  37  58  88 125 166 213 265 319 383
#     4  10  21  40  62  84 122 163 209 263 323 388
#     4  10  20  36  65  92 130 170 224 266 331 384
#     4  10  23  42  65  94 124 163 210 269 329 395
#     4  10  19  38  58  94 126 174 214 276 326 382
#     4  10  21  39  60  89 124 168 209 267 325 388
#
# _framework density 24.826146999999999
#
# number of rings (size 3 to 8) (size 9 to 14) (size 15 to 20)
#    0.000    2.000    2.000    0.900    1.400    2.800 
#    3.600    3.000    0.000    0.000    0.000    0.000 
#    0.000    0.000    0.000    0.000    0.000    0.000 
#
# Total GULP energy -111412.820088 kJ/mol
# GULP energy per Si atom -5570.641004 kJ/mol
# Density = 2.476964 g / cm^3
# Si number density = 24.826147 Si / 1000 Ang^3
#
#
#
# Elastic Constant Matrix: (Units=GPa)
#
#
# Indices 1 2 3 4 5 6 
#
# 1 69.3176 37.9561 24.1517 0.0000 8.2851 0.0000
# 2 37.9561 203.6168 29.8544 0.0000 -6.7542 0.0000
# 3 24.1517 29.8544 90.2547 0.0000 -3.4947 0.0000
# 4 0.0000 0.0000 0.0000 139.1447 0.0000 -66.2851
# 5 8.2851 -6.7542 -3.4947 0.0000 28.6940 0.0000
# 6 0.0000 0.0000 0.0000 -66.2851 0.0000 29.9542
#
#
#
# Elastic Compliance Matrix: (Units=1/GPa)
#
#
# Indices 1 2 3 4 5 6 
#
# 1 0.018303 -0.003019 -0.004151 0.000000 -0.006501 0.000000
# 2 -0.003019 0.005689 -0.000993 0.000000 0.002090 0.000000
# 3 -0.004151 -0.000993 0.012616 0.000000 0.002501 0.000000
# 4 0.000000 0.000000 0.000000 -0.132687 0.000000 -0.293620
# 5 -0.006501 0.002090 0.002501 0.000000 0.037524 0.000000
# 6 0.000000 0.000000 0.000000 -0.293620 0.000000 -0.616363
#
#
# Mechanical properties :
#
#
# Convention : Reuss Voigt Hill
#
# Bulk Modulus (GPa) = 49.30498 60.79038 55.04768
# Shear Modulus (GPa) = -7.67068 57.64037 24.98485
#
# Velocity S-wave (km/s) = -1.75968 4.82369 3.17581
# Velocity P-wave (km/s) = 3.97172 7.45410 5.97236
#
# Compressibility (1/GPa) = 0.02028193
#
# Stress axis : x y z
#
# Youngs Moduli (GPa) = 54.63708 175.78273 79.26557
#
# Poissons Ratio (x) = 0.53066 0.32902
# Poissons Ratio (y) = 0.16494 0.07871
# Poissons Ratio (z) = 0.22679 0.17455
#
# Static dielectric constant tensor:
#      x y z
#    x 2.005680 0.000000 0.118480 
#    y 0.000000 2.139530 0.000000 
#    z 0.118480 0.000000 2.282450 
# 
# From -- ./inp_files/27486.got.cif
#   From: 2010.05.17/outbox.cif.g08.bks.cpg/sg12_14_cif.got.tgz:27486.got - 2010.06.03 13:09:07.
