data_PCOD9189754
_publ_section_title
;
Structure prediction by ZEFSAII (Michael W. Deem and Ramdas Pophale) SiO2 
 PCOD9189754
Probable space group: C 2/M
;
_chemical_formula_sum "Si O2"
_cell_formula_units_Z 64
_cell_length_a 29.386142
_cell_length_b 14.880207
_cell_length_c 12.129691
_cell_angle_alpha 90.000000
_cell_angle_beta 142.610960
_cell_angle_gamma 90.000000
_cell_volume 3220.698834
_symmetry_space_group_name_H-M "C 2/M"
_symmetry_group_IT_number 12
_symmetry_cell_setting 'monoclinic'
loop_
_space_group_symop_operation_xyz
x,y,z
-x,y,-z
-x,-y,-z
x,-y,z
1/2+x,1/2+y,z
1/2-x,1/2+y,-z
1/2-x,1/2-y,-z
1/2+x,1/2-y,z
loop_
_atom_site_type_symbol
_atom_site_label
_atom_site_fract_x
_atom_site_fract_y
_atom_site_fract_z
Si Si1 0.256577 0.361855 0.224922
Si Si2 0.695575 0.403576 0.931561
Si Si3 0.422389 0.745161 0.314119
Si Si4 0.326418 0.830698 0.324335
Si Si5 0.931152 0.400301 0.720710
Si Si6 0.585042 0.154724 0.920986
Si Si7 0.866743 0.729979 0.768266
Si Si8 0.717812 0.603379 0.486897
O O1 0.282820 0.393393 0.155592
O O2 0.277246 0.255360 0.269435
O O3 0.296696 0.400548 0.409651
O O4 0.168457 0.385003 0.065512
O O5 0.660502 0.500000 0.882888
O O6 0.638668 0.324302 0.846509
O O7 0.768904 0.392505 0.147088
O O8 0.500000 0.701281 0.500000
O O9 0.385219 0.794075 0.347074
O O10 0.438119 0.810864 0.243360
O O11 0.371105 0.877632 0.508889
O O12 0.916116 0.500000 0.738640
O O13 0.922065 0.319986 0.790410
O O14 0.015125 0.399847 0.833748
O O15 0.600949 0.228888 0.046291
O O16 0.795326 0.660718 0.626800
O O17 0.841438 0.829186 0.683499
O O18 0.722080 0.500000 0.453880
#
# Coordination Sequence:
#
# PCOD9189754 Si02
#       8
#     8   8   8   8   8   8   8   8
#     4  10  19  38  62  87 122 161 210 250 306 364
#     4  11  22  35  59  93 123 156 207 260 304 366
#     4  11  21  40  62  83 121 163 202 247 307 368
#     4  11  20  39  63  89 121 164 196 255 317 360
#     4  12  25  40  62  93 127 163 203 255 319 373
#     4  11  22  40  62  84 121 169 204 241 308 374
#     4  10  23  40  60  90 131 161 202 259 311 360
#     4  10  20  37  65  94 120 162 212 257 303 362
#
# _framework density 19.871462999999999
#
# number of rings (size 3 to 8) (size 9 to 14) (size 15 to 20)
#    0.000    1.250    5.000    2.250    0.000    3.750 
#    0.000    1.250    0.000    2.250    0.000    0.000 
#    0.000    0.000    0.000    0.000    0.000    0.000 
#
# Total GULP energy -178511.802317 kJ/mol
# GULP energy per Si atom -5578.493822 kJ/mol
# Density = 1.982624 g / cm^3
# Si number density = 19.871463 Si / 1000 Ang^3
#
#
#
# Elastic Constant Matrix: (Units=GPa)
#
#
# Indices 1 2 3 4 5 6 
#
# 1 60.5426 4.5181 3.5273 0.0000 5.0800 0.0000
# 2 4.5181 90.0247 3.3580 0.0000 5.3044 0.0000
# 3 3.5273 3.3580 79.6887 0.0000 2.7520 0.0000
# 4 0.0000 0.0000 0.0000 0.2118 0.0000 6.2643
# 5 5.0800 5.3044 2.7520 0.0000 26.9017 0.0000
# 6 0.0000 0.0000 0.0000 6.2643 0.0000 9.9240
#
#
#
# Elastic Compliance Matrix: (Units=1/GPa)
#
#
# Indices 1 2 3 4 5 6 
#
# 1 0.016852 -0.000647 -0.000615 0.000000 -0.002992 0.000000
# 2 -0.000647 0.011276 -0.000375 0.000000 -0.002063 0.000000
# 3 -0.000615 -0.000375 0.012630 0.000000 -0.001102 0.000000
# 4 0.000000 0.000000 0.000000 -0.267209 0.000000 0.168668
# 5 -0.002992 -0.002063 -0.001102 0.000000 0.038257 0.000000
# 6 0.000000 0.000000 0.000000 0.168668 0.000000 -0.005702
#
#
# Mechanical properties :
#
#
# Convention : Reuss Voigt Hill
#
# Bulk Modulus (GPa) = 26.67806 28.11811 27.39808
# Shear Modulus (GPa) = -28.07004 21.99766 -3.03619
#
# Velocity S-wave (km/s) = -3.76251 3.33077 -1.23743
# Velocity P-wave (km/s) = 2.32827 5.38263 3.43161
#
# Compressibility (1/GPa) = 0.03748398
#
# Stress axis : x y z
#
# Youngs Moduli (GPa) = 59.33859 88.68344 79.17699
#
# Poissons Ratio (x) = 0.05734 0.04872
# Poissons Ratio (y) = 0.03837 0.02972
# Poissons Ratio (z) = 0.03652 0.03328
#
# Static dielectric constant tensor:
#      x y z
#    x 1.721730 0.000000 0.006500 
#    y 0.000000 1.701560 0.000000 
#    z 0.006500 0.000000 1.695850 
# 
# From -- ./inp_files/183844.got.cif
#   From: 2010.05.17/outbox.cif.g08.bks.cpg/sg12_92_cif.got.tgz:183844.got - 2010.06.03 13:09:07.
