data_PCOD9189385
_publ_section_title
;
Structure prediction by ZEFSAII (Michael W. Deem and Ramdas Pophale) SiO2 
 PCOD9189385
Probable space group: C 2/M
;
_chemical_formula_sum "Si O2"
_cell_formula_units_Z 64
_cell_length_a 20.112912
_cell_length_b 7.860270
_cell_length_c 32.024072
_cell_angle_alpha 90.000000
_cell_angle_beta 143.229523
_cell_angle_gamma 90.000000
_cell_volume 3030.634820
_symmetry_space_group_name_H-M "C 2/M"
_symmetry_group_IT_number 12
_symmetry_cell_setting 'monoclinic'
loop_
_space_group_symop_operation_xyz
x,y,z
-x,y,-z
-x,-y,-z
x,-y,z
1/2+x,1/2+y,z
1/2-x,1/2+y,-z
1/2-x,1/2-y,-z
1/2+x,1/2-y,z
loop_
_atom_site_type_symbol
_atom_site_label
_atom_site_fract_x
_atom_site_fract_y
_atom_site_fract_z
Si Si1 0.680053 0.795002 0.505708
Si Si2 0.040612 0.802505 0.216949
Si Si3 0.481246 0.808028 0.886468
Si Si4 0.661116 0.793685 0.827968
Si Si5 0.236226 0.708029 0.625779
Si Si6 0.073264 0.707818 0.614725
Si Si7 0.773358 0.294857 0.231367
Si Si8 0.600478 0.304393 0.023483
O O1 0.750000 0.750000 0.500000
O O2 0.732152 0.734511 0.575839
O O3 0.552223 0.734222 0.440624
O O4 0.676475 0.000000 0.505742
O O5 0.005865 0.716440 0.156335
O O6 0.154587 0.734280 0.294309
O O7 0.943436 0.784545 0.201501
O O8 0.060733 0.000000 0.216541
O O9 0.352429 0.769722 0.831167
O O10 0.560706 0.698466 0.955856
O O11 0.507214 0.000000 0.911188
O O12 0.668639 0.749365 0.782951
O O13 0.651759 0.000000 0.826952
O O14 0.777305 0.733799 0.906949
O O15 0.239451 0.500000 0.626851
O O16 0.127943 0.757227 0.598109
O O17 0.071694 0.500000 0.614477
O O18 0.155659 0.763240 0.693197
O O19 0.766833 0.500000 0.229861
O O20 0.609948 0.500000 0.043205
O O21 0.500000 0.225456 0.000000
#
# Coordination Sequence:
#
# PCOD9189385 Si02
#       8
#     8   8   8   8   8   8   8   8
#     4  10  21  36  57  88 120 153 189 237 289 341
#     4  11  23  40  61  84 118 160 198 242 297 352
#     4  12  24  38  60  90 121 151 194 250 296 347
#     4  10  22  38  60  89 119 150 194 247 295 350
#     4   9  18  35  60  85 111 149 201 244 277 336
#     4   9  17  33  61  87 110 149 201 241 278 336
#     4  10  19  37  62  87 116 155 201 242 291 355
#     4  10  20  39  64  86 114 157 198 238 292 353
#
# _framework density 21.117688000000001
#
# number of rings (size 3 to 8) (size 9 to 14) (size 15 to 20)
#    0.000    1.875    2.500    1.875    1.750    3.250 
#    0.000    1.250    0.000    0.750    0.000    0.000 
#    0.000    0.000    0.000    0.000    0.000    0.000 
#
# Total GULP energy -178771.694716 kJ/mol
# GULP energy per Si atom -5586.615460 kJ/mol
# Density = 2.106962 g / cm^3
# Si number density = 21.117688 Si / 1000 Ang^3
#
#
#
# Elastic Constant Matrix: (Units=GPa)
#
#
# Indices 1 2 3 4 5 6 
#
# 1 139.3111 -3.8871 41.7662 0.0000 -6.3970 0.0002
# 2 -3.8871 25.1948 -1.6559 0.0003 0.3291 -0.0004
# 3 41.7662 -1.6559 96.7326 0.0000 -10.2737 0.0001
# 4 0.0000 0.0003 0.0000 -6.1382 0.0000 7.1746
# 5 -6.3970 0.3291 -10.2737 0.0000 37.3668 -0.0001
# 6 0.0002 -0.0004 0.0001 7.1746 -0.0001 25.2909
#
#
#
# Elastic Compliance Matrix: (Units=1/GPa)
#
#
# Indices 1 2 3 4 5 6 
#
# 1 0.008280 0.001041 -0.003510 0.000000 0.000443 0.000000
# 2 0.001041 0.039867 0.000221 0.000002 -0.000112 0.000000
# 3 -0.003510 0.000221 0.012148 0.000000 0.002737 0.000000
# 4 0.000000 0.000002 0.000000 -0.122346 0.000000 0.034708
# 5 0.000443 -0.000112 0.002737 0.000000 0.027591 0.000000
# 6 0.000000 0.000000 0.000000 0.034708 0.000000 0.029694
#
#
# Mechanical properties :
#
#
# Convention : Reuss Voigt Hill
#
# Bulk Modulus (GPa) = 17.92149 37.07609 27.49879
# Shear Modulus (GPa) = 272.78149 26.30491 149.54320
#
# Velocity S-wave (km/s) = 11.37772 3.53318 8.42425
# Velocity P-wave (km/s) = 13.45764 5.85145 10.37660
#
# Compressibility (1/GPa) = 0.05579892
#
# Stress axis : x y z
#
# Youngs Moduli (GPa) = 120.77398 25.08320 82.31928
#
# Poissons Ratio (x) = -0.02611 0.28895
# Poissons Ratio (y) = -0.12572 -0.01820
# Poissons Ratio (z) = 0.42393 -0.00555
#
# Static dielectric constant tensor:
#      x y z
#    x 1.728950 0.000000 -0.008110 
#    y 0.000000 1.791480 0.000000 
#    z -0.008110 0.000000 1.742150 
# 
# From -- ./inp_files/346258.got.cif
#   From: 2010.05.17/outbox.cif.g08.bks.cpg/sg12_174_cif.got.tgz:346258.got - 2010.06.03 13:09:07.
