data_PCOD9189511
_publ_section_title
;
Structure prediction by ZEFSAII (Michael W. Deem and Ramdas Pophale) SiO2 
 PCOD9189511
Probable space group: C 2/M
;
_chemical_formula_sum "Si O2"
_cell_formula_units_Z 28
_cell_length_a 8.349277
_cell_length_b 28.399551
_cell_length_c 5.612523
_cell_angle_alpha 90.000000
_cell_angle_beta 119.934579
_cell_angle_gamma 90.000000
_cell_volume 1153.280714
_symmetry_space_group_name_H-M "C 2/M"
_symmetry_group_IT_number 12
_symmetry_cell_setting 'monoclinic'
loop_
_space_group_symop_operation_xyz
x,y,z
-x,y,-z
-x,-y,-z
x,-y,z
1/2+x,1/2+y,z
1/2-x,1/2+y,-z
1/2-x,1/2-y,-z
1/2+x,1/2-y,z
loop_
_atom_site_type_symbol
_atom_site_label
_atom_site_fract_x
_atom_site_fract_y
_atom_site_fract_z
Si Si1 0.150493 0.316420 0.787965
Si Si2 0.500000 0.265076 0.000000
Si Si3 0.193371 0.944523 0.389794
Si Si4 0.273616 0.591064 0.089291
O O1 0.333989 0.298327 0.793618
O O2 0.000000 0.337267 0.500000
O O3 0.063945 0.270007 0.841057
O O4 0.215284 0.354687 0.027339
O O5 0.292099 0.930418 0.709407
O O6 0.996207 0.917151 0.249546
O O7 0.152803 0.000000 0.365920
O O8 0.285817 0.932523 0.205538
#
# Coordination Sequence:
#
# PCOD9189511 Si02
#       4
#     8   4   8   8
#     4  11  24  43  68  98 138 174 232 278 345 403
#     4  10  24  46  66  98 130 188 222 282 342 414
#     4  10  19  37  64  98 131 178 227 271 335 409
#     4  10  20  34  63  95 130 169 221 280 325 393
#
# _framework density 24.278563999999999
#
# number of rings (size 3 to 8) (size 9 to 14) (size 15 to 20)
#    0.000    1.714    0.000    6.857    4.000    0.000 
#   20.571    0.000    0.000    9.429    0.000    0.000 
#    0.000    0.000    0.000    0.000    0.000    0.000 
#
# Total GULP energy -78301.555174 kJ/mol
# GULP energy per Si atom -5592.968227 kJ/mol
# Density = 2.422330 g / cm^3
# Si number density = 24.278564 Si / 1000 Ang^3
#
#
#
# Elastic Constant Matrix: (Units=GPa)
#
#
# Indices 1 2 3 4 5 6 
#
# 1 91.5454 31.5626 56.4361 0.0000 -4.1698 0.0000
# 2 31.5626 104.1571 52.5864 0.0000 16.4316 0.0000
# 3 56.4361 52.5864 159.9413 0.0000 -25.5626 0.0000
# 4 0.0000 0.0000 0.0000 24.6486 0.0000 -33.6114
# 5 -4.1698 16.4316 -25.5626 0.0000 44.9981 0.0000
# 6 0.0000 0.0000 0.0000 -33.6114 0.0000 -103.7598
#
#
#
# Elastic Compliance Matrix: (Units=1/GPa)
#
#
# Indices 1 2 3 4 5 6 
#
# 1 0.014358 -0.002013 -0.004481 0.000000 -0.000480 0.000000
# 2 -0.002013 0.014212 -0.005303 0.000000 -0.008389 0.000000
# 3 -0.004481 -0.005303 0.010801 0.000000 0.007657 0.000000
# 4 0.000000 0.000000 0.000000 0.028140 0.000000 -0.009116
# 5 -0.000480 -0.008389 0.007657 0.000000 0.029592 0.000000
# 6 0.000000 0.000000 0.000000 -0.009116 0.000000 -0.006685
#
#
# Mechanical properties :
#
#
# Convention : Reuss Voigt Hill
#
# Bulk Modulus (GPa) = 63.38557 70.75713 67.07135
# Shear Modulus (GPa) = 41.92136 7.51462 24.71799
#
# Velocity S-wave (km/s) = 4.15984 1.76122 3.19423
# Velocity P-wave (km/s) = 7.01689 5.77434 6.42572
#
# Compressibility (1/GPa) = 0.01577646
#
# Stress axis : x y z
#
# Youngs Moduli (GPa) = 69.64613 70.36537 92.58428
#
# Poissons Ratio (x) = 0.14162 0.41491
# Poissons Ratio (y) = 0.14017 0.49098
# Poissons Ratio (z) = 0.31212 0.37315
#
# Static dielectric constant tensor:
#      x y z
#    x 1.861420 0.000000 0.006800 
#    y 0.000000 1.860650 0.000000 
#    z 0.006800 0.000000 1.976430 
# 
# From -- ./inp_files/3618.got.cif
#   From: 2010.05.17/outbox.cif.g08.bks.cpg/sg12_2_cif.got.tgz:3618.got - 2010.06.03 13:09:07.
