data_PCOD9189344
_publ_section_title
;
Structure prediction by ZEFSAII (Michael W. Deem and Ramdas Pophale) SiO2 
 PCOD9189344
Probable space group: C 2/M
;
_chemical_formula_sum "Si O2"
_cell_formula_units_Z 64
_cell_length_a 21.819169
_cell_length_b 15.549725
_cell_length_c 19.856605
_cell_angle_alpha 90.000000
_cell_angle_beta 152.442503
_cell_angle_gamma 90.000000
_cell_volume 3116.791085
_symmetry_space_group_name_H-M "C 2/M"
_symmetry_group_IT_number 12
_symmetry_cell_setting 'monoclinic'
loop_
_space_group_symop_operation_xyz
x,y,z
-x,y,-z
-x,-y,-z
x,-y,z
1/2+x,1/2+y,z
1/2-x,1/2+y,-z
1/2-x,1/2-y,-z
1/2+x,1/2-y,z
loop_
_atom_site_type_symbol
_atom_site_label
_atom_site_fract_x
_atom_site_fract_y
_atom_site_fract_z
Si Si1 0.629808 0.219060 0.170895
Si Si2 0.426291 0.405381 0.281039
Si Si3 0.384120 0.745409 0.338508
Si Si4 0.075874 0.906927 0.164855
Si Si5 0.295810 0.849258 0.032979
Si Si6 0.400680 0.827698 0.703729
Si Si7 0.356350 0.630323 0.618400
Si Si8 0.259863 0.595364 0.872765
O O1 0.764699 0.199872 0.262979
O O2 0.632178 0.322773 0.184218
O O3 0.621002 0.178364 0.236821
O O4 0.500000 0.198380 0.000000
O O5 0.429340 0.500000 0.315752
O O6 0.447135 0.325781 0.350946
O O7 0.533845 0.402079 0.326292
O O8 0.286377 0.387544 0.108751
O O9 0.500000 0.776912 0.500000
O O10 0.320105 0.825468 0.236716
O O11 0.128065 0.907575 0.292185
O O12 0.106626 0.000000 0.163697
O O13 0.917019 0.895371 0.012757
O O14 0.450762 0.854728 0.168403
O O15 0.259915 0.897617 0.066428
O O16 0.250000 0.750000 0.000000
O O17 0.384691 0.731321 0.658713
O O18 0.286663 0.880879 0.555017
O O19 0.217949 0.500000 0.809202
#
# Coordination Sequence:
#
# PCOD9189344 Si02
#       8
#     8   8   8   8   8   8   8   8
#     4  11  21  38  61  87 116 169 212 247 294 369
#     4  12  24  41  67  93 123 171 221 265 310 370
#     4  12  26  43  63  89 125 170 215 260 312 366
#     4  10  20  36  62  95 124 158 202 250 309 391
#     4  12  19  38  68  99 130 163 207 260 325 383
#     4  10  21  35  61  94 128 160 204 260 322 372
#     4  10  19  37  61  95 126 158 199 263 326 384
#     4  11  22  39  65  98 129 159 204 259 318 390
#
# _framework density 20.533940000000001
#
# number of rings (size 3 to 8) (size 9 to 14) (size 15 to 20)
#    0.000    1.000    5.000    3.000    0.000    3.250 
#    0.000    3.750    0.000    4.125    0.000    0.000 
#    0.000    0.000    0.000    0.000    0.000    0.000 
#
# Total GULP energy -178934.858428 kJ/mol
# GULP energy per Si atom -5591.714326 kJ/mol
# Density = 2.048720 g / cm^3
# Si number density = 20.533940 Si / 1000 Ang^3
#
#
#
# Elastic Constant Matrix: (Units=GPa)
#
#
# Indices 1 2 3 4 5 6 
#
# 1 54.2544 -3.7174 -1.2008 0.0000 -11.2338 0.0001
# 2 -3.7174 73.7253 11.8672 0.0001 -17.5672 0.0002
# 3 -1.2008 11.8672 110.2878 0.0001 -8.0285 0.0001
# 4 0.0000 0.0001 0.0001 -1.2929 0.0000 5.7422
# 5 -11.2338 -17.5672 -8.0285 0.0000 31.6348 0.0001
# 6 0.0001 0.0002 0.0001 5.7422 0.0001 -4.2602
#
#
#
# Elastic Compliance Matrix: (Units=1/GPa)
#
#
# Indices 1 2 3 4 5 6 
#
# 1 0.020560 0.003136 0.000555 -0.000001 0.009183 0.000000
# 2 0.003136 0.016235 -0.000994 -0.000001 0.009877 0.000000
# 3 0.000555 -0.000994 0.009327 0.000000 0.002012 0.000000
# 4 -0.000001 -0.000001 0.000000 0.155115 -0.000002 0.209075
# 5 0.009183 0.009877 0.002012 -0.000002 0.040867 -0.000001
# 6 0.000000 0.000000 0.000000 0.209075 -0.000001 0.047075
#
#
# Mechanical properties :
#
#
# Convention : Reuss Voigt Hill
#
# Bulk Modulus (GPa) = 19.41156 28.01839 23.71498
# Shear Modulus (GPa) = 16.61361 20.63757 18.62559
#
# Velocity S-wave (km/s) = 2.84752 3.17369 3.01502
# Velocity P-wave (km/s) = 4.50390 5.20617 4.86772
#
# Compressibility (1/GPa) = 0.05151570
#
# Stress axis : x y z
#
# Youngs Moduli (GPa) = 48.63747 61.59375 107.21973
#
# Poissons Ratio (x) = -0.19313 -0.05950
# Poissons Ratio (y) = -0.15250 0.10656
# Poissons Ratio (z) = -0.02699 0.06121
#
# Static dielectric constant tensor:
#      x y z
#    x 1.712100 0.000000 -0.014890 
#    y 0.000000 1.858600 0.000000 
#    z -0.014890 0.000000 1.709450 
# 
# From -- ./inp_files/285234.got.cif
#   From: 2010.05.17/outbox.cif.g08.bks.cpg/sg12_143_cif.got.tgz:285234.got - 2010.06.03 13:09:07.
