data_PCOD9189753
_publ_section_title
;
Structure prediction by ZEFSAII (Michael W. Deem and Ramdas Pophale) SiO2 
 PCOD9189753
Probable space group: C 2/M
;
_chemical_formula_sum "Si O2"
_cell_formula_units_Z 56
_cell_length_a 19.379463
_cell_length_b 18.548367
_cell_length_c 8.315007
_cell_angle_alpha 90.000000
_cell_angle_beta 105.032251
_cell_angle_gamma 90.000000
_cell_volume 2886.610853
_symmetry_space_group_name_H-M "C 2/M"
_symmetry_group_IT_number 12
_symmetry_cell_setting 'monoclinic'
loop_
_space_group_symop_operation_xyz
x,y,z
-x,y,-z
-x,-y,-z
x,-y,z
1/2+x,1/2+y,z
1/2-x,1/2+y,-z
1/2-x,1/2-y,-z
1/2+x,1/2-y,z
loop_
_atom_site_type_symbol
_atom_site_label
_atom_site_fract_x
_atom_site_fract_y
_atom_site_fract_z
Si Si1 0.654147 0.579275 0.733619
Si Si2 0.353351 0.283176 0.476406
Si Si3 0.789805 0.415525 0.041416
Si Si4 0.229454 0.196405 0.235958
Si Si5 0.524860 0.741353 0.256235
Si Si6 0.493261 0.577808 0.186192
Si Si7 0.387459 0.213692 0.007370
O O1 0.655255 0.500000 0.658676
O O2 0.635098 0.640829 0.599121
O O3 0.590418 0.580353 0.823616
O O4 0.729542 0.590535 0.866397
O O5 0.300533 0.239772 0.327766
O O6 0.315021 0.299999 0.624790
O O7 0.426202 0.240903 0.561373
O O8 0.806860 0.500000 0.072604
O O9 0.754296 0.379706 0.178557
O O10 0.855599 0.364708 0.027464
O O11 0.180683 0.235188 0.070765
O O12 0.526899 0.653751 0.256653
O O13 0.566396 0.776459 0.128725
O O14 0.442403 0.761924 0.179608
O O15 0.520605 0.500000 0.267682
O O16 0.500000 0.576538 0.000000
#
# Coordination Sequence:
#
# PCOD9189753 Si02
#       7
#     8   8   8   8   8   8   8
#     4  10  22  38  59  90 122 159 197 240 297 358
#     4  10  22  37  58  90 121 154 192 247 302 354
#     4  11  23  38  63  89 115 157 207 250 296 349
#     4  10  21  38  61  85 120 155 198 247 301 344
#     4  10  21  35  59  89 117 158 201 240 303 348
#     4  10  20  35  55  84 122 156 193 235 286 358
#     4  10  19  38  62  87 116 153 203 249 282 354
#
# _framework density 19.399913999999999
#
# number of rings (size 3 to 8) (size 9 to 14) (size 15 to 20)
#    0.000    1.857    2.857    1.286    4.000    1.714 
#    0.000    2.857    0.000    1.714    0.000    0.000 
#    0.000    0.000    0.000    0.000    0.000    0.000 
#
# Total GULP energy -156156.393300 kJ/mol
# GULP energy per Si atom -5577.014046 kJ/mol
# Density = 1.935576 g / cm^3
# Si number density = 19.399914 Si / 1000 Ang^3
#
#
#
# Elastic Constant Matrix: (Units=GPa)
#
#
# Indices 1 2 3 4 5 6 
#
# 1 96.2842 51.2176 52.6180 0.0000 18.4960 0.0000
# 2 51.2176 130.3731 45.7618 0.0000 7.9769 0.0000
# 3 52.6180 45.7618 100.1797 0.0000 29.2005 0.0000
# 4 0.0000 0.0000 0.0000 3.2224 0.0000 7.3277
# 5 18.4960 7.9769 29.2005 0.0000 28.2099 0.0000
# 6 0.0000 0.0000 0.0000 7.3277 0.0000 25.5000
#
#
#
# Elastic Compliance Matrix: (Units=1/GPa)
#
#
# Indices 1 2 3 4 5 6 
#
# 1 0.016431 -0.004266 -0.005575 0.000000 -0.003796 0.000000
# 2 -0.004266 0.010366 -0.003516 0.000000 0.003506 0.000000
# 3 -0.005575 -0.003516 0.018848 0.000000 -0.014860 0.000000
# 4 0.000000 0.000000 0.000000 0.895507 0.000000 -0.257332
# 5 -0.003796 0.003506 -0.014860 0.000000 0.052328 0.000000
# 6 0.000000 0.000000 0.000000 -0.257332 0.000000 0.113163
#
#
# Mechanical properties :
#
#
# Convention : Reuss Voigt Hill
#
# Bulk Modulus (GPa) = 52.82507 69.55909 61.19208
# Shear Modulus (GPa) = 4.38724 23.20242 13.79483
#
# Velocity S-wave (km/s) = 1.50545 3.46208 2.66950
# Velocity P-wave (km/s) = 5.50550 7.20518 6.41191
#
# Compressibility (1/GPa) = 0.01893041
#
# Stress axis : x y z
#
# Youngs Moduli (GPa) = 60.86050 96.46985 53.05586
#
# Poissons Ratio (x) = 0.41153 0.29579
# Poissons Ratio (y) = 0.25962 0.18656
# Poissons Ratio (z) = 0.33930 0.33922
#
# Static dielectric constant tensor:
#      x y z
#    x 1.366540 0.000000 0.188650 
#    y 0.000000 1.686640 0.000000 
#    z 0.188650 0.000000 1.609130 
# 
# From -- ./inp_files/75978.got.cif
#   From: 2010.05.17/outbox.cif.g08.bks.cpg/sg12_38_cif.got.tgz:75978.got - 2010.06.03 13:09:07.
