data_PCOD9189417
_publ_section_title
;
Structure prediction by ZEFSAII (Michael W. Deem and Ramdas Pophale) SiO2 
 PCOD9189417
Probable space group: C 2/M
;
_chemical_formula_sum "Si O2"
_cell_formula_units_Z 56
_cell_length_a 27.349961
_cell_length_b 18.863020
_cell_length_c 9.631841
_cell_angle_alpha 90.000000
_cell_angle_beta 37.361457
_cell_angle_gamma 90.000000
_cell_volume 3015.451653
_symmetry_space_group_name_H-M "C 2/M"
_symmetry_group_IT_number 12
_symmetry_cell_setting 'monoclinic'
loop_
_space_group_symop_operation_xyz
x,y,z
-x,y,-z
-x,-y,-z
x,-y,z
1/2+x,1/2+y,z
1/2-x,1/2+y,-z
1/2-x,1/2-y,-z
1/2+x,1/2-y,z
loop_
_atom_site_type_symbol
_atom_site_label
_atom_site_fract_x
_atom_site_fract_y
_atom_site_fract_z
Si Si1 0.704957 0.832726 0.972827
Si Si2 0.489419 0.654550 0.857593
Si Si3 0.870345 0.084287 0.639663
Si Si4 0.150835 0.084477 0.992542
Si Si5 0.211442 0.692035 0.282303
Si Si6 0.533457 0.811718 0.772343
Si Si7 0.452404 0.918256 0.752622
O O1 0.784352 0.881639 0.797450
O O2 0.730525 0.760361 0.838514
O O3 0.687096 0.813164 0.174225
O O4 0.630190 0.874609 0.078664
O O5 0.561772 0.617501 0.610597
O O6 0.408021 0.618560 0.987320
O O7 0.493697 0.737915 0.812157
O O8 0.500000 0.647740 0.000000
O O9 0.884001 0.098590 0.773217
O O10 0.868567 0.000000 0.625855
O O11 0.156976 0.000000 0.961695
O O12 0.237033 0.123053 0.795238
O O13 0.129554 0.699156 0.552223
O O14 0.508300 0.876845 0.733841
O O15 0.500000 0.824937 0.000000
O O16 0.500000 0.918117 0.500000
O O17 0.436909 0.000000 0.826291
#
# Coordination Sequence:
#
# PCOD9189417 Si02
#       7
#     8   8   8   8   8   8   8
#     4  10  19  37  62  94 119 148 204 253 297 347
#     4  11  23  40  59  88 121 159 200 243 297 356
#     4  10  20  36  61  89 122 156 193 246 302 359
#     4  10  22  38  61  90 119 155 197 246 300 358
#     4  10  20  38  63  90 118 158 201 245 299 351
#     4  11  24  43  62  86 122 162 202 244 298 361
#     4  11  23  39  64  93 122 157 201 252 299 350
#
# _framework density 18.571016
#
# number of rings (size 3 to 8) (size 9 to 14) (size 15 to 20)
#    0.000    1.571    2.857    2.143    0.000    4.857 
#    2.571    2.143    0.000    0.000    0.000    0.000 
#    0.000    0.000    0.000    0.000    0.000    0.000 
#
# Total GULP energy -156415.743360 kJ/mol
# GULP energy per Si atom -5586.276549 kJ/mol
# Density = 1.852875 g / cm^3
# Si number density = 18.571016 Si / 1000 Ang^3
#
#
#
# Elastic Constant Matrix: (Units=GPa)
#
#
# Indices 1 2 3 4 5 6 
#
# 1 43.9575 40.4585 28.8174 0.0000 -13.3700 0.0000
# 2 40.4585 125.0602 41.2976 0.0000 -0.4491 0.0000
# 3 28.8174 41.2976 89.7730 0.0000 -5.6489 0.0000
# 4 0.0000 0.0000 0.0000 -13.9164 0.0000 -5.1482
# 5 -13.3700 -0.4491 -5.6489 0.0000 19.3319 0.0000
# 6 0.0000 0.0000 0.0000 -5.1482 0.0000 -10.6758
#
#
#
# Elastic Compliance Matrix: (Units=1/GPa)
#
#
# Indices 1 2 3 4 5 6 
#
# 1 0.050032 -0.013480 -0.007846 0.000000 0.031996 0.000000
# 2 -0.013480 0.013082 -0.002301 0.000000 -0.009691 0.000000
# 3 -0.007846 -0.002301 0.014641 0.000000 -0.001202 0.000000
# 4 0.000000 0.000000 0.000000 -0.087460 0.000000 0.042176
# 5 0.031996 -0.009691 -0.001202 0.000000 0.073280 0.000000
# 6 0.000000 0.000000 0.000000 0.042176 0.000000 -0.114008
#
#
# Mechanical properties :
#
#
# Convention : Reuss Voigt Hill
#
# Bulk Modulus (GPa) = 32.78577 53.32641 43.05609
# Shear Modulus (GPa) = 715.57637 8.82908 362.20273
#
# Velocity S-wave (km/s) = 19.65084 2.18278 13.98070
# Velocity P-wave (km/s) = 23.07740 5.92705 16.84780
#
# Compressibility (1/GPa) = 0.03050104
#
# Stress axis : x y z
#
# Youngs Moduli (GPa) = 19.98729 76.44051 68.30358
#
# Poissons Ratio (x) = 1.03043 0.53590
# Poissons Ratio (y) = 0.26943 0.15715
# Poissons Ratio (z) = 0.15682 0.17587
#
# Static dielectric constant tensor:
#      x y z
#    x 1.618760 0.000000 0.005340 
#    y 0.000000 1.637290 0.000000 
#    z 0.005340 0.000000 1.620700 
# 
# From -- ./inp_files/105928.got.cif
#   From: 2010.05.17/outbox.cif.g08.bks.cpg/sg12_53_cif.got.tgz:105928.got - 2010.06.03 13:09:07.
