data_PCOD9189141
_publ_section_title
;
Structure prediction by ZEFSAII (Michael W. Deem and Ramdas Pophale) SiO2 
 PCOD9189141
Probable space group: C 2/M
;
_chemical_formula_sum "Si O2"
_cell_formula_units_Z 40
_cell_length_a 25.710236
_cell_length_b 13.485863
_cell_length_c 7.774962
_cell_angle_alpha 90.000000
_cell_angle_beta 128.669604
_cell_angle_gamma 90.000000
_cell_volume 2104.755955
_symmetry_space_group_name_H-M "C 2/M"
_symmetry_group_IT_number 12
_symmetry_cell_setting 'monoclinic'
loop_
_space_group_symop_operation_xyz
x,y,z
-x,y,-z
-x,-y,-z
x,-y,z
1/2+x,1/2+y,z
1/2-x,1/2+y,-z
1/2-x,1/2-y,-z
1/2+x,1/2-y,z
loop_
_atom_site_type_symbol
_atom_site_label
_atom_site_fract_x
_atom_site_fract_y
_atom_site_fract_z
Si Si1 0.605602 0.110412 0.945974
Si Si2 0.679931 0.796192 0.802918
Si Si3 0.676801 0.214173 0.407000
Si Si4 0.564813 0.690217 0.732548
Si Si5 0.077459 0.887677 0.123016
O O1 0.657024 0.121099 0.892594
O O2 0.553995 0.199728 0.797096
O O3 0.577973 0.000000 0.899200
O O4 0.645087 0.141062 0.199767
O O5 0.680050 0.828101 0.605879
O O6 0.624445 0.711251 0.724197
O O7 0.750000 0.750000 0.000000
O O8 0.750000 0.250000 0.500000
O O9 0.627783 0.309120 0.307368
O O10 0.500000 0.655673 0.500000
O O11 0.585625 0.622202 0.933755
O O12 0.089975 0.000000 0.205975
O O13 0.000000 0.863741 0.000000
#
# Coordination Sequence:
#
# PCOD9189141 Si02
#       5
#     8   8   8   8   8
#     4   9  21  36  57  86 114 148 192 234 284 350
#     4  10  19  37  58  81 115 152 191 238 289 343
#     4  11  20  38  63  81 120 157 194 243 296 347
#     4   9  19  36  59  81 117 155 185 241 287 343
#     4  10  21  37  59  90 121 154 200 244 294 353
#
# _framework density 19.004580000000001
#
# number of rings (size 3 to 8) (size 9 to 14) (size 15 to 20)
#    1.200    1.000    2.000    1.200    0.000    2.400 
#    0.000    4.000    0.000    3.600    0.000    0.000 
#    0.000    0.000    0.000    0.000    0.000    0.000 
#
# Total GULP energy -111359.663024 kJ/mol
# GULP energy per Si atom -5567.983151 kJ/mol
# Density = 1.896132 g / cm^3
# Si number density = 19.004580 Si / 1000 Ang^3
#
#
#
# Elastic Constant Matrix: (Units=GPa)
#
#
# Indices 1 2 3 4 5 6 
#
# 1 72.2856 -0.3992 15.0552 0.0000 -14.4731 0.0000
# 2 -0.3992 70.9348 -0.0537 0.0000 2.8508 0.0000
# 3 15.0552 -0.0537 82.9284 0.0000 -23.7616 0.0000
# 4 0.0000 0.0000 0.0000 7.7901 0.0000 1.7242
# 5 -14.4731 2.8508 -23.7616 0.0000 46.6971 0.0000
# 6 0.0000 0.0000 0.0000 1.7242 0.0000 17.7846
#
#
#
# Elastic Compliance Matrix: (Units=1/GPa)
#
#
# Indices 1 2 3 4 5 6 
#
# 1 0.014934 -0.000070 -0.001620 0.000000 0.003808 0.000000
# 2 -0.000070 0.014138 -0.000271 0.000000 -0.001023 0.000000
# 3 -0.001620 -0.000271 0.014298 0.000000 0.006790 0.000000
# 4 0.000000 0.000000 0.000000 0.131182 0.000000 -0.012718
# 5 0.003808 -0.001023 0.006790 0.000000 0.026113 0.000000
# 6 0.000000 0.000000 0.000000 -0.012718 0.000000 0.057461
#
#
# Mechanical properties :
#
#
# Convention : Reuss Voigt Hill
#
# Bulk Modulus (GPa) = 25.35048 28.37257 26.86152
# Shear Modulus (GPa) = 18.16877 28.55746 23.36311
#
# Velocity S-wave (km/s) = 3.09531 3.88062 3.51000
# Velocity P-wave (km/s) = 5.11299 5.91952 5.53098
#
# Compressibility (1/GPa) = 0.03944698
#
# Stress axis : x y z
#
# Youngs Moduli (GPa) = 66.96330 70.73155 69.93955
#
# Poissons Ratio (x) = 0.00497 0.11329
# Poissons Ratio (y) = 0.00470 0.01897
# Poissons Ratio (z) = 0.10847 0.01918
#
# Static dielectric constant tensor:
#      x y z
#    x 1.664870 0.000000 -0.023430 
#    y 0.000000 1.668930 0.000000 
#    z -0.023430 0.000000 1.645100 
# 
# From -- ./inp_files/103774.got.cif
#   From: 2010.05.17/outbox.cif.g08.bks.cpg/sg12_52_cif.got.tgz:103774.got - 2010.06.03 13:09:07.
