data_PCOD9189525
_publ_section_title
;
Structure prediction by ZEFSAII (Michael W. Deem and Ramdas Pophale) SiO2 
 PCOD9189525
Probable space group: C 2/M
;
_chemical_formula_sum "Si O2"
_cell_formula_units_Z 64
_cell_length_a 17.081693
_cell_length_b 31.190192
_cell_length_c 11.557355
_cell_angle_alpha 90.000000
_cell_angle_beta 149.243463
_cell_angle_gamma 90.000000
_cell_volume 3148.912613
_symmetry_space_group_name_H-M "C 2/M"
_symmetry_group_IT_number 12
_symmetry_cell_setting 'monoclinic'
loop_
_space_group_symop_operation_xyz
x,y,z
-x,y,-z
-x,-y,-z
x,-y,z
1/2+x,1/2+y,z
1/2-x,1/2+y,-z
1/2-x,1/2-y,-z
1/2+x,1/2-y,z
loop_
_atom_site_type_symbol
_atom_site_label
_atom_site_fract_x
_atom_site_fract_y
_atom_site_fract_z
Si Si1 0.884072 0.698525 0.086439
Si Si2 0.284362 0.082280 0.386413
Si Si3 0.836780 0.622904 0.855771
Si Si4 0.345165 0.547359 0.004092
Si Si5 0.622897 0.171293 0.562229
Si Si6 0.415812 0.621562 0.663851
Si Si7 0.905449 0.548267 0.120245
Si Si8 0.629767 0.701943 0.967009
O O1 0.752928 0.694830 0.019038
O O2 0.044961 0.681357 0.341509
O O3 0.832568 0.667947 0.917829
O O4 0.908020 0.748006 0.085509
O O5 0.194412 0.053378 0.181101
O O6 0.358463 0.120504 0.405582
O O7 0.174648 0.106575 0.336704
O O8 0.418787 0.058660 0.625941
O O9 0.700291 0.620457 0.590697
O O10 0.837876 0.584085 0.949220
O O11 0.000000 0.620142 0.000000
O O12 0.414002 0.500000 0.110318
O O13 0.190419 0.549533 0.882613
O O14 0.452131 0.585935 0.181145
O O15 0.500000 0.187373 0.500000
O O16 0.782547 0.191806 0.801782
O O17 0.493871 0.668029 0.777813
O O18 0.892494 0.500000 0.055875
#
# Coordination Sequence:
#
# PCOD9189525 Si02
#       8
#     8   8   8   8   8   8   8   8
#     4  10  22  42  67  93 133 179 221 269 320 396
#     4  12  22  42  67  96 134 171 214 270 335 392
#     4  12  25  47  64  94 132 179 221 264 332 405
#     4  11  25  43  67 102 131 168 223 279 337 388
#     4  10  19  37  65  91 124 168 215 268 321 383
#     4  12  26  42  65  99 139 172 216 273 336 395
#     4  11  24  44  71  96 128 176 228 272 322 400
#     4  10  23  40  65 102 130 170 224 272 332 384
#
# _framework density 20.324477000000002
#
# number of rings (size 3 to 8) (size 9 to 14) (size 15 to 20)
#    0.000    1.000    3.750    2.625    1.750    5.250 
#    2.250    2.500    0.000    0.000    0.000    0.000 
#    0.000    0.000    0.000    0.000    0.000    0.000 
#
# Total GULP energy -178843.202298 kJ/mol
# GULP energy per Si atom -5588.850072 kJ/mol
# Density = 2.027822 g / cm^3
# Si number density = 20.324477 Si / 1000 Ang^3
#
#
#
# Elastic Constant Matrix: (Units=GPa)
#
#
# Indices 1 2 3 4 5 6 
#
# 1 63.6008 37.6940 19.3166 0.0000 -2.1974 0.0000
# 2 37.6940 134.4768 48.5185 0.0000 4.7450 0.0000
# 3 19.3166 48.5185 101.9483 0.0000 -0.8246 0.0000
# 4 0.0000 0.0000 0.0000 -4.3373 0.0000 10.6990
# 5 -2.1974 4.7450 -0.8246 0.0000 22.7920 0.0000
# 6 0.0000 0.0000 0.0000 10.6990 0.0000 15.1380
#
#
#
# Elastic Compliance Matrix: (Units=1/GPa)
#
#
# Indices 1 2 3 4 5 6 
#
# 1 0.019176 -0.005038 -0.001212 0.000000 0.002854 0.000000
# 2 -0.005038 0.010396 -0.004016 0.000000 -0.002795 0.000000
# 3 -0.001212 -0.004016 0.011959 0.000000 0.001152 0.000000
# 4 0.000000 0.000000 0.000000 -0.084041 0.000000 0.059397
# 5 0.002854 -0.002795 0.001152 0.000000 0.044774 0.000000
# 6 0.000000 0.000000 0.000000 0.059397 0.000000 0.024079
#
#
# Mechanical properties :
#
#
# Convention : Reuss Voigt Hill
#
# Bulk Modulus (GPa) = 47.62307 56.78714 52.20511
# Shear Modulus (GPa) = 92.80853 19.68499 56.24676
#
# Velocity S-wave (km/s) = 6.76480 3.11551 5.26635
# Velocity P-wave (km/s) = 9.19233 6.39865 7.91965
#
# Compressibility (1/GPa) = 0.02099822
#
# Stress axis : x y z
#
# Youngs Moduli (GPa) = 52.14869 96.19202 83.61923
#
# Poissons Ratio (x) = 0.48464 0.10139
# Poissons Ratio (y) = 0.26274 0.33577
# Poissons Ratio (z) = 0.06323 0.38626
#
# Static dielectric constant tensor:
#      x y z
#    x 1.755580 0.000000 0.017660 
#    y 0.000000 1.703060 0.000000 
#    z 0.017660 0.000000 1.719040 
# 
# From -- ./inp_files/161225.got.cif
#   From: 2010.05.17/outbox.cif.g08.bks.cpg/sg12_81_cif.got.tgz:161225.got - 2010.06.03 13:09:07.
