data_PCOD9189782
_publ_section_title
;
Structure prediction by ZEFSAII (Michael W. Deem and Ramdas Pophale) SiO2 
 PCOD9189782
Probable space group: C 2/M
;
_chemical_formula_sum "Si O2"
_cell_formula_units_Z 60
_cell_length_a 24.698786
_cell_length_b 9.314776
_cell_length_c 14.779567
_cell_angle_alpha 90.000000
_cell_angle_beta 66.484619
_cell_angle_gamma 90.000000
_cell_volume 3117.861419
_symmetry_space_group_name_H-M "C 2/M"
_symmetry_group_IT_number 12
_symmetry_cell_setting 'monoclinic'
loop_
_space_group_symop_operation_xyz
x,y,z
-x,y,-z
-x,-y,-z
x,-y,z
1/2+x,1/2+y,z
1/2-x,1/2+y,-z
1/2-x,1/2-y,-z
1/2+x,1/2-y,z
loop_
_atom_site_type_symbol
_atom_site_label
_atom_site_fract_x
_atom_site_fract_y
_atom_site_fract_z
Si Si1 0.380682 0.327442 0.336111
Si Si2 0.494618 0.168113 0.736480
Si Si3 0.815449 0.737348 0.054738
Si Si4 0.945993 0.668931 0.971948
Si Si5 0.235346 0.500000 0.040615
Si Si6 0.556412 0.328708 0.396492
Si Si7 0.830068 0.173677 0.563013
Si Si8 0.706443 0.833012 0.728767
O O1 0.385319 0.500000 0.328993
O O2 0.444527 0.256303 0.303623
O O3 0.343510 0.286392 0.450880
O O4 0.346812 0.261796 0.273524
O O5 0.466477 0.177500 0.854540
O O6 0.453798 0.239345 0.687291
O O7 0.505149 0.000000 0.709302
O O8 0.779233 0.876528 0.052966
O O9 0.789439 0.676805 0.166148
O O10 0.885399 0.754455 0.023532
O O11 0.805606 0.624263 0.981113
O O12 0.933996 0.500000 0.002319
O O13 0.000000 0.715575 0.000000
O O14 0.500000 0.308887 0.500000
O O15 0.560144 0.500000 0.374431
O O16 0.615213 0.282023 0.410318
O O17 0.767249 0.221114 0.643133
O O18 0.829708 0.000000 0.566274
O O19 0.696969 0.000000 0.709856
#
# Coordination Sequence:
#
# PCOD9189782 Si02
#       8
#     8   8   8   8   4   8   8   8
#     4  11  22  40  63  87 128 163 201 256 305 362
#     4  11  23  38  61  94 121 162 208 252 309 366
#     4  11  22  45  65  94 127 166 205 264 310 375
#     4  10  21  41  65  91 126 168 208 255 316 374
#     4  10  24  40  70  90 126 166 208 254 322 364
#     4  10  19  38  63  84 121 164 202 248 306 368
#     4   9  20  38  60  90 123 162 206 247 304 365
#     4  11  22  39  64  93 120 163 208 247 302 369
#
# _framework density 19.243959
#
# number of rings (size 3 to 8) (size 9 to 14) (size 15 to 20)
#    0.000    1.600    2.667    2.000    0.933    3.467 
#    4.800    1.667    0.000    0.000    0.000    0.000 
#    0.000    0.000    0.000    0.000    0.000    0.000 
#
# Total GULP energy -167020.007859 kJ/mol
# GULP energy per Si atom -5567.333595 kJ/mol
# Density = 1.920016 g / cm^3
# Si number density = 19.243959 Si / 1000 Ang^3
#
#
#
# Elastic Constant Matrix: (Units=GPa)
#
#
# Indices 1 2 3 4 5 6 
#
# 1 97.4055 19.5261 15.7018 0.0000 19.0762 0.0000
# 2 19.5261 69.0926 13.9557 0.0000 13.4750 0.0000
# 3 15.7018 13.9557 46.9558 0.0000 2.8838 0.0000
# 4 0.0000 0.0000 0.0000 7.8439 0.0000 9.5451
# 5 19.0762 13.4750 2.8838 0.0000 28.5241 0.0000
# 6 0.0000 0.0000 0.0000 9.5451 0.0000 3.2840
#
#
#
# Elastic Compliance Matrix: (Units=1/GPa)
#
#
# Indices 1 2 3 4 5 6 
#
# 1 0.012531 -0.001436 -0.003311 0.000000 -0.007367 0.000000
# 2 -0.001436 0.017020 -0.004169 0.000000 -0.006659 0.000000
# 3 -0.003311 -0.004169 0.023532 0.000000 0.001805 0.000000
# 4 0.000000 0.000000 0.000000 -0.050251 0.000000 0.146060
# 5 -0.007367 -0.006659 0.001805 0.000000 0.042948 0.000000
# 6 0.000000 0.000000 0.000000 0.146060 0.000000 -0.120027
#
#
# Mechanical properties :
#
#
# Convention : Reuss Voigt Hill
#
# Bulk Modulus (GPa) = 28.36844 34.64680 31.50762
# Shear Modulus (GPa) = -111.94337 18.88175 -46.53081
#
# Velocity S-wave (km/s) = -7.63524 3.13577 -4.92259
# Velocity P-wave (km/s) = 7.93447 5.58156 3.98760
#
# Compressibility (1/GPa) = 0.03525044
#
# Stress axis : x y z
#
# Youngs Moduli (GPa) = 79.80387 58.75497 42.49505
#
# Poissons Ratio (x) = 0.08435 0.14070
# Poissons Ratio (y) = 0.11457 0.17718
# Poissons Ratio (z) = 0.26424 0.24497
#
# Static dielectric constant tensor:
#      x y z
#    x 1.671730 0.000000 -0.019870 
#    y 0.000000 1.639330 0.000000 
#    z -0.019870 0.000000 1.694120 
# 
# From -- ./inp_files/238521.got.cif
#   From: 2010.05.17/outbox.cif.g08.bks.cpg/sg12_120_cif.got.tgz:238521.got - 2010.06.03 13:09:07.
