data_PCOD9189891
_publ_section_title
;
Structure prediction by ZEFSAII (Michael W. Deem and Ramdas Pophale) SiO2 
 PCOD9189891
Probable space group: C 2/M
;
_chemical_formula_sum "Si O2"
_cell_formula_units_Z 64
_cell_length_a 11.610835
_cell_length_b 14.802664
_cell_length_c 28.185398
_cell_angle_alpha 90.000000
_cell_angle_beta 32.848899
_cell_angle_gamma 90.000000
_cell_volume 2627.650011
_symmetry_space_group_name_H-M "C 2/M"
_symmetry_group_IT_number 12
_symmetry_cell_setting 'monoclinic'
loop_
_space_group_symop_operation_xyz
x,y,z
-x,y,-z
-x,-y,-z
x,-y,z
1/2+x,1/2+y,z
1/2-x,1/2+y,-z
1/2-x,1/2-y,-z
1/2+x,1/2-y,z
loop_
_atom_site_type_symbol
_atom_site_label
_atom_site_fract_x
_atom_site_fract_y
_atom_site_fract_z
Si Si1 0.744208 0.102409 0.924112
Si Si2 0.287183 0.602640 0.094682
Si Si3 0.421774 0.102584 0.674939
Si Si4 0.108550 0.817940 0.848621
Si Si5 0.146114 0.608075 0.405223
Si Si6 0.660939 0.605908 0.406271
Si Si7 0.678295 0.104253 0.746986
Si Si8 0.618003 0.351019 0.225843
O O1 0.855552 0.101596 0.833898
O O2 0.866394 0.168411 0.917796
O O3 0.752885 0.000000 0.940678
O O4 0.500000 0.125358 0.000000
O O5 0.280135 0.500000 0.077786
O O6 0.324980 0.603723 0.137817
O O7 0.056823 0.645610 0.165054
O O8 0.500000 0.646900 0.000000
O O9 0.241969 0.169996 0.754373
O O10 0.481360 0.118582 0.599903
O O11 0.614150 0.108784 0.644945
O O12 0.337465 0.000000 0.706163
O O13 0.216300 0.731836 0.835183
O O14 0.199292 0.500000 0.391698
O O15 0.367756 0.661343 0.322772
O O16 0.000000 0.632846 0.500000
O O17 0.500000 0.647952 0.500000
O O18 0.593421 0.500000 0.423808
O O19 0.691767 0.643551 0.342554
O O20 0.798782 0.103108 0.754738
O O21 0.635838 0.000000 0.747182
#
# Coordination Sequence:
#
# PCOD9189891 Si02
#       8
#     8   8   8   8   8   8   8   8
#     4  11  26  48  74 101 133 183 240 286 338 414
#     4  10  22  40  66  96 128 169 220 278 340 407
#     4  10  19  38  66  91 123 174 232 281 331 404
#     4  12  25  42  68  94 137 179 224 280 343 411
#     4  10  22  42  71 101 132 179 240 293 340 405
#     4   9  18  32  57  92 123 157 209 274 333 388
#     4  10  21  38  60  89 129 168 215 274 335 400
#     4  12  27  42  66  98 140 177 223 284 349 407
#
# _framework density 24.356363999999999
#
# number of rings (size 3 to 8) (size 9 to 14) (size 15 to 20)
#    0.000    1.500    2.500    2.250    5.250    1.000 
#    0.000    1.250    0.000    0.000    0.000    0.000 
#    0.000    0.000    0.000    0.000    0.000    0.000 
#
# Total GULP energy -178769.284516 kJ/mol
# GULP energy per Si atom -5586.540141 kJ/mol
# Density = 2.430093 g / cm^3
# Si number density = 24.356364 Si / 1000 Ang^3
#
#
#
# Elastic Constant Matrix: (Units=GPa)
#
#
# Indices 1 2 3 4 5 6 
#
# 1 87.0777 1.4136 4.2213 0.0061 1.9876 0.0099
# 2 1.4136 74.2918 -4.7965 -0.0039 -9.5314 0.0004
# 3 4.2213 -4.7965 104.5510 0.0120 3.9124 -0.0013
# 4 0.0061 -0.0039 0.0120 9.7544 -0.0049 -13.5143
# 5 1.9876 -9.5314 3.9124 -0.0049 38.6142 0.0043
# 6 0.0099 0.0004 -0.0013 -13.5143 0.0043 1.9520
#
#
#
# Elastic Compliance Matrix: (Units=1/GPa)
#
#
# Indices 1 2 3 4 5 6 
#
# 1 0.011526 -0.000329 -0.000457 0.000010 -0.000628 0.000012
# 2 -0.000329 0.013937 0.000525 0.000001 0.003404 -0.000004
# 3 -0.000457 0.000525 0.009638 0.000000 -0.000823 0.000008
# 4 0.000010 0.000001 0.000000 -0.011932 0.000007 -0.082608
# 5 -0.000628 0.003404 -0.000823 0.000007 0.026853 -0.000006
# 6 0.000012 -0.000004 0.000008 -0.082608 -0.000006 -0.059625
#
#
# Mechanical properties :
#
#
# Convention : Reuss Voigt Hill
#
# Bulk Modulus (GPa) = 28.91918 29.73304 29.32611
# Shear Modulus (GPa) = 2044.09103 27.73626 1035.91364
#
# Velocity S-wave (km/s) = 29.00112 3.37823 20.64555
# Velocity P-wave (km/s) = 33.66481 5.23933 24.09118
#
# Compressibility (1/GPa) = 0.03457913
#
# Stress axis : x y z
#
# Youngs Moduli (GPa) = 86.76164 71.74969 103.75521
#
# Poissons Ratio (x) = 0.02364 0.04741
# Poissons Ratio (y) = 0.02858 -0.05450
# Poissons Ratio (z) = 0.03965 -0.03769
#
# Static dielectric constant tensor:
#      x y z
#    x 1.873300 0.000000 0.005600 
#    y 0.000000 2.037600 -0.000010 
#    z 0.005600 -0.000010 1.960980 
# 
# From -- ./inp_files/374414.got.cif
#   From: 2010.05.17/outbox.cif.g08.bks.cpg/sg12_188_cif.got.tgz:374414.got - 2010.06.03 13:09:07.
