data_PCOD9189544
_publ_section_title
;
Structure prediction by ZEFSAII (Michael W. Deem and Ramdas Pophale) SiO2 
 PCOD9189544
Probable space group: C 2/M
;
_chemical_formula_sum "Si O2"
_cell_formula_units_Z 44
_cell_length_a 19.318200
_cell_length_b 7.543417
_cell_length_c 17.487309
_cell_angle_alpha 90.000000
_cell_angle_beta 40.844998
_cell_angle_gamma 90.000000
_cell_volume 1666.653863
_symmetry_space_group_name_H-M "C 2/M"
_symmetry_group_IT_number 12
_symmetry_cell_setting 'monoclinic'
loop_
_space_group_symop_operation_xyz
x,y,z
-x,y,-z
-x,-y,-z
x,-y,z
1/2+x,1/2+y,z
1/2-x,1/2+y,-z
1/2-x,1/2-y,-z
1/2+x,1/2-y,z
loop_
_atom_site_type_symbol
_atom_site_label
_atom_site_fract_x
_atom_site_fract_y
_atom_site_fract_z
Si Si1 0.869853 0.000000 0.792928
Si Si2 0.342599 0.209574 0.684458
Si Si3 0.611232 0.701856 0.689235
Si Si4 0.851567 0.713975 0.506408
Si Si5 0.384706 0.709081 0.069714
Si Si6 0.388118 0.187994 0.901196
O O1 0.877753 0.156557 0.719874
O O2 0.862782 0.152865 0.867065
O O3 0.385437 0.252069 0.564014
O O4 0.213208 0.227363 0.790549
O O5 0.365309 0.000000 0.681176
O O6 0.607564 0.500000 0.720714
O O7 0.728800 0.771981 0.601936
O O8 0.591876 0.701706 0.613658
O O9 0.515294 0.804750 0.805280
O O10 0.855109 0.500000 0.493056
O O11 0.397155 0.500000 0.042935
O O12 0.500000 0.774062 0.000000
O O13 0.348036 0.797394 0.021360
O O14 0.357104 0.000000 0.892821
#
# Coordination Sequence:
#
# PCOD9189544 Si02
#       6
#     4   8   8   8   8   8
#     4  12  26  46  63  90 130 172 227 258 308 380
#     4  10  23  43  65  94 128 171 212 264 316 381
#     4  10  19  37  65  97 132 166 205 262 326 383
#     4   9  19  37  64  98 131 163 205 262 324 384
#     4  10  21  43  70  99 132 165 206 268 332 381
#     4  12  25  43  64  94 128 171 217 268 314 378
#
# _framework density 26.400203999999999
#
# number of rings (size 3 to 8) (size 9 to 14) (size 15 to 20)
#    0.000    1.636    1.818    2.182    2.545    4.727 
#    3.273    1.818    0.000    3.273    0.000    0.000 
#    0.000    0.000    0.000    0.000    0.000    0.000 
#
# Total GULP energy -122814.450761 kJ/mol
# GULP energy per Si atom -5582.475035 kJ/mol
# Density = 2.634012 g / cm^3
# Si number density = 26.400204 Si / 1000 Ang^3
#
#
#
# Elastic Constant Matrix: (Units=GPa)
#
#
# Indices 1 2 3 4 5 6 
#
# 1 111.7821 24.2149 14.9838 0.0003 7.3564 -0.0001
# 2 24.2149 142.7727 6.9181 0.0012 25.6201 -0.0008
# 3 14.9838 6.9181 92.7344 0.0003 21.0190 -0.0002
# 4 0.0003 0.0012 0.0003 13.1295 -0.0004 20.4242
# 5 7.3564 25.6201 21.0190 -0.0004 65.4498 0.0001
# 6 -0.0001 -0.0008 -0.0002 20.4242 0.0001 25.9416
#
#
#
# Elastic Compliance Matrix: (Units=1/GPa)
#
#
# Indices 1 2 3 4 5 6 
#
# 1 0.009469 -0.001536 -0.001413 0.000000 -0.000009 0.000000
# 2 -0.001536 0.007784 0.000344 0.000005 -0.002985 -0.000004
# 3 -0.001413 0.000344 0.011843 0.000002 -0.003779 -0.000002
# 4 0.000000 0.000005 0.000002 -0.338892 -0.000005 0.266815
# 5 -0.000009 -0.002985 -0.003779 -0.000005 0.017662 0.000004
# 6 0.000000 -0.000004 -0.000002 0.266815 0.000004 -0.171519
#
#
# Mechanical properties :
#
#
# Convention : Reuss Voigt Hill
#
# Bulk Modulus (GPa) = 41.86759 48.83587 45.35173
# Shear Modulus (GPa) = -11.09920 40.98235 14.94158
#
# Velocity S-wave (km/s) = -2.05264 3.94426 2.38158
# Velocity P-wave (km/s) = 3.20554 6.26749 4.97779
#
# Compressibility (1/GPa) = 0.02388482
#
# Stress axis : x y z
#
# Youngs Moduli (GPa) = 105.61086 128.47613 84.43997
#
# Poissons Ratio (x) = 0.19731 0.11934
# Poissons Ratio (y) = 0.16220 -0.02905
# Poissons Ratio (z) = 0.14926 -0.04419
#
# Static dielectric constant tensor:
#      x y z
#    x 2.126410 0.000000 -0.092050 
#    y 0.000000 1.977850 0.000000 
#    z -0.092050 0.000000 2.040480 
# 
# From -- ./inp_files/279993.got.cif
#   From: 2010.05.17/outbox.cif.g08.bks.cpg/sg12_140_cif.got.tgz:279993.got - 2010.06.03 13:09:07.
