data_PCOD9189281
_publ_section_title
;
Structure prediction by ZEFSAII (Michael W. Deem and Ramdas Pophale) SiO2 
 PCOD9189281
Probable space group: C 2/M
;
_chemical_formula_sum "Si O2"
_cell_formula_units_Z 48
_cell_length_a 18.575750
_cell_length_b 30.828930
_cell_length_c 8.273318
_cell_angle_alpha 90.000000
_cell_angle_beta 33.211889
_cell_angle_gamma 90.000000
_cell_volume 2595.114237
_symmetry_space_group_name_H-M "C 2/M"
_symmetry_group_IT_number 12
_symmetry_cell_setting 'monoclinic'
loop_
_space_group_symop_operation_xyz
x,y,z
-x,y,-z
-x,-y,-z
x,-y,z
1/2+x,1/2+y,z
1/2-x,1/2+y,-z
1/2-x,1/2-y,-z
1/2+x,1/2-y,z
loop_
_atom_site_type_symbol
_atom_site_label
_atom_site_fract_x
_atom_site_fract_y
_atom_site_fract_z
Si Si1 0.584962 0.500000 0.140193
Si Si2 0.127346 0.674417 0.868370
Si Si3 0.782353 0.000000 0.755062
Si Si4 0.134622 0.427313 0.842433
Si Si5 0.138799 0.180551 0.829005
Si Si6 0.882131 0.252403 0.851968
Si Si7 0.635968 0.583380 0.843056
O O1 0.426596 0.500000 0.398887
O O2 0.655664 0.500000 0.182195
O O3 0.630572 0.545168 0.980054
O O4 0.125909 0.623087 0.911689
O O5 0.250509 0.685906 0.519138
O O6 0.116815 0.703058 0.048190
O O7 0.000000 0.683649 0.000000
O O8 0.691126 0.040796 0.874469
O O9 0.247460 0.427574 0.496573
O O10 0.000000 0.439563 0.000000
O O11 0.158179 0.132169 0.864346
O O12 0.129099 0.215327 0.989535
O O13 0.000000 0.181901 0.000000
O O14 0.000000 0.248225 0.500000
O O15 0.750000 0.250000 0.000000
O O16 0.500000 0.584078 0.000000
#
# Coordination Sequence:
#
# PCOD9189281 Si02
#       7
#     4   8   4   8   8   8   8
#     4  11  22  36  58  88 122 158 179 238 303 361
#     4  10  21  40  63  82 115 160 202 239 290 352
#     4  11  22  37  56  89 124 151 188 234 307 351
#     4  10  21  38  62  86 111 153 203 245 280 341
#     4  10  21  38  61  87 112 153 203 248 280 339
#     4  12  24  38  58  89 122 154 189 245 305 352
#     4  10  19  37  61  84 112 152 204 238 279 343
#
# _framework density 18.496296000000001
#
# number of rings (size 3 to 8) (size 9 to 14) (size 15 to 20)
#    0.000    1.500    1.667    4.000    0.000    1.333 
#    3.000    1.667    0.000    0.000    0.000    0.000 
#    0.000    0.000    0.000    0.000    0.000    0.000 
#
# Total GULP energy -133752.874597 kJ/mol
# GULP energy per Si atom -5573.036442 kJ/mol
# Density = 1.845420 g / cm^3
# Si number density = 18.496296 Si / 1000 Ang^3
#
#
#
# Elastic Constant Matrix: (Units=GPa)
#
#
# Indices 1 2 3 4 5 6 
#
# 1 100.0842 63.2652 36.2902 0.0000 -18.9079 0.0000
# 2 63.2652 98.6826 29.7312 0.0000 9.4743 0.0000
# 3 36.2902 29.7312 108.8568 0.0000 -22.0515 0.0000
# 4 0.0000 0.0000 0.0000 29.0678 0.0000 24.3253
# 5 -18.9079 9.4743 -22.0515 0.0000 31.5659 0.0000
# 6 0.0000 0.0000 0.0000 24.3253 0.0000 33.3974
#
#
#
# Elastic Compliance Matrix: (Units=1/GPa)
#
#
# Indices 1 2 3 4 5 6 
#
# 1 0.025609 -0.018795 0.000986 0.000000 0.021669 0.000000
# 2 -0.018795 0.026034 -0.005484 0.000000 -0.022903 0.000000
# 3 0.000986 -0.005484 0.012590 0.000000 0.011032 0.000000
# 4 0.000000 0.000000 0.000000 0.088103 0.000000 -0.064171
# 5 0.021669 -0.022903 0.011032 0.000000 0.059241 0.000000
# 6 0.000000 0.000000 0.000000 -0.064171 0.000000 0.076682
#
#
# Mechanical properties :
#
#
# Convention : Reuss Voigt Hill
#
# Bulk Modulus (GPa) = 56.67035 62.91075 59.79055
# Shear Modulus (GPa) = 14.67443 30.69537 22.68490
#
# Velocity S-wave (km/s) = 2.81974 4.07817 3.50588
# Velocity P-wave (km/s) = 6.42701 7.50078 6.98456
#
# Compressibility (1/GPa) = 0.01764591
#
# Stress axis : x y z
#
# Youngs Moduli (GPa) = 39.04924 38.41102 79.42516
#
# Poissons Ratio (x) = 0.72194 -0.07829
# Poissons Ratio (y) = 0.73393 0.43559
# Poissons Ratio (z) = -0.03849 0.21066
#
# Static dielectric constant tensor:
#      x y z
#    x 1.594190 0.000000 0.018090 
#    y 0.000000 2.061890 0.000000 
#    z 0.018090 0.000000 1.674570 
# 
# From -- ./inp_files/80634.got.cif
#   From: 2010.05.17/outbox.cif.g08.bks.cpg/sg12_41_cif.got.tgz:80634.got - 2010.06.03 13:09:07.
