data_PCOD9189184
_publ_section_title
;
Structure prediction by ZEFSAII (Michael W. Deem and Ramdas Pophale) SiO2 
 PCOD9189184
Probable space group: C 2/M
;
_chemical_formula_sum "Si O2"
_cell_formula_units_Z 56
_cell_length_a 8.160092
_cell_length_b 29.262941
_cell_length_c 17.677212
_cell_angle_alpha 90.000000
_cell_angle_beta 141.546785
_cell_angle_gamma 90.000000
_cell_volume 2625.005192
_symmetry_space_group_name_H-M "C 2/M"
_symmetry_group_IT_number 12
_symmetry_cell_setting 'monoclinic'
loop_
_space_group_symop_operation_xyz
x,y,z
-x,y,-z
-x,-y,-z
x,-y,z
1/2+x,1/2+y,z
1/2-x,1/2+y,-z
1/2-x,1/2-y,-z
1/2+x,1/2-y,z
loop_
_atom_site_type_symbol
_atom_site_label
_atom_site_fract_x
_atom_site_fract_y
_atom_site_fract_z
Si Si1 0.501677 0.910489 0.692995
Si Si2 0.707787 0.896662 0.928202
Si Si3 0.650453 0.000000 0.440993
Si Si4 0.129474 0.689132 0.404830
Si Si5 0.658095 0.269830 0.665095
Si Si6 0.440471 0.500000 0.698033
Si Si7 0.377407 0.177042 0.880411
Si Si8 0.599794 0.586291 0.845175
O O1 0.524026 0.911887 0.792217
O O2 0.381365 0.864108 0.615586
O O3 0.800924 0.909998 0.768473
O O4 0.348271 0.954278 0.607556
O O5 0.610816 0.846770 0.917226
O O6 0.725999 0.922560 0.015780
O O7 0.000000 0.896529 0.000000
O O8 0.874184 0.000000 0.585625
O O9 0.355567 0.000000 0.372180
O O10 0.149387 0.713127 0.330383
O O11 0.385108 0.704658 0.544011
O O12 0.886206 0.715387 0.355297
O O13 0.742374 0.287639 0.776623
O O14 0.589287 0.544810 0.782398
O O15 0.197768 0.133637 0.842609
O O16 0.500000 0.198189 0.000000
#
# Coordination Sequence:
#
# PCOD9189184 Si02
#       8
#     8   8   4   8   8   4   8   8
#     4  10  19  37  59  87 119 158 198 249 297 345
#     4   9  18  36  59  83 111 155 203 243 297 353
#     4   9  20  33  56  88 125 155 202 240 296 359
#     4  10  22  39  62  86 120 157 200 247 293 353
#     4  10  22  40  59  87 118 155 202 243 294 355
#     4   9  18  37  49  86 125 153 200 246 287 362
#     4  10  20  38  58  86 119 153 196 245 296 355
#     4   9  20  33  59  83 115 160 196 243 297 350
#
# _framework density 21.333290999999999
#
# number of rings (size 3 to 8) (size 9 to 14) (size 15 to 20)
#    0.000    2.429    1.429    0.000    4.000    0.571 
#    0.000    9.643    0.000    2.571    0.000    0.000 
#    0.000    0.000    0.000    0.000    0.000    0.000 
#
# Total GULP energy -156222.213376 kJ/mol
# GULP energy per Si atom -5579.364763 kJ/mol
# Density = 2.128474 g / cm^3
# Si number density = 21.333291 Si / 1000 Ang^3
#
#
#
# Elastic Constant Matrix: (Units=GPa)
#
#
# Indices 1 2 3 4 5 6 
#
# 1 31.6361 1.5760 11.0033 0.0000 -13.6938 0.0000
# 2 1.5760 109.7942 56.3660 0.0000 -16.3380 0.0000
# 3 11.0033 56.3660 141.8574 0.0000 -40.3805 0.0000
# 4 0.0000 0.0000 0.0000 18.3834 0.0000 -3.9856
# 5 -13.6938 -16.3380 -40.3805 0.0000 27.2437 0.0000
# 6 0.0000 0.0000 0.0000 -3.9856 0.0000 12.2534
#
#
#
# Elastic Compliance Matrix: (Units=1/GPa)
#
#
# Indices 1 2 3 4 5 6 
#
# 1 0.042378 0.001451 0.004234 0.000000 0.028446 0.000000
# 2 0.001451 0.011492 -0.004341 0.000000 0.001187 0.000000
# 3 0.004234 -0.004341 0.014376 0.000000 0.020833 0.000000
# 4 0.000000 0.000000 0.000000 0.058524 0.000000 0.019036
# 5 0.028446 0.001187 0.020833 0.000000 0.082594 0.000000
# 6 0.000000 0.000000 0.000000 0.019036 0.000000 0.087801
#
#
# Mechanical properties :
#
#
# Convention : Reuss Voigt Hill
#
# Bulk Modulus (GPa) = 14.09764 46.79758 30.44761
# Shear Modulus (GPa) = 15.71722 25.86562 20.79142
#
# Velocity S-wave (km/s) = 2.71725 3.48581 3.12524
# Velocity P-wave (km/s) = 4.05798 6.17942 5.22745
#
# Compressibility (1/GPa) = 0.07093384
#
# Stress axis : x y z
#
# Youngs Moduli (GPa) = 23.59726 87.01423 69.56035
#
# Poissons Ratio (x) = -0.12627 -0.29450
# Poissons Ratio (y) = -0.03424 0.30197
# Poissons Ratio (z) = -0.09990 0.37774
#
# Static dielectric constant tensor:
#      x y z
#    x 1.831870 0.000000 0.017510 
#    y 0.000000 1.733320 0.000000 
#    z 0.017510 0.000000 1.784030 
# 
# From -- ./inp_files/259900.got.cif
#   From: 2010.05.17/outbox.cif.g08.bks.cpg/sg12_130_cif.got.tgz:259900.got - 2010.06.03 13:09:07.
