data_PCOD9189698
_publ_section_title
;
Structure prediction by ZEFSAII (Michael W. Deem and Ramdas Pophale) SiO2 
 PCOD9189698
Probable space group: C 2/M
;
_chemical_formula_sum "Si O2"
_cell_formula_units_Z 36
_cell_length_a 19.191809
_cell_length_b 8.978790
_cell_length_c 10.774918
_cell_angle_alpha 90.000000
_cell_angle_beta 67.974280
_cell_angle_gamma 90.000000
_cell_volume 1721.213500
_symmetry_space_group_name_H-M "C 2/M"
_symmetry_group_IT_number 12
_symmetry_cell_setting 'monoclinic'
loop_
_space_group_symop_operation_xyz
x,y,z
-x,y,-z
-x,-y,-z
x,-y,z
1/2+x,1/2+y,z
1/2-x,1/2+y,-z
1/2-x,1/2-y,-z
1/2+x,1/2-y,z
loop_
_atom_site_type_symbol
_atom_site_label
_atom_site_fract_x
_atom_site_fract_y
_atom_site_fract_z
Si Si1 0.820076 0.177168 0.732121
Si Si2 0.346763 0.819202 0.183551
Si Si3 0.000000 0.727312 0.000000
Si Si4 0.457301 0.833494 0.751385
Si Si5 0.881932 0.322427 0.443423
O O1 0.734011 0.218974 0.818332
O O2 0.883249 0.237991 0.782287
O O3 0.842447 0.240845 0.582413
O O4 0.822663 0.000000 0.725975
O O5 0.344487 0.798602 0.333814
O O6 0.362011 0.000000 0.151984
O O7 0.415163 0.718519 0.086802
O O8 0.017084 0.656485 0.122908
O O9 0.530581 0.775384 0.629579
O O10 0.441016 0.000000 0.716818
O O11 0.881518 0.500000 0.464639
#
# Coordination Sequence:
#
# PCOD9189698 Si02
#       5
#     8   8   4   8   8
#     4  11  22  33  50  82 116 139 165 211 271 320
#     4   9  18  33  55  80 105 136 176 220 260 305
#     4  10  19  38  61  76  97 138 187 224 257 302
#     4  10  20  35  58  81 101 135 182 222 254 303
#     4   9  18  35  57  79 104 138 181 218 249 301
#
# _framework density 20.915476999999999
#
# number of rings (size 3 to 8) (size 9 to 14) (size 15 to 20)
#    0.000    2.222    0.000    5.333    0.000    4.444 
#    0.000    1.667    0.000    5.333    0.000    0.000 
#    0.000    0.000    0.000    0.000    0.000    0.000 
#
# Total GULP energy -100250.769330 kJ/mol
# GULP energy per Si atom -5569.487185 kJ/mol
# Density = 2.086787 g / cm^3
# Si number density = 20.915477 Si / 1000 Ang^3
#
#
#
# Elastic Constant Matrix: (Units=GPa)
#
#
# Indices 1 2 3 4 5 6 
#
# 1 173.3757 37.8729 27.7942 0.0000 -36.5945 0.0000
# 2 37.8729 20.0375 3.7037 0.0000 -14.6264 0.0000
# 3 27.7942 3.7037 58.2471 0.0000 -20.6519 0.0000
# 4 0.0000 0.0000 0.0000 -5.0803 0.0000 -3.0578
# 5 -36.5945 -14.6264 -20.6519 0.0000 24.5373 0.0000
# 6 0.0000 0.0000 0.0000 -3.0578 0.0000 12.9138
#
#
#
# Elastic Compliance Matrix: (Units=1/GPa)
#
#
# Indices 1 2 3 4 5 6 
#
# 1 0.010690 -0.017347 -0.002867 0.000000 0.003189 0.000000
# 2 -0.017347 0.133345 0.026808 0.000000 0.076177 0.000000
# 3 -0.002867 0.026808 0.029906 0.000000 0.036874 0.000000
# 4 0.000000 0.000000 0.000000 -0.172285 0.000000 -0.040795
# 5 0.003189 0.076177 0.036874 0.000000 0.121954 0.000000
# 6 0.000000 0.000000 0.000000 -0.040795 0.000000 0.067777
#
#
# Mechanical properties :
#
#
# Convention : Reuss Voigt Hill
#
# Bulk Modulus (GPa) = 5.34396 43.37796 24.36096
# Shear Modulus (GPa) = 20.78349 18.62679 19.70514
#
# Velocity S-wave (km/s) = 3.15570 2.98749 3.07275
# Velocity P-wave (km/s) = 3.97977 5.71706 4.92561
#
# Compressibility (1/GPa) = 0.18712698
#
# Stress axis : x y z
#
# Youngs Moduli (GPa) = 93.54511 7.49935 33.43846
#
# Poissons Ratio (x) = 0.13009 0.09588
# Poissons Ratio (y) = 1.62276 -0.89641
# Poissons Ratio (z) = 0.26822 -0.20104
#
# Static dielectric constant tensor:
#      x y z
#    x 1.785700 0.000000 -0.021070 
#    y 0.000000 1.717960 0.000000 
#    z -0.021070 0.000000 1.759130 
# 
# From -- ./inp_files/151552.got.cif
#   From: 2010.05.17/outbox.cif.g08.bks.cpg/sg12_76_cif.got.tgz:151552.got - 2010.06.03 13:09:07.
