data_PCOD9189973
_publ_section_title
;
Structure prediction by ZEFSAII (Michael W. Deem and Ramdas Pophale) SiO2 
 PCOD9189973
Probable space group: C 2/M
;
_chemical_formula_sum "Si O2"
_cell_formula_units_Z 56
_cell_length_a 26.976218
_cell_length_b 18.966628
_cell_length_c 18.138982
_cell_angle_alpha 90.000000
_cell_angle_beta 17.711313
_cell_angle_gamma 90.000000
_cell_volume 2823.407166
_symmetry_space_group_name_H-M "C 2/M"
_symmetry_group_IT_number 12
_symmetry_cell_setting 'monoclinic'
loop_
_space_group_symop_operation_xyz
x,y,z
-x,y,-z
-x,-y,-z
x,-y,z
1/2+x,1/2+y,z
1/2-x,1/2+y,-z
1/2-x,1/2-y,-z
1/2+x,1/2-y,z
loop_
_atom_site_type_symbol
_atom_site_label
_atom_site_fract_x
_atom_site_fract_y
_atom_site_fract_z
Si Si1 0.825962 0.349370 0.914198
Si Si2 0.153432 0.578961 0.476475
Si Si3 0.671025 0.247717 0.232210
Si Si4 0.020222 0.081569 0.277904
Si Si5 0.278045 0.670583 0.431290
Si Si6 0.140898 0.869494 0.948288
Si Si7 0.326242 0.914833 0.280088
O O1 0.866371 0.298418 0.788237
O O2 0.964481 0.407587 0.724885
O O3 0.805950 0.303666 0.016230
O O4 0.646542 0.378325 0.150303
O O5 0.176907 0.500000 0.474674
O O6 0.205743 0.642362 0.456856
O O7 0.260413 0.585917 0.251002
O O8 0.500000 0.279095 0.500000
O O9 0.746293 0.195146 0.185368
O O10 0.089761 0.090517 0.096030
O O11 0.833433 0.107668 0.540789
O O12 0.019373 0.000000 0.299217
O O13 0.250000 0.750000 0.500000
O O14 0.471640 0.657467 0.154580
O O15 0.199867 0.620010 0.603927
O O16 0.320013 0.000000 0.294655
O O17 0.500000 0.894885 0.000000
#
# Coordination Sequence:
#
# PCOD9189973 Si02
#       7
#     8   8   8   8   8   8   8
#     4  10  21  36  58  91 121 160 201 245 302 364
#     4  12  24  39  62  91 128 163 198 254 316 372
#     4  10  19  39  61  84 121 159 201 250 301 358
#     4   9  18  35  59  85 116 151 197 248 294 357
#     4  11  24  41  58  88 123 159 202 251 303 369
#     4  10  21  38  60  89 117 155 201 247 308 367
#     4   9  19  39  64  85 111 156 207 250 297 354
#
# _framework density 19.834192999999999
#
# number of rings (size 3 to 8) (size 9 to 14) (size 15 to 20)
#    0.000    1.857    1.429    2.571    0.000    4.571 
#    5.143    2.143    0.000    0.857    0.000    0.000 
#    0.000    0.000    0.000    0.000    0.000    0.000 
#
# Total GULP energy -156255.257095 kJ/mol
# GULP energy per Si atom -5580.544896 kJ/mol
# Density = 1.978905 g / cm^3
# Si number density = 19.834193 Si / 1000 Ang^3
#
#
#
# Elastic Constant Matrix: (Units=GPa)
#
#
# Indices 1 2 3 4 5 6 
#
# 1 50.1070 17.0350 23.4126 -0.0016 -4.9542 -0.0002
# 2 17.0350 59.5192 27.8592 -0.0143 0.7926 0.0055
# 3 23.4126 27.8592 132.2163 -0.0092 -4.8201 0.0033
# 4 -0.0016 -0.0143 -0.0092 16.4435 -0.0004 3.0944
# 5 -4.9542 0.7926 -4.8201 -0.0004 12.5501 0.0003
# 6 -0.0002 0.0055 0.0033 3.0944 0.0003 26.3316
#
#
#
# Elastic Compliance Matrix: (Units=1/GPa)
#
#
# Indices 1 2 3 4 5 6 
#
# 1 0.024050 -0.005722 -0.002732 -0.000004 0.008806 0.000002
# 2 -0.005722 0.020093 -0.003397 0.000016 -0.004832 -0.000006
# 3 -0.002732 -0.003397 0.008855 0.000002 0.002537 -0.000001
# 4 -0.000004 0.000016 0.000002 0.062189 0.000000 -0.007308
# 5 0.008806 -0.004832 0.002537 0.000000 0.084436 0.000000
# 6 0.000002 -0.000006 -0.000001 -0.007308 0.000000 0.038836
#
#
# Mechanical properties :
#
#
# Convention : Reuss Voigt Hill
#
# Bulk Modulus (GPa) = 34.13296 42.05067 38.09181
# Shear Modulus (GPa) = 18.38730 22.63410 20.51070
#
# Velocity S-wave (km/s) = 3.04805 3.38178 3.21924
# Velocity P-wave (km/s) = 5.44371 6.04117 5.75021
#
# Compressibility (1/GPa) = 0.02929720
#
# Stress axis : x y z
#
# Youngs Moduli (GPa) = 41.58046 49.76806 112.92576
#
# Poissons Ratio (x) = 0.28476 0.30852
# Poissons Ratio (y) = 0.23791 0.38359
# Poissons Ratio (z) = 0.11360 0.16905
#
# Static dielectric constant tensor:
#      x y z
#    x 1.701240 0.000000 -0.017730 
#    y 0.000000 1.704620 0.000000 
#    z -0.017730 0.000000 1.688780 
# 
# From -- ./inp_files/293856.got.cif
#   From: 2010.05.17/outbox.cif.g08.bks.cpg/sg12_147_cif.got.tgz:293856.got - 2010.06.03 13:09:07.
