data_PCOD9189808
_publ_section_title
;
Structure prediction by ZEFSAII (Michael W. Deem and Ramdas Pophale) SiO2 
 PCOD9189808
Probable space group: C 2/M
;
_chemical_formula_sum "Si O2"
_cell_formula_units_Z 64
_cell_length_a 8.563854
_cell_length_b 23.848783
_cell_length_c 20.703783
_cell_angle_alpha 90.000000
_cell_angle_beta 132.558454
_cell_angle_gamma 90.000000
_cell_volume 3114.652859
_symmetry_space_group_name_H-M "C 2/M"
_symmetry_group_IT_number 12
_symmetry_cell_setting 'monoclinic'
loop_
_space_group_symop_operation_xyz
x,y,z
-x,y,-z
-x,-y,-z
x,-y,z
1/2+x,1/2+y,z
1/2-x,1/2+y,-z
1/2-x,1/2-y,-z
1/2+x,1/2-y,z
loop_
_atom_site_type_symbol
_atom_site_label
_atom_site_fract_x
_atom_site_fract_y
_atom_site_fract_z
Si Si1 0.245280 0.351091 0.579417
Si Si2 0.195589 0.314843 0.972055
Si Si3 0.285838 0.438804 0.479996
Si Si4 0.540543 0.062534 0.727717
Si Si5 0.472166 0.175337 0.209386
Si Si6 0.590476 0.434972 0.263990
Si Si7 0.404784 0.726449 0.272922
Si Si8 0.212171 0.850199 0.869661
O O1 0.302766 0.388104 0.533569
O O2 0.294051 0.394369 0.652016
O O3 0.394686 0.297394 0.632201
O O4 0.000000 0.336090 0.500000
O O5 0.201920 0.322093 0.896647
O O6 0.954031 0.333257 0.921374
O O7 0.250000 0.250000 0.000000
O O8 0.323937 0.347639 0.063603
O O9 0.500000 0.441631 0.500000
O O10 0.250394 0.500000 0.502503
O O11 0.103086 0.431372 0.376239
O O12 0.487989 0.111091 0.762444
O O13 0.776501 0.067394 0.765245
O O14 0.505270 0.000000 0.743938
O O15 0.403297 0.208279 0.254903
O O16 0.691420 0.203934 0.246811
O O17 0.583166 0.500000 0.282831
O O18 0.363380 0.407704 0.184030
O O19 0.415147 0.697471 0.204813
#
# Coordination Sequence:
#
# PCOD9189808 Si02
#       8
#     8   8   8   8   8   8   8   8
#     4  11  21  37  61  91 124 161 220 264 315 382
#     4  10  19  38  63  92 121 158 207 258 308 381
#     4  10  20  35  58  86 118 160 216 271 310 365
#     4  10  22  40  62  87 122 170 214 261 319 378
#     4  11  23  40  64  92 127 164 209 263 322 394
#     4  10  21  38  62  90 128 169 209 263 321 380
#     4  10  23  38  59  92 126 164 201 263 328 377
#     4   9  20  37  59  93 126 154 207 256 314 375
#
# _framework density 20.548037999999998
#
# number of rings (size 3 to 8) (size 9 to 14) (size 15 to 20)
#    0.000    1.875    2.500    1.125    3.500    0.500 
#    0.000   11.875    0.000    1.500    0.000    0.000 
#    0.000    0.000    0.000    0.000    0.000    0.000 
#
# Total GULP energy -178480.284329 kJ/mol
# GULP energy per Si atom -5577.508885 kJ/mol
# Density = 2.050127 g / cm^3
# Si number density = 20.548038 Si / 1000 Ang^3
#
#
#
# Elastic Constant Matrix: (Units=GPa)
#
#
# Indices 1 2 3 4 5 6 
#
# 1 53.9957 21.3178 10.9187 0.0000 2.6545 0.0000
# 2 21.3178 93.3613 31.4004 0.0000 -6.7166 0.0000
# 3 10.9187 31.4004 78.6737 0.0000 5.1301 0.0000
# 4 0.0000 0.0000 0.0000 30.7861 0.0000 5.4271
# 5 2.6545 -6.7166 5.1301 0.0000 20.1083 0.0000
# 6 0.0000 0.0000 0.0000 5.4271 0.0000 27.8046
#
#
#
# Elastic Compliance Matrix: (Units=1/GPa)
#
#
# Indices 1 2 3 4 5 6 
#
# 1 0.020763 -0.004809 -0.000690 0.000000 -0.004171 0.000000
# 2 -0.004809 0.014110 -0.005403 0.000000 0.006726 0.000000
# 3 -0.000690 -0.005403 0.015330 0.000000 -0.005624 0.000000
# 4 0.000000 0.000000 0.000000 0.033640 0.000000 -0.006566
# 5 -0.004171 0.006726 -0.005624 0.000000 0.053963 0.000000
# 6 0.000000 0.000000 0.000000 -0.006566 0.000000 0.037247
#
#
# Mechanical properties :
#
#
# Convention : Reuss Voigt Hill
#
# Bulk Modulus (GPa) = 35.21259 39.25606 37.23433
# Shear Modulus (GPa) = 24.23383 26.56605 25.39994
#
# Velocity S-wave (km/s) = 3.43793 3.59956 3.51967
# Velocity P-wave (km/s) = 5.73873 6.03504 5.88875
#
# Compressibility (1/GPa) = 0.02839893
#
# Stress axis : x y z
#
# Youngs Moduli (GPa) = 48.16204 70.87071 65.23290
#
# Poissons Ratio (x) = 0.34081 0.04503
# Poissons Ratio (y) = 0.23161 0.35245
# Poissons Ratio (z) = 0.03325 0.38291
#
# Static dielectric constant tensor:
#      x y z
#    x 1.835690 0.000000 0.018120 
#    y 0.000000 1.747370 0.000000 
#    z 0.018120 0.000000 1.761860 
# 
# From -- ./inp_files/302338.got.cif
#   From: 2010.05.17/outbox.cif.g08.bks.cpg/sg12_152_cif.got.tgz:302338.got - 2010.06.03 13:09:07.
