data_PCOD9189394
_publ_section_title
;
Structure prediction by ZEFSAII (Michael W. Deem and Ramdas Pophale) SiO2 
 PCOD9189394
Probable space group: C 2/M
;
_chemical_formula_sum "Si O2"
_cell_formula_units_Z 64
_cell_length_a 11.738735
_cell_length_b 14.227515
_cell_length_c 29.072881
_cell_angle_alpha 90.000000
_cell_angle_beta 36.210886
_cell_angle_gamma 90.000000
_cell_volume 2868.459688
_symmetry_space_group_name_H-M "C 2/M"
_symmetry_group_IT_number 12
_symmetry_cell_setting 'monoclinic'
loop_
_space_group_symop_operation_xyz
x,y,z
-x,y,-z
-x,-y,-z
x,-y,z
1/2+x,1/2+y,z
1/2-x,1/2+y,-z
1/2-x,1/2-y,-z
1/2+x,1/2-y,z
loop_
_atom_site_type_symbol
_atom_site_label
_atom_site_fract_x
_atom_site_fract_y
_atom_site_fract_z
Si Si1 0.566838 0.895536 0.781250
Si Si2 0.069481 0.107128 0.171378
Si Si3 0.353814 0.183198 0.010326
Si Si4 0.283418 0.893555 0.364351
Si Si5 0.255754 0.610397 0.044433
Si Si6 0.097603 0.836420 0.265455
Si Si7 0.373684 0.851003 0.685109
Si Si8 0.148300 0.689553 0.413890
O O1 0.630284 0.853433 0.712320
O O2 0.374207 0.863840 0.869401
O O3 0.745721 0.898234 0.758229
O O4 0.515100 0.000000 0.783524
O O5 0.126696 0.155551 0.201189
O O6 0.837821 0.104898 0.245194
O O7 0.148963 0.160749 0.100794
O O8 0.140215 0.000000 0.148138
O O9 0.386826 0.296121 0.993396
O O10 0.500000 0.147913 0.000000
O O11 0.376344 0.123217 0.957250
O O12 0.449582 0.902451 0.348235
O O13 0.159298 0.802637 0.417788
O O14 0.199742 0.000000 0.384933
O O15 0.321408 0.500000 0.025476
O O16 0.867101 0.851144 0.348352
O O17 0.142648 0.739102 0.276303
O O18 0.415510 0.829016 0.617971
O O19 0.000000 0.650708 0.500000
#
# Coordination Sequence:
#
# PCOD9189394 Si02
#       8
#     8   8   8   8   8   8   8   8
#     4  10  19  37  62  88 118 153 201 250 302 357
#     4  11  23  39  63  90 123 162 209 257 309 366
#     4  11  24  40  61  90 124 164 206 253 309 365
#     4  10  21  37  60  89 119 154 197 250 303 359
#     4  10  23  42  61  87 125 163 204 256 306 362
#     4  10  20  35  61  90 117 156 200 256 297 359
#     4  10  21  39  62  88 117 158 201 253 297 366
#     4  10  22  39  62  87 120 160 200 242 301 364
#
# _framework density 22.311624999999999
#
# number of rings (size 3 to 8) (size 9 to 14) (size 15 to 20)
#    0.000    1.750    1.250    2.625    3.500    5.500 
#    0.000    0.000    0.000   12.750    0.000    0.000 
#    0.000    0.000    0.000    0.000    0.000    0.000 
#
# Total GULP energy -178207.435338 kJ/mol
# GULP energy per Si atom -5568.982354 kJ/mol
# Density = 2.226084 g / cm^3
# Si number density = 22.311625 Si / 1000 Ang^3
#
#
#
# Elastic Constant Matrix: (Units=GPa)
#
#
# Indices 1 2 3 4 5 6 
#
# 1 106.6408 -3.1829 20.1442 -0.0001 24.5190 0.0000
# 2 -3.1829 85.7290 17.5599 -0.0004 8.3366 0.0003
# 3 20.1442 17.5599 78.1932 -0.0001 8.9132 0.0007
# 4 -0.0001 -0.0004 -0.0001 21.2445 0.0002 15.1509
# 5 24.5190 8.3366 8.9132 0.0002 10.6507 -0.0005
# 6 0.0000 0.0003 0.0007 15.1509 -0.0005 17.4502
#
#
#
# Elastic Compliance Matrix: (Units=1/GPa)
#
#
# Indices 1 2 3 4 5 6 
#
# 1 0.022844 0.006568 -0.000862 0.000005 -0.057008 -0.000006
# 2 0.006568 0.014772 -0.002175 0.000003 -0.024863 -0.000004
# 3 -0.000862 -0.002175 0.014458 0.000002 -0.008413 -0.000002
# 4 0.000005 0.000003 0.000002 0.123611 -0.000024 -0.107324
# 5 -0.057008 -0.024863 -0.008413 -0.000024 0.251632 0.000029
# 6 -0.000006 -0.000004 -0.000002 -0.107324 0.000029 0.150489
#
#
# Mechanical properties :
#
#
# Convention : Reuss Voigt Hill
#
# Bulk Modulus (GPa) = 16.91003 37.73392 27.32197
# Shear Modulus (GPa) = 8.46803 25.60520 17.03662
#
# Velocity S-wave (km/s) = 1.95028 3.39132 2.76629
# Velocity P-wave (km/s) = 3.55906 5.68188 4.74081
#
# Compressibility (1/GPa) = 0.05913650
#
# Stress axis : x y z
#
# Youngs Moduli (GPa) = 43.77602 67.69625 69.16401
#
# Poissons Ratio (x) = -0.44465 0.05960
# Poissons Ratio (y) = -0.28754 0.15046
# Poissons Ratio (z) = 0.03772 0.14726
#
# Static dielectric constant tensor:
#      x y z
#    x 1.844150 0.000000 -0.005920 
#    y 0.000000 1.794720 0.000000 
#    z -0.005920 0.000000 1.922270 
# 
# From -- ./inp_files/358415.got.cif
#   From: 2010.05.17/outbox.cif.g08.bks.cpg/sg12_180_cif.got.tgz:358415.got - 2010.06.03 13:09:07.
