data_PCOD9189906
_publ_section_title
;
Structure prediction by ZEFSAII (Michael W. Deem and Ramdas Pophale) SiO2 
 PCOD9189906
Probable space group: C 2/M
;
_chemical_formula_sum "Si O2"
_cell_formula_units_Z 60
_cell_length_a 19.485801
_cell_length_b 7.520663
_cell_length_c 17.364494
_cell_angle_alpha 90.000000
_cell_angle_beta 70.696593
_cell_angle_gamma 90.000000
_cell_volume 2401.639901
_symmetry_space_group_name_H-M "C 2/M"
_symmetry_group_IT_number 12
_symmetry_cell_setting 'monoclinic'
loop_
_space_group_symop_operation_xyz
x,y,z
-x,y,-z
-x,-y,-z
x,-y,z
1/2+x,1/2+y,z
1/2-x,1/2+y,-z
1/2-x,1/2-y,-z
1/2+x,1/2-y,z
loop_
_atom_site_type_symbol
_atom_site_label
_atom_site_fract_x
_atom_site_fract_y
_atom_site_fract_z
Si Si1 0.017763 0.708028 0.576196
Si Si2 0.838835 0.294781 0.908379
Si Si3 0.221973 0.293661 0.298382
Si Si4 0.212525 0.000000 0.167303
Si Si5 0.532536 0.205811 0.247643
Si Si6 0.324610 0.709794 0.516624
Si Si7 0.914978 0.214880 0.037871
Si Si8 0.384499 0.287237 0.220418
O O1 0.997069 0.500000 0.581240
O O2 0.976624 0.787520 0.664642
O O3 0.104576 0.717319 0.553012
O O4 0.000000 0.788497 0.500000
O O5 0.821337 0.500000 0.898097
O O6 0.907704 0.218741 0.831765
O O7 0.778975 0.156834 0.903107
O O8 0.870450 0.282425 0.982093
O O9 0.218623 0.500000 0.273719
O O10 0.178647 0.278505 0.394304
O O11 0.306604 0.250158 0.286026
O O12 0.202959 0.157166 0.238212
O O13 0.453743 0.211771 0.237895
O O14 0.553026 0.000000 0.248860
O O15 0.332980 0.500000 0.516840
O O16 0.250000 0.750000 0.500000
O O17 0.884541 0.275437 0.131755
O O18 0.912200 0.000000 0.037194
O O19 0.000000 0.266883 0.000000
O O20 0.394536 0.500000 0.216496
#
# Coordination Sequence:
#
# PCOD9189906 Si02
#       8
#     8   8   8   4   8   8   8   8
#     4  10  23  42  64  94 134 179 221 280 343 406
#     4  11  24  42  68 103 136 179 224 276 337 410
#     4  11  25  46  70  97 130 181 232 279 330 401
#     4  12  26  46  69  95 135 184 235 268 335 398
#     4  10  22  37  62  99 136 170 217 277 342 405
#     4  12  25  44  68 100 135 177 229 285 341 406
#     4  10  19  38  67 101 137 176 219 276 346 402
#     4  10  22  39  68  98 133 172 221 279 339 400
#
# _framework density 24.982928000000001
#
# number of rings (size 3 to 8) (size 9 to 14) (size 15 to 20)
#    0.000    1.333    2.667    2.400    3.733    3.733 
#    0.000    0.667    0.000    0.000    0.000    0.000 
#    0.000    0.000    0.000    0.000    0.000    0.000 
#
# Total GULP energy -167543.467535 kJ/mol
# GULP energy per Si atom -5584.782251 kJ/mol
# Density = 2.492607 g / cm^3
# Si number density = 24.982928 Si / 1000 Ang^3
#
#
#
# Elastic Constant Matrix: (Units=GPa)
#
#
# Indices 1 2 3 4 5 6 
#
# 1 85.3495 1.0650 45.8627 0.0000 1.5199 0.0000
# 2 1.0650 134.3328 12.3510 0.0000 14.0799 0.0001
# 3 45.8627 12.3510 116.3106 0.0000 2.9778 0.0000
# 4 0.0000 0.0000 0.0000 21.3552 0.0000 11.6655
# 5 1.5199 14.0799 2.9778 0.0000 48.1832 0.0000
# 6 0.0000 0.0001 0.0000 11.6655 0.0000 18.0927
#
#
#
# Elastic Compliance Matrix: (Units=1/GPa)
#
#
# Indices 1 2 3 4 5 6 
#
# 1 0.014893 0.000450 -0.005914 0.000000 -0.000236 0.000000
# 2 0.000450 0.007761 -0.000945 0.000000 -0.002224 0.000000
# 3 -0.005914 -0.000945 0.011036 0.000000 -0.000219 0.000000
# 4 0.000000 0.000000 0.000000 0.072288 0.000000 -0.046609
# 5 -0.000236 -0.002224 -0.000219 0.000000 0.021425 0.000000
# 6 0.000000 0.000000 0.000000 -0.046609 0.000000 0.085323
#
#
# Mechanical properties :
#
#
# Convention : Reuss Voigt Hill
#
# Bulk Modulus (GPa) = 47.91092 50.50559 49.20826
# Shear Modulus (GPa) = 21.50544 35.97383 28.73963
#
# Velocity S-wave (km/s) = 2.93713 3.79877 3.39539
# Velocity P-wave (km/s) = 5.54269 6.28496 5.92546
#
# Compressibility (1/GPa) = 0.02087207
#
# Stress axis : x y z
#
# Youngs Moduli (GPa) = 67.14466 128.85675 90.61484
#
# Poissons Ratio (x) = -0.05804 0.53593
# Poissons Ratio (y) = -0.03024 0.08561
# Poissons Ratio (z) = 0.39712 0.12174
#
# Static dielectric constant tensor:
#      x y z
#    x 2.031130 0.000000 -0.022280 
#    y 0.000000 1.954980 0.000000 
#    z -0.022280 0.000000 1.992010 
# 
# From -- ./inp_files/238522.got.cif
#   From: 2010.05.17/outbox.cif.g08.bks.cpg/sg12_120_cif.got.tgz:238522.got - 2010.06.03 13:09:07.
