data_PCOD9189935
_publ_section_title
;
Structure prediction by ZEFSAII (Michael W. Deem and Ramdas Pophale) SiO2 
 PCOD9189935
Probable space group: C 2/M
;
_chemical_formula_sum "Si O2"
_cell_formula_units_Z 40
_cell_length_a 16.408498
_cell_length_b 17.523528
_cell_length_c 12.442156
_cell_angle_alpha 90.000000
_cell_angle_beta 152.000230
_cell_angle_gamma 90.000000
_cell_volume 1679.546490
_symmetry_space_group_name_H-M "C 2/M"
_symmetry_group_IT_number 12
_symmetry_cell_setting 'monoclinic'
loop_
_space_group_symop_operation_xyz
x,y,z
-x,y,-z
-x,-y,-z
x,-y,z
1/2+x,1/2+y,z
1/2-x,1/2+y,-z
1/2-x,1/2-y,-z
1/2+x,1/2-y,z
loop_
_atom_site_type_symbol
_atom_site_label
_atom_site_fract_x
_atom_site_fract_y
_atom_site_fract_z
Si Si1 0.854932 0.834843 0.918549
Si Si2 0.885984 0.410913 0.525034
Si Si3 0.576327 0.586388 0.340990
Si Si4 0.795643 0.591441 0.790380
Si Si5 0.667362 0.187736 0.981487
O O1 0.683370 0.869445 0.663998
O O2 0.873681 0.745595 0.966527
O O3 0.000000 0.854148 0.000000
O O4 0.910707 0.875821 0.093505
O O5 0.939139 0.500000 0.569137
O O6 0.727133 0.414548 0.425723
O O7 0.022925 0.356525 0.744531
O O8 0.530573 0.500000 0.313649
O O9 0.668823 0.624273 0.550968
O O10 0.781343 0.500000 0.771435
O O11 0.741269 0.621561 0.843776
O O12 0.000000 0.605848 0.000000
O O13 0.750000 0.250000 0.000000
#
# Coordination Sequence:
#
# PCOD9189935 Si02
#       5
#     8   8   8   8   8
#     4  10  23  39  65  96 130 166 214 273 334 391
#     4  10  21  42  69  94 127 172 220 267 324 395
#     4   9  18  36  67 100 125 155 213 282 330 380
#     4  10  19  38  69  97 123 165 223 277 325 385
#     4  12  26  40  58  93 136 173 216 271 325 392
#
# _framework density 23.815951999999999
#
# number of rings (size 3 to 8) (size 9 to 14) (size 15 to 20)
#    0.000    1.800    2.000    1.800    2.800    4.800 
#    0.000    5.000    0.000    2.400    0.000    0.000 
#    0.000    0.000    0.000    0.000    0.000    0.000 
#
# Total GULP energy -111587.022962 kJ/mol
# GULP energy per Si atom -5579.351148 kJ/mol
# Density = 2.376175 g / cm^3
# Si number density = 23.815952 Si / 1000 Ang^3
#
#
#
# Elastic Constant Matrix: (Units=GPa)
#
#
# Indices 1 2 3 4 5 6 
#
# 1 67.9443 19.5431 33.1097 0.0000 -15.6824 0.0000
# 2 19.5431 131.6678 86.4885 0.0000 -9.5962 0.0000
# 3 33.1097 86.4885 184.5930 0.0000 -45.2410 0.0000
# 4 0.0000 0.0000 0.0000 39.3745 0.0000 -11.8346
# 5 -15.6824 -9.5962 -45.2410 0.0000 36.7229 0.0000
# 6 0.0000 0.0000 0.0000 -11.8346 0.0000 44.6429
#
#
#
# Elastic Compliance Matrix: (Units=1/GPa)
#
#
# Indices 1 2 3 4 5 6 
#
# 1 0.016913 -0.001468 -0.000959 0.000000 0.005657 0.000000
# 2 -0.001468 0.011770 -0.006663 0.000000 -0.005759 0.000000
# 3 -0.000959 -0.006663 0.011724 0.000000 0.012292 0.000000
# 4 0.000000 0.000000 0.000000 0.027596 0.000000 0.007316
# 5 0.005657 -0.005759 0.012292 0.000000 0.043286 0.000000
# 6 0.000000 0.000000 0.000000 0.007316 0.000000 0.024339
#
#
# Mechanical properties :
#
#
# Convention : Reuss Voigt Hill
#
# Bulk Modulus (GPa) = 44.99084 73.60974 59.30029
# Shear Modulus (GPa) = 31.01418 40.48565 35.74991
#
# Velocity S-wave (km/s) = 3.61258 4.12750 3.87859
# Velocity P-wave (km/s) = 6.02769 7.32734 6.70906
#
# Compressibility (1/GPa) = 0.02222674
#
# Stress axis : x y z
#
# Youngs Moduli (GPa) = 59.12451 84.96526 85.29639
#
# Poissons Ratio (x) = 0.12472 0.08184
# Poissons Ratio (y) = 0.08679 0.56831
# Poissons Ratio (z) = 0.05673 0.56610
#
# Static dielectric constant tensor:
#      x y z
#    x 2.422130 0.000000 -0.318140 
#    y 0.000000 1.991630 0.000000 
#    z -0.318140 0.000000 2.196420 
# 
# From -- ./inp_files/158441.got.cif
#   From: 2010.05.17/outbox.cif.g08.bks.cpg/sg12_80_cif.got.tgz:158441.got - 2010.06.03 13:09:07.
