data_PCOD9189796
_publ_section_title
;
Structure prediction by ZEFSAII (Michael W. Deem and Ramdas Pophale) SiO2 
 PCOD9189796
Probable space group: C 2/M
;
_chemical_formula_sum "Si O2"
_cell_formula_units_Z 40
_cell_length_a 18.230164
_cell_length_b 16.819909
_cell_length_c 13.384093
_cell_angle_alpha 90.000000
_cell_angle_beta 28.616055
_cell_angle_gamma 90.000000
_cell_volume 1965.542023
_symmetry_space_group_name_H-M "C 2/M"
_symmetry_group_IT_number 12
_symmetry_cell_setting 'monoclinic'
loop_
_space_group_symop_operation_xyz
x,y,z
-x,y,-z
-x,-y,-z
x,-y,z
1/2+x,1/2+y,z
1/2-x,1/2+y,-z
1/2-x,1/2-y,-z
1/2+x,1/2-y,z
loop_
_atom_site_type_symbol
_atom_site_label
_atom_site_fract_x
_atom_site_fract_y
_atom_site_fract_z
Si Si1 0.045256 0.829223 0.058082
Si Si2 0.755349 0.156313 0.515919
Si Si3 0.647439 0.093928 0.255261
Si Si4 0.414075 0.839672 0.884156
Si Si5 0.318004 0.908469 0.194100
O O1 0.076045 0.750905 0.088660
O O2 0.900931 0.874014 0.280674
O O3 0.197135 0.881576 0.875001
O O4 0.000000 0.803875 0.000000
O O5 0.750000 0.250000 0.500000
O O6 0.587997 0.125146 0.683686
O O7 0.768564 0.141672 0.618328
O O8 0.500000 0.110656 0.500000
O O9 0.639015 0.144843 0.163897
O O10 0.647535 0.000000 0.231034
O O11 0.305134 0.881827 0.095453
O O12 0.276189 0.000000 0.256729
O O13 0.500000 0.899790 0.000000
#
# Coordination Sequence:
#
# PCOD9189796 Si02
#       5
#     8   8   8   8   8
#     4  11  22  39  63  89 117 153 200 250 297 351
#     4   9  18  33  57  88 118 150 191 241 296 354
#     4  11  25  42  59  84 122 165 203 242 294 356
#     4  10  19  38  63  88 115 150 197 247 299 351
#     4   9  17  30  53  84 114 145 184 233 289 346
#
# _framework density 20.350621
#
# number of rings (size 3 to 8) (size 9 to 14) (size 15 to 20)
#    0.000    2.000    0.000    5.400    0.000    3.600 
#    0.000    1.000    0.000    2.400    0.000    0.000 
#    0.000    0.000    0.000    0.000    0.000    0.000 
#
# Total GULP energy -111620.803763 kJ/mol
# GULP energy per Si atom -5581.040188 kJ/mol
# Density = 2.030430 g / cm^3
# Si number density = 20.350621 Si / 1000 Ang^3
#
#
#
# Elastic Constant Matrix: (Units=GPa)
#
#
# Indices 1 2 3 4 5 6 
#
# 1 96.8716 28.6077 37.9718 -0.0001 20.5523 0.0000
# 2 28.6077 50.3406 45.8062 -0.0003 20.5977 0.0000
# 3 37.9718 45.8062 129.3232 -0.0008 6.9628 -0.0002
# 4 -0.0001 -0.0003 -0.0008 -12.8643 0.0000 -19.7623
# 5 20.5523 20.5977 6.9628 0.0000 36.8071 0.0000
# 6 0.0000 0.0000 -0.0002 -19.7623 0.0000 3.3028
#
#
#
# Elastic Compliance Matrix: (Units=1/GPa)
#
#
# Indices 1 2 3 4 5 6 
#
# 1 0.013349 -0.003164 -0.002519 0.000000 -0.005207 0.000000
# 2 -0.003164 0.040602 -0.012451 0.000000 -0.018600 0.000000
# 3 -0.002519 -0.012451 0.012559 0.000000 0.005998 0.000000
# 4 0.000000 0.000000 0.000000 -0.007627 0.000000 -0.045637
# 5 -0.005207 -0.018600 0.005998 0.000000 0.039350 0.000000
# 6 0.000000 0.000000 0.000000 -0.045637 0.000000 0.029707
#
#
# Mechanical properties :
#
#
# Convention : Reuss Voigt Hill
#
# Bulk Modulus (GPa) = 33.06441 55.70073 44.38257
# Shear Modulus (GPa) = 28.68795 16.39244 22.54020
#
# Velocity S-wave (km/s) = 3.75865 2.84121 3.33166
# Velocity P-wave (km/s) = 5.92615 6.18007 6.05444
#
# Compressibility (1/GPa) = 0.03024399
#
# Stress axis : x y z
#
# Youngs Moduli (GPa) = 74.91060 24.62910 79.62261
#
# Poissons Ratio (x) = 0.07792 0.20054
# Poissons Ratio (y) = 0.23701 0.99138
# Poissons Ratio (z) = 0.18867 0.30666
#
# Static dielectric constant tensor:
#      x y z
#    x 1.753130 0.000000 -0.021390 
#    y 0.000000 1.721310 0.000000 
#    z -0.021390 0.000000 1.754150 
# 
# From -- ./inp_files/158434.got.cif
#   From: 2010.05.17/outbox.cif.g08.bks.cpg/sg12_80_cif.got.tgz:158434.got - 2010.06.03 13:09:07.
