data_PCOD9189929
_publ_section_title
;
Structure prediction by ZEFSAII (Michael W. Deem and Ramdas Pophale) SiO2 
 PCOD9189929
Probable space group: C 2/M
;
_chemical_formula_sum "Si O2"
_cell_formula_units_Z 40
_cell_length_a 20.848758
_cell_length_b 18.196577
_cell_length_c 15.023281
_cell_angle_alpha 90.000000
_cell_angle_beta 161.604740
_cell_angle_gamma 90.000000
_cell_volume 1798.585661
_symmetry_space_group_name_H-M "C 2/M"
_symmetry_group_IT_number 12
_symmetry_cell_setting 'monoclinic'
loop_
_space_group_symop_operation_xyz
x,y,z
-x,y,-z
-x,-y,-z
x,-y,z
1/2+x,1/2+y,z
1/2-x,1/2+y,-z
1/2-x,1/2-y,-z
1/2+x,1/2-y,z
loop_
_atom_site_type_symbol
_atom_site_label
_atom_site_fract_x
_atom_site_fract_y
_atom_site_fract_z
Si Si1 0.644000 0.080094 0.388607
Si Si2 0.303186 0.317860 0.444874
Si Si3 0.812732 0.660463 0.383955
Si Si4 0.270189 0.365699 0.207017
Si Si5 0.237411 0.803275 0.094854
O O1 0.712295 0.144703 0.412127
O O2 0.711167 0.095925 0.577567
O O3 0.712297 0.000000 0.447630
O O4 0.399839 0.086260 0.063350
O O5 0.244850 0.233855 0.347313
O O6 0.236801 0.360376 0.268996
O O7 0.546351 0.316708 0.780290
O O8 0.707577 0.654920 0.149664
O O9 0.050647 0.673137 0.670831
O O10 0.500000 0.391613 0.500000
O O11 0.254898 0.282424 0.147188
#
# Coordination Sequence:
#
# PCOD9189929 Si02
#       5
#     8   8   8   8   8
#     4  12  27  42  57  89 136 173 203 244 309 383
#     4  11  21  38  64  93 126 159 205 258 310 363
#     4  10  20  39  66  96 121 156 211 263 308 361
#     4  11  21  39  67  95 122 156 207 266 313 360
#     4  10  19  38  69 100 116 147 211 278 306 355
#
# _framework density 22.239697
#
# number of rings (size 3 to 8) (size 9 to 14) (size 15 to 20)
#    0.000    1.200    6.000    3.000    0.000    2.800 
#    0.000    7.000    0.000    0.000    0.000    0.000 
#    0.000    0.000    0.000    0.000    0.000    0.000 
#
# Total GULP energy -111865.826293 kJ/mol
# GULP energy per Si atom -5593.291315 kJ/mol
# Density = 2.218908 g / cm^3
# Si number density = 22.239697 Si / 1000 Ang^3
#
#
#
# Elastic Constant Matrix: (Units=GPa)
#
#
# Indices 1 2 3 4 5 6 
#
# 1 109.3571 25.2448 4.7604 0.0000 -15.8551 0.0000
# 2 25.2448 37.9253 -3.7547 0.0000 -1.9041 0.0000
# 3 4.7604 -3.7547 63.1962 0.0000 -10.6251 0.0000
# 4 0.0000 0.0000 0.0000 -0.3508 0.0000 -1.5972
# 5 -15.8551 -1.9041 -10.6251 0.0000 42.4681 0.0000
# 6 0.0000 0.0000 0.0000 -1.5972 0.0000 -4.0635
#
#
#
# Elastic Compliance Matrix: (Units=1/GPa)
#
#
# Indices 1 2 3 4 5 6 
#
# 1 0.011452 -0.007500 -0.000674 0.000000 0.003770 0.000000
# 2 -0.007500 0.031548 0.002303 0.000000 -0.000809 0.000000
# 3 -0.000674 0.002303 0.016688 0.000000 0.004027 0.000000
# 4 0.000000 0.000000 0.000000 3.609550 0.000000 -1.418818
# 5 0.003770 -0.000809 0.004027 0.000000 0.025926 0.000000
# 6 0.000000 0.000000 0.000000 -1.418818 0.000000 0.311606
#
#
# Mechanical properties :
#
#
# Convention : Reuss Voigt Hill
#
# Bulk Modulus (GPa) = 20.85727 29.21997 25.03862
# Shear Modulus (GPa) = 1.23931 19.89264 10.56597
#
# Velocity S-wave (km/s) = 0.74730 2.99401 2.18203
# Velocity P-wave (km/s) = 3.18487 5.01191 4.19897
#
# Compressibility (1/GPa) = 0.04794490
#
# Stress axis : x y z
#
# Youngs Moduli (GPa) = 87.32265 31.69819 59.92189
#
# Poissons Ratio (x) = 0.23775 0.04041
# Poissons Ratio (y) = 0.65494 -0.13801
# Poissons Ratio (z) = 0.05888 -0.07301
#
# Static dielectric constant tensor:
#      x y z
#    x 1.850250 0.000000 0.029930 
#    y 0.000000 1.782730 0.000000 
#    z 0.029930 0.000000 1.847050 
# 
# From -- ./inp_files/46920.got.cif
#   From: 2010.05.17/outbox.cif.g08.bks.cpg/sg12_24_cif.got.tgz:46920.got - 2010.06.03 13:09:07.
