data_PCOD9189425
_publ_section_title
;
Structure prediction by ZEFSAII (Michael W. Deem and Ramdas Pophale) SiO2 
 PCOD9189425
Probable space group: C 2/M
;
_chemical_formula_sum "Si O2"
_cell_formula_units_Z 50
_cell_length_a 9.750422
_cell_length_b 16.359117
_cell_length_c 25.581229
_cell_angle_alpha 90.000000
_cell_angle_beta 38.865729
_cell_angle_gamma 90.000000
_cell_volume 2560.452000
_symmetry_space_group_name_H-M "C 2/M"
_symmetry_group_IT_number 12
_symmetry_cell_setting 'monoclinic'
loop_
_space_group_symop_operation_xyz
x,y,z
-x,y,-z
-x,-y,-z
x,-y,z
1/2+x,1/2+y,z
1/2-x,1/2+y,-z
1/2-x,1/2-y,-z
1/2+x,1/2-y,z
loop_
_atom_site_type_symbol
_atom_site_label
_atom_site_fract_x
_atom_site_fract_y
_atom_site_fract_z
Si Si1 0.481308 0.091655 0.067780
Si Si2 0.800180 0.718582 0.302068
Si Si3 0.725123 0.239889 0.809338
Si Si4 0.401948 0.327004 0.971113
Si Si5 0.477459 0.406196 0.444288
Si Si6 0.484320 0.162823 0.449206
Si Si7 0.500000 0.000000 0.500000
O O1 0.331273 0.161938 0.137461
O O2 0.398682 0.000000 0.102006
O O3 0.500000 0.104683 0.000000
O O4 0.728063 0.100662 0.016919
O O5 0.854935 0.718256 0.224704
O O6 0.686039 0.635596 0.355697
O O7 0.623773 0.789351 0.365934
O O8 0.019508 0.740872 0.267472
O O9 0.598844 0.317468 0.871630
O O10 0.500000 0.321132 0.000000
O O11 0.250000 0.250000 0.000000
O O12 0.500000 0.408644 0.500000
O O13 0.439373 0.500000 0.436736
O O14 0.264483 0.353842 0.492623
O O15 0.500000 0.210545 0.500000
O O16 0.576671 0.073506 0.436805
#
# Coordination Sequence:
#
# PCOD9189425 Si02
#       7
#     8   8   8   8   8   8   2
#     4  10  21  40  63  86 113 154 201 243 288 353
#     4  12  23  35  58  85 118 150 185 238 299 354
#     4  11  22  37  56  87 119 146 182 235 298 350
#     4  10  19  37  63  83 112 155 197 232 277 353
#     4  11  22  38  56  78 109 151 197 238 281 339
#     4  10  19  39  59  81 106 148 203 236 280 339
#     4   8  20  36  66  80 102 144 210 246 272 324
#
# _framework density 19.527802000000001
#
# number of rings (size 3 to 8) (size 9 to 14) (size 15 to 20)
#    0.480    0.960    0.800    7.680    0.000    0.960 
#    1.440    0.800    1.760    0.000    0.000    0.000 
#    0.000    0.000    0.000    0.000    0.000    0.000 
#
# Total GULP energy -139233.986178 kJ/mol
# GULP energy per Si atom -5569.359447 kJ/mol
# Density = 1.948336 g / cm^3
# Si number density = 19.527802 Si / 1000 Ang^3
#
#
#
# Elastic Constant Matrix: (Units=GPa)
#
#
# Indices 1 2 3 4 5 6 
#
# 1 95.8156 -9.1428 6.4857 0.0001 -0.0608 0.0008
# 2 -9.1428 65.9445 19.7455 0.0010 -5.7184 0.0004
# 3 6.4857 19.7455 65.4615 -0.0014 -4.1462 0.0001
# 4 0.0001 0.0010 -0.0014 20.4316 0.0006 -2.5449
# 5 -0.0608 -5.7184 -4.1462 0.0006 40.5930 -0.0002
# 6 0.0008 0.0004 0.0001 -2.5449 -0.0002 16.3813
#
#
#
# Elastic Compliance Matrix: (Units=1/GPa)
#
#
# Indices 1 2 3 4 5 6 
#
# 1 0.010740 0.001997 -0.001658 0.000000 0.000128 -0.000001
# 2 0.001997 0.017180 -0.005260 -0.000001 0.001886 -0.000001
# 3 -0.001658 -0.005260 0.017091 0.000001 0.001002 0.000000
# 4 0.000000 -0.000001 0.000001 0.049909 -0.000001 0.007754
# 5 0.000128 0.001886 0.001002 -0.000001 0.025003 0.000000
# 6 -0.000001 -0.000001 0.000000 0.007754 0.000000 0.062250
#
#
# Mechanical properties :
#
#
# Convention : Reuss Voigt Hill
#
# Bulk Modulus (GPa) = 28.43663 29.04428 28.74046
# Shear Modulus (GPa) = 24.54133 29.49007 27.01570
#
# Velocity S-wave (km/s) = 3.54890 3.89029 3.72351
# Velocity P-wave (km/s) = 5.60238 5.92324 5.76504
#
# Compressibility (1/GPa) = 0.03516591
#
# Stress axis : x y z
#
# Youngs Moduli (GPa) = 93.11381 58.20827 58.51163
#
# Poissons Ratio (x) = -0.11622 0.09702
# Poissons Ratio (y) = -0.18591 0.30779
# Poissons Ratio (z) = 0.15440 0.30620
#
# Static dielectric constant tensor:
#      x y z
#    x 1.763680 0.000000 0.036100 
#    y 0.000000 1.703860 0.000000 
#    z 0.036100 0.000000 1.756160 
# 
# From -- ./inp_files/356531.got.cif
#   From: 2010.05.17/outbox.cif.g08.bks.cpg/sg12_179_cif.got.tgz:356531.got - 2010.06.03 13:09:07.
