data_PCOD9189446
_publ_section_title
;
Structure prediction by ZEFSAII (Michael W. Deem and Ramdas Pophale) SiO2 
 PCOD9189446
Probable space group: C 2/M
;
_chemical_formula_sum "Si O2"
_cell_formula_units_Z 50
_cell_length_a 18.004824
_cell_length_b 16.792091
_cell_length_c 9.163671
_cell_angle_alpha 90.000000
_cell_angle_beta 53.226322
_cell_angle_gamma 90.000000
_cell_volume 2219.213973
_symmetry_space_group_name_H-M "C 2/M"
_symmetry_group_IT_number 12
_symmetry_cell_setting 'monoclinic'
loop_
_space_group_symop_operation_xyz
x,y,z
-x,y,-z
-x,-y,-z
x,-y,z
1/2+x,1/2+y,z
1/2-x,1/2+y,-z
1/2-x,1/2-y,-z
1/2+x,1/2-y,z
loop_
_atom_site_type_symbol
_atom_site_label
_atom_site_fract_x
_atom_site_fract_y
_atom_site_fract_z
Si Si1 0.953756 0.908979 0.780772
Si Si2 0.697040 0.673900 0.867881
Si Si3 0.694538 0.590618 0.293544
Si Si4 0.654638 0.161233 0.087261
Si Si5 0.500000 0.000000 0.000000
Si Si6 0.363148 0.303973 0.387292
Si Si7 0.538540 0.155222 0.807727
O O1 0.898658 0.896140 0.693330
O O2 0.038516 0.850221 0.711331
O O3 0.986122 0.000000 0.746417
O O4 0.873496 0.893764 0.993784
O O5 0.666174 0.752330 0.997064
O O6 0.683450 0.681220 0.713364
O O7 0.800797 0.660774 0.805463
O O8 0.693048 0.500000 0.350336
O O9 0.780865 0.603102 0.084136
O O10 0.696691 0.658254 0.413146
O O11 0.548184 0.139368 0.196062
O O12 0.436628 0.929111 0.151146
O O13 0.388617 0.210972 0.356501
O O14 0.500000 0.200968 0.000000
#
# Coordination Sequence:
#
# PCOD9189446 Si02
#       7
#     8   8   8   8   2   8   8
#     4  10  20  37  58  87 127 171 206 239 292 375
#     4  10  20  35  58  86 119 155 207 256 301 348
#     4  10  24  38  59  92 132 170 197 238 312 371
#     4  10  20  39  60  83 121 160 207 250 298 371
#     4   8  20  36  64  92 108 144 216 274 288 340
#     4  12  20  36  60  94 125 153 205 255 308 363
#     4  10  19  37  63  88 111 152 213 257 295 349
#
# _framework density 22.530498000000001
#
# number of rings (size 3 to 8) (size 9 to 14) (size 15 to 20)
#    0.480    1.280    3.200    1.440    1.120    3.840 
#    0.000    0.000    0.000    0.000    2.080    2.240 
#    0.000    0.160    0.000    0.000    0.000    0.000 
#
# Total GULP energy -139452.605360 kJ/mol
# GULP energy per Si atom -5578.104214 kJ/mol
# Density = 2.247922 g / cm^3
# Si number density = 22.530498 Si / 1000 Ang^3
#
#
#
# Elastic Constant Matrix: (Units=GPa)
#
#
# Indices 1 2 3 4 5 6 
#
# 1 141.2554 25.9365 35.0796 0.0000 16.9231 0.0000
# 2 25.9365 129.2772 40.7548 0.0000 10.2706 0.0000
# 3 35.0796 40.7548 70.4791 0.0000 12.7907 0.0000
# 4 0.0000 0.0000 0.0000 19.9500 0.0000 8.7104
# 5 16.9231 10.2706 12.7907 0.0000 19.3971 0.0000
# 6 0.0000 0.0000 0.0000 8.7104 0.0000 10.1297
#
#
#
# Elastic Compliance Matrix: (Units=1/GPa)
#
#
# Indices 1 2 3 4 5 6 
#
# 1 0.008538 -0.000314 -0.003119 0.000000 -0.005225 0.000000
# 2 -0.000314 0.009515 -0.005090 0.000000 -0.001407 0.000000
# 3 -0.003119 -0.005090 0.020108 0.000000 -0.007843 0.000000
# 4 0.000000 0.000000 0.000000 0.080257 0.000000 -0.069012
# 5 -0.005225 -0.001407 -0.007843 0.000000 0.062030 0.000000
# 6 0.000000 0.000000 0.000000 -0.069012 0.000000 0.158063
#
#
# Mechanical properties :
#
#
# Convention : Reuss Voigt Hill
#
# Bulk Modulus (GPa) = 47.36478 60.50593 53.93535
# Shear Modulus (GPa) = 13.78949 25.84474 19.81712
#
# Velocity S-wave (km/s) = 2.47662 3.39056 2.96897
# Velocity P-wave (km/s) = 5.40799 6.49933 5.97861
#
# Compressibility (1/GPa) = 0.02111274
#
# Stress axis : x y z
#
# Youngs Moduli (GPa) = 117.12598 105.09875 49.73162
#
# Poissons Ratio (x) = 0.03304 0.15513
# Poissons Ratio (y) = 0.03682 0.25314
# Poissons Ratio (z) = 0.36537 0.53497
#
# Static dielectric constant tensor:
#      x y z
#    x 1.882560 0.000000 -0.027330 
#    y 0.000000 1.838620 0.000000 
#    z -0.027330 0.000000 1.877060 
# 
# From -- ./inp_files/75765.got.cif
#   From: 2010.05.17/outbox.cif.g08.bks.cpg/sg12_38_cif.got.tgz:75765.got - 2010.06.03 13:09:07.
