data_PCOD9189449
_publ_section_title
;
Structure prediction by ZEFSAII (Michael W. Deem and Ramdas Pophale) SiO2 
 PCOD9189449
Probable space group: C 2/M
;
_chemical_formula_sum "Si O2"
_cell_formula_units_Z 64
_cell_length_a 29.835177
_cell_length_b 8.982436
_cell_length_c 11.272240
_cell_angle_alpha 90.000000
_cell_angle_beta 101.267986
_cell_angle_gamma 90.000000
_cell_volume 2962.646099
_symmetry_space_group_name_H-M "C 2/M"
_symmetry_group_IT_number 12
_symmetry_cell_setting 'monoclinic'
loop_
_space_group_symop_operation_xyz
x,y,z
-x,y,-z
-x,-y,-z
x,-y,z
1/2+x,1/2+y,z
1/2-x,1/2+y,-z
1/2-x,1/2-y,-z
1/2+x,1/2-y,z
loop_
_atom_site_type_symbol
_atom_site_label
_atom_site_fract_x
_atom_site_fract_y
_atom_site_fract_z
Si Si1 0.274437 0.673863 0.903118
Si Si2 0.699928 0.321851 0.481192
Si Si3 0.183933 0.673778 0.715431
Si Si4 0.445526 0.822310 0.459301
Si Si5 0.972205 0.677069 0.103719
Si Si6 0.103230 0.176703 0.791179
Si Si7 0.436842 0.823218 0.718407
Si Si8 0.854657 0.178516 0.788872
O O1 0.280724 0.500000 0.934572
O O2 0.237104 0.683808 0.778329
O O3 0.322563 0.733842 0.879325
O O4 0.250000 0.750000 0.000000
O O5 0.703680 0.500000 0.492552
O O6 0.750000 0.250000 0.500000
O O7 0.676975 0.255906 0.587431
O O8 0.672005 0.286935 0.347583
O O9 0.172150 0.500000 0.699116
O O10 0.152715 0.748856 0.799853
O O11 0.500000 0.803027 0.500000
O O12 0.423759 0.731498 0.340848
O O13 0.426350 0.776799 0.578405
O O14 0.437572 0.000000 0.436175
O O15 0.962431 0.500000 0.092554
O O16 0.010044 0.703029 0.225535
O O17 0.926571 0.763726 0.114205
O O18 0.000000 0.719062 0.000000
O O19 0.107106 0.000000 0.797595
O O20 0.404319 0.746865 0.797092
O O21 0.429873 0.000000 0.722610
O O22 0.857899 0.000000 0.800511
#
# Coordination Sequence:
#
# PCOD9189449 Si02
#       8
#     8   8   8   8   8   8   8   8
#     4  10  23  43  63  86 117 158 203 251 301 352
#     4  11  21  37  62  92 125 159 198 246 304 366
#     4  11  23  42  64  88 123 163 205 250 301 359
#     4  10  19  37  63  88 121 159 199 246 296 358
#     4  10  22  43  66  86 116 159 208 255 299 356
#     4  12  25  39  60  93 127 158 200 249 307 367
#     4  10  21  37  61  92 118 152 200 244 295 356
#     4  10  22  40  59  86 124 157 190 241 303 356
#
# _framework density 21.602309000000002
#
# number of rings (size 3 to 8) (size 9 to 14) (size 15 to 20)
#    0.000    1.500    2.500    2.625    0.000    7.000 
#    0.000    3.750    0.000    0.000    0.000    0.000 
#    0.000    0.000    0.000    0.000    0.000    0.000 
#
# Total GULP energy -178959.035933 kJ/mol
# GULP energy per Si atom -5592.469873 kJ/mol
# Density = 2.155314 g / cm^3
# Si number density = 21.602309 Si / 1000 Ang^3
#
#
#
# Elastic Constant Matrix: (Units=GPa)
#
#
# Indices 1 2 3 4 5 6 
#
# 1 101.0865 24.3675 8.2552 0.0000 -41.0266 0.0000
# 2 24.3675 56.0321 21.8793 0.0000 -19.4743 0.0000
# 3 8.2552 21.8793 68.6829 0.0000 -31.7431 0.0000
# 4 0.0000 0.0000 0.0000 25.2637 0.0000 -12.8014
# 5 -41.0266 -19.4743 -31.7431 0.0000 42.4699 0.0000
# 6 0.0000 0.0000 0.0000 -12.8014 0.0000 31.6773
#
#
#
# Elastic Compliance Matrix: (Units=1/GPa)
#
#
# Indices 1 2 3 4 5 6 
#
# 1 0.020645 -0.004140 0.010965 0.000000 0.026240 0.000000
# 2 -0.004140 0.022612 -0.005747 0.000000 0.002074 0.000000
# 3 0.010965 -0.005747 0.028645 0.000000 0.029367 0.000000
# 4 0.000000 0.000000 0.000000 0.049775 0.000000 0.020115
# 5 0.026240 0.002074 0.029367 0.000000 0.071795 0.000000
# 6 0.000000 0.000000 0.000000 0.020115 0.000000 0.039697
#
#
# Mechanical properties :
#
#
# Convention : Reuss Voigt Hill
#
# Bulk Modulus (GPa) = 13.50285 37.20059 25.35172
# Shear Modulus (GPa) = 19.55422 31.30214 25.42818
#
# Velocity S-wave (km/s) = 3.01190 3.81073 3.43462
# Velocity P-wave (km/s) = 4.28481 6.05146 5.24308
#
# Compressibility (1/GPa) = 0.07405841
#
# Stress axis : x y z
#
# Youngs Moduli (GPa) = 48.43834 44.22391 34.91012
#
# Poissons Ratio (x) = 0.18307 -0.38278
# Poissons Ratio (y) = 0.20052 0.20063
# Poissons Ratio (z) = -0.53112 0.25416
#
# Static dielectric constant tensor:
#      x y z
#    x 1.798970 0.000000 0.002500 
#    y 0.000000 1.716690 0.000000 
#    z 0.002500 0.000000 1.828700 
# 
# From -- ./inp_files/187395.got.cif
#   From: 2010.05.17/outbox.cif.g08.bks.cpg/sg12_94_cif.got.tgz:187395.got - 2010.06.03 13:09:07.
