data_PCOD9189096
_publ_section_title
;
Structure prediction by ZEFSAII (Michael W. Deem and Ramdas Pophale) SiO2 
 PCOD9189096
Probable space group: C 2/M
;
_chemical_formula_sum "Si O2"
_cell_formula_units_Z 64
_cell_length_a 18.166998
_cell_length_b 18.278147
_cell_length_c 20.697997
_cell_angle_alpha 90.000000
_cell_angle_beta 152.589242
_cell_angle_gamma 90.000000
_cell_volume 3164.079185
_symmetry_space_group_name_H-M "C 2/M"
_symmetry_group_IT_number 12
_symmetry_cell_setting 'monoclinic'
loop_
_space_group_symop_operation_xyz
x,y,z
-x,y,-z
-x,-y,-z
x,-y,z
1/2+x,1/2+y,z
1/2-x,1/2+y,-z
1/2-x,1/2-y,-z
1/2+x,1/2-y,z
loop_
_atom_site_type_symbol
_atom_site_label
_atom_site_fract_x
_atom_site_fract_y
_atom_site_fract_z
Si Si1 0.079148 0.305051 0.906706
Si Si2 0.308058 0.415161 0.576511
Si Si3 0.828640 0.810229 0.269843
Si Si4 0.331649 0.087191 0.398911
Si Si5 0.930377 0.790407 0.207533
Si Si6 0.380345 0.582252 0.488461
Si Si7 0.623265 0.917082 0.174265
Si Si8 0.404055 0.690505 0.858623
O O1 0.009481 0.281473 0.782875
O O2 0.010349 0.373846 0.890543
O O3 0.027767 0.235807 0.910852
O O4 0.267540 0.315135 0.045855
O O5 0.358406 0.500000 0.626263
O O6 0.177784 0.399907 0.530797
O O7 0.444878 0.355822 0.695760
O O8 0.280870 0.409770 0.478020
O O9 0.872759 0.777520 0.235168
O O10 0.690182 0.872696 0.164834
O O11 0.744452 0.746533 0.244722
O O12 0.989249 0.853723 0.414081
O O13 0.500000 0.113070 0.500000
O O14 0.180490 0.124855 0.245807
O O15 0.322635 0.000000 0.381592
O O16 0.455363 0.500000 0.549679
O O17 0.268462 0.584306 0.339310
O O18 0.582707 0.000000 0.128589
O O19 0.500000 0.673486 0.000000
#
# Coordination Sequence:
#
# PCOD9189096 Si02
#       8
#     8   8   8   8   8   8   8   8
#     4  10  21  36  58  78 118 156 191 235 294 349
#     4   9  18  35  60  83 108 146 192 240 290 351
#     4  10  20  33  58  84 114 148 193 232 287 349
#     4  10  22  41  62  85 114 151 200 254 300 346
#     4  10  19  37  56  82 109 151 187 232 287 350
#     4   9  18  35  57  83 116 152 191 234 291 353
#     4  10  21  36  55  83 119 155 193 244 295 351
#     4  11  21  38  60  87 120 154 193 242 297 352
#
# _framework density 20.227053999999999
#
# number of rings (size 3 to 8) (size 9 to 14) (size 15 to 20)
#    0.000    2.125    2.500    0.750    0.000    4.250 
#    2.250    1.875    0.000    0.000    0.000    0.000 
#    0.000    0.000    0.000    0.000    0.000    0.000 
#
# Total GULP energy -178314.375362 kJ/mol
# GULP energy per Si atom -5572.324230 kJ/mol
# Density = 2.018102 g / cm^3
# Si number density = 20.227054 Si / 1000 Ang^3
#
#
#
# Elastic Constant Matrix: (Units=GPa)
#
#
# Indices 1 2 3 4 5 6 
#
# 1 138.2004 24.6787 21.3416 0.0022 -3.9874 0.0017
# 2 24.6787 44.0555 18.4702 -0.0019 -4.4168 0.0007
# 3 21.3416 18.4702 50.1521 -0.0031 -5.9610 0.0004
# 4 0.0022 -0.0019 -0.0031 21.4667 0.0010 9.8813
# 5 -3.9874 -4.4168 -5.9610 0.0010 29.1479 0.0023
# 6 0.0017 0.0007 0.0004 9.8813 0.0023 20.9846
#
#
#
# Elastic Compliance Matrix: (Units=1/GPa)
#
#
# Indices 1 2 3 4 5 6 
#
# 1 0.008229 -0.003708 -0.002121 -0.000002 0.000130 0.000000
# 2 -0.003708 0.028639 -0.008726 0.000002 0.002048 -0.000002
# 3 -0.002121 -0.008726 0.024459 0.000004 0.003389 -0.000002
# 4 -0.000002 0.000002 0.000004 0.059475 0.000001 -0.028006
# 5 0.000130 0.002048 0.003389 0.000001 0.035329 -0.000004
# 6 0.000000 -0.000002 -0.000002 -0.028006 -0.000004 0.060842
#
#
# Mechanical properties :
#
#
# Convention : Reuss Voigt Hill
#
# Bulk Modulus (GPa) = 31.03903 40.15434 35.59668
# Shear Modulus (GPa) = 19.46876 25.51433 22.49155
#
# Velocity S-wave (km/s) = 3.10580 3.55547 3.33821
# Velocity P-wave (km/s) = 5.31413 6.06218 5.70044
#
# Compressibility (1/GPa) = 0.03221751
#
# Stress axis : x y z
#
# Youngs Moduli (GPa) = 121.51837 34.91707 40.88552
#
# Poissons Ratio (x) = 0.12946 0.08672
# Poissons Ratio (y) = 0.45053 0.35678
# Poissons Ratio (z) = 0.25773 0.30470
#
# Static dielectric constant tensor:
#      x y z
#    x 1.780930 0.000000 -0.028680 
#    y 0.000000 1.719030 0.000000 
#    z -0.028680 0.000000 1.755920 
# 
# From -- ./inp_files/317353.got.cif
#   From: 2010.05.17/outbox.cif.g08.bks.cpg/sg12_159_cif.got.tgz:317353.got - 2010.06.03 13:09:07.
