data_PCOD9189843
_publ_section_title
;
Structure prediction by ZEFSAII (Michael W. Deem and Ramdas Pophale) SiO2 
 PCOD9189843
Probable space group: C 2/M
;
_chemical_formula_sum "Si O2"
_cell_formula_units_Z 40
_cell_length_a 13.343812
_cell_length_b 28.230057
_cell_length_c 13.582974
_cell_angle_alpha 90.000000
_cell_angle_beta 21.971704
_cell_angle_gamma 90.000000
_cell_volume 1914.391344
_symmetry_space_group_name_H-M "C 2/M"
_symmetry_group_IT_number 12
_symmetry_cell_setting 'monoclinic'
loop_
_space_group_symop_operation_xyz
x,y,z
-x,y,-z
-x,-y,-z
x,-y,z
1/2+x,1/2+y,z
1/2-x,1/2+y,-z
1/2-x,1/2-y,-z
1/2+x,1/2-y,z
loop_
_atom_site_type_symbol
_atom_site_label
_atom_site_fract_x
_atom_site_fract_y
_atom_site_fract_z
Si Si1 0.956922 0.094459 0.151034
Si Si2 0.970134 0.803303 0.210296
Si Si3 0.439256 0.801607 0.234945
Si Si4 0.800606 0.398583 0.264809
Si Si5 0.022281 0.443868 0.695292
O O1 0.919219 0.151132 0.190157
O O2 0.706256 0.071611 0.435579
O O3 0.232176 0.080779 0.955005
O O4 0.000000 0.078438 0.000000
O O5 0.776463 0.806116 0.481147
O O6 0.923520 0.751542 0.206157
O O7 0.270822 0.805806 0.978480
O O8 0.385014 0.844404 0.211089
O O9 0.500000 0.400075 0.500000
O O10 0.833655 0.426457 0.336717
O O11 0.000000 0.417840 0.000000
O O12 0.987673 0.500000 0.726527
#
# Coordination Sequence:
#
# PCOD9189843 Si02
#       5
#     8   8   8   8   8
#     4  12  24  43  71  99 130 172 219 271 334 397
#     4  10  19  38  64  93 130 170 211 255 319 387
#     4  10  20  37  64  93 130 173 208 257 317 385
#     4  12  24  41  68  97 130 172 219 264 325 391
#     4  12  27  47  67  94 133 171 221 284 335 383
#
# _framework density 20.894369000000001
#
# number of rings (size 3 to 8) (size 9 to 14) (size 15 to 20)
#    0.000    0.800    4.000    3.600    0.000    4.000 
#    0.000    2.000    0.000    0.000    0.000    0.000 
#    0.000    0.000    0.000    0.000    0.000    0.000 
#
# Total GULP energy -111897.908532 kJ/mol
# GULP energy per Si atom -5594.895427 kJ/mol
# Density = 2.084681 g / cm^3
# Si number density = 20.894369 Si / 1000 Ang^3
#
#
#
# Elastic Constant Matrix: (Units=GPa)
#
#
# Indices 1 2 3 4 5 6 
#
# 1 40.1436 -1.0534 3.2897 -0.0001 7.5833 -0.0058
# 2 -1.0534 110.1155 -0.3444 0.0003 15.3155 0.0025
# 3 3.2897 -0.3444 133.1491 -0.0078 -0.8791 -0.0166
# 4 -0.0001 0.0003 -0.0078 24.7102 0.0021 4.1044
# 5 7.5833 15.3155 -0.8791 0.0021 35.7269 -0.0092
# 6 -0.0058 0.0025 -0.0166 4.1044 -0.0092 -8.2757
#
#
#
# Elastic Compliance Matrix: (Units=1/GPa)
#
#
# Indices 1 2 3 4 5 6 
#
# 1 0.026134 0.001087 -0.000683 0.000002 -0.006030 -0.000009
# 2 0.001087 0.009702 -0.000031 -0.000001 -0.004391 0.000007
# 3 -0.000683 -0.000031 0.007529 0.000004 0.000343 -0.000013
# 4 0.000002 -0.000001 0.000004 0.037389 0.000003 0.018544
# 5 -0.006030 -0.004391 0.000343 0.000003 0.031161 -0.000031
# 6 -0.000009 0.000007 -0.000013 0.018544 -0.000031 -0.111639
#
#
# Mechanical properties :
#
#
# Convention : Reuss Voigt Hill
#
# Bulk Modulus (GPa) = 22.66954 31.91023 27.28988
# Shear Modulus (GPa) = 351.26709 29.20004 190.23356
#
# Velocity S-wave (km/s) = 12.98001 3.74238 9.55212
# Velocity P-wave (km/s) = 15.34646 5.82917 11.60804
#
# Compressibility (1/GPa) = 0.04411205
#
# Stress axis : x y z
#
# Youngs Moduli (GPa) = 38.26421 103.06789 132.81222
#
# Poissons Ratio (x) = -0.11199 0.09067
# Poissons Ratio (y) = -0.04157 0.00408
# Poissons Ratio (z) = 0.02612 0.00317
#
# Static dielectric constant tensor:
#      x y z
#    x 1.724640 0.000010 0.007870 
#    y 0.000010 1.758000 -0.000010 
#    z 0.007870 -0.000010 1.719780 
# 
# From -- ./inp_files/219030.got.cif
#   From: 2010.05.17/outbox.cif.g08.bks.cpg/sg12_110_cif.got.tgz:219030.got - 2010.06.03 13:09:07.
