data_PCOD9189353
_publ_section_title
;
Structure prediction by ZEFSAII (Michael W. Deem and Ramdas Pophale) SiO2 
 PCOD9189353
Probable space group: C 2/M
;
_chemical_formula_sum "Si O2"
_cell_formula_units_Z 56
_cell_length_a 27.502850
_cell_length_b 7.645662
_cell_length_c 11.944197
_cell_angle_alpha 90.000000
_cell_angle_beta 77.054833
_cell_angle_gamma 90.000000
_cell_volume 2447.763368
_symmetry_space_group_name_H-M "C 2/M"
_symmetry_group_IT_number 12
_symmetry_cell_setting 'monoclinic'
loop_
_space_group_symop_operation_xyz
x,y,z
-x,y,-z
-x,-y,-z
x,-y,z
1/2+x,1/2+y,z
1/2-x,1/2+y,-z
1/2-x,1/2-y,-z
1/2+x,1/2-y,z
loop_
_atom_site_type_symbol
_atom_site_label
_atom_site_fract_x
_atom_site_fract_y
_atom_site_fract_z
Si Si1 0.752309 0.702914 0.347034
Si Si2 0.890677 0.714868 0.827127
Si Si3 0.569779 0.290967 0.711513
Si Si4 0.223078 0.292415 0.128315
Si Si5 0.336298 0.300929 0.467794
Si Si6 0.442723 0.210382 0.030528
Si Si7 0.024544 0.702634 0.375135
O O1 0.755034 0.500000 0.381683
O O2 0.753519 0.712993 0.214742
O O3 0.698496 0.775811 0.416449
O O4 0.797540 0.798331 0.384031
O O5 0.891864 0.500000 0.826097
O O6 0.833856 0.771861 0.843793
O O7 0.925556 0.776740 0.706682
O O8 0.913413 0.771276 0.935263
O O9 0.566707 0.500000 0.699975
O O10 0.612895 0.221491 0.605881
O O11 0.580108 0.255147 0.836600
O O12 0.517398 0.211540 0.699746
O O13 0.221941 0.500000 0.145299
O O14 0.250000 0.250000 0.000000
O O15 0.348111 0.500000 0.494679
O O16 0.444261 0.000000 0.023254
O O17 0.500000 0.275224 0.000000
O O18 0.035603 0.500000 0.396355
O O19 0.000000 0.782092 0.500000
#
# Coordination Sequence:
#
# PCOD9189353 Si02
#       7
#     8   8   8   8   8   8   8
#     4  10  21  40  63  86 114 152 200 246 298 352
#     4   9  20  39  60  86 116 153 197 245 292 342
#     4  11  23  37  57  89 124 153 188 236 297 355
#     4  11  24  41  61  87 121 157 201 248 297 353
#     4   9  21  40  60  86 120 154 191 242 298 356
#     4  10  19  37  62  83 112 150 194 243 285 334
#     4  10  21  39  63  89 117 154 203 243 282 346
#
# _framework density 22.878028
#
# number of rings (size 3 to 8) (size 9 to 14) (size 15 to 20)
#    0.000    2.000    1.429    1.286    4.000    2.286 
#    0.000    2.143    0.000    0.000    0.000    0.000 
#    0.000    0.000    0.000    0.000    0.000    0.000 
#
# Total GULP energy -156455.250867 kJ/mol
# GULP energy per Si atom -5587.687531 kJ/mol
# Density = 2.282596 g / cm^3
# Si number density = 22.878028 Si / 1000 Ang^3
#
#
#
# Elastic Constant Matrix: (Units=GPa)
#
#
# Indices 1 2 3 4 5 6 
#
# 1 49.0165 -2.8525 11.4816 0.0000 -19.2694 0.0000
# 2 -2.8525 56.8020 -8.7746 0.0000 -0.4694 0.0000
# 3 11.4816 -8.7746 117.7476 0.0000 -3.9974 0.0000
# 4 0.0000 0.0000 0.0000 20.6507 0.0000 -3.0202
# 5 -19.2694 -0.4694 -3.9974 0.0000 45.0693 0.0000
# 6 0.0000 0.0000 0.0000 -3.0202 0.0000 -5.9126
#
#
#
# Elastic Compliance Matrix: (Units=1/GPa)
#
#
# Indices 1 2 3 4 5 6 
#
# 1 0.025082 0.001036 -0.002010 0.000000 0.010556 0.000000
# 2 0.001036 0.017857 0.001255 0.000000 0.000740 0.000000
# 3 -0.002010 0.001255 0.008780 0.000000 -0.000068 0.000000
# 4 0.000000 0.000000 0.000000 0.045058 0.000000 -0.023016
# 5 0.010556 0.000740 -0.000068 0.000000 0.026703 0.000000
# 6 0.000000 0.000000 0.000000 -0.023016 0.000000 -0.157373
#
#
# Mechanical properties :
#
#
# Convention : Reuss Voigt Hill
#
# Bulk Modulus (GPa) = 19.12735 24.80837 21.96786
# Shear Modulus (GPa) = -293.64704 26.87558 -133.38573
#
# Velocity S-wave (km/s) = -11.34160 3.43116 -7.64392
# Velocity P-wave (km/s) = 12.77226 5.15407 8.26336
#
# Compressibility (1/GPa) = 0.05228116
#
# Stress axis : x y z
#
# Youngs Moduli (GPa) = 39.86857 56.00041 113.89563
#
# Poissons Ratio (x) = -0.05803 0.22895
# Poissons Ratio (y) = -0.04132 -0.14292
# Poissons Ratio (z) = 0.08014 -0.07027
#
# Static dielectric constant tensor:
#      x y z
#    x 1.826240 0.000000 -0.026690 
#    y 0.000000 1.899410 0.000000 
#    z -0.026690 0.000000 1.853100 
# 
# From -- ./inp_files/186434.got.cif
#   From: 2010.05.17/outbox.cif.g08.bks.cpg/sg12_94_cif.got.tgz:186434.got - 2010.06.03 13:09:07.
