data_PCOD9189420
_publ_section_title
;
Structure prediction by ZEFSAII (Michael W. Deem and Ramdas Pophale) SiO2 
 PCOD9189420
Probable space group: C 2/M
;
_chemical_formula_sum "Si O2"
_cell_formula_units_Z 52
_cell_length_a 8.541478
_cell_length_b 19.499783
_cell_length_c 17.738224
_cell_angle_alpha 90.000000
_cell_angle_beta 132.557383
_cell_angle_gamma 90.000000
_cell_volume 2176.230336
_symmetry_space_group_name_H-M "C 2/M"
_symmetry_group_IT_number 12
_symmetry_cell_setting 'monoclinic'
loop_
_space_group_symop_operation_xyz
x,y,z
-x,y,-z
-x,-y,-z
x,-y,z
1/2+x,1/2+y,z
1/2-x,1/2+y,-z
1/2-x,1/2-y,-z
1/2+x,1/2-y,z
loop_
_atom_site_type_symbol
_atom_site_label
_atom_site_fract_x
_atom_site_fract_y
_atom_site_fract_z
Si Si1 0.663725 0.243629 0.655319
Si Si2 0.500000 0.637539 0.500000
Si Si3 0.803498 0.078712 0.081931
Si Si4 0.084614 0.612029 0.444745
Si Si5 0.691264 0.073594 0.786036
Si Si6 0.255638 0.176510 0.072554
Si Si7 0.119217 0.802107 0.800171
O O1 0.633205 0.311987 0.597718
O O2 0.462802 0.194072 0.577449
O O3 0.706894 0.265921 0.754923
O O4 0.868210 0.198275 0.701460
O O5 0.327758 0.599535 0.497385
O O6 0.791720 0.123000 0.154195
O O7 0.056561 0.076907 0.146759
O O8 0.732436 0.000000 0.060553
O O9 0.702544 0.126874 0.984585
O O10 0.000000 0.591368 0.500000
O O11 0.936166 0.579480 0.332459
O O12 0.639771 0.135894 0.823644
O O13 0.647287 0.000000 0.808581
O O14 0.332616 0.254294 0.110873
O O15 0.000000 0.178498 0.000000
#
# Coordination Sequence:
#
# PCOD9189420 Si02
#       7
#     8   4   8   8   8   8   8
#     4  12  21  38  60  93 126 163 214 271 334 385
#     4  12  24  38  63  98 133 170 220 284 334 398
#     4  10  21  36  59  92 129 170 215 265 327 398
#     4  12  23  40  64  95 135 172 220 273 336 398
#     4  10  20  38  62  91 128 171 218 269 328 397
#     4  10  19  37  62  95 125 164 219 273 325 385
#     4  12  22  37  64  92 127 164 214 274 329 385
#
# _framework density 23.894528999999999
#
# number of rings (size 3 to 8) (size 9 to 14) (size 15 to 20)
#    0.000    0.923    5.385    3.231    0.000    2.154 
#    0.000    0.385    0.000    7.846    0.000    0.000 
#    0.000    0.000    0.000    0.000    0.000    0.000 
#
# Total GULP energy -145329.024201 kJ/mol
# GULP energy per Si atom -5589.577854 kJ/mol
# Density = 2.384014 g / cm^3
# Si number density = 23.894529 Si / 1000 Ang^3
#
#
#
# Elastic Constant Matrix: (Units=GPa)
#
#
# Indices 1 2 3 4 5 6 
#
# 1 109.9822 7.3847 30.7728 0.0000 16.9257 0.0000
# 2 7.3847 117.1051 25.3833 0.0000 -10.6062 0.0000
# 3 30.7728 25.3833 104.7678 0.0000 -5.6061 0.0000
# 4 0.0000 0.0000 0.0000 14.3003 0.0000 -4.4377
# 5 16.9257 -10.6062 -5.6061 0.0000 35.4965 0.0000
# 6 0.0000 0.0000 0.0000 -4.4377 0.0000 7.9455
#
#
#
# Elastic Compliance Matrix: (Units=1/GPa)
#
#
# Indices 1 2 3 4 5 6 
#
# 1 0.010997 -0.000487 -0.003430 0.000000 -0.005931 0.000000
# 2 -0.000487 0.009236 -0.001951 0.000000 0.002684 0.000000
# 3 -0.003430 -0.001951 0.011176 0.000000 0.002817 0.000000
# 4 0.000000 0.000000 0.000000 0.084589 0.000000 0.047244
# 5 -0.005931 0.002684 0.002817 0.000000 0.032247 0.000000
# 6 0.000000 0.000000 0.000000 0.047244 0.000000 0.152243
#
#
# Mechanical properties :
#
#
# Convention : Reuss Voigt Hill
#
# Bulk Modulus (GPa) = 50.82962 50.99297 50.91129
# Shear Modulus (GPa) = 15.68472 29.43609 22.56040
#
# Velocity S-wave (km/s) = 2.56484 3.51368 3.07606
# Velocity P-wave (km/s) = 5.48542 6.15211 5.82830
#
# Compressibility (1/GPa) = 0.01967357
#
# Stress axis : x y z
#
# Youngs Moduli (GPa) = 90.93019 108.27155 89.47995
#
# Poissons Ratio (x) = 0.05276 0.30687
# Poissons Ratio (y) = 0.04431 0.17457
# Poissons Ratio (z) = 0.31185 0.21123
#
# Static dielectric constant tensor:
#      x y z
#    x 1.953720 0.000000 -0.000040 
#    y 0.000000 1.899310 0.000000 
#    z -0.000040 0.000000 1.904710 
# 
# From -- ./inp_files/258559.got.cif
#   From: 2010.05.17/outbox.cif.g08.bks.cpg/sg12_130_cif.got.tgz:258559.got - 2010.06.03 13:09:07.
