data_PCOD9189646
_publ_section_title
;
Structure prediction by ZEFSAII (Michael W. Deem and Ramdas Pophale) SiO2 
 PCOD9189646
Probable space group: C 2/M
;
_chemical_formula_sum "Si O2"
_cell_formula_units_Z 56
_cell_length_a 21.458940
_cell_length_b 22.301307
_cell_length_c 5.498630
_cell_angle_alpha 90.000000
_cell_angle_beta 118.185033
_cell_angle_gamma 90.000000
_cell_volume 2319.419806
_symmetry_space_group_name_H-M "C 2/M"
_symmetry_group_IT_number 12
_symmetry_cell_setting 'monoclinic'
loop_
_space_group_symop_operation_xyz
x,y,z
-x,y,-z
-x,-y,-z
x,-y,z
1/2+x,1/2+y,z
1/2-x,1/2+y,-z
1/2-x,1/2-y,-z
1/2+x,1/2-y,z
loop_
_atom_site_type_symbol
_atom_site_label
_atom_site_fract_x
_atom_site_fract_y
_atom_site_fract_z
Si Si1 0.578447 0.428227 0.123524
Si Si2 0.600526 0.000000 0.814598
Si Si3 0.204408 0.628359 0.528648
Si Si4 0.858072 0.284135 0.202366
Si Si5 0.935032 0.373056 0.064084
Si Si6 0.687342 0.000000 0.477742
Si Si7 0.839277 0.071123 0.216274
Si Si8 0.281482 0.314434 0.294256
O O1 0.572178 0.500000 0.086258
O O2 0.616750 0.411550 0.942630
O O3 0.500000 0.401724 0.000000
O O4 0.616881 0.419435 0.452095
O O5 0.561126 0.936514 0.785664
O O6 0.630235 0.000000 0.593483
O O7 0.656947 0.000000 0.146139
O O8 0.164137 0.660710 0.668177
O O9 0.230194 0.560426 0.601361
O O10 0.268875 0.667282 0.547916
O O11 0.140268 0.623576 0.214549
O O12 0.926700 0.310727 0.197697
O O13 0.849670 0.224374 0.348082
O O14 0.790642 0.278640 0.898785
O O15 0.000000 0.370456 0.000000
O O16 0.780761 0.122515 0.146972
O O17 0.819721 0.000000 0.175694
#
# Coordination Sequence:
#
# PCOD9189646 Si02
#       8
#     8   4   8   8   8   4   8   8
#     4   9  18  36  62  88 123 160 195 242 312 384
#     4  10  19  38  58  94 126 162 204 254 309 377
#     4  10  21  38  60  88 119 165 201 259 314 373
#     4  10  21  42  60  82 117 167 216 249 316 375
#     4  10  21  38  61  90 124 162 211 262 317 378
#     4  10  20  36  61  92 128 156 205 251 314 364
#     4  10  21  37  59  95 122 155 203 260 316 366
#     4  10  23  38  61  85 118 164 213 255 308 381
#
# _framework density 24.143971000000001
#
# number of rings (size 3 to 8) (size 9 to 14) (size 15 to 20)
#    0.000    2.143    1.429    1.071    3.000    2.286 
#    2.571    2.143    3.143    0.000    0.000    0.000 
#    0.000    0.000    0.000    0.000    0.000    0.000 
#
# Total GULP energy -156238.704940 kJ/mol
# GULP energy per Si atom -5579.953748 kJ/mol
# Density = 2.408902 g / cm^3
# Si number density = 24.143971 Si / 1000 Ang^3
#
#
#
# Elastic Constant Matrix: (Units=GPa)
#
#
# Indices 1 2 3 4 5 6 
#
# 1 136.4051 40.4837 28.7755 0.0000 -25.9814 0.0000
# 2 40.4837 107.7240 11.6242 0.0000 1.6177 0.0000
# 3 28.7755 11.6242 80.3973 0.0000 -9.1111 0.0000
# 4 0.0000 0.0000 0.0000 25.0360 0.0000 -24.7484
# 5 -25.9814 1.6177 -9.1111 0.0000 27.8505 0.0000
# 6 0.0000 0.0000 0.0000 -24.7484 0.0000 27.5419
#
#
#
# Elastic Compliance Matrix: (Units=1/GPa)
#
#
# Indices 1 2 3 4 5 6 
#
# 1 0.010798 -0.003964 -0.002206 0.000000 0.009582 0.000000
# 2 -0.003964 0.010914 -0.000675 0.000000 -0.004553 0.000000
# 3 -0.002206 -0.000675 0.013601 0.000000 0.002431 0.000000
# 4 0.000000 0.000000 0.000000 0.357437 0.000000 0.321184
# 5 0.009582 -0.004553 0.002431 0.000000 0.045905 0.000000
# 6 0.000000 0.000000 0.000000 0.321184 0.000000 0.324915
#
#
# Mechanical properties :
#
#
# Convention : Reuss Voigt Hill
#
# Bulk Modulus (GPa) = 46.24704 54.03259 50.13982
# Shear Modulus (GPa) = 6.37376 32.32855 19.35115
#
# Velocity S-wave (km/s) = 1.62654 3.66319 2.83413
# Velocity P-wave (km/s) = 4.76695 6.34979 5.61443
#
# Compressibility (1/GPa) = 0.02162300
#
# Stress axis : x y z
#
# Youngs Moduli (GPa) = 92.61021 91.62664 73.52505
#
# Poissons Ratio (x) = 0.36319 0.16218
# Poissons Ratio (y) = 0.36709 0.04964
# Poissons Ratio (z) = 0.20428 0.06186
#
# Static dielectric constant tensor:
#      x y z
#    x 1.939990 0.000000 -0.037490 
#    y 0.000000 1.994050 0.000000 
#    z -0.037490 0.000000 2.059280 
# 
# From -- ./inp_files/21943.got.cif
#   From: 2010.05.17/outbox.cif.g08.bks.cpg/sg12_11_cif.got.tgz:21943.got - 2010.06.03 13:09:07.
