data_PCOD9189781
_publ_section_title
;
Structure prediction by ZEFSAII (Michael W. Deem and Ramdas Pophale) SiO2 
 PCOD9189781
Probable space group: C 2/M
;
_chemical_formula_sum "Si O2"
_cell_formula_units_Z 60
_cell_length_a 14.973208
_cell_length_b 24.794031
_cell_length_c 8.690955
_cell_angle_alpha 90.000000
_cell_angle_beta 111.050632
_cell_angle_gamma 90.000000
_cell_volume 3011.159226
_symmetry_space_group_name_H-M "C 2/M"
_symmetry_group_IT_number 12
_symmetry_cell_setting 'monoclinic'
loop_
_space_group_symop_operation_xyz
x,y,z
-x,y,-z
-x,-y,-z
x,-y,z
1/2+x,1/2+y,z
1/2-x,1/2+y,-z
1/2-x,1/2-y,-z
1/2+x,1/2-y,z
loop_
_atom_site_type_symbol
_atom_site_label
_atom_site_fract_x
_atom_site_fract_y
_atom_site_fract_z
Si Si1 0.407266 0.063703 0.359924
Si Si2 0.741494 0.884402 0.524350
Si Si3 0.869126 0.817709 0.834229
Si Si4 0.070772 0.154165 0.805630
Si Si5 0.190273 0.064298 0.726792
Si Si6 0.655255 0.220823 0.375504
Si Si7 0.102527 0.565550 0.993902
Si Si8 0.000000 0.768986 0.500000
O O1 0.500000 0.087940 0.500000
O O2 0.322117 0.072673 0.425851
O O3 0.423243 0.000000 0.349804
O O4 0.390325 0.085233 0.178142
O O5 0.789204 0.848956 0.688153
O O6 0.811708 0.913356 0.448795
O O7 0.678321 0.841911 0.387483
O O8 0.867876 0.754210 0.792685
O O9 0.965975 0.842615 0.818872
O O10 0.863645 0.826181 0.012356
O O11 0.111570 0.097148 0.774660
O O12 0.062542 0.193111 0.652452
O O13 0.297705 0.077054 0.857160
O O14 0.176737 0.000000 0.724849
O O15 0.750000 0.250000 0.500000
O O16 0.569710 0.233700 0.439181
O O17 0.097858 0.500000 0.992163
O O18 0.000000 0.584120 0.000000
#
# Coordination Sequence:
#
# PCOD9189781 Si02
#       8
#     8   8   8   8   8   8   8   4
#     4  10  20  34  54  77 108 151 192 233 285 338
#     4  11  21  36  56  82 118 150 194 234 288 341
#     4   9  20  38  60  85 112 149 189 240 292 349
#     4  10  19  38  63  84 115 152 190 235 294 347
#     4  11  22  36  57  86 118 155 195 237 287 349
#     4   9  19  36  57  82 113 148 187 239 291 342
#     4   9  18  34  53  75 109 151 193 238 282 329
#     4  10  20  38  63  86 113 152 194 240 300 346
#
# _framework density 19.925881
#
# number of rings (size 3 to 8) (size 9 to 14) (size 15 to 20)
#    0.000    2.133    0.000    4.400    0.933    2.133 
#    0.000   13.000    8.800    0.000    0.000    0.000 
#    0.000    0.000    0.000    0.000    0.000    0.000 
#
# Total GULP energy -167231.303950 kJ/mol
# GULP energy per Si atom -5574.376798 kJ/mol
# Density = 1.988053 g / cm^3
# Si number density = 19.925881 Si / 1000 Ang^3
#
#
#
# Elastic Constant Matrix: (Units=GPa)
#
#
# Indices 1 2 3 4 5 6 
#
# 1 30.7606 13.0876 -2.3201 0.0000 -3.7643 0.0000
# 2 13.0876 64.3678 35.1952 0.0000 -6.1463 0.0000
# 3 -2.3201 35.1952 102.3907 0.0000 -13.6460 0.0000
# 4 0.0000 0.0000 0.0000 9.5454 0.0000 8.9325
# 5 -3.7643 -6.1463 -13.6460 0.0000 28.6473 0.0000
# 6 0.0000 0.0000 0.0000 8.9325 0.0000 18.0810
#
#
#
# Elastic Compliance Matrix: (Units=1/GPa)
#
#
# Indices 1 2 3 4 5 6 
#
# 1 0.037719 -0.009875 0.004941 0.000000 0.005191 0.000000
# 2 -0.009875 0.021746 -0.007741 0.000000 -0.000319 0.000000
# 3 0.004941 -0.007741 0.013245 0.000000 0.005298 0.000000
# 4 0.000000 0.000000 0.000000 0.194834 0.000000 -0.096253
# 5 0.005191 -0.000319 0.005298 0.000000 0.038044 0.000000
# 6 0.000000 0.000000 0.000000 -0.096253 0.000000 0.102858
#
#
# Mechanical properties :
#
#
# Convention : Reuss Voigt Hill
#
# Bulk Modulus (GPa) = 21.11519 32.16049 26.63784
# Shear Modulus (GPa) = 11.12142 21.35851 16.23996
#
# Velocity S-wave (km/s) = 2.36506 3.27754 2.85795
# Velocity P-wave (km/s) = 4.25181 5.52251 4.92828
#
# Compressibility (1/GPa) = 0.04735926
#
# Stress axis : x y z
#
# Youngs Moduli (GPa) = 26.51216 45.98600 75.49789
#
# Poissons Ratio (x) = 0.45411 -0.37303
# Poissons Ratio (y) = 0.26181 0.58444
# Poissons Ratio (z) = -0.13099 0.35598
#
# Static dielectric constant tensor:
#      x y z
#    x 1.708030 0.000000 0.025140 
#    y 0.000000 1.700210 0.000000 
#    z 0.025140 0.000000 1.748300 
# 
# From -- ./inp_files/65930.got.cif
#   From: 2010.05.17/outbox.cif.g08.bks.cpg/sg12_33_cif.got.tgz:65930.got - 2010.06.03 13:09:07.
