data_PCOD9189902
_publ_section_title
;
Structure prediction by ZEFSAII (Michael W. Deem and Ramdas Pophale) SiO2 
 PCOD9189902
Probable space group: C 2/M
;
_chemical_formula_sum "Si O2"
_cell_formula_units_Z 34
_cell_length_a 14.279259
_cell_length_b 15.942911
_cell_length_c 7.231740
_cell_angle_alpha 90.000000
_cell_angle_beta 103.648111
_cell_angle_gamma 90.000000
_cell_volume 1599.839995
_symmetry_space_group_name_H-M "C 2/M"
_symmetry_group_IT_number 12
_symmetry_cell_setting 'monoclinic'
loop_
_space_group_symop_operation_xyz
x,y,z
-x,y,-z
-x,-y,-z
x,-y,z
1/2+x,1/2+y,z
1/2-x,1/2+y,-z
1/2-x,1/2-y,-z
1/2+x,1/2-y,z
loop_
_atom_site_type_symbol
_atom_site_label
_atom_site_fract_x
_atom_site_fract_y
_atom_site_fract_z
Si Si1 0.458803 0.641763 0.289013
Si Si2 0.885426 0.593419 0.475323
Si Si3 0.220674 0.746292 0.705936
Si Si4 0.081389 0.706114 0.177939
Si Si5 0.000000 0.000000 0.000000
O O1 0.500000 0.606415 0.500000
O O2 0.353642 0.680687 0.278427
O O3 0.528145 0.721394 0.271579
O O4 0.465508 0.574115 0.131288
O O5 0.846082 0.500000 0.440565
O O6 0.834267 0.657493 0.311646
O O7 0.879641 0.630721 0.678646
O O8 0.000000 0.592596 0.500000
O O9 0.250000 0.750000 0.500000
O O10 0.321829 0.752916 0.859788
O O11 0.000000 0.676818 0.000000
#
# Coordination Sequence:
#
# PCOD9189902 Si02
#       5
#     8   8   8   8   2
#     4  12  22  48  71 100 149 185 247 309 361 442
#     4  10  19  38  66  97 131 177 238 288 351 439
#     4  10  20  41  72 100 131 197 240 286 377 432
#     4  11  22  41  69  98 142 191 239 292 373 428
#     4  12  30  44  68 114 140 200 248 302 372 428
#
# _framework density 21.252123999999998
#
# number of rings (size 3 to 8) (size 9 to 14) (size 15 to 20)
#    0.000    1.176    8.235    0.353    0.000    1.412 
#   10.588    0.000    5.176    0.000    0.000    0.000 
#    0.000    0.000    0.000    0.000    0.000    0.000 
#
# Total GULP energy -94638.445943 kJ/mol
# GULP energy per Si atom -5566.967408 kJ/mol
# Density = 2.120375 g / cm^3
# Si number density = 21.252124 Si / 1000 Ang^3
#
#
#
# Elastic Constant Matrix: (Units=GPa)
#
#
# Indices 1 2 3 4 5 6 
#
# 1 137.2680 43.2093 41.6874 0.0000 7.6791 0.0000
# 2 43.2093 135.8791 36.4070 0.0000 -7.1566 0.0000
# 3 41.6874 36.4070 77.4696 0.0000 4.6983 0.0000
# 4 0.0000 0.0000 0.0000 35.6685 0.0000 -13.1419
# 5 7.6791 -7.1566 4.6983 0.0000 42.6556 0.0000
# 6 0.0000 0.0000 0.0000 -13.1419 0.0000 21.7462
#
#
#
# Elastic Compliance Matrix: (Units=1/GPa)
#
#
# Indices 1 2 3 4 5 6 
#
# 1 0.009178 -0.001947 -0.003930 0.000000 -0.001546 0.000000
# 2 -0.001947 0.008982 -0.003308 0.000000 0.002222 0.000000
# 3 -0.003930 -0.003308 0.016680 0.000000 -0.001685 0.000000
# 4 0.000000 0.000000 0.000000 0.036067 0.000000 0.021796
# 5 -0.001546 0.002222 -0.001685 0.000000 0.024280 0.000000
# 6 0.000000 0.000000 0.000000 0.021796 0.000000 0.059157
#
#
# Mechanical properties :
#
#
# Convention : Reuss Voigt Hill
#
# Bulk Modulus (GPa) = 60.71813 65.91379 63.31596
# Shear Modulus (GPa) = 28.05773 35.30158 31.67966
#
# Velocity S-wave (km/s) = 3.63744 4.08006 3.86509
# Velocity P-wave (km/s) = 6.80248 7.29920 7.05521
#
# Compressibility (1/GPa) = 0.01646955
#
# Stress axis : x y z
#
# Youngs Moduli (GPa) = 108.95737 111.33347 59.95229
#
# Poissons Ratio (x) = 0.21677 0.23561
# Poissons Ratio (y) = 0.21214 0.19833
# Poissons Ratio (z) = 0.42820 0.36831
#
# Static dielectric constant tensor:
#      x y z
#    x 1.845080 0.000000 -0.034170 
#    y 0.000000 1.733460 0.000000 
#    z -0.034170 0.000000 1.867820 
# 
# From -- ./inp_files/58324.got.cif
#   From: 2010.05.17/outbox.cif.g08.bks.cpg/sg12_30_cif.got.tgz:58324.got - 2010.06.03 13:09:07.
