data_PCOD9189751
_publ_section_title
;
Structure prediction by ZEFSAII (Michael W. Deem and Ramdas Pophale) SiO2 
 PCOD9189751
Probable space group: C 2/M
;
_chemical_formula_sum "Si O2"
_cell_formula_units_Z 56
_cell_length_a 17.508172
_cell_length_b 27.623573
_cell_length_c 7.552757
_cell_angle_alpha 90.000000
_cell_angle_beta 139.352525
_cell_angle_gamma 90.000000
_cell_volume 2379.446829
_symmetry_space_group_name_H-M "C 2/M"
_symmetry_group_IT_number 12
_symmetry_cell_setting 'monoclinic'
loop_
_space_group_symop_operation_xyz
x,y,z
-x,y,-z
-x,-y,-z
x,-y,z
1/2+x,1/2+y,z
1/2-x,1/2+y,-z
1/2-x,1/2-y,-z
1/2+x,1/2-y,z
loop_
_atom_site_type_symbol
_atom_site_label
_atom_site_fract_x
_atom_site_fract_y
_atom_site_fract_z
Si Si1 0.948829 0.265947 0.606941
Si Si2 0.126582 0.573782 0.791803
Si Si3 0.789471 0.597284 0.688190
Si Si4 0.894681 0.835082 0.435561
Si Si5 0.000000 0.666517 0.000000
Si Si6 0.382908 0.413254 0.898195
Si Si7 0.324092 0.500000 0.997552
Si Si8 0.241801 0.331978 0.848112
O O1 0.940680 0.209185 0.634120
O O2 0.020430 0.298443 0.869721
O O3 0.821477 0.290903 0.373964
O O4 0.000000 0.269552 0.500000
O O5 0.229477 0.541861 0.891917
O O6 0.149246 0.628756 0.764141
O O7 0.000000 0.558830 0.500000
O O8 0.142898 0.571256 0.032428
O O9 0.684694 0.627286 0.598969
O O10 0.721416 0.567805 0.417079
O O11 0.886687 0.632616 0.774748
O O12 0.000000 0.856542 0.500000
O O13 0.809864 0.811742 0.137394
O O14 0.410833 0.456590 0.080523
O O15 0.330339 0.364896 0.891077
O O16 0.500000 0.401481 0.000000
#
# Coordination Sequence:
#
# PCOD9189751 Si02
#       8
#     8   8   8   8   4   8   4   8
#     4  11  22  40  64  94 134 178 225 281 336 384
#     4  10  21  40  66  93 129 169 216 266 336 406
#     4  11  24  42  67  98 134 177 224 280 339 403
#     4  10  22  40  61  92 127 177 233 273 329 391
#     4  12  24  42  64 103 138 178 230 277 340 406
#     4  11  23  43  65  95 133 171 217 276 340 402
#     4  10  24  42  66  99 127 169 218 270 336 418
#     4  10  19  38  62  86 125 171 221 268 320 398
#
# _framework density 23.534882
#
# number of rings (size 3 to 8) (size 9 to 14) (size 15 to 20)
#    0.000    1.429    1.429    4.714    2.000    2.286 
#    6.429    1.429    0.000    0.000    0.000    0.000 
#    0.000    0.000    0.000    0.000    0.000    0.000 
#
# Total GULP energy -156072.113599 kJ/mol
# GULP energy per Si atom -5574.004057 kJ/mol
# Density = 2.348132 g / cm^3
# Si number density = 23.534882 Si / 1000 Ang^3
#
#
#
# Elastic Constant Matrix: (Units=GPa)
#
#
# Indices 1 2 3 4 5 6 
#
# 1 64.9980 12.3986 -6.3118 0.0000 11.1384 0.0000
# 2 12.3986 69.0953 -3.4302 0.0000 8.4232 0.0000
# 3 -6.3118 -3.4302 65.5872 0.0000 -7.2402 0.0000
# 4 0.0000 0.0000 0.0000 -32.9892 0.0000 32.1876
# 5 11.1384 8.4232 -7.2402 0.0000 28.8060 0.0000
# 6 0.0000 0.0000 0.0000 32.1876 0.0000 -7.6033
#
#
#
# Elastic Compliance Matrix: (Units=1/GPa)
#
#
# Indices 1 2 3 4 5 6 
#
# 1 0.016874 -0.002298 0.000882 0.000000 -0.005631 0.000000
# 2 -0.002298 0.015327 0.000189 0.000000 -0.003546 0.000000
# 3 0.000882 0.000189 0.015734 0.000000 0.003558 0.000000
# 4 0.000000 0.000000 0.000000 0.009683 0.000000 0.040992
# 5 -0.005631 -0.003546 0.003558 0.000000 0.038824 0.000000
# 6 0.000000 0.000000 0.000000 0.040992 0.000000 0.042013
#
#
# Mechanical properties :
#
#
# Convention : Reuss Voigt Hill
#
# Bulk Modulus (GPa) = 21.98663 22.77706 22.38184
# Shear Modulus (GPa) = 32.03724 10.77762 21.40743
#
# Velocity S-wave (km/s) = 3.69354 2.14228 3.01924
# Velocity P-wave (km/s) = 5.24900 3.97721 4.65673
#
# Compressibility (1/GPa) = 0.04548218
#
# Stress axis : x y z
#
# Youngs Moduli (GPa) = 59.26274 65.24562 63.55476
#
# Poissons Ratio (x) = 0.14991 -0.05606
# Poissons Ratio (y) = 0.13616 -0.01202
# Poissons Ratio (z) = -0.05227 -0.01234
#
# Static dielectric constant tensor:
#      x y z
#    x 1.930920 0.000000 -0.049310 
#    y 0.000000 1.873830 0.000000 
#    z -0.049310 0.000000 1.975460 
# 
# From -- ./inp_files/80142.got.cif
#   From: 2010.05.17/outbox.cif.g08.bks.cpg/sg12_41_cif.got.tgz:80142.got - 2010.06.03 13:09:07.
