data_PCOD9189114
_publ_section_title
;
Structure prediction by ZEFSAII (Michael W. Deem and Ramdas Pophale) SiO2 
 PCOD9189114
Probable space group: C 2/M
;
_chemical_formula_sum "Si O2"
_cell_formula_units_Z 64
_cell_length_a 28.657861
_cell_length_b 17.853592
_cell_length_c 8.287534
_cell_angle_alpha 90.000000
_cell_angle_beta 51.616947
_cell_angle_gamma 90.000000
_cell_volume 3323.859853
_symmetry_space_group_name_H-M "C 2/M"
_symmetry_group_IT_number 12
_symmetry_cell_setting 'monoclinic'
loop_
_space_group_symop_operation_xyz
x,y,z
-x,y,-z
-x,-y,-z
x,-y,z
1/2+x,1/2+y,z
1/2-x,1/2+y,-z
1/2-x,1/2-y,-z
1/2+x,1/2-y,z
loop_
_atom_site_type_symbol
_atom_site_label
_atom_site_fract_x
_atom_site_fract_y
_atom_site_fract_z
Si Si1 0.684328 0.587308 0.375408
Si Si2 0.144483 0.769126 0.012224
Si Si3 0.512228 0.081007 0.782388
Si Si4 0.253546 0.662308 0.054120
Si Si5 0.221566 0.327224 0.630032
Si Si6 0.642549 0.141513 0.503180
Si Si7 0.593145 0.291944 0.480848
Si Si8 0.023644 0.744718 0.133094
O O1 0.675442 0.500000 0.412214
O O2 0.723654 0.621727 0.434438
O O3 0.623560 0.632177 0.474029
O O4 0.722902 0.609040 0.134969
O O5 0.114491 0.769826 0.254616
O O6 0.089621 0.776529 0.008486
O O7 0.195400 0.832207 0.917976
O O8 0.180842 0.696934 0.870681
O O9 0.583234 0.093043 0.610558
O O10 0.479619 0.157689 0.799375
O O11 0.494189 0.000000 0.751460
O O12 0.500000 0.078126 0.000000
O O13 0.191863 0.635055 0.258850
O O14 0.250000 0.750000 0.000000
O O15 0.250000 0.250000 0.500000
O O16 0.177742 0.365178 0.595052
O O17 0.619330 0.226730 0.538891
O O18 0.522928 0.289531 0.656873
O O19 0.000000 0.746216 0.000000
#
# Coordination Sequence:
#
# PCOD9189114 Si02
#       8
#     8   8   8   8   8   8   8   8
#     4  11  23  37  57  88 124 156 188 248 315 357
#     4  11  19  33  59  87 113 151 201 245 293 348
#     4   9  19  35  50  74 118 155 183 232 290 335
#     4  11  18  38  59  84 114 156 199 247 294 354
#     4  12  19  32  58  88 119 152 194 241 292 361
#     4  11  19  32  61  84 109 157 209 240 283 350
#     4  10  19  37  57  81 113 152 201 248 286 352
#     4  10  21  34  59  89 106 148 212 250 291 350
#
# _framework density 19.254722999999998
#
# number of rings (size 3 to 8) (size 9 to 14) (size 15 to 20)
#    0.000    1.375    6.250    2.625    0.000    1.000 
#    0.000    0.625    0.000   12.375    0.000    0.000 
#    0.000    0.000    0.000    0.000    0.000    0.000 
#
# Total GULP energy -178431.799280 kJ/mol
# GULP energy per Si atom -5575.993727 kJ/mol
# Density = 1.921090 g / cm^3
# Si number density = 19.254723 Si / 1000 Ang^3
#
#
#
# Elastic Constant Matrix: (Units=GPa)
#
#
# Indices 1 2 3 4 5 6 
#
# 1 73.9976 17.6236 -2.1608 0.0000 -4.0991 0.0000
# 2 17.6236 88.6566 12.3796 0.0000 0.0394 0.0000
# 3 -2.1608 12.3796 72.1455 0.0000 -16.6771 0.0000
# 4 0.0000 0.0000 0.0000 10.0683 0.0000 -1.8607
# 5 -4.0991 0.0394 -16.6771 0.0000 33.5049 0.0000
# 6 0.0000 0.0000 0.0000 -1.8607 0.0000 14.5180
#
#
#
# Elastic Compliance Matrix: (Units=1/GPa)
#
#
# Indices 1 2 3 4 5 6 
#
# 1 0.014435 -0.003087 0.001549 0.000000 0.002541 0.000000
# 2 -0.003087 0.012255 -0.002583 0.000000 -0.001678 0.000000
# 3 0.001549 -0.002583 0.016267 0.000000 0.008289 0.000000
# 4 0.000000 0.000000 0.000000 0.101731 0.000000 0.013039
# 5 0.002541 -0.001678 0.008289 0.000000 0.034285 0.000000
# 6 0.000000 0.000000 0.000000 0.013039 0.000000 0.070551
#
#
# Mechanical properties :
#
#
# Convention : Reuss Voigt Hill
#
# Bulk Modulus (GPa) = 28.80593 32.27604 30.54099
# Shear Modulus (GPa) = 18.56410 25.41540 21.98975
#
# Velocity S-wave (km/s) = 3.10842 3.63706 3.38308
# Velocity P-wave (km/s) = 5.27977 5.86828 5.58178
#
# Compressibility (1/GPa) = 0.03471508
#
# Stress axis : x y z
#
# Youngs Moduli (GPa) = 69.27531 81.60234 61.47536
#
# Poissons Ratio (x) = 0.25190 -0.09525
# Poissons Ratio (y) = 0.21385 0.15880
# Poissons Ratio (z) = -0.10733 0.21079
#
# Static dielectric constant tensor:
#      x y z
#    x 1.735350 0.000000 0.008080 
#    y 0.000000 1.651940 0.000000 
#    z 0.008080 0.000000 1.738110 
# 
# From -- ./inp_files/111985.got.cif
#   From: 2010.05.17/outbox.cif.g08.bks.cpg/sg12_56_cif.got.tgz:111985.got - 2010.06.03 13:09:07.
