data_PCOD9189780
_publ_section_title
;
Structure prediction by ZEFSAII (Michael W. Deem and Ramdas Pophale) SiO2 
 PCOD9189780
Probable space group: C 2/M
;
_chemical_formula_sum "Si O2"
_cell_formula_units_Z 48
_cell_length_a 18.034050
_cell_length_b 19.914664
_cell_length_c 16.031869
_cell_angle_alpha 90.000000
_cell_angle_beta 156.613341
_cell_angle_gamma 90.000000
_cell_volume 2285.435202
_symmetry_space_group_name_H-M "C 2/M"
_symmetry_group_IT_number 12
_symmetry_cell_setting 'monoclinic'
loop_
_space_group_symop_operation_xyz
x,y,z
-x,y,-z
-x,-y,-z
x,-y,z
1/2+x,1/2+y,z
1/2-x,1/2+y,-z
1/2-x,1/2-y,-z
1/2+x,1/2-y,z
loop_
_atom_site_type_symbol
_atom_site_label
_atom_site_fract_x
_atom_site_fract_y
_atom_site_fract_z
Si Si1 0.712672 0.773406 0.850839
Si Si2 0.433181 0.424091 0.601389
Si Si3 0.684481 0.857466 0.978348
Si Si4 0.795989 0.835092 0.766416
Si Si5 0.331793 0.921471 0.521127
Si Si6 0.866154 0.794867 0.444025
O O1 0.769308 0.819904 0.984991
O O2 0.701482 0.820523 0.758196
O O3 0.505571 0.743504 0.651325
O O4 0.835258 0.704905 0.977193
O O5 0.396548 0.500000 0.536519
O O6 0.353765 0.417102 0.613198
O O7 0.328439 0.368421 0.437976
O O8 0.653805 0.407405 0.824094
O O9 0.498736 0.892048 0.751208
O O10 0.699831 0.880930 0.597439
O O11 0.799272 0.757873 0.737353
O O12 0.000000 0.861223 0.000000
O O13 0.369107 0.000000 0.542310
O O14 0.000000 0.800334 0.500000
#
# Coordination Sequence:
#
# PCOD9189780 Si02
#       6
#     8   8   8   8   8   8
#     4   9  19  36  58  87 114 146 200 250 286 348
#     4  10  22  38  58  87 118 153 198 242 295 361
#     4  10  19  38  63  84 114 155 197 246 296 340
#     4  11  22  36  57  87 121 153 198 245 296 348
#     4  11  24  39  59  88 124 162 198 239 292 360
#     4   9  19  37  59  83 114 148 194 251 299 348
#
# _framework density 21.002562999999999
#
# number of rings (size 3 to 8) (size 9 to 14) (size 15 to 20)
#    0.000    2.000    1.667    1.500    2.333    1.333 
#    0.000    2.500    0.000    0.500    0.000    0.000 
#    0.000    0.000    0.000    0.000    0.000    0.000 
#
# Total GULP energy -133658.089434 kJ/mol
# GULP energy per Si atom -5569.087060 kJ/mol
# Density = 2.095476 g / cm^3
# Si number density = 21.002563 Si / 1000 Ang^3
#
#
#
# Elastic Constant Matrix: (Units=GPa)
#
#
# Indices 1 2 3 4 5 6 
#
# 1 42.8825 25.1312 3.7439 0.0000 -4.0559 0.0000
# 2 25.1312 123.9881 21.4766 0.0000 -3.3278 0.0000
# 3 3.7439 21.4766 79.9185 0.0000 -4.0479 0.0000
# 4 0.0000 0.0000 0.0000 15.0450 0.0000 -6.0472
# 5 -4.0559 -3.3278 -4.0479 0.0000 22.8604 0.0000
# 6 0.0000 0.0000 0.0000 -6.0472 0.0000 30.6824
#
#
#
# Elastic Compliance Matrix: (Units=1/GPa)
#
#
# Indices 1 2 3 4 5 6 
#
# 1 0.026831 -0.005399 0.000399 0.000000 0.004045 0.000000
# 2 -0.005399 0.009561 -0.002315 0.000000 0.000024 0.000000
# 3 0.000399 -0.002315 0.013221 0.000000 0.002075 0.000000
# 4 0.000000 0.000000 0.000000 0.072186 0.000000 0.014227
# 5 0.004045 0.000024 0.002075 0.000000 0.044832 0.000000
# 6 0.000000 0.000000 0.000000 0.014227 0.000000 0.035396
#
#
# Mechanical properties :
#
#
# Convention : Reuss Voigt Hill
#
# Bulk Modulus (GPa) = 28.58524 38.61030 33.59777
# Shear Modulus (GPa) = 21.89908 26.81338 24.35623
#
# Velocity S-wave (km/s) = 3.23257 3.57693 3.40910
# Velocity P-wave (km/s) = 5.25096 5.95674 5.61495
#
# Compressibility (1/GPa) = 0.03498309
#
# Stress axis : x y z
#
# Youngs Moduli (GPa) = 37.26980 104.58834 75.63532
#
# Poissons Ratio (x) = 0.56467 -0.03016
# Poissons Ratio (y) = 0.20122 0.17512
# Poissons Ratio (z) = -0.01486 0.24215
#
# Static dielectric constant tensor:
#      x y z
#    x 1.839370 0.000000 -0.022000 
#    y 0.000000 1.752600 0.000000 
#    z -0.022000 0.000000 1.809880 
# 
# From -- ./inp_files/285436.got.cif
#   From: 2010.05.17/outbox.cif.g08.bks.cpg/sg12_143_cif.got.tgz:285436.got - 2010.06.03 13:09:07.
