data_PCOD9189785
_publ_section_title
;
Structure prediction by ZEFSAII (Michael W. Deem and Ramdas Pophale) SiO2 
 PCOD9189785
Probable space group: C 2/M
;
_chemical_formula_sum "Si O2"
_cell_formula_units_Z 34
_cell_length_a 28.074663
_cell_length_b 12.936997
_cell_length_c 21.945306
_cell_angle_alpha 90.000000
_cell_angle_beta 169.408304
_cell_angle_gamma 90.000000
_cell_volume 1465.062601
_symmetry_space_group_name_H-M "C 2/M"
_symmetry_group_IT_number 12
_symmetry_cell_setting 'monoclinic'
loop_
_space_group_symop_operation_xyz
x,y,z
-x,y,-z
-x,-y,-z
x,-y,z
1/2+x,1/2+y,z
1/2-x,1/2+y,-z
1/2-x,1/2-y,-z
1/2+x,1/2-y,z
loop_
_atom_site_type_symbol
_atom_site_label
_atom_site_fract_x
_atom_site_fract_y
_atom_site_fract_z
Si Si1 0.500000 0.000000 0.000000
Si Si2 0.759950 0.110783 0.983995
Si Si3 0.847054 0.191071 0.219088
Si Si4 0.845333 0.113601 0.741697
Si Si5 0.096787 0.679850 0.024233
O O1 0.496559 0.090880 0.942100
O O2 0.794176 0.205912 0.982267
O O3 0.457212 0.115010 0.622100
O O4 0.822440 0.000000 0.035390
O O5 0.897662 0.124412 0.222284
O O6 0.670681 0.141291 0.049477
O O7 0.125868 0.214673 0.598338
O O8 0.903253 0.000000 0.786512
O O9 0.000000 0.118233 0.000000
O O10 0.922999 0.217151 0.803973
#
# Coordination Sequence:
#
# PCOD9189785 Si02
#       5
#     2   8   8   8   8
#     4  12  24  38  62  88 124 170 198 248 300 370
#     4  10  21  39  63  90 123 163 197 255 314 357
#     4  10  23  39  62  93 124 156 209 257 301 368
#     4  10  19  38  63  85 120 160 203 254 303 361
#     4  11  23  40  63  93 120 165 210 248 306 366
#
# _framework density 23.2072
#
# number of rings (size 3 to 8) (size 9 to 14) (size 15 to 20)
#    0.000    1.647    3.529    0.000    3.294    2.824 
#    0.000    2.353    0.000    0.000    0.000    0.000 
#    0.000    0.000    0.000    0.000    0.000    0.000 
#
# Total GULP energy -94743.814384 kJ/mol
# GULP energy per Si atom -5573.165552 kJ/mol
# Density = 2.315438 g / cm^3
# Si number density = 23.207200 Si / 1000 Ang^3
#
#
#
# Elastic Constant Matrix: (Units=GPa)
#
#
# Indices 1 2 3 4 5 6 
#
# 1 100.4863 43.5146 18.1539 0.2390 11.5086 0.1073
# 2 43.5146 163.7411 -2.9644 0.3115 21.2866 0.1290
# 3 18.1539 -2.9644 56.7066 0.7196 -3.1197 0.1530
# 4 0.2390 0.3115 0.7196 -97.6787 0.1890 -32.2162
# 5 11.5086 21.2866 -3.1197 0.1890 24.9402 0.0958
# 6 0.1073 0.1290 0.1530 -32.2162 0.0958 -21.1284
#
#
#
# Elastic Compliance Matrix: (Units=1/GPa)
#
#
# Indices 1 2 3 4 5 6 
#
# 1 0.012420 -0.002884 -0.004336 -0.000034 -0.003813 0.000049
# 2 -0.002884 0.007539 0.001043 0.000019 -0.004973 -0.000013
# 3 -0.004336 0.001043 0.019269 0.000192 0.003520 -0.000153
# 4 -0.000034 0.000019 0.000192 -0.020593 0.000059 0.031401
# 5 -0.003813 -0.004973 0.003520 0.000059 0.046540 0.000097
# 6 0.000049 -0.000013 -0.000153 0.031401 0.000097 -0.095210
#
#
# Mechanical properties :
#
#
# Convention : Reuss Voigt Hill
#
# Bulk Modulus (GPa) = 37.20899 48.70469 42.95684
# Shear Modulus (GPa) = -573.21088 -1.29139 -287.25114
#
# Velocity S-wave (km/s) = -15.73319 -0.74677 -11.13757
# Velocity P-wave (km/s) = 17.71937 4.50432 12.11790
#
# Compressibility (1/GPa) = 0.02687522
#
# Stress axis : x y z
#
# Youngs Moduli (GPa) = 80.51256 132.64462 51.89665
#
# Poissons Ratio (x) = 0.38249 0.22505
# Poissons Ratio (y) = 0.23217 -0.05415
# Poissons Ratio (z) = 0.34914 -0.13840
#
# Static dielectric constant tensor:
#      x y z
#    x 1.851240 0.000000 -0.021790 
#    y 0.000000 1.868220 -0.000030 
#    z -0.021790 -0.000030 1.905100 
# 
# From -- ./inp_files/70954.got.cif
#   From: 2010.05.17/outbox.cif.g08.bks.cpg/sg12_36_cif.got.tgz:70954.got - 2010.06.03 13:09:07.
