data_PCOD9189127
_publ_section_title
;
Structure prediction by ZEFSAII (Michael W. Deem and Ramdas Pophale) SiO2 
 PCOD9189127
Probable space group: C 2/M
;
_chemical_formula_sum "Si O2"
_cell_formula_units_Z 44
_cell_length_a 13.697466
_cell_length_b 25.126202
_cell_length_c 9.597708
_cell_angle_alpha 90.000000
_cell_angle_beta 43.846270
_cell_angle_gamma 90.000000
_cell_volume 2288.210549
_symmetry_space_group_name_H-M "C 2/M"
_symmetry_group_IT_number 12
_symmetry_cell_setting 'monoclinic'
loop_
_space_group_symop_operation_xyz
x,y,z
-x,y,-z
-x,-y,-z
x,-y,z
1/2+x,1/2+y,z
1/2-x,1/2+y,-z
1/2-x,1/2-y,-z
1/2+x,1/2-y,z
loop_
_atom_site_type_symbol
_atom_site_label
_atom_site_fract_x
_atom_site_fract_y
_atom_site_fract_z
Si Si1 0.195951 0.108293 0.540921
Si Si2 0.000000 0.898572 0.500000
Si Si3 0.970170 0.328780 0.192190
Si Si4 0.165831 0.940520 0.863015
Si Si5 0.985247 0.211431 0.181474
Si Si6 0.284508 0.354208 0.946329
O O1 0.095187 0.078218 0.531129
O O2 0.345262 0.129244 0.333791
O O3 0.226670 0.076794 0.651220
O O4 0.109938 0.162285 0.668968
O O5 0.873919 0.869037 0.715024
O O6 0.933034 0.269295 0.283704
O O7 0.118602 0.347695 0.100550
O O8 0.000000 0.320921 0.000000
O O9 0.210672 0.000000 0.856825
O O10 0.191112 0.898972 0.960494
O O11 0.000000 0.940747 0.000000
O O12 0.140736 0.199521 0.079252
O O13 0.000000 0.207987 0.000000
#
# Coordination Sequence:
#
# PCOD9189127 Si02
#       6
#     8   4   8   8   8   8
#     4  11  20  41  57  90 121 159 199 255 296 350
#     4  10  20  34  63  78 118 152 192 240 295 346
#     4  11  23  34  59  88 126 162 199 237 313 362
#     4  11  22  41  69  89 114 159 212 256 301 351
#     4  10  19  37  57  86 123 164 201 242 288 361
#     4  11  20  41  57  90 121 159 199 255 296 350
#
# _framework density 19.228999999999999
#
# number of rings (size 3 to 8) (size 9 to 14) (size 15 to 20)
#    0.000    1.273    7.273    1.091    0.000    0.727 
#    0.000    5.455    0.000    1.091    0.000    0.000 
#    0.000    0.000    0.000    0.000    0.000    0.000 
#
# Total GULP energy -122508.931610 kJ/mol
# GULP energy per Si atom -5568.587800 kJ/mol
# Density = 1.918523 g / cm^3
# Si number density = 19.229000 Si / 1000 Ang^3
#
#
#
# Elastic Constant Matrix: (Units=GPa)
#
#
# Indices 1 2 3 4 5 6 
#
# 1 90.5607 13.4972 18.4667 0.0000 -5.4098 0.0000
# 2 13.4972 56.9416 1.7424 0.0000 5.4901 0.0000
# 3 18.4667 1.7424 57.7339 0.0000 -0.3237 0.0000
# 4 0.0000 0.0000 0.0000 31.5626 0.0000 -20.5916
# 5 -5.4098 5.4901 -0.3237 0.0000 38.6918 0.0000
# 6 0.0000 0.0000 0.0000 -20.5916 0.0000 10.2384
#
#
#
# Elastic Compliance Matrix: (Units=1/GPa)
#
#
# Indices 1 2 3 4 5 6 
#
# 1 0.012409 -0.003029 -0.003866 0.000000 0.002132 0.000000
# 2 -0.003029 0.018562 0.000391 0.000000 -0.003054 0.000000
# 3 -0.003866 0.000391 0.018543 0.000000 -0.000441 0.000000
# 4 0.000000 0.000000 0.000000 -0.101510 0.000000 -0.204157
# 5 0.002132 -0.003054 -0.000441 0.000000 0.026573 0.000000
# 6 0.000000 0.000000 0.000000 -0.204157 0.000000 -0.312930
#
#
# Mechanical properties :
#
#
# Convention : Reuss Voigt Hill
#
# Bulk Modulus (GPa) = 27.39100 30.29429 28.84264
# Shear Modulus (GPa) = -15.96544 27.53390 5.78423
#
# Velocity S-wave (km/s) = -2.88458 3.78814 1.73626
# Velocity P-wave (km/s) = 1.78357 5.90949 4.36481
#
# Compressibility (1/GPa) = 0.03650834
#
# Stress axis : x y z
#
# Youngs Moduli (GPa) = 80.58389 53.87271 53.92840
#
# Poissons Ratio (x) = 0.16317 0.20848
# Poissons Ratio (y) = 0.24407 -0.02111
# Poissons Ratio (z) = 0.31153 -0.02109
#
# Static dielectric constant tensor:
#      x y z
#    x 1.749000 0.000000 -0.079220 
#    y 0.000000 1.692770 0.000000 
#    z -0.079220 0.000000 1.866140 
# 
# From -- ./inp_files/53002.got.cif
#   From: 2010.05.17/outbox.cif.g08.bks.cpg/sg12_27_cif.got.tgz:53002.got - 2010.06.03 13:09:07.
