data_PCOD9189565
_publ_section_title
;
Structure prediction by ZEFSAII (Michael W. Deem and Ramdas Pophale) SiO2 
 PCOD9189565
Probable space group: C 2/M
;
_chemical_formula_sum "Si O2"
_cell_formula_units_Z 58
_cell_length_a 18.563151
_cell_length_b 17.380274
_cell_length_c 22.482476
_cell_angle_alpha 90.000000
_cell_angle_beta 23.326132
_cell_angle_gamma 90.000000
_cell_volume 2872.159454
_symmetry_space_group_name_H-M "C 2/M"
_symmetry_group_IT_number 12
_symmetry_cell_setting 'monoclinic'
loop_
_space_group_symop_operation_xyz
x,y,z
-x,y,-z
-x,-y,-z
x,-y,z
1/2+x,1/2+y,z
1/2-x,1/2+y,-z
1/2-x,1/2-y,-z
1/2+x,1/2-y,z
loop_
_atom_site_type_symbol
_atom_site_label
_atom_site_fract_x
_atom_site_fract_y
_atom_site_fract_z
Si Si1 0.214109 0.415402 0.849041
Si Si2 0.224664 0.145221 0.713761
Si Si3 0.433908 0.720538 0.627269
Si Si4 0.948057 0.706792 0.742894
Si Si5 0.170921 0.091280 0.983535
Si Si6 0.708747 0.842358 0.980001
Si Si7 0.000000 0.500000 0.500000
Si Si8 0.171799 0.286040 0.682672
O O1 0.289138 0.500000 0.778860
O O2 0.301484 0.349010 0.743136
O O3 0.235998 0.395844 0.902131
O O4 0.000000 0.415413 0.000000
O O5 0.331945 0.208572 0.672069
O O6 0.342513 0.068871 0.616672
O O7 0.184308 0.194089 0.684287
O O8 0.024665 0.123242 0.888330
O O9 0.490355 0.755748 0.648437
O O10 0.623762 0.688921 0.456689
O O11 0.118364 0.692720 0.656195
O O12 0.829563 0.630197 0.824611
O O13 0.819557 0.765245 0.878562
O O14 0.172628 0.000000 0.978874
O O15 0.216707 0.118225 0.016569
O O16 0.496193 0.819719 0.151382
#
# Coordination Sequence:
#
# PCOD9189565 Si02
#       8
#     8   8   8   8   8   8   2   8
#     4  10  22  40  61  90 122 154 200 260 316 374
#     4  12  22  37  62  89 124 170 208 254 302 373
#     4  11  24  37  61  89 126 161 204 248 322 370
#     4  10  21  38  59  86 118 162 205 255 304 371
#     4  11  21  36  58  90 120 158 211 263 302 362
#     4  10  19  37  67  87 114 156 214 251 309 369
#     4  12  24  40  56  98 134 164 214 260 306 356
#     4  11  19  39  62  88 117 163 209 250 301 374
#
# _framework density 20.193866
#
# number of rings (size 3 to 8) (size 9 to 14) (size 15 to 20)
#    0.000    1.241    4.828    2.483    1.931    0.000 
#    1.241    4.138    0.000    3.310    0.000    0.000 
#    0.000    0.000    0.000    0.000    0.000    0.000 
#
# Total GULP energy -161590.638961 kJ/mol
# GULP energy per Si atom -5572.090999 kJ/mol
# Density = 2.014790 g / cm^3
# Si number density = 20.193866 Si / 1000 Ang^3
#
#
#
# Elastic Constant Matrix: (Units=GPa)
#
#
# Indices 1 2 3 4 5 6 
#
# 1 35.8885 10.0878 22.9613 0.0046 -12.1708 -0.0039
# 2 10.0878 124.1113 50.9187 -0.0461 -8.8681 -0.0058
# 3 22.9613 50.9187 118.2412 -0.0218 -27.7280 -0.0027
# 4 0.0046 -0.0461 -0.0218 32.4954 -0.0024 -8.3510
# 5 -12.1708 -8.8681 -27.7280 -0.0024 32.6099 0.0007
# 6 -0.0039 -0.0058 -0.0027 -8.3510 0.0007 15.3969
#
#
#
# Elastic Compliance Matrix: (Units=1/GPa)
#
#
# Indices 1 2 3 4 5 6 
#
# 1 0.033720 -0.000331 -0.004341 -0.000007 0.008804 0.000004
# 2 -0.000331 0.009824 -0.004458 0.000014 -0.001242 0.000010
# 3 -0.004341 -0.004458 0.013185 0.000004 0.008378 0.000001
# 4 -0.000007 0.000014 0.000004 0.035758 0.000007 0.019394
# 5 0.008804 -0.001242 0.008378 0.000007 0.040738 0.000005
# 6 0.000004 0.000010 0.000001 0.019394 0.000005 0.075467
#
#
# Mechanical properties :
#
#
# Convention : Reuss Voigt Hill
#
# Bulk Modulus (GPa) = 25.99433 49.57518 37.78475
# Shear Modulus (GPa) = 20.85298 29.05200 24.95249
#
# Velocity S-wave (km/s) = 3.21696 3.79708 3.51899
# Velocity P-wave (km/s) = 5.16708 6.62017 5.93824
#
# Compressibility (1/GPa) = 0.03846993
#
# Stress axis : x y z
#
# Youngs Moduli (GPa) = 29.65591 101.78867 75.84525
#
# Poissons Ratio (x) = 0.03366 0.32926
# Poissons Ratio (y) = 0.00981 0.33810
# Poissons Ratio (z) = 0.12874 0.45375
#
# Static dielectric constant tensor:
#      x y z
#    x 1.792040 0.000000 0.019420 
#    y 0.000000 1.689520 0.000010 
#    z 0.019420 0.000010 1.753720 
# 
# From -- ./inp_files/366519.got.cif
#   From: 2010.05.17/outbox.cif.g08.bks.cpg/sg12_184_cif.got.tgz:366519.got - 2010.06.03 13:09:07.
