data_PCOD9189258
_publ_section_title
;
Structure prediction by ZEFSAII (Michael W. Deem and Ramdas Pophale) SiO2 
 PCOD9189258
Probable space group: C 2/M
;
_chemical_formula_sum "Si O2"
_cell_formula_units_Z 56
_cell_length_a 8.368213
_cell_length_b 29.092328
_cell_length_c 16.154654
_cell_angle_alpha 90.000000
_cell_angle_beta 42.964751
_cell_angle_gamma 90.000000
_cell_volume 2680.436340
_symmetry_space_group_name_H-M "C 2/M"
_symmetry_group_IT_number 12
_symmetry_cell_setting 'monoclinic'
loop_
_space_group_symop_operation_xyz
x,y,z
-x,y,-z
-x,-y,-z
x,-y,z
1/2+x,1/2+y,z
1/2-x,1/2+y,-z
1/2-x,1/2-y,-z
1/2+x,1/2-y,z
loop_
_atom_site_type_symbol
_atom_site_label
_atom_site_fract_x
_atom_site_fract_y
_atom_site_fract_z
Si Si1 0.846111 0.313295 0.423671
Si Si2 0.146046 0.677373 0.864560
Si Si3 0.060870 0.411748 0.306672
Si Si4 0.873936 0.230510 0.652172
Si Si5 0.245188 0.878780 0.936277
Si Si6 0.572537 0.409124 0.178584
Si Si7 0.775500 0.500000 0.369409
Si Si8 0.186695 0.500000 0.848364
O O1 0.791740 0.288131 0.357060
O O2 0.603376 0.302466 0.562128
O O3 0.918102 0.365504 0.382999
O O4 0.048470 0.282735 0.388141
O O5 0.256713 0.721975 0.783609
O O6 0.335194 0.637721 0.814024
O O7 0.954976 0.655413 0.875851
O O8 0.000000 0.688736 0.000000
O O9 0.167135 0.408577 0.173578
O O10 0.292818 0.412971 0.275811
O O11 0.894789 0.455572 0.366532
O O12 0.186824 0.906375 0.042592
O O13 0.000000 0.856510 0.000000
O O14 0.673180 0.453070 0.187240
O O15 0.500000 0.500000 0.500000
O O16 0.839070 0.500000 0.244598
O O17 0.000000 0.500000 0.000000
#
# Coordination Sequence:
#
# PCOD9189258 Si02
#       8
#     8   8   8   8   8   8   4   4
#     4  10  23  40  68  90 127 165 221 271 314 379
#     4  10  19  37  60  90 129 166 206 261 328 391
#     4  11  22  42  64  95 133 177 213 271 330 392
#     4  10  22  41  63  93 122 163 222 263 319 382
#     4   9  18  35  62  95 129 170 220 267 317 383
#     4  10  22  36  63  95 129 168 219 272 326 382
#     4  12  29  44  67  98 138 176 225 267 344 407
#     4  12  23  42  69  94 126 174 230 277 327 393
#
# _framework density 20.892120999999999
#
# number of rings (size 3 to 8) (size 9 to 14) (size 15 to 20)
#    0.000    1.714    1.429    3.429    4.000    0.000 
#    0.000    8.571    0.000    0.000    0.000    0.000 
#    0.000    0.000    0.000    0.000    0.000    0.000 
#
# Total GULP energy -156169.626178 kJ/mol
# GULP energy per Si atom -5577.486649 kJ/mol
# Density = 2.084457 g / cm^3
# Si number density = 20.892121 Si / 1000 Ang^3
#
#
#
# Elastic Constant Matrix: (Units=GPa)
#
#
# Indices 1 2 3 4 5 6 
#
# 1 90.9667 42.7584 40.3853 0.0000 -13.8623 0.0000
# 2 42.7584 114.6481 43.9632 0.0000 -6.6812 0.0000
# 3 40.3853 43.9632 55.7880 0.0000 -14.2030 0.0000
# 4 0.0000 0.0000 0.0000 -65.9470 0.0000 -3.0407
# 5 -13.8623 -6.6812 -14.2030 0.0000 26.4132 0.0000
# 6 0.0000 0.0000 0.0000 -3.0407 0.0000 -0.9500
#
#
#
# Elastic Compliance Matrix: (Units=1/GPa)
#
#
# Indices 1 2 3 4 5 6 
#
# 1 0.016819 -0.002475 -0.009428 0.000000 0.003131 0.000000
# 2 -0.002475 0.013005 -0.009211 0.000000 -0.002962 0.000000
# 3 -0.009428 -0.009211 0.034938 0.000000 0.011509 0.000000
# 4 0.000000 0.000000 0.000000 -0.017789 0.000000 0.056941
# 5 0.003131 -0.002962 0.011509 0.000000 0.044943 0.000000
# 6 0.000000 0.000000 0.000000 0.056941 0.000000 -1.234929
#
#
# Mechanical properties :
#
#
# Convention : Reuss Voigt Hill
#
# Bulk Modulus (GPa) = 44.37502 57.29071 50.83287
# Shear Modulus (GPa) = -4.57342 0.85630 -1.85856
#
# Velocity S-wave (km/s) = -1.48115 0.64090 -0.94421
# Velocity P-wave (km/s) = 4.28499 5.29428 4.81614
#
# Compressibility (1/GPa) = 0.02253520
#
# Stress axis : x y z
#
# Youngs Moduli (GPa) = 59.45601 76.89492 28.62178
#
# Poissons Ratio (x) = 0.19032 0.26984
# Poissons Ratio (y) = 0.14716 0.26363
# Poissons Ratio (z) = 0.56054 0.70826
#
# Static dielectric constant tensor:
#      x y z
#    x 2.081740 0.000000 0.111210 
#    y 0.000000 1.701680 0.000000 
#    z 0.111210 0.000000 1.808490 
# 
# From -- ./inp_files/260139.got.cif
#   From: 2010.05.17/outbox.cif.g08.bks.cpg/sg12_131_cif.got.tgz:260139.got - 2010.06.03 13:09:07.
