data_PCOD9189577
_publ_section_title
;
Structure prediction by ZEFSAII (Michael W. Deem and Ramdas Pophale) SiO2 
 PCOD9189577
Probable space group: C 2/M
;
_chemical_formula_sum "Si O2"
_cell_formula_units_Z 32
_cell_length_a 10.768605
_cell_length_b 16.442027
_cell_length_c 12.271857
_cell_angle_alpha 90.000000
_cell_angle_beta 143.565711
_cell_angle_gamma 90.000000
_cell_volume 1290.442809
_symmetry_space_group_name_H-M "C 2/M"
_symmetry_group_IT_number 12
_symmetry_cell_setting 'monoclinic'
loop_
_space_group_symop_operation_xyz
x,y,z
-x,y,-z
-x,-y,-z
x,-y,z
1/2+x,1/2+y,z
1/2-x,1/2+y,-z
1/2-x,1/2-y,-z
1/2+x,1/2-y,z
loop_
_atom_site_type_symbol
_atom_site_label
_atom_site_fract_x
_atom_site_fract_y
_atom_site_fract_z
Si Si1 0.938646 0.660775 0.728966
Si Si2 0.140685 0.904360 0.938263
Si Si3 0.834998 0.904557 0.295236
Si Si4 0.768160 0.336907 0.383924
O O1 0.883164 0.611284 0.798577
O O2 0.814538 0.627079 0.536824
O O3 0.850735 0.750866 0.686810
O O4 0.184180 0.650521 0.880894
O O5 0.149759 0.875633 0.817266
O O6 0.898747 0.891193 0.798555
O O7 0.193678 0.000000 0.984863
O O8 0.000000 0.869470 0.500000
O O9 0.874056 0.000000 0.315241
O O10 0.000000 0.326477 0.500000
#
# Coordination Sequence:
#
# PCOD9189577 Si02
#       4
#     8   8   8   8
#     4  11  23  42  67  95 134 172 219 277 325 384
#     4  11  24  43  70 102 132 170 220 274 332 388
#     4  10  19  37  68 100 130 168 216 275 333 381
#     4  11  26  44  65  95 133 181 221 262 324 396
#
# _framework density 24.797691
#
# number of rings (size 3 to 8) (size 9 to 14) (size 15 to 20)
#    0.000    1.250    2.500    3.000    3.500    4.500 
#    4.500    1.250    0.000    0.000    0.000    0.000 
#    0.000    0.000    0.000    0.000    0.000    0.000 
#
# Total GULP energy -89457.309034 kJ/mol
# GULP energy per Si atom -5591.081815 kJ/mol
# Density = 2.474125 g / cm^3
# Si number density = 24.797691 Si / 1000 Ang^3
#
#
#
# Elastic Constant Matrix: (Units=GPa)
#
#
# Indices 1 2 3 4 5 6 
#
# 1 82.0322 13.0498 34.1697 0.0000 24.2005 0.0000
# 2 13.0498 48.7314 32.1207 0.0000 13.6495 0.0000
# 3 34.1697 32.1207 174.8310 0.0001 31.6596 0.0000
# 4 0.0000 0.0000 0.0001 31.1086 0.0001 13.8397
# 5 24.2005 13.6495 31.6596 0.0001 43.7538 0.0000
# 6 0.0000 0.0000 0.0000 13.8397 0.0000 23.8850
#
#
#
# Elastic Compliance Matrix: (Units=1/GPa)
#
#
# Indices 1 2 3 4 5 6 
#
# 1 0.015017 -0.001115 -0.001483 0.000000 -0.006885 0.000000
# 2 -0.001115 0.024345 -0.003442 0.000000 -0.004487 0.000000
# 3 -0.001483 -0.003442 0.007249 0.000000 -0.003351 0.000000
# 4 0.000000 0.000000 0.000000 0.043310 0.000000 -0.025095
# 5 -0.006885 -0.004487 -0.003351 0.000000 0.030488 0.000000
# 6 0.000000 0.000000 0.000000 -0.025095 0.000000 0.056408
#
#
# Mechanical properties :
#
#
# Convention : Reuss Voigt Hill
#
# Bulk Modulus (GPa) = 28.96119 51.58611 40.27365
# Shear Modulus (GPa) = 24.94915 34.83310 29.89112
#
# Velocity S-wave (km/s) = 3.17536 3.75199 3.47565
# Velocity P-wave (km/s) = 5.01480 6.29427 5.69061
#
# Compressibility (1/GPa) = 0.03452897
#
# Stress axis : x y z
#
# Youngs Moduli (GPa) = 66.59276 41.07615 137.95093
#
# Poissons Ratio (x) = 0.04581 0.20462
# Poissons Ratio (y) = 0.07427 0.47486
# Poissons Ratio (z) = 0.09878 0.14139
#
# Static dielectric constant tensor:
#      x y z
#    x 2.068310 0.000000 0.077990 
#    y 0.000000 1.894030 0.000000 
#    z 0.077990 0.000000 2.031880 
# 
# From -- ./inp_files/132823.got.cif
#   From: 2010.05.17/outbox.cif.g08.bks.cpg/sg12_67_cif.got.tgz:132823.got - 2010.06.03 13:09:07.
