data_PCOD9189374
_publ_section_title
;
Structure prediction by ZEFSAII (Michael W. Deem and Ramdas Pophale) SiO2 
 PCOD9189374
Probable space group: C 2/M
;
_chemical_formula_sum "Si O2"
_cell_formula_units_Z 48
_cell_length_a 15.471081
_cell_length_b 8.576205
_cell_length_c 19.516324
_cell_angle_alpha 90.000000
_cell_angle_beta 89.981020
_cell_angle_gamma 90.000000
_cell_volume 2589.487441
_symmetry_space_group_name_H-M "C 2/M"
_symmetry_group_IT_number 12
_symmetry_cell_setting 'monoclinic'
loop_
_space_group_symop_operation_xyz
x,y,z
-x,y,-z
-x,-y,-z
x,-y,z
1/2+x,1/2+y,z
1/2-x,1/2+y,-z
1/2-x,1/2-y,-z
1/2+x,1/2-y,z
loop_
_atom_site_type_symbol
_atom_site_label
_atom_site_fract_x
_atom_site_fract_y
_atom_site_fract_z
Si Si1 0.530459 0.687110 0.577186
Si Si2 0.375249 0.810097 0.826511
Si Si3 0.031385 0.311561 0.923698
Si Si4 0.277880 0.813753 0.425562
Si Si5 0.625320 0.187753 0.331382
Si Si6 0.278266 0.686923 0.074112
O O1 0.500000 0.728323 0.500000
O O2 0.534388 0.500000 0.581601
O O3 0.625213 0.756511 0.589425
O O4 0.459308 0.751058 0.629452
O O5 0.460220 0.760878 0.868418
O O6 0.374880 0.760455 0.747776
O O7 0.290995 0.760027 0.869087
O O8 0.375345 0.000000 0.826693
O O9 0.036431 0.500000 0.922723
O O10 0.125630 0.244108 0.910179
O O11 0.000000 0.266242 0.000000
O O12 0.250000 0.750000 0.500000
O O13 0.209295 0.750517 0.370774
O O14 0.274831 0.000000 0.426992
O O15 0.625914 0.000000 0.333779
O O16 0.276274 0.500000 0.071621
O O17 0.250000 0.750000 0.000000
#
# Coordination Sequence:
#
# PCOD9189374 Si02
#       6
#     8   8   8   8   8   8
#     4  11  23  40  64  92 123 158 202 251 302 360
#     4   9  21  40  60  86 124 162 194 243 308 361
#     4  10  19  37  62  86 118 158 199 244 298 355
#     4  12  24  40  64  93 123 160 206 251 301 360
#     4  11  23  41  64  91 126 162 200 250 308 364
#     4  11  21  37  60  89 120 156 203 249 297 355
#
# _framework density 18.536487000000001
#
# number of rings (size 3 to 8) (size 9 to 14) (size 15 to 20)
#    0.000    1.333    3.333    3.000    0.000    2.333 
#    0.000    8.333    0.000    0.000    0.000    0.000 
#    0.000    0.000    0.000    0.000    0.000    0.000 
#
# Total GULP energy -134165.364033 kJ/mol
# GULP energy per Si atom -5590.223501 kJ/mol
# Density = 1.849430 g / cm^3
# Si number density = 18.536487 Si / 1000 Ang^3
#
#
#
# Elastic Constant Matrix: (Units=GPa)
#
#
# Indices 1 2 3 4 5 6 
#
# 1 218.4295 47.9837 122.0747 0.0000 -1.0402 0.0000
# 2 47.9837 58.5659 48.6818 0.0000 -1.5059 0.0000
# 3 122.0747 48.6818 198.6544 0.0000 0.3626 0.0000
# 4 0.0000 0.0000 0.0000 18.4811 0.0000 0.2033
# 5 -1.0402 -1.5059 0.3626 0.0000 34.3304 0.0000
# 6 0.0000 0.0000 0.0000 0.2033 0.0000 38.7406
#
#
#
# Elastic Compliance Matrix: (Units=1/GPa)
#
#
# Indices 1 2 3 4 5 6 
#
# 1 0.007331 -0.002836 -0.003810 0.000000 0.000138 0.000000
# 2 -0.002836 0.022574 -0.003791 0.000000 0.000944 0.000000
# 3 -0.003810 -0.003791 0.008305 0.000000 -0.000369 0.000000
# 4 0.000000 0.000000 0.000000 0.054113 0.000000 -0.000284
# 5 0.000138 0.000944 -0.000369 0.000000 0.029178 0.000000
# 6 0.000000 0.000000 0.000000 -0.000284 0.000000 0.025814
#
#
# Mechanical properties :
#
#
# Convention : Reuss Voigt Hill
#
# Bulk Modulus (GPa) = 57.68454 101.45892 79.57173
# Shear Modulus (GPa) = 28.74092 35.43771 32.08932
#
# Velocity S-wave (km/s) = 3.94192 4.37714 4.16522
# Velocity P-wave (km/s) = 7.20453 8.96657 8.13341
#
# Compressibility (1/GPa) = 0.01733567
#
# Stress axis : x y z
#
# Youngs Moduli (GPa) = 136.40118 44.29955 120.40731
#
# Poissons Ratio (x) = 0.12562 0.45881
# Poissons Ratio (y) = 0.38679 0.45647
# Poissons Ratio (z) = 0.51976 0.16794
#
# Static dielectric constant tensor:
#      x y z
#    x 1.608540 0.000000 0.000600 
#    y 0.000000 1.632470 0.000000 
#    z 0.000600 0.000000 1.617780 
# 
# From -- ./inp_files/267677.got.cif
#   From: 2010.05.17/outbox.cif.g08.bks.cpg/sg12_134_cif.got.tgz:267677.got - 2010.06.03 13:09:07.
