data_PCOD9189176
_publ_section_title
;
Structure prediction by ZEFSAII (Michael W. Deem and Ramdas Pophale) SiO2 
 PCOD9189176
Probable space group: C 2/M
;
_chemical_formula_sum "Si O2"
_cell_formula_units_Z 64
_cell_length_a 9.785614
_cell_length_b 23.035379
_cell_length_c 30.780935
_cell_angle_alpha 90.000000
_cell_angle_beta 148.743479
_cell_angle_gamma 90.000000
_cell_volume 3600.180509
_symmetry_space_group_name_H-M "C 2/M"
_symmetry_group_IT_number 12
_symmetry_cell_setting 'monoclinic'
loop_
_space_group_symop_operation_xyz
x,y,z
-x,y,-z
-x,-y,-z
x,-y,z
1/2+x,1/2+y,z
1/2-x,1/2+y,-z
1/2-x,1/2-y,-z
1/2+x,1/2-y,z
loop_
_atom_site_type_symbol
_atom_site_label
_atom_site_fract_x
_atom_site_fract_y
_atom_site_fract_z
Si Si1 0.246733 0.432448 0.735675
Si Si2 0.010967 0.781337 0.828386
Si Si3 0.032982 0.264411 0.557475
Si Si4 0.419017 0.845882 0.786442
Si Si5 0.393657 0.567733 0.922371
Si Si6 0.799465 0.890672 0.075781
Si Si7 0.067321 0.329990 0.311251
Si Si8 0.567549 0.344600 0.282216
O O1 0.186261 0.500000 0.716494
O O2 0.495467 0.422022 0.835721
O O3 0.329224 0.403111 0.712574
O O4 0.011944 0.392574 0.691095
O O5 0.057265 0.713146 0.841261
O O6 0.704179 0.793459 0.756986
O O7 0.042776 0.806491 0.788256
O O8 0.174891 0.822719 0.904649
O O9 0.207549 0.205682 0.603382
O O10 0.195916 0.308519 0.631919
O O11 0.000000 0.287938 0.500000
O O12 0.750000 0.250000 0.500000
O O13 0.618609 0.898996 0.843934
O O14 0.360393 0.834939 0.719712
O O15 0.158422 0.854797 0.743965
O O16 0.365948 0.500000 0.903344
O O17 0.594790 0.596886 0.943339
O O18 0.500000 0.571951 0.000000
O O19 0.500000 0.910118 0.000000
#
# Coordination Sequence:
#
# PCOD9189176 Si02
#       8
#     8   8   8   8   8   8   8   8
#     4  10  22  41  63  84 114 164 216 245 281 350
#     4  10  19  37  59  84 120 159 200 236 299 361
#     4  12  21  35  62  97 129 149 185 239 308 365
#     4  12  19  37  61  82 121 162 196 248 299 354
#     4  11  26  41  55  84 120 156 204 258 301 341
#     4  10  22  40  60  86 113 154 203 255 304 347
#     4  10  20  37  59  89 123 156 195 243 291 358
#     4  10  22  35  58  92 122 156 191 240 299 352
#
# _framework density 17.776886999999999
#
# number of rings (size 3 to 8) (size 9 to 14) (size 15 to 20)
#    0.000    1.625    5.000    2.625    3.500    2.000 
#    0.000    1.250    0.000    3.750    0.000    0.000 
#    0.000    0.000    0.000    0.000    0.000    0.000 
#
# Total GULP energy -178658.725899 kJ/mol
# GULP energy per Si atom -5583.085184 kJ/mol
# Density = 1.773643 g / cm^3
# Si number density = 17.776887 Si / 1000 Ang^3
#
#
#
# Elastic Constant Matrix: (Units=GPa)
#
#
# Indices 1 2 3 4 5 6 
#
# 1 138.9482 27.1018 26.3819 0.0024 9.3319 0.0019
# 2 27.1018 106.2437 20.9017 0.0071 -7.6561 0.0057
# 3 26.3819 20.9017 60.4635 -0.0001 11.0536 0.0063
# 4 0.0024 0.0071 -0.0001 12.9534 -0.0027 -9.4161
# 5 9.3319 -7.6561 11.0536 -0.0027 31.0277 0.0014
# 6 0.0019 0.0057 0.0063 -9.4161 0.0014 12.9888
#
#
#
# Elastic Compliance Matrix: (Units=1/GPa)
#
#
# Indices 1 2 3 4 5 6 
#
# 1 0.008157 -0.001706 -0.002614 -0.000001 -0.001943 0.000001
# 2 -0.001706 0.010942 -0.003878 -0.000015 0.004595 -0.000014
# 3 -0.002614 -0.003878 0.020378 -0.000008 -0.007430 -0.000013
# 4 -0.000001 -0.000015 -0.000008 0.163205 0.000008 0.118313
# 5 -0.001943 0.004595 -0.007430 0.000008 0.036594 0.000004
# 6 0.000001 -0.000014 -0.000013 0.118313 0.000004 0.162759
#
#
# Mechanical properties :
#
#
# Convention : Reuss Voigt Hill
#
# Bulk Modulus (GPa) = 43.32688 50.49178 46.90933
# Shear Modulus (GPa) = 11.73368 26.81199 19.27283
#
# Velocity S-wave (km/s) = 2.57194 3.88783 3.29622
# Velocity P-wave (km/s) = 5.76587 6.97269 6.39780
#
# Compressibility (1/GPa) = 0.02308036
#
# Stress axis : x y z
#
# Youngs Moduli (GPa) = 122.60080 91.39429 49.07181
#
# Poissons Ratio (x) = 0.15596 0.12826
# Poissons Ratio (y) = 0.20921 0.19029
# Poissons Ratio (z) = 0.32046 0.35441
#
# Static dielectric constant tensor:
#      x y z
#    x 1.615690 0.000000 -0.014740 
#    y 0.000000 1.615020 0.000000 
#    z -0.014740 0.000000 1.583130 
# 
# From -- ./inp_files/373286.got.cif
#   From: 2010.05.17/outbox.cif.g08.bks.cpg/sg12_187_cif.got.tgz:373286.got - 2010.06.03 13:09:07.
