data_PCOD9189863
_publ_section_title
;
Structure prediction by ZEFSAII (Michael W. Deem and Ramdas Pophale) SiO2 
 PCOD9189863
Probable space group: C 2/M
;
_chemical_formula_sum "Si O2"
_cell_formula_units_Z 56
_cell_length_a 27.337145
_cell_length_b 13.950560
_cell_length_c 8.708736
_cell_angle_alpha 90.000000
_cell_angle_beta 58.580770
_cell_angle_gamma 90.000000
_cell_volume 2834.263924
_symmetry_space_group_name_H-M "C 2/M"
_symmetry_group_IT_number 12
_symmetry_cell_setting 'monoclinic'
loop_
_space_group_symop_operation_xyz
x,y,z
-x,y,-z
-x,-y,-z
x,-y,z
1/2+x,1/2+y,z
1/2-x,1/2+y,-z
1/2-x,1/2-y,-z
1/2+x,1/2-y,z
loop_
_atom_site_type_symbol
_atom_site_label
_atom_site_fract_x
_atom_site_fract_y
_atom_site_fract_z
Si Si1 0.032072 0.610382 0.107176
Si Si2 0.002174 0.205519 0.674717
Si Si3 0.876137 0.210671 0.373603
Si Si4 0.237682 0.192544 0.258819
Si Si5 0.348453 0.888613 0.248168
Si Si6 0.395142 0.388529 0.016991
Si Si7 0.725670 0.388848 0.939312
O O1 0.017647 0.500000 0.163114
O O2 0.012918 0.683336 0.268109
O O3 0.099668 0.617524 0.960130
O O4 0.000000 0.637507 0.000000
O O5 0.065281 0.187470 0.636370
O O6 0.000000 0.181968 0.500000
O O7 0.953671 0.149256 0.848222
O O8 0.820959 0.174515 0.555018
O O9 0.868400 0.324472 0.358587
O O10 0.880021 0.167166 0.197011
O O11 0.291093 0.156775 0.272032
O O12 0.243982 0.305994 0.210619
O O13 0.237637 0.137111 0.096681
O O14 0.340341 0.000000 0.299194
O O15 0.400737 0.500000 0.044952
O O16 0.341954 0.377253 0.987199
O O17 0.741084 0.500000 0.881148
#
# Coordination Sequence:
#
# PCOD9189863 Si02
#       7
#     8   8   8   8   8   8   8
#     4  10  19  38  65  90 121 163 208 257 314 372
#     4  12  24  41  64  92 128 166 207 263 322 381
#     4  12  24  41  64  94 125 166 215 264 315 376
#     4  11  23  41  63  96 134 169 209 258 318 377
#     4  11  22  38  65  93 124 165 209 259 315 375
#     4  11  24  44  67  92 123 165 217 266 316 375
#     4  10  22  42  67  94 131 171 210 259 314 377
#
# _framework density 19.758216999999998
#
# number of rings (size 3 to 8) (size 9 to 14) (size 15 to 20)
#    0.000    1.000    4.286    2.143    0.000    4.571 
#    0.000    0.000    0.000    0.000    0.000    0.000 
#    0.000    0.000    0.000    0.000    0.000    0.000 
#
# Total GULP energy -156536.443107 kJ/mol
# GULP energy per Si atom -5590.587254 kJ/mol
# Density = 1.971325 g / cm^3
# Si number density = 19.758217 Si / 1000 Ang^3
#
#
#
# Elastic Constant Matrix: (Units=GPa)
#
#
# Indices 1 2 3 4 5 6 
#
# 1 79.6311 12.4261 13.4686 0.0000 -9.8993 0.0000
# 2 12.4261 84.6981 11.8826 0.0000 -2.6625 0.0000
# 3 13.4686 11.8826 70.2516 0.0000 -19.2170 0.0000
# 4 0.0000 0.0000 0.0000 4.9052 0.0000 -0.7506
# 5 -9.8993 -2.6625 -19.2170 0.0000 27.7320 0.0000
# 6 0.0000 0.0000 0.0000 -0.7506 0.0000 23.4579
#
#
#
# Elastic Compliance Matrix: (Units=1/GPa)
#
#
# Indices 1 2 3 4 5 6 
#
# 1 0.013505 -0.001684 -0.001271 0.000000 0.003779 0.000000
# 2 -0.001684 0.012306 -0.001974 0.000000 -0.000788 0.000000
# 3 -0.001271 -0.001974 0.018059 0.000000 0.011871 0.000000
# 4 0.000000 0.000000 0.000000 0.204868 0.000000 0.006555
# 5 0.003779 -0.000788 0.011871 0.000000 0.045559 0.000000
# 6 0.000000 0.000000 0.000000 0.006555 0.000000 0.042839
#
#
# Mechanical properties :
#
#
# Convention : Reuss Voigt Hill
#
# Bulk Modulus (GPa) = 29.40086 34.45949 31.93018
# Shear Modulus (GPa) = 13.95352 24.33926 19.14639
#
# Velocity S-wave (km/s) = 2.66035 3.51359 3.11631
# Velocity P-wave (km/s) = 4.93450 5.82570 5.39852
#
# Compressibility (1/GPa) = 0.03401261
#
# Stress axis : x y z
#
# Youngs Moduli (GPa) = 74.04435 81.26167 55.37285
#
# Poissons Ratio (x) = 0.13687 0.07036
# Poissons Ratio (y) = 0.12472 0.10931
# Poissons Ratio (z) = 0.09409 0.16041
#
# Static dielectric constant tensor:
#      x y z
#    x 1.680920 0.000000 -0.003730 
#    y 0.000000 1.719170 0.000000 
#    z -0.003730 0.000000 1.669000 
# 
# From -- ./inp_files/96777.got.cif
#   From: 2010.05.17/outbox.cif.g08.bks.cpg/sg12_49_cif.got.tgz:96777.got - 2010.06.03 13:09:07.
