data_PCOD9189934
_publ_section_title
;
Structure prediction by ZEFSAII (Michael W. Deem and Ramdas Pophale) SiO2 
 PCOD9189934
Probable space group: C 2/M
;
_chemical_formula_sum "Si O2"
_cell_formula_units_Z 40
_cell_length_a 13.044239
_cell_length_b 14.730824
_cell_length_c 19.566701
_cell_angle_alpha 90.000000
_cell_angle_beta 152.592860
_cell_angle_gamma 90.000000
_cell_volume 1730.669741
_symmetry_space_group_name_H-M "C 2/M"
_symmetry_group_IT_number 12
_symmetry_cell_setting 'monoclinic'
loop_
_space_group_symop_operation_xyz
x,y,z
-x,y,-z
-x,-y,-z
x,-y,z
1/2+x,1/2+y,z
1/2-x,1/2+y,-z
1/2-x,1/2-y,-z
1/2+x,1/2-y,z
loop_
_atom_site_type_symbol
_atom_site_label
_atom_site_fract_x
_atom_site_fract_y
_atom_site_fract_z
Si Si1 0.172985 0.610158 0.660843
Si Si2 0.879996 0.601107 0.760181
Si Si3 0.177107 0.842825 0.922564
Si Si4 0.614770 0.610317 0.733328
Si Si5 0.379078 0.889887 0.608251
O O1 0.164399 0.500000 0.655647
O O2 0.424758 0.635681 0.793427
O O3 0.000000 0.641168 0.500000
O O4 0.079505 0.642056 0.678826
O O5 0.779880 0.500000 0.692932
O O6 0.746045 0.643292 0.743917
O O7 0.870118 0.646690 0.680127
O O8 0.134507 0.593157 0.933966
O O9 0.194307 0.847302 0.851059
O O10 0.250000 0.750000 0.000000
O O11 0.644718 0.500000 0.757241
O O12 0.353880 0.627716 0.567060
O O13 0.401673 0.000000 0.627139
#
# Coordination Sequence:
#
# PCOD9189934 Si02
#       5
#     8   8   8   8   8
#     4  10  19  38  69  95 122 166 220 267 315 382
#     4  10  21  39  64  96 128 162 211 271 327 378
#     4  12  25  40  57  91 132 172 213 264 323 387
#     4  10  19  39  70  95 123 166 216 264 317 386
#     4   9  18  35  66 102 123 151 209 274 325 371
#
# _framework density 23.112438000000001
#
# number of rings (size 3 to 8) (size 9 to 14) (size 15 to 20)
#    0.000    1.800    2.000    3.000    0.000    4.800 
#    7.200    6.000    0.000    0.000    0.000    0.000 
#    0.000    0.000    0.000    0.000    0.000    0.000 
#
# Total GULP energy -111857.285478 kJ/mol
# GULP energy per Si atom -5592.864274 kJ/mol
# Density = 2.305983 g / cm^3
# Si number density = 23.112438 Si / 1000 Ang^3
#
#
#
# Elastic Constant Matrix: (Units=GPa)
#
#
# Indices 1 2 3 4 5 6 
#
# 1 183.3058 31.4182 54.6491 0.0040 -22.8513 0.0010
# 2 31.4182 45.9954 4.7877 0.0060 -3.7062 -0.0016
# 3 54.6491 4.7877 87.7614 0.0052 -10.3033 -0.0044
# 4 0.0040 0.0060 0.0052 20.5313 0.0014 -6.1322
# 5 -22.8513 -3.7062 -10.3033 0.0014 51.9544 -0.0007
# 6 0.0010 -0.0016 -0.0044 -6.1322 -0.0007 21.1405
#
#
#
# Elastic Compliance Matrix: (Units=1/GPa)
#
#
# Indices 1 2 3 4 5 6 
#
# 1 0.007847 -0.004724 -0.004364 0.000000 0.002249 -0.000001
# 2 -0.004724 0.024803 0.001589 -0.000007 0.000007 0.000001
# 3 -0.004364 0.001589 0.014143 -0.000002 0.000999 0.000003
# 4 0.000000 -0.000007 -0.000002 0.053326 -0.000002 0.015468
# 5 0.002249 0.000007 0.000999 -0.000002 0.020435 0.000000
# 6 -0.000001 0.000001 0.000003 0.015468 0.000000 0.051790
#
#
# Mechanical properties :
#
#
# Convention : Reuss Voigt Hill
#
# Bulk Modulus (GPa) = 31.45205 55.41919 43.43562
# Shear Modulus (GPa) = 25.26017 33.80574 29.53296
#
# Velocity S-wave (km/s) = 3.30953 3.82863 3.57850
# Velocity P-wave (km/s) = 5.31430 6.60111 5.99235
#
# Compressibility (1/GPa) = 0.03179443
#
# Stress axis : x y z
#
# Youngs Moduli (GPa) = 127.44431 40.31702 70.70777
#
# Poissons Ratio (x) = 0.19047 0.30859
# Poissons Ratio (y) = 0.60209 -0.11239
# Poissons Ratio (z) = 0.55621 -0.06408
#
# Static dielectric constant tensor:
#      x y z
#    x 1.862670 0.000000 0.000560 
#    y 0.000000 2.056150 -0.000010 
#    z 0.000560 -0.000010 1.810560 
# 
# From -- ./inp_files/158490.got.cif
#   From: 2010.05.17/outbox.cif.g08.bks.cpg/sg12_80_cif.got.tgz:158490.got - 2010.06.03 13:09:07.
