data_PCOD9189653
_publ_section_title
;
Structure prediction by ZEFSAII (Michael W. Deem and Ramdas Pophale) SiO2 
 PCOD9189653
Probable space group: C 2/M
;
_chemical_formula_sum "Si O2"
_cell_formula_units_Z 36
_cell_length_a 14.541699
_cell_length_b 12.324176
_cell_length_c 17.336629
_cell_angle_alpha 90.000000
_cell_angle_beta 33.102101
_cell_angle_gamma 90.000000
_cell_volume 1696.820344
_symmetry_space_group_name_H-M "C 2/M"
_symmetry_group_IT_number 12
_symmetry_cell_setting 'monoclinic'
loop_
_space_group_symop_operation_xyz
x,y,z
-x,y,-z
-x,-y,-z
x,-y,z
1/2+x,1/2+y,z
1/2-x,1/2+y,-z
1/2-x,1/2-y,-z
1/2+x,1/2-y,z
loop_
_atom_site_type_symbol
_atom_site_label
_atom_site_fract_x
_atom_site_fract_y
_atom_site_fract_z
Si Si1 0.762558 0.197368 0.792289
Si Si2 0.543662 0.879680 0.076297
Si Si3 0.995933 0.313606 0.725398
Si Si4 0.756173 0.124170 0.420172
Si Si5 0.500000 0.269775 0.500000
O O1 0.594473 0.203563 0.859472
O O2 0.906978 0.160859 0.631239
O O3 0.843156 0.304842 0.772568
O O4 0.704826 0.130894 0.908101
O O5 0.566465 0.860058 0.150156
O O6 0.470907 0.000000 0.116341
O O7 0.075386 0.194052 0.684833
O O8 0.149235 0.374182 0.575365
O O9 0.639574 0.192887 0.442621
O O10 0.783402 0.000000 0.377349
#
# Coordination Sequence:
#
# PCOD9189653 Si02
#       5
#     8   8   8   8   4
#     4  10  21  37  61  85 118 156 191 241 293 352
#     4  11  22  40  61  89 120 159 198 239 297 355
#     4  10  21  38  59  87 121 154 193 248 296 341
#     4  10  20  35  59  87 116 153 197 239 293 354
#     4  10  19  38  59  84 116 154 197 238 299 340
#
# _framework density 21.216152000000001
#
# number of rings (size 3 to 8) (size 9 to 14) (size 15 to 20)
#    0.000    1.778    2.222    3.000    0.000    1.778 
#    0.000    2.222    0.000    4.000    0.000    0.000 
#    0.000    0.000    0.000    0.000    0.000    0.000 
#
# Total GULP energy -100283.219201 kJ/mol
# GULP energy per Si atom -5571.289956 kJ/mol
# Density = 2.116786 g / cm^3
# Si number density = 21.216152 Si / 1000 Ang^3
#
#
#
# Elastic Constant Matrix: (Units=GPa)
#
#
# Indices 1 2 3 4 5 6 
#
# 1 88.1342 5.3981 44.4579 0.0001 11.4515 0.0000
# 2 5.3981 60.3353 32.1760 0.0000 -8.9438 0.0000
# 3 44.4579 32.1760 125.4903 0.0000 35.1422 0.0001
# 4 0.0001 0.0000 0.0000 2.8988 -0.0001 6.1818
# 5 11.4515 -8.9438 35.1422 -0.0001 50.6466 0.0000
# 6 0.0000 0.0000 0.0001 6.1818 0.0000 2.5955
#
#
#
# Elastic Compliance Matrix: (Units=1/GPa)
#
#
# Indices 1 2 3 4 5 6 
#
# 1 0.014002 0.002041 -0.005831 0.000000 0.001241 0.000000
# 2 0.002041 0.022929 -0.009441 0.000000 0.010139 0.000000
# 3 -0.005831 -0.009441 0.015580 -0.000001 -0.011160 0.000000
# 4 0.000000 0.000000 -0.000001 -0.084569 0.000000 0.201423
# 5 0.001241 0.010139 -0.011160 0.000000 0.028998 0.000000
# 6 0.000000 0.000000 0.000000 0.201423 0.000000 -0.094453
#
#
# Mechanical properties :
#
#
# Convention : Reuss Voigt Hill
#
# Bulk Modulus (GPa) = 38.39054 48.66930 43.52992
# Shear Modulus (GPa) = -80.17166 24.02336 -28.07415
#
# Velocity S-wave (km/s) = -6.15387 3.36864 -3.64159
# Velocity P-wave (km/s) = 5.68851 6.17413 1.69715
#
# Compressibility (1/GPa) = 0.02604808
#
# Stress axis : x y z
#
# Youngs Moduli (GPa) = 71.42082 43.61216 64.18281
#
# Poissons Ratio (x) = -0.08900 0.37425
# Poissons Ratio (y) = -0.14576 0.60598
# Poissons Ratio (z) = 0.41646 0.41176
#
# Static dielectric constant tensor:
#      x y z
#    x 1.807440 0.000000 -0.000310 
#    y 0.000000 1.735140 0.000000 
#    z -0.000310 0.000000 1.805110 
# 
# From -- ./inp_files/58520.got.cif
#   From: 2010.05.17/outbox.cif.g08.bks.cpg/sg12_30_cif.got.tgz:58520.got - 2010.06.03 13:09:07.
