data_PCOD9189423
_publ_section_title
;
Structure prediction by ZEFSAII (Michael W. Deem and Ramdas Pophale) SiO2 
 PCOD9189423
Probable space group: C 2/M
;
_chemical_formula_sum "Si O2"
_cell_formula_units_Z 56
_cell_length_a 20.568558
_cell_length_b 7.627642
_cell_length_c 19.086473
_cell_angle_alpha 90.000000
_cell_angle_beta 119.468850
_cell_angle_gamma 90.000000
_cell_volume 2607.054480
_symmetry_space_group_name_H-M "C 2/M"
_symmetry_group_IT_number 12
_symmetry_cell_setting 'monoclinic'
loop_
_space_group_symop_operation_xyz
x,y,z
-x,y,-z
-x,-y,-z
x,-y,z
1/2+x,1/2+y,z
1/2-x,1/2+y,-z
1/2-x,1/2-y,-z
1/2+x,1/2-y,z
loop_
_atom_site_type_symbol
_atom_site_label
_atom_site_fract_x
_atom_site_fract_y
_atom_site_fract_z
Si Si1 0.081788 0.284929 0.566615
Si Si2 0.943148 0.704023 0.029045
Si Si3 0.362783 0.714370 0.737364
Si Si4 0.771368 0.709802 0.432184
Si Si5 0.026297 0.201588 0.797886
Si Si6 0.311075 0.287506 0.863489
Si Si7 0.144951 0.702595 0.748207
O O1 0.079029 0.500000 0.565645
O O2 0.146982 0.228543 0.547972
O O3 0.107582 0.225100 0.657645
O O4 0.000000 0.224953 0.500000
O O5 0.961968 0.500000 0.049325
O O6 0.860498 0.719966 0.953572
O O7 0.951518 0.791275 0.108753
O O8 0.000000 0.776233 0.000000
O O9 0.364190 0.500000 0.737239
O O10 0.292933 0.774992 0.654376
O O11 0.442228 0.774950 0.749904
O O12 0.350853 0.764649 0.811719
O O13 0.772366 0.500000 0.424729
O O14 0.750000 0.750000 0.500000
O O15 0.086715 0.290855 0.780584
O O16 0.024201 0.000000 0.773706
O O17 0.312073 0.500000 0.868686
O O18 0.225548 0.223941 0.813212
O O19 0.161558 0.500000 0.739379
#
# Coordination Sequence:
#
# PCOD9189423 Si02
#       7
#     8   8   8   8   8   8   8
#     4   9  18  34  57  83 113 151 189 228 280 337
#     4  11  23  38  58  88 119 144 182 242 292 330
#     4   9  18  35  58  81 110 150 194 230 273 337
#     4  10  20  36  57  85 116 148 190 235 280 334
#     4  11  23  38  59  84 114 153 191 232 284 346
#     4  10  19  37  63  83 107 153 196 230 278 341
#     4  10  21  38  60  85 115 150 193 239 280 331
#
# _framework density 21.480179
#
# number of rings (size 3 to 8) (size 9 to 14) (size 15 to 20)
#    0.000    2.000    2.857    0.857    2.000    1.714 
#    0.000    2.143    0.000    0.857    0.000    0.000 
#    0.000    0.000    0.000    0.000    0.000    0.000 
#
# Total GULP energy -156435.453964 kJ/mol
# GULP energy per Si atom -5586.980499 kJ/mol
# Density = 2.143129 g / cm^3
# Si number density = 21.480179 Si / 1000 Ang^3
#
#
#
# Elastic Constant Matrix: (Units=GPa)
#
#
# Indices 1 2 3 4 5 6 
#
# 1 161.9350 -6.1224 63.8389 0.0000 19.0961 0.0000
# 2 -6.1224 42.8585 -8.3629 0.0000 2.9982 0.0000
# 3 63.8389 -8.3629 106.9428 0.0000 18.4669 0.0000
# 4 0.0000 0.0000 0.0000 -12.2192 0.0000 -5.3479
# 5 19.0961 2.9982 18.4669 0.0000 43.8977 0.0000
# 6 0.0000 0.0000 0.0000 -5.3479 0.0000 15.0501
#
#
#
# Elastic Compliance Matrix: (Units=1/GPa)
#
#
# Indices 1 2 3 4 5 6 
#
# 1 0.008188 0.000395 -0.004569 0.000000 -0.001667 0.000000
# 2 0.000395 0.023988 0.002106 0.000000 -0.002696 0.000000
# 3 -0.004569 0.002106 0.012859 0.000000 -0.003566 0.000000
# 4 0.000000 0.000000 0.000000 -0.070824 0.000000 -0.025167
# 5 -0.001667 -0.002696 -0.003566 0.000000 0.025189 0.000000
# 6 0.000000 0.000000 0.000000 -0.025167 0.000000 0.057502
#
#
# Mechanical properties :
#
#
# Convention : Reuss Voigt Hill
#
# Bulk Modulus (GPa) = 24.45105 45.60482 35.02794
# Shear Modulus (GPa) = 66.95896 26.83791 46.89843
#
# Velocity S-wave (km/s) = 5.58929 3.53856 4.67769
# Velocity P-wave (km/s) = 7.28432 6.16217 6.74662
#
# Compressibility (1/GPa) = 0.04089803
#
# Stress axis : x y z
#
# Youngs Moduli (GPa) = 122.12904 41.68666 77.76842
#
# Poissons Ratio (x) = -0.01645 0.35533
# Poissons Ratio (y) = -0.04821 -0.16377
# Poissons Ratio (z) = 0.55802 -0.08778
#
# Static dielectric constant tensor:
#      x y z
#    x 1.758950 0.000000 0.022490 
#    y 0.000000 1.817350 0.000000 
#    z 0.022490 0.000000 1.743810 
# 
# From -- ./inp_files/275661.got.cif
#   From: 2010.05.17/outbox.cif.g08.bks.cpg/sg12_138_cif.got.tgz:275661.got - 2010.06.03 13:09:07.
