data_PCOD9189575
_publ_section_title
;
Structure prediction by ZEFSAII (Michael W. Deem and Ramdas Pophale) SiO2 
 PCOD9189575
Probable space group: C 2/M
;
_chemical_formula_sum "Si O2"
_cell_formula_units_Z 40
_cell_length_a 12.750519
_cell_length_b 15.865155
_cell_length_c 11.667627
_cell_angle_alpha 90.000000
_cell_angle_beta 46.220142
_cell_angle_gamma 90.000000
_cell_volume 1704.095868
_symmetry_space_group_name_H-M "C 2/M"
_symmetry_group_IT_number 12
_symmetry_cell_setting 'monoclinic'
loop_
_space_group_symop_operation_xyz
x,y,z
-x,y,-z
-x,-y,-z
x,-y,z
1/2+x,1/2+y,z
1/2-x,1/2+y,-z
1/2-x,1/2-y,-z
1/2+x,1/2-y,z
loop_
_atom_site_type_symbol
_atom_site_label
_atom_site_fract_x
_atom_site_fract_y
_atom_site_fract_z
Si Si1 0.373434 0.371089 0.186071
Si Si2 0.635119 0.176100 0.739260
Si Si3 0.153473 0.651460 0.172412
Si Si4 0.390651 0.590870 0.433250
Si Si5 0.793036 0.147473 0.833593
O O1 0.397050 0.272334 0.201797
O O2 0.220254 0.385698 0.237645
O O3 0.500000 0.393495 0.000000
O O4 0.749671 0.380762 0.007314
O O5 0.509951 0.142368 0.750070
O O6 0.787959 0.163994 0.558931
O O7 0.665181 0.132971 0.839330
O O8 0.179775 0.751927 0.171984
O O9 0.345275 0.500000 0.515077
O O10 0.440337 0.608507 0.674751
O O11 0.377251 0.587808 0.306368
#
# Coordination Sequence:
#
# PCOD9189575 Si02
#       5
#     8   8   8   8   8
#     4  11  21  41  69  97 123 164 222 266 311 374
#     4  11  22  38  66  97 128 163 212 271 317 364
#     4  10  19  37  67  97 124 153 219 276 307 357
#     4  12  26  43  62  93 137 174 207 251 323 399
#     4  10  20  38  64  95 125 168 209 261 316 373
#
# _framework density 23.472860000000001
#
# number of rings (size 3 to 8) (size 9 to 14) (size 15 to 20)
#    0.000    1.200    4.000    4.200    0.000    2.800 
#    0.000    3.000    0.000    5.400    0.000    0.000 
#    0.000    0.000    0.000    0.000    0.000    0.000 
#
# Total GULP energy -111759.815330 kJ/mol
# GULP energy per Si atom -5587.990766 kJ/mol
# Density = 2.341943 g / cm^3
# Si number density = 23.472860 Si / 1000 Ang^3
#
#
#
# Elastic Constant Matrix: (Units=GPa)
#
#
# Indices 1 2 3 4 5 6 
#
# 1 194.8229 3.6613 24.3011 0.0000 -25.9459 0.0000
# 2 3.6613 34.7849 7.9827 0.0000 6.6939 0.0000
# 3 24.3011 7.9827 74.6103 0.0000 -8.0199 0.0000
# 4 0.0000 0.0000 0.0000 55.2074 0.0000 79.8025
# 5 -25.9459 6.6939 -8.0199 0.0000 46.3507 0.0000
# 6 0.0000 0.0000 0.0000 79.8025 0.0000 98.5788
#
#
#
# Elastic Compliance Matrix: (Units=1/GPa)
#
#
# Indices 1 2 3 4 5 6 
#
# 1 0.005741 -0.000867 -0.001445 0.000000 0.003089 0.000000
# 2 -0.000867 0.030733 -0.003602 0.000000 -0.005547 0.000000
# 3 -0.001445 -0.003602 0.014498 0.000000 0.002220 0.000000
# 4 0.000000 0.000000 0.000000 -0.106438 0.000000 0.086165
# 5 0.003089 -0.005547 0.002220 0.000000 0.024489 0.000000
# 6 0.000000 0.000000 0.000000 0.086165 0.000000 -0.059609
#
#
# Mechanical properties :
#
#
# Convention : Reuss Voigt Hill
#
# Bulk Modulus (GPa) = 25.54699 41.78979 33.66839
# Shear Modulus (GPa) = -76.09246 57.91224 -9.09011
#
# Velocity S-wave (km/s) = -5.69979 4.97248 -1.97003
# Velocity P-wave (km/s) = 5.69294 7.12808 3.03315
#
# Compressibility (1/GPa) = 0.03914356
#
# Stress axis : x y z
#
# Youngs Moduli (GPa) = 174.19325 32.53783 68.97673
#
# Poissons Ratio (x) = 0.02821 0.09967
# Poissons Ratio (y) = 0.15103 0.24846
# Poissons Ratio (z) = 0.25171 0.11720
#
# Static dielectric constant tensor:
#      x y z
#    x 1.903960 0.000000 -0.002590 
#    y 0.000000 1.897700 0.000000 
#    z -0.002590 0.000000 1.867820 
# 
# From -- ./inp_files/205921.got.cif
#   From: 2010.05.17/outbox.cif.g08.bks.cpg/sg12_103_cif.got.tgz:205921.got - 2010.06.03 13:09:07.
