data_PCOD9189922
_publ_section_title
;
Structure prediction by ZEFSAII (Michael W. Deem and Ramdas Pophale) SiO2 
 PCOD9189922
Probable space group: C 2/M
;
_chemical_formula_sum "Si O2"
_cell_formula_units_Z 60
_cell_length_a 19.556223
_cell_length_b 22.195756
_cell_length_c 11.663604
_cell_angle_alpha 90.000000
_cell_angle_beta 31.253681
_cell_angle_gamma 90.000000
_cell_volume 2626.704673
_symmetry_space_group_name_H-M "C 2/M"
_symmetry_group_IT_number 12
_symmetry_cell_setting 'monoclinic'
loop_
_space_group_symop_operation_xyz
x,y,z
-x,y,-z
-x,-y,-z
x,-y,z
1/2+x,1/2+y,z
1/2-x,1/2+y,-z
1/2-x,1/2-y,-z
1/2+x,1/2-y,z
loop_
_atom_site_type_symbol
_atom_site_label
_atom_site_fract_x
_atom_site_fract_y
_atom_site_fract_z
Si Si1 0.773498 0.067964 0.650033
Si Si2 0.059885 0.634583 0.662796
Si Si3 0.500000 0.865508 0.000000
Si Si4 0.386923 0.245135 0.583487
Si Si5 0.211611 0.569404 0.998203
Si Si6 0.608107 0.679921 0.614863
Si Si7 0.852894 0.875336 0.214848
Si Si8 0.179023 0.172786 0.995241
O O1 0.876384 0.110014 0.438371
O O2 0.786274 0.000000 0.593229
O O3 0.628469 0.093268 0.832537
O O4 0.785248 0.071015 0.770253
O O5 0.067718 0.685478 0.552641
O O6 0.204608 0.602192 0.460127
O O7 0.940367 0.589568 0.805283
O O8 0.028783 0.663705 0.833437
O O9 0.500000 0.274253 0.500000
O O10 0.309466 0.284955 0.599352
O O11 0.285946 0.223734 0.825452
O O12 0.216710 0.500000 0.033237
O O13 0.276788 0.619964 0.984089
O O14 0.632817 0.680317 0.714178
O O15 0.464497 0.700346 0.782219
O O16 0.835089 0.855838 0.110602
O O17 0.000000 0.905558 0.000000
#
# Coordination Sequence:
#
# PCOD9189922 Si02
#       8
#     8   8   4   8   8   8   8   8
#     4  10  22  40  65  97 132 167 216 270 325 383
#     4  10  20  40  65  96 132 169 215 268 325 382
#     4  10  19  38  68 100 130 168 215 268 326 384
#     4  11  24  42  65  95 131 171 214 266 321 389
#     4  10  22  41  67  99 130 169 219 269 324 382
#     4  11  24  42  65  95 130 173 215 263 331 385
#     4   9  20  42  61  90 129 172 216 262 313 382
#     4  10  23  42  67  91 131 169 215 267 317 386
#
# _framework density 22.842309
#
# number of rings (size 3 to 8) (size 9 to 14) (size 15 to 20)
#    0.000    1.867    2.667    0.200    1.867    5.867 
#    3.600    7.333    0.000    3.600    0.000    0.000 
#    0.000    0.000    0.000    0.000    0.000    0.000 
#
# Total GULP energy -167166.270918 kJ/mol
# GULP energy per Si atom -5572.209031 kJ/mol
# Density = 2.279032 g / cm^3
# Si number density = 22.842309 Si / 1000 Ang^3
#
#
#
# Elastic Constant Matrix: (Units=GPa)
#
#
# Indices 1 2 3 4 5 6 
#
# 1 97.1300 9.9185 7.9251 0.0001 9.4198 -0.0002
# 2 9.9185 43.0990 -2.4063 0.0007 2.7216 0.0001
# 3 7.9251 -2.4063 60.0554 0.0009 6.3089 -0.0002
# 4 0.0001 0.0007 0.0009 13.0984 -0.0004 9.4150
# 5 9.4198 2.7216 6.3089 -0.0004 42.8854 0.0003
# 6 -0.0002 0.0001 -0.0002 9.4150 0.0003 7.8942
#
#
#
# Elastic Compliance Matrix: (Units=1/GPa)
#
#
# Indices 1 2 3 4 5 6 
#
# 1 0.010850 -0.002442 -0.001316 -0.000002 -0.002035 0.000002
# 2 -0.002442 0.023918 0.001405 -0.000008 -0.001188 0.000009
# 3 -0.001316 0.001405 0.017125 -0.000012 -0.002319 0.000014
# 4 -0.000002 -0.000008 -0.000012 0.534878 0.000012 -0.637922
# 5 -0.002035 -0.001188 -0.002319 0.000012 0.024181 -0.000016
# 6 0.000002 0.000009 0.000014 -0.637922 -0.000016 0.887492
#
#
# Mechanical properties :
#
#
# Convention : Reuss Voigt Hill
#
# Bulk Modulus (GPa) = 21.19194 25.68433 23.43814
# Shear Modulus (GPa) = 3.29191 25.09874 14.19532
#
# Velocity S-wave (km/s) = 1.20178 3.31839 2.49559
# Velocity P-wave (km/s) = 3.35012 5.09420 4.31127
#
# Compressibility (1/GPa) = 0.04718774
#
# Stress axis : x y z
#
# Youngs Moduli (GPa) = 92.17002 41.80976 58.39450
#
# Poissons Ratio (x) = 0.10209 0.07684
# Poissons Ratio (y) = 0.22506 -0.08207
# Poissons Ratio (z) = 0.12128 -0.05876
#
# Static dielectric constant tensor:
#      x y z
#    x 1.860430 0.000000 -0.008640 
#    y 0.000000 1.845560 0.000000 
#    z -0.008640 0.000000 2.053470 
# 
# From -- ./inp_files/170372.got.cif
#   From: 2010.05.17/outbox.cif.g08.bks.cpg/sg12_86_cif.got.tgz:170372.got - 2010.06.03 13:09:07.
