data_PCOD9189286
_publ_section_title
;
Structure prediction by ZEFSAII (Michael W. Deem and Ramdas Pophale) SiO2 
 PCOD9189286
Probable space group: C 2/M
;
_chemical_formula_sum "Si O2"
_cell_formula_units_Z 58
_cell_length_a 18.143607
_cell_length_b 7.392076
_cell_length_c 20.801943
_cell_angle_alpha 90.000000
_cell_angle_beta 61.594832
_cell_angle_gamma 90.000000
_cell_volume 2454.041909
_symmetry_space_group_name_H-M "C 2/M"
_symmetry_group_IT_number 12
_symmetry_cell_setting 'monoclinic'
loop_
_space_group_symop_operation_xyz
x,y,z
-x,y,-z
-x,-y,-z
x,-y,z
1/2+x,1/2+y,z
1/2-x,1/2+y,-z
1/2-x,1/2-y,-z
1/2+x,1/2-y,z
loop_
_atom_site_type_symbol
_atom_site_label
_atom_site_fract_x
_atom_site_fract_y
_atom_site_fract_z
Si Si1 0.927272 0.778775 0.480661
Si Si2 0.227668 0.218176 0.233204
Si Si3 0.576000 0.715657 0.663512
Si Si4 0.416419 0.278355 0.807117
Si Si5 0.267096 0.283707 0.624259
Si Si6 0.347300 0.715002 0.970790
Si Si7 0.896825 0.209743 0.091029
Si Si8 0.500000 0.000000 0.000000
O O1 0.939704 0.716715 0.402416
O O2 0.836969 0.719069 0.545140
O O3 0.000000 0.724032 0.500000
O O4 0.928218 0.000000 0.478990
O O5 0.157036 0.278057 0.211953
O O6 0.214144 0.282969 0.311458
O O7 0.320358 0.270983 0.171523
O O8 0.224532 0.000000 0.234847
O O9 0.564602 0.500000 0.665763
O O10 0.506053 0.781740 0.742523
O O11 0.671632 0.747112 0.644316
O O12 0.415485 0.500000 0.809120
O O13 0.393995 0.216999 0.887989
O O14 0.276081 0.500000 0.622629
O O15 0.362396 0.500000 0.968665
O O16 0.250000 0.750000 0.000000
O O17 0.363276 0.784546 0.036041
O O18 0.974546 0.341276 0.064296
O O19 0.921229 0.000000 0.079608
#
# Coordination Sequence:
#
# PCOD9189286 Si02
#       8
#     8   8   8   8   8   8   8   2
#     4   9  17  33  59  89 117 150 204 256 295 365
#     4  10  19  37  61  84 115 162 209 257 314 370
#     4  10  20  35  57  86 118 159 200 248 311 371
#     4   9  18  34  59  85 114 154 207 259 309 374
#     4  10  21  35  56  86 121 160 199 247 310 374
#     4  10  20  35  60  89 118 154 207 265 321 374
#     4  11  24  41  63  93 123 166 218 267 319 389
#     4  12  26  44  64  86 128 172 208 258 334 394
#
# _framework density 23.634478999999999
#
# number of rings (size 3 to 8) (size 9 to 14) (size 15 to 20)
#    0.000    2.069    2.069    1.448    0.966    4.966 
#    0.000    2.759    0.000    3.310    0.000    0.000 
#    0.000    0.000    0.000    0.000    0.000    0.000 
#
# Total GULP energy -161890.791894 kJ/mol
# GULP energy per Si atom -5582.441100 kJ/mol
# Density = 2.358069 g / cm^3
# Si number density = 23.634479 Si / 1000 Ang^3
#
#
#
# Elastic Constant Matrix: (Units=GPa)
#
#
# Indices 1 2 3 4 5 6 
#
# 1 70.9788 -8.9010 31.3458 -0.0002 1.1077 0.0010
# 2 -8.9010 104.0645 5.9695 -0.0006 -0.8152 0.0012
# 3 31.3458 5.9695 179.0653 0.0000 -10.9628 -0.0001
# 4 -0.0002 -0.0006 0.0000 7.4510 -0.0001 -7.9249
# 5 1.1077 -0.8152 -10.9628 -0.0001 49.7513 -0.0002
# 6 0.0010 0.0012 -0.0001 -7.9249 -0.0002 10.4138
#
#
#
# Elastic Compliance Matrix: (Units=1/GPa)
#
#
# Indices 1 2 3 4 5 6 
#
# 1 0.015538 0.001484 -0.002827 -0.000007 -0.000945 -0.000007
# 2 0.001484 0.009770 -0.000586 -0.000003 -0.000002 -0.000003
# 3 -0.002827 -0.000586 0.006186 0.000002 0.001416 0.000002
# 4 -0.000007 -0.000003 0.000002 0.704132 0.000004 0.535840
# 5 -0.000945 -0.000002 0.001416 0.000004 0.020433 0.000004
# 6 -0.000007 -0.000003 0.000002 0.535840 0.000004 0.503797
#
#
# Mechanical properties :
#
#
# Convention : Reuss Voigt Hill
#
# Bulk Modulus (GPa) = 36.18510 45.65969 40.92239
# Shear Modulus (GPa) = 3.92796 35.23617 19.58207
#
# Velocity S-wave (km/s) = 1.29057 3.86538 2.88156
# Velocity P-wave (km/s) = 4.19098 6.26758 5.33136
#
# Compressibility (1/GPa) = 0.02763569
#
# Stress axis : x y z
#
# Youngs Moduli (GPa) = 64.35779 102.35504 161.66282
#
# Poissons Ratio (x) = -0.15188 0.45707
# Poissons Ratio (y) = -0.09550 0.09466
# Poissons Ratio (z) = 0.18196 0.05994
#
# Static dielectric constant tensor:
#      x y z
#    x 2.015680 0.000000 -0.030690 
#    y 0.000000 1.955310 0.000000 
#    z -0.030690 0.000000 1.862010 
# 
# From -- ./inp_files/314749.got.cif
#   From: 2010.05.17/outbox.cif.g08.bks.cpg/sg12_158_cif.got.tgz:314749.got - 2010.06.03 13:09:07.
