data_PCOD9189489
_publ_section_title
;
Structure prediction by ZEFSAII (Michael W. Deem and Ramdas Pophale) SiO2 
 PCOD9189489
Probable space group: C 2/M
;
_chemical_formula_sum "Si O2"
_cell_formula_units_Z 48
_cell_length_a 29.064873
_cell_length_b 8.625487
_cell_length_c 17.778401
_cell_angle_alpha 90.000000
_cell_angle_beta 144.657754
_cell_angle_gamma 90.000000
_cell_volume 2578.205369
_symmetry_space_group_name_H-M "C 2/M"
_symmetry_group_IT_number 12
_symmetry_cell_setting 'monoclinic'
loop_
_space_group_symop_operation_xyz
x,y,z
-x,y,-z
-x,-y,-z
x,-y,z
1/2+x,1/2+y,z
1/2-x,1/2+y,-z
1/2-x,1/2-y,-z
1/2+x,1/2-y,z
loop_
_atom_site_type_symbol
_atom_site_label
_atom_site_fract_x
_atom_site_fract_y
_atom_site_fract_z
Si Si1 0.956376 0.812639 0.365541
Si Si2 0.905207 0.817992 0.863134
Si Si3 0.720079 0.186017 0.880993
Si Si4 0.839060 0.683248 0.621513
Si Si5 0.517835 0.312370 0.283325
Si Si6 0.131439 0.811167 0.020350
O O1 0.866970 0.751353 0.249017
O O2 0.000000 0.762498 0.500000
O O3 0.997956 0.763602 0.342439
O O4 0.954662 0.000000 0.361938
O O5 0.876198 0.727311 0.751877
O O6 0.871324 0.759342 0.897209
O O7 0.884093 0.000000 0.824286
O O8 0.000000 0.810887 0.000000
O O9 0.786547 0.234435 0.909331
O O10 0.717871 0.000000 0.879856
O O11 0.750000 0.250000 0.000000
O O12 0.835608 0.500000 0.607562
O O13 0.750000 0.750000 0.500000
O O14 0.899352 0.751829 0.639550
O O15 0.519705 0.500000 0.284024
O O16 0.444823 0.261931 0.131187
O O17 0.127555 0.000000 0.016664
#
# Coordination Sequence:
#
# PCOD9189489 Si02
#       6
#     8   8   8   8   8   8
#     4  10  22  40  62  89 124 162 200 247 303 357
#     4  10  19  37  64  89 116 156 200 243 298 356
#     4  11  21  36  59  89 122 158 202 249 295 351
#     4  12  26  42  61  89 123 158 201 248 300 357
#     4  10  19  39  64  86 119 161 200 241 303 362
#     4   9  18  34  60  90 120 158 199 242 297 358
#
# _framework density 18.617602000000002
#
# number of rings (size 3 to 8) (size 9 to 14) (size 15 to 20)
#    0.000    1.667    3.333    2.000    0.000    2.667 
#    0.000    5.000    0.000    0.000    0.000    0.000 
#    0.000    0.000    0.000    0.000    0.000    0.000 
#
# Total GULP energy -134026.415330 kJ/mol
# GULP energy per Si atom -5584.433972 kJ/mol
# Density = 1.857523 g / cm^3
# Si number density = 18.617602 Si / 1000 Ang^3
#
#
#
# Elastic Constant Matrix: (Units=GPa)
#
#
# Indices 1 2 3 4 5 6 
#
# 1 185.3665 32.5129 68.6339 0.0000 13.8220 0.0000
# 2 32.5129 25.3746 29.2864 0.0000 1.3809 0.0000
# 3 68.6339 29.2864 124.7582 0.0000 12.6422 0.0000
# 4 0.0000 0.0000 0.0000 23.8777 0.0000 8.4882
# 5 13.8220 1.3809 12.6422 0.0000 30.8048 0.0000
# 6 0.0000 0.0000 0.0000 8.4882 0.0000 23.9831
#
#
#
# Elastic Compliance Matrix: (Units=1/GPa)
#
#
# Indices 1 2 3 4 5 6 
#
# 1 0.007649 -0.006966 -0.002354 0.000000 -0.002153 0.000000
# 2 -0.006966 0.060649 -0.010899 0.000000 0.004880 0.000000
# 3 -0.002354 -0.010899 0.012221 0.000000 -0.003470 0.000000
# 4 0.000000 0.000000 0.000000 0.047908 0.000000 -0.016956
# 5 -0.002153 0.004880 -0.003470 0.000000 0.034634 0.000000
# 6 0.000000 0.000000 0.000000 -0.016956 0.000000 0.047697
#
#
# Mechanical properties :
#
#
# Convention : Reuss Voigt Hill
#
# Bulk Modulus (GPa) = 24.95041 66.26284 45.60662
# Shear Modulus (GPa) = 18.89947 29.40419 24.15183
#
# Velocity S-wave (km/s) = 3.18958 3.97845 3.60565
# Velocity P-wave (km/s) = 5.19569 7.53477 6.47179
#
# Compressibility (1/GPa) = 0.04007951
#
# Stress axis : x y z
#
# Youngs Moduli (GPa) = 130.73812 16.48823 81.82616
#
# Poissons Ratio (x) = 0.11486 0.19266
# Poissons Ratio (y) = 0.91072 0.89186
# Poissons Ratio (z) = 0.30782 0.17971
#
# Static dielectric constant tensor:
#      x y z
#    x 1.632880 0.000000 -0.024590 
#    y 0.000000 1.639080 0.000000 
#    z -0.024590 0.000000 1.595170 
# 
# From -- ./inp_files/280808.got.cif
#   From: 2010.05.17/outbox.cif.g08.bks.cpg/sg12_141_cif.got.tgz:280808.got - 2010.06.03 13:09:07.
