data_PCOD9189090
_publ_section_title
;
Structure prediction by ZEFSAII (Michael W. Deem and Ramdas Pophale) SiO2 
 PCOD9189090
Probable space group: C 2/M
;
_chemical_formula_sum "Si O2"
_cell_formula_units_Z 58
_cell_length_a 24.725793
_cell_length_b 7.567623
_cell_length_c 14.868757
_cell_angle_alpha 90.000000
_cell_angle_beta 82.307812
_cell_angle_gamma 90.000000
_cell_volume 2757.139088
_symmetry_space_group_name_H-M "C 2/M"
_symmetry_group_IT_number 12
_symmetry_cell_setting 'monoclinic'
loop_
_space_group_symop_operation_xyz
x,y,z
-x,y,-z
-x,-y,-z
x,-y,z
1/2+x,1/2+y,z
1/2-x,1/2+y,-z
1/2-x,1/2-y,-z
1/2+x,1/2-y,z
loop_
_atom_site_type_symbol
_atom_site_label
_atom_site_fract_x
_atom_site_fract_y
_atom_site_fract_z
Si Si1 0.720115 0.212664 0.875206
Si Si2 0.232590 0.285020 0.670831
Si Si3 0.165717 0.790163 0.066451
Si Si4 0.074455 0.201479 0.212737
Si Si5 0.635208 0.787560 0.570638
Si Si6 0.500000 0.500000 0.500000
Si Si7 0.359151 0.794858 0.628785
Si Si8 0.517362 0.200660 0.643891
O O1 0.712102 0.268302 0.774507
O O2 0.779140 0.279848 0.897653
O O3 0.722489 0.000000 0.875086
O O4 0.675331 0.264193 0.958727
O O5 0.234863 0.500000 0.667374
O O6 0.190346 0.222377 0.604542
O O7 0.293766 0.217555 0.645268
O O8 0.110911 0.718985 0.124346
O O9 0.164797 0.000000 0.084485
O O10 0.114951 0.204629 0.290383
O O11 0.019519 0.291801 0.259211
O O12 0.060314 0.000000 0.193723
O O13 0.624460 0.718540 0.472336
O O14 0.581425 0.755797 0.641254
O O15 0.641661 0.000000 0.560066
O O16 0.495671 0.344585 0.579104
O O17 0.376255 0.000000 0.630101
O O18 0.514878 0.000000 0.608434
#
# Coordination Sequence:
#
# PCOD9189090 Si02
#       8
#     8   8   8   8   8   2   8   8
#     4   9  17  31  52  79 105 140 182 224 282 347
#     4  10  19  37  56  77 111 151 190 231 281 343
#     4   9  18  32  52  78 112 139 173 230 290 344
#     4  11  21  37  57  83 113 150 188 235 294 345
#     4   9  21  38  56  76 111 154 192 235 280 333
#     4  12  22  40  60  86 112 154 194 248 292 332
#     4  11  21  33  51  82 112 147 190 234 281 338
#     4  11  23  40  59  85 116 153 200 243 290 339
#
# _framework density 21.036297999999999
#
# number of rings (size 3 to 8) (size 9 to 14) (size 15 to 20)
#    0.000    1.931    2.069    2.276    0.000    2.759 
#    2.483    0.000    0.000    0.828    0.000    5.793 
#    0.000    0.000    0.000    0.000    0.000    0.000 
#
# Total GULP energy -161707.212765 kJ/mol
# GULP energy per Si atom -5576.110785 kJ/mol
# Density = 2.098842 g / cm^3
# Si number density = 21.036298 Si / 1000 Ang^3
#
#
#
# Elastic Constant Matrix: (Units=GPa)
#
#
# Indices 1 2 3 4 5 6 
#
# 1 65.0811 -10.7665 8.1742 0.0000 -20.2202 0.0000
# 2 -10.7665 78.4298 -7.9081 0.0000 -1.8315 0.0000
# 3 8.1742 -7.9081 58.1488 0.0000 -25.3216 0.0000
# 4 0.0000 0.0000 0.0000 14.8496 0.0000 -5.5791
# 5 -20.2202 -1.8315 -25.3216 0.0000 36.1947 0.0000
# 6 0.0000 0.0000 0.0000 -5.5791 0.0000 13.6807
#
#
#
# Elastic Compliance Matrix: (Units=1/GPa)
#
#
# Indices 1 2 3 4 5 6 
#
# 1 0.019749 0.003405 0.003691 0.000000 0.013787 0.000000
# 2 0.003405 0.013702 0.003617 0.000000 0.005126 0.000000
# 3 0.003691 0.003617 0.026099 0.000000 0.020503 0.000000
# 4 0.000000 0.000000 0.000000 0.079527 0.000000 0.032432
# 5 0.013787 0.005126 0.020503 0.000000 0.049934 0.000000
# 6 0.000000 0.000000 0.000000 0.032432 0.000000 0.086322
#
#
# Mechanical properties :
#
#
# Convention : Reuss Voigt Hill
#
# Bulk Modulus (GPa) = 12.34954 20.07322 16.21138
# Shear Modulus (GPa) = 17.80005 27.08901 22.44453
#
# Velocity S-wave (km/s) = 2.91204 3.59238 3.26995
# Velocity P-wave (km/s) = 4.14608 5.17396 4.68827
#
# Compressibility (1/GPa) = 0.08097469
#
# Stress axis : x y z
#
# Youngs Moduli (GPa) = 50.63632 72.98152 38.31605
#
# Poissons Ratio (x) = -0.24851 -0.14141
# Poissons Ratio (y) = -0.17242 -0.13859
# Poissons Ratio (z) = -0.18688 -0.26397
#
# Static dielectric constant tensor:
#      x y z
#    x 1.768750 0.000000 -0.039570 
#    y 0.000000 1.796520 0.000000 
#    z -0.039570 0.000000 1.764160 
# 
# From -- ./inp_files/237599.got.cif
#   From: 2010.05.17/outbox.cif.g08.bks.cpg/sg12_119_cif.got.tgz:237599.got - 2010.06.03 13:09:07.
