data_PCOD9189415
_publ_section_title
;
Structure prediction by ZEFSAII (Michael W. Deem and Ramdas Pophale) SiO2 
 PCOD9189415
Probable space group: C 2/M
;
_chemical_formula_sum "Si O2"
_cell_formula_units_Z 44
_cell_length_a 24.822305
_cell_length_b 14.602671
_cell_length_c 18.738780
_cell_angle_alpha 90.000000
_cell_angle_beta 161.131432
_cell_angle_gamma 90.000000
_cell_volume 2196.612885
_symmetry_space_group_name_H-M "C 2/M"
_symmetry_group_IT_number 12
_symmetry_cell_setting 'monoclinic'
loop_
_space_group_symop_operation_xyz
x,y,z
-x,y,-z
-x,-y,-z
x,-y,z
1/2+x,1/2+y,z
1/2-x,1/2+y,-z
1/2-x,1/2-y,-z
1/2+x,1/2-y,z
loop_
_atom_site_type_symbol
_atom_site_label
_atom_site_fract_x
_atom_site_fract_y
_atom_site_fract_z
Si Si1 0.286324 0.500000 0.978956
Si Si2 0.766439 0.689170 0.447797
Si Si3 0.870553 0.000000 0.522145
Si Si4 0.655265 0.157510 0.901229
Si Si5 0.603592 0.500000 0.286213
Si Si6 0.803082 0.895833 0.237920
Si Si7 0.684243 0.831908 0.224650
O O1 0.432828 0.500000 0.222026
O O2 0.179269 0.588697 0.864488
O O3 0.404681 0.500000 0.056903
O O4 0.750000 0.750000 0.500000
O O5 0.665280 0.594028 0.328247
O O6 0.700095 0.746600 0.297051
O O7 0.961669 0.670960 0.677668
O O8 0.806737 0.000000 0.523505
O O9 0.812481 0.908393 0.412018
O O10 0.745171 0.121367 0.085306
O O11 0.750000 0.250000 0.000000
O O12 0.720682 0.821191 0.186897
O O13 0.000000 0.891372 0.500000
O O14 0.748906 0.000000 0.188698
O O15 0.500000 0.870987 0.000000
#
# Coordination Sequence:
#
# PCOD9189415 Si02
#       7
#     4   8   4   8   4   8   8
#     4  10  21  39  62  94 125 158 208 263 322 367
#     4  12  23  41  62  93 128 171 223 263 313 384
#     4  10  19  37  62  91 130 155 199 261 330 373
#     4  12  23  38  64  92 129 172 215 256 314 389
#     4  10  23  38  67  90 130 164 216 274 310 372
#     4  11  23  36  59  91 132 161 198 256 328 383
#     4  12  24  38  62  92 132 167 207 261 329 381
#
# _framework density 20.030840000000001
#
# number of rings (size 3 to 8) (size 9 to 14) (size 15 to 20)
#    0.545    0.182    3.636    6.273    0.000    0.000 
#    0.000    0.455    0.000    1.091    0.000    5.091 
#    0.000    0.000    0.000    0.000    0.000    0.000 
#
# Total GULP energy -122773.345346 kJ/mol
# GULP energy per Si atom -5580.606607 kJ/mol
# Density = 1.998525 g / cm^3
# Si number density = 20.030840 Si / 1000 Ang^3
#
#
#
# Elastic Constant Matrix: (Units=GPa)
#
#
# Indices 1 2 3 4 5 6 
#
# 1 115.9965 59.2130 16.3956 -0.0019 20.8805 -0.0030
# 2 59.2130 117.6727 -11.4416 -0.0027 18.8262 -0.0051
# 3 16.3956 -11.4416 46.6261 -0.0040 26.2018 -0.0081
# 4 -0.0019 -0.0027 -0.0040 21.1926 -0.0023 4.5331
# 5 20.8805 18.8262 26.2018 -0.0023 42.8714 -0.0038
# 6 -0.0030 -0.0051 -0.0081 4.5331 -0.0038 48.0687
#
#
#
# Elastic Compliance Matrix: (Units=1/GPa)
#
#
# Indices 1 2 3 4 5 6 
#
# 1 0.013299 -0.007611 -0.007284 -0.000001 0.001317 -0.000001
# 2 -0.007611 0.015201 0.012299 0.000002 -0.010485 0.000002
# 3 -0.007284 0.012299 0.042751 0.000005 -0.027981 0.000005
# 4 -0.000001 0.000002 0.000005 0.048158 -0.000001 -0.004542
# 5 0.001317 -0.010485 -0.027981 -0.000001 0.044390 -0.000002
# 6 -0.000001 0.000002 0.000005 -0.004542 -0.000002 0.021232
#
#
# Mechanical properties :
#
#
# Convention : Reuss Voigt Hill
#
# Bulk Modulus (GPa) = 15.13813 45.40326 30.27070
# Shear Modulus (GPa) = 23.55812 36.83507 30.19660
#
# Velocity S-wave (km/s) = 3.43314 4.29291 3.88687
# Velocity P-wave (km/s) = 4.82588 6.87663 5.94042
#
# Compressibility (1/GPa) = 0.06605834
#
# Stress axis : x y z
#
# Youngs Moduli (GPa) = 75.19627 65.78434 23.39151
#
# Poissons Ratio (x) = 0.50067 0.17038
# Poissons Ratio (y) = 0.57230 -0.28768
# Poissons Ratio (z) = 0.54772 -0.80906
#
# Static dielectric constant tensor:
#      x y z
#    x 1.868340 0.000010 0.040920 
#    y 0.000010 1.742720 0.000000 
#    z 0.040920 0.000000 1.697240 
# 
# From -- ./inp_files/290028.got.cif
#   From: 2010.05.17/outbox.cif.g08.bks.cpg/sg12_146_cif.got.tgz:290028.got - 2010.06.03 13:09:07.
