data_PCOD9189342
_publ_section_title
;
Structure prediction by ZEFSAII (Michael W. Deem and Ramdas Pophale) SiO2 
 PCOD9189342
Probable space group: C 2/M
;
_chemical_formula_sum "Si O2"
_cell_formula_units_Z 44
_cell_length_a 21.211970
_cell_length_b 13.819669
_cell_length_c 10.895393
_cell_angle_alpha 90.000000
_cell_angle_beta 35.982772
_cell_angle_gamma 90.000000
_cell_volume 1876.551284
_symmetry_space_group_name_H-M "C 2/M"
_symmetry_group_IT_number 12
_symmetry_cell_setting 'monoclinic'
loop_
_space_group_symop_operation_xyz
x,y,z
-x,y,-z
-x,-y,-z
x,-y,z
1/2+x,1/2+y,z
1/2-x,1/2+y,-z
1/2-x,1/2-y,-z
1/2+x,1/2-y,z
loop_
_atom_site_type_symbol
_atom_site_label
_atom_site_fract_x
_atom_site_fract_y
_atom_site_fract_z
Si Si1 0.422313 0.392130 0.399607
Si Si2 0.879555 0.000000 0.931681
Si Si3 0.360040 0.000000 0.671726
Si Si4 0.280563 0.114201 0.446565
Si Si5 0.753337 0.500000 0.091428
Si Si6 0.415962 0.186170 0.440887
Si Si7 0.897141 0.611545 0.019526
O O1 0.397761 0.500000 0.493669
O O2 0.338871 0.379233 0.419723
O O3 0.418600 0.295378 0.484840
O O4 0.543987 0.409372 0.161918
O O5 0.764974 0.000000 0.175189
O O6 0.849651 0.000000 0.833321
O O7 0.652771 0.000000 0.162059
O O8 0.412152 0.097969 0.541053
O O9 0.311602 0.171440 0.518646
O O10 0.362235 0.144565 0.208743
O O11 0.300339 0.000000 0.437055
O O12 0.785512 0.593426 0.121181
O O13 0.518086 0.171188 0.190846
O O14 0.938838 0.500000 0.963643
#
# Coordination Sequence:
#
# PCOD9189342 Si02
#       7
#     8   4   4   8   4   8   8
#     4   9  22  41  61  85 128 173 209 245 310 392
#     4   8  20  44  59  80 131 170 214 242 308 384
#     4  10  21  36  65  91 126 157 204 262 321 348
#     4  10  19  37  61  93 124 156 204 261 318 365
#     4   8  19  40  63  81 128 161 208 258 305 372
#     4  12  20  35  64  97 128 154 206 265 315 376
#     4   9  19  35  63  89 119 157 202 259 312 357
#
# _framework density 23.447267
#
# number of rings (size 3 to 8) (size 9 to 14) (size 15 to 20)
#    1.636    0.727    1.818    1.091    0.000    4.364 
#    0.000    6.364    4.000    0.000    0.000    0.000 
#    0.000    0.000    0.000    0.000    0.000    0.000 
#
# Total GULP energy -122653.761489 kJ/mol
# GULP energy per Si atom -5575.170977 kJ/mol
# Density = 2.339390 g / cm^3
# Si number density = 23.447267 Si / 1000 Ang^3
#
#
#
# Elastic Constant Matrix: (Units=GPa)
#
#
# Indices 1 2 3 4 5 6 
#
# 1 60.7955 4.9638 19.2764 0.0000 -6.2146 0.0000
# 2 4.9638 158.8782 24.7336 0.0000 2.6206 0.0000
# 3 19.2764 24.7336 78.9302 0.0000 -26.9090 0.0000
# 4 0.0000 0.0000 0.0000 15.3351 0.0000 2.7411
# 5 -6.2146 2.6206 -26.9090 0.0000 41.7641 0.0000
# 6 0.0000 0.0000 0.0000 2.7411 0.0000 -7.1441
#
#
#
# Elastic Compliance Matrix: (Units=1/GPa)
#
#
# Indices 1 2 3 4 5 6 
#
# 1 0.017834 0.000145 -0.004484 0.000000 -0.000245 0.000000
# 2 0.000145 0.006786 -0.002947 0.000000 -0.002303 0.000000
# 3 -0.004484 -0.002947 0.018612 0.000000 0.011510 0.000000
# 4 0.000000 0.000000 0.000000 0.061024 0.000000 0.023415
# 5 -0.000245 -0.002303 0.011510 0.000000 0.031468 0.000000
# 6 0.000000 0.000000 0.000000 0.023415 0.000000 -0.130991
#
#
# Mechanical properties :
#
#
# Convention : Reuss Voigt Hill
#
# Bulk Modulus (GPa) = 34.89294 44.06129 39.47711
# Shear Modulus (GPa) = 173.25878 26.63302 99.94590
#
# Velocity S-wave (km/s) = 8.60543 3.37392 6.53593
# Velocity P-wave (km/s) = 10.66075 5.83183 8.59249
#
# Compressibility (1/GPa) = 0.02865909
#
# Stress axis : x y z
#
# Youngs Moduli (GPa) = 56.07417 147.35349 53.72898
#
# Poissons Ratio (x) = -0.02136 0.24093
# Poissons Ratio (y) = -0.00813 0.15835
# Poissons Ratio (z) = 0.25144 0.43428
#
# Static dielectric constant tensor:
#      x y z
#    x 1.890050 0.000000 -0.030830 
#    y 0.000000 1.887640 0.000000 
#    z -0.030830 0.000000 1.983080 
# 
# From -- ./inp_files/240372.got.cif
#   From: 2010.05.17/outbox.cif.g08.bks.cpg/sg12_121_cif.got.tgz:240372.got - 2010.06.03 13:09:07.
