data_PCOD9189211
_publ_section_title
;
Structure prediction by ZEFSAII (Michael W. Deem and Ramdas Pophale) SiO2 
 PCOD9189211
Probable space group: C 2/M
;
_chemical_formula_sum "Si O2"
_cell_formula_units_Z 40
_cell_length_a 18.297487
_cell_length_b 24.897045
_cell_length_c 10.118875
_cell_angle_alpha 90.000000
_cell_angle_beta 28.281077
_cell_angle_gamma 90.000000
_cell_volume 2184.057892
_symmetry_space_group_name_H-M "C 2/M"
_symmetry_group_IT_number 12
_symmetry_cell_setting 'monoclinic'
loop_
_space_group_symop_operation_xyz
x,y,z
-x,y,-z
-x,-y,-z
x,-y,z
1/2+x,1/2+y,z
1/2-x,1/2+y,-z
1/2-x,1/2-y,-z
1/2+x,1/2-y,z
loop_
_atom_site_type_symbol
_atom_site_label
_atom_site_fract_x
_atom_site_fract_y
_atom_site_fract_z
Si Si1 0.939806 0.216938 0.449180
Si Si2 0.872468 0.500000 0.410988
Si Si3 0.441509 0.590950 0.448153
Si Si4 0.859823 0.784864 0.123877
Si Si5 0.358573 0.588714 0.127602
Si Si6 0.302277 0.000000 0.211243
O O1 0.897513 0.153778 0.517548
O O2 0.795384 0.250542 0.624742
O O3 0.000000 0.232078 0.500000
O O4 0.075951 0.222096 0.126432
O O5 0.787045 0.551483 0.609677
O O6 0.844690 0.500000 0.298008
O O7 0.057396 0.500000 0.116694
O O8 0.500000 0.577358 0.500000
O O9 0.299366 0.552917 0.644798
O O10 0.573282 0.582294 0.127969
O O11 0.826374 0.848070 0.201342
O O12 0.000000 0.769743 0.000000
O O13 0.500000 0.573351 0.000000
#
# Coordination Sequence:
#
# PCOD9189211 Si02
#       6
#     8   4   8   8   8   4
#     4  10  21  38  58  84 116 152 187 227 281 335
#     4  11  22  36  58  86 112 140 183 240 287 319
#     4  10  21  38  59  82 112 151 188 222 273 341
#     4  10  21  36  58  86 113 148 192 233 274 329
#     4  10  19  37  60  80 110 152 192 220 272 342
#     4  11  22  37  56  87 112 139 184 240 285 321
#
# _framework density 18.314532
#
# number of rings (size 3 to 8) (size 9 to 14) (size 15 to 20)
#    0.000    1.800    2.000    2.400    0.000    1.600 
#    3.600    2.000    0.000    0.000    0.000    0.000 
#    0.000    0.000    0.000    0.000    0.000    0.000 
#
# Total GULP energy -111608.458438 kJ/mol
# GULP energy per Si atom -5580.422922 kJ/mol
# Density = 1.827285 g / cm^3
# Si number density = 18.314532 Si / 1000 Ang^3
#
#
#
# Elastic Constant Matrix: (Units=GPa)
#
#
# Indices 1 2 3 4 5 6 
#
# 1 54.3974 21.3157 22.8471 0.0032 15.2102 -0.0056
# 2 21.3157 57.8537 49.3940 -0.0005 -14.4956 0.0009
# 3 22.8471 49.3940 90.0947 0.0016 -6.3413 -0.0018
# 4 0.0032 -0.0005 0.0016 28.0424 0.0000 -15.9097
# 5 15.2102 -14.4956 -6.3413 0.0000 33.2053 -0.0002
# 6 -0.0056 0.0009 -0.0018 -15.9097 -0.0002 54.1227
#
#
#
# Elastic Compliance Matrix: (Units=1/GPa)
#
#
# Indices 1 2 3 4 5 6 
#
# 1 0.031000 -0.016546 -0.000302 -0.000002 -0.021481 0.000003
# 2 -0.016546 0.045776 -0.019219 0.000002 0.023892 -0.000002
# 3 -0.000302 -0.019219 0.021420 -0.000001 -0.004161 0.000001
# 4 -0.000002 0.000002 -0.000001 0.042798 0.000002 0.012581
# 5 -0.021481 0.023892 -0.004161 0.000002 0.049590 -0.000002
# 6 0.000003 -0.000002 0.000001 0.012581 -0.000002 0.022175
#
#
# Mechanical properties :
#
#
# Convention : Reuss Voigt Hill
#
# Bulk Modulus (GPa) = 38.36989 43.27325 40.82157
# Shear Modulus (GPa) = 17.03110 30.32668 23.67889
#
# Velocity S-wave (km/s) = 3.05277 4.07367 3.59960
# Velocity P-wave (km/s) = 5.78117 6.76797 6.29394
#
# Compressibility (1/GPa) = 0.02606210
#
# Stress axis : x y z
#
# Youngs Moduli (GPa) = 32.25820 21.84535 46.68556
#
# Poissons Ratio (x) = 0.36145 0.01409
# Poissons Ratio (y) = 0.53374 0.89726
# Poissons Ratio (z) = 0.00974 0.41985
#
# Static dielectric constant tensor:
#      x y z
#    x 1.645670 0.000000 0.007530 
#    y 0.000000 1.631200 0.000000 
#    z 0.007530 0.000000 1.615010 
# 
# From -- ./inp_files/79275.got.cif
#   From: 2010.05.17/outbox.cif.g08.bks.cpg/sg12_40_cif.got.tgz:79275.got - 2010.06.03 13:09:07.
