data_PCOD9189592
_publ_section_title
;
Structure prediction by ZEFSAII (Michael W. Deem and Ramdas Pophale) SiO2 
 PCOD9189592
Probable space group: C 2/M
;
_chemical_formula_sum "Si O2"
_cell_formula_units_Z 48
_cell_length_a 14.863756
_cell_length_b 27.397161
_cell_length_c 8.649186
_cell_angle_alpha 90.000000
_cell_angle_beta 144.860060
_cell_angle_gamma 90.000000
_cell_volume 2027.270095
_symmetry_space_group_name_H-M "C 2/M"
_symmetry_group_IT_number 12
_symmetry_cell_setting 'monoclinic'
loop_
_space_group_symop_operation_xyz
x,y,z
-x,y,-z
-x,-y,-z
x,-y,z
1/2+x,1/2+y,z
1/2-x,1/2+y,-z
1/2-x,1/2-y,-z
1/2+x,1/2-y,z
loop_
_atom_site_type_symbol
_atom_site_label
_atom_site_fract_x
_atom_site_fract_y
_atom_site_fract_z
Si Si1 0.892653 0.552249 0.498471
Si Si2 0.378193 0.138571 0.703453
Si Si3 0.878746 0.180758 0.190298
Si Si4 0.473390 0.786330 0.277912
Si Si5 0.287248 0.554783 0.330611
Si Si6 0.134551 0.074314 0.909080
O O1 0.913454 0.500000 0.605162
O O2 0.932452 0.597491 0.659534
O O3 0.000000 0.554308 0.500000
O O4 0.720725 0.555244 0.181662
O O5 0.379721 0.187004 0.597515
O O6 0.269657 0.102996 0.656323
O O7 0.500000 0.156161 0.000000
O O8 0.946830 0.229170 0.205180
O O9 0.875217 0.132462 0.084172
O O10 0.000000 0.170264 0.500000
O O11 0.700105 0.190607 0.994760
O O12 0.500000 0.789492 0.500000
O O13 0.220570 0.500000 0.264289
O O14 0.465890 0.552809 0.638135
O O15 0.279084 0.564185 0.134193
#
# Coordination Sequence:
#
# PCOD9189592 Si02
#       6
#     8   8   8   8   8   8
#     4  11  23  39  64  95 129 175 226 275 336 409
#     4  12  25  40  62  91 134 174 217 281 339 393
#     4  10  19  37  71  98 126 173 225 276 336 403
#     4  10  22  41  68  99 131 174 230 280 338 408
#     4  11  23  39  64  97 132 174 218 273 339 402
#     4  11  21  41  69  93 131 172 227 276 332 410
#
# _framework density 23.677161999999999
#
# number of rings (size 3 to 8) (size 9 to 14) (size 15 to 20)
#    0.000    1.167    1.667    7.000    0.000    3.333 
#    0.000    2.500    3.667    0.000    0.000    0.000 
#    0.000    0.000    0.000    0.000    0.000    0.000 
#
# Total GULP energy -133817.234143 kJ/mol
# GULP energy per Si atom -5575.718089 kJ/mol
# Density = 2.362327 g / cm^3
# Si number density = 23.677162 Si / 1000 Ang^3
#
#
#
# Elastic Constant Matrix: (Units=GPa)
#
#
# Indices 1 2 3 4 5 6 
#
# 1 71.3708 32.8503 -2.5422 0.0000 -9.9855 0.0000
# 2 32.8503 147.4930 -16.9848 0.0000 -4.0241 0.0000
# 3 -2.5422 -16.9848 61.5613 0.0000 -0.3428 0.0000
# 4 0.0000 0.0000 0.0000 31.9068 0.0000 15.6768
# 5 -9.9855 -4.0241 -0.3428 0.0000 21.8872 0.0000
# 6 0.0000 0.0000 0.0000 15.6768 0.0000 -70.1522
#
#
#
# Elastic Compliance Matrix: (Units=1/GPa)
#
#
# Indices 1 2 3 4 5 6 
#
# 1 0.016598 -0.003537 -0.000252 0.000000 0.006918 0.000000
# 2 -0.003537 0.007794 0.002004 0.000000 -0.000149 0.000000
# 3 -0.000252 0.002004 0.016789 0.000000 0.000516 0.000000
# 4 0.000000 0.000000 0.000000 0.028241 0.000000 0.006311
# 5 0.006918 -0.000149 0.000516 0.000000 0.048826 0.000000
# 6 0.000000 0.000000 0.000000 0.006311 0.000000 -0.012844
#
#
# Mechanical properties :
#
#
# Convention : Reuss Voigt Hill
#
# Bulk Modulus (GPa) = 26.58791 34.11910 30.35351
# Shear Modulus (GPa) = 41.14825 14.53514 27.84170
#
# Velocity S-wave (km/s) = 4.17332 2.48037 3.43284
# Velocity P-wave (km/s) = 5.87162 4.75861 5.34417
#
# Compressibility (1/GPa) = 0.03761108
#
# Stress axis : x y z
#
# Youngs Moduli (GPa) = 60.24695 128.29665 59.56201
#
# Poissons Ratio (x) = 0.45380 0.01501
# Poissons Ratio (y) = 0.21310 -0.11934
# Poissons Ratio (z) = 0.01518 -0.25705
#
# Static dielectric constant tensor:
#      x y z
#    x 1.970130 0.000000 0.047630 
#    y 0.000000 1.925780 0.000000 
#    z 0.047630 0.000000 1.919140 
# 
# From -- ./inp_files/67403.got.cif
#   From: 2010.05.17/outbox.cif.g08.bks.cpg/sg12_34_cif.got.tgz:67403.got - 2010.06.03 13:09:07.
