data_PCOD9189555
_publ_section_title
;
Structure prediction by ZEFSAII (Michael W. Deem and Ramdas Pophale) SiO2 
 PCOD9189555
Probable space group: C 2/M
;
_chemical_formula_sum "Si O2"
_cell_formula_units_Z 64
_cell_length_a 14.318938
_cell_length_b 18.272541
_cell_length_c 14.129299
_cell_angle_alpha 90.000000
_cell_angle_beta 130.809476
_cell_angle_gamma 90.000000
_cell_volume 2798.088217
_symmetry_space_group_name_H-M "C 2/M"
_symmetry_group_IT_number 12
_symmetry_cell_setting 'monoclinic'
loop_
_space_group_symop_operation_xyz
x,y,z
-x,y,-z
-x,-y,-z
x,-y,z
1/2+x,1/2+y,z
1/2-x,1/2+y,-z
1/2-x,1/2-y,-z
1/2+x,1/2-y,z
loop_
_atom_site_type_symbol
_atom_site_label
_atom_site_fract_x
_atom_site_fract_y
_atom_site_fract_z
Si Si1 0.910785 0.632653 0.150525
Si Si2 0.847073 0.920964 0.577345
Si Si3 0.326144 0.881244 0.705029
Si Si4 0.365600 0.782003 0.293805
Si Si5 0.396699 0.614958 0.301595
Si Si6 0.721730 0.719871 0.376839
Si Si7 0.144043 0.919558 0.944360
Si Si8 0.611244 0.265772 0.007840
O O1 0.936813 0.660830 0.274919
O O2 0.876965 0.705152 0.066175
O O3 0.033122 0.595132 0.190537
O O4 0.788270 0.584756 0.067623
O O5 0.731353 0.907972 0.432009
O O6 0.853591 0.854061 0.655151
O O7 0.969201 0.919167 0.592998
O O8 0.839258 0.000000 0.618841
O O9 0.222473 0.901476 0.713304
O O10 0.335588 0.792210 0.708681
O O11 0.422637 0.701605 0.328333
O O12 0.335042 0.800092 0.382324
O O13 0.234725 0.772664 0.151974
O O14 0.364449 0.591992 0.173761
O O15 0.750000 0.750000 0.500000
O O16 0.085361 0.847211 0.951722
O O17 0.094030 0.000000 0.936060
O O18 0.500000 0.241495 0.000000
#
# Coordination Sequence:
#
# PCOD9189555 Si02
#       8
#     8   8   8   8   8   8   8   8
#     4  11  21  41  65  93 123 166 220 266 309 377
#     4  11  24  41  61  90 131 168 208 263 323 385
#     4  10  23  39  65  88 122 164 221 267 310 371
#     4  10  19  37  66  92 125 162 211 268 318 365
#     4  11  20  38  61  90 123 165 206 264 320 375
#     4   9  20  39  61  95 123 161 216 266 310 369
#     4  11  24  39  57  93 134 167 204 256 325 386
#     4  11  21  37  67  94 123 167 212 268 313 375
#
# _framework density 22.872758999999999
#
# number of rings (size 3 to 8) (size 9 to 14) (size 15 to 20)
#    0.000    1.500    2.500    3.750    1.750    2.250 
#    0.000    9.375    0.000    0.750    0.000    0.000 
#    0.000    0.000    0.000    0.000    0.000    0.000 
#
# Total GULP energy -178807.729295 kJ/mol
# GULP energy per Si atom -5587.741540 kJ/mol
# Density = 2.282070 g / cm^3
# Si number density = 22.872759 Si / 1000 Ang^3
#
#
#
# Elastic Constant Matrix: (Units=GPa)
#
#
# Indices 1 2 3 4 5 6 
#
# 1 83.3129 20.6932 15.7632 0.0000 -10.0232 0.0000
# 2 20.6932 120.0744 6.1550 0.0000 -11.1702 0.0000
# 3 15.7632 6.1550 64.8137 0.0000 -0.6967 0.0000
# 4 0.0000 0.0000 0.0000 -3.5803 0.0000 -15.4056
# 5 -10.0232 -11.1702 -0.6967 0.0000 38.0376 0.0000
# 6 0.0000 0.0000 0.0000 -15.4056 0.0000 -13.1580
#
#
#
# Elastic Compliance Matrix: (Units=1/GPa)
#
#
# Indices 1 2 3 4 5 6 
#
# 1 0.013399 -0.001881 -0.003049 0.000000 0.002922 0.000000
# 2 -0.001881 0.008866 -0.000362 0.000000 0.002101 0.000000
# 3 -0.003049 -0.000362 0.016198 0.000000 -0.000613 0.000000
# 4 0.000000 0.000000 0.000000 0.069172 0.000000 -0.080988
# 5 0.002922 0.002101 -0.000613 0.000000 0.027666 0.000000
# 6 0.000000 0.000000 0.000000 -0.080988 0.000000 0.018822
#
#
# Mechanical properties :
#
#
# Convention : Reuss Voigt Hill
#
# Bulk Modulus (GPa) = 35.86795 39.26930 37.56862
# Shear Modulus (GPa) = 28.73581 19.29916 24.01749
#
# Velocity S-wave (km/s) = 3.54832 2.90791 3.24396
# Velocity P-wave (km/s) = 5.70114 5.33671 5.52193
#
# Compressibility (1/GPa) = 0.02788005
#
# Stress axis : x y z
#
# Youngs Moduli (GPa) = 74.63516 112.78584 61.73577
#
# Poissons Ratio (x) = 0.21214 0.18821
# Poissons Ratio (y) = 0.14038 0.02235
# Poissons Ratio (z) = 0.22753 0.04082
#
# Static dielectric constant tensor:
#      x y z
#    x 1.880590 0.000000 0.012780 
#    y 0.000000 1.871700 0.000000 
#    z 0.012780 0.000000 1.891080 
# 
# From -- ./inp_files/216846.got.cif
#   From: 2010.05.17/outbox.cif.g08.bks.cpg/sg12_109_cif.got.tgz:216846.got - 2010.06.03 13:09:07.
