data_PCOD9189970
_publ_section_title
;
Structure prediction by ZEFSAII (Michael W. Deem and Ramdas Pophale) SiO2 
 PCOD9189970
Probable space group: C 2/M
;
_chemical_formula_sum "Si O2"
_cell_formula_units_Z 40
_cell_length_a 16.866196
_cell_length_b 18.625935
_cell_length_c 7.121833
_cell_angle_alpha 90.000000
_cell_angle_beta 53.906224
_cell_angle_gamma 90.000000
_cell_volume 1807.870563
_symmetry_space_group_name_H-M "C 2/M"
_symmetry_group_IT_number 12
_symmetry_cell_setting 'monoclinic'
loop_
_space_group_symop_operation_xyz
x,y,z
-x,y,-z
-x,-y,-z
x,-y,z
1/2+x,1/2+y,z
1/2-x,1/2+y,-z
1/2-x,1/2-y,-z
1/2+x,1/2-y,z
loop_
_atom_site_type_symbol
_atom_site_label
_atom_site_fract_x
_atom_site_fract_y
_atom_site_fract_z
Si Si1 0.613212 0.222530 0.629976
Si Si2 0.453141 0.577874 0.358331
Si Si3 0.717473 0.667793 0.234942
Si Si4 0.118537 0.584252 0.823564
Si Si5 0.582681 0.293306 0.080899
O O1 0.808255 0.238555 0.608695
O O2 0.637732 0.139010 0.623861
O O3 0.501867 0.240101 0.716946
O O4 0.609199 0.260430 0.842434
O O5 0.500000 0.572376 0.500000
O O6 0.444723 0.500000 0.283202
O O7 0.348663 0.611606 0.553257
O O8 0.524526 0.631815 0.153567
O O9 0.822480 0.627580 0.093838
O O10 0.671677 0.688424 0.097335
O O11 0.146703 0.500000 0.772426
O O12 0.000000 0.586288 0.000000
#
# Coordination Sequence:
#
# PCOD9189970 Si02
#       5
#     8   8   8   8   8
#     4  10  19  39  60  91 122 148 196 253 302 352
#     4   8  14  27  49  81 115 144 180 233 296 351
#     4  10  20  35  63  88 112 157 202 248 293 353
#     4  11  23  40  61  85 123 168 203 243 294 354
#     4   9  18  34  60  90 119 152 194 247 303 357
#
# _framework density 22.125475999999999
#
# number of rings (size 3 to 8) (size 9 to 14) (size 15 to 20)
#    0.000    2.400    2.000    3.000    0.000    1.600 
#    0.000    9.000    0.000    6.000    0.000    0.000 
#    0.000    0.000    0.000    0.000    0.000    0.000 
#
# Total GULP energy -111356.329933 kJ/mol
# GULP energy per Si atom -5567.816497 kJ/mol
# Density = 2.207512 g / cm^3
# Si number density = 22.125476 Si / 1000 Ang^3
#
#
#
# Elastic Constant Matrix: (Units=GPa)
#
#
# Indices 1 2 3 4 5 6 
#
# 1 138.8379 51.3023 39.0287 0.0000 -12.2231 0.0000
# 2 51.3023 151.7177 32.2521 0.0000 3.6772 0.0000
# 3 39.0287 32.2521 78.1067 0.0000 2.0745 0.0000
# 4 0.0000 0.0000 0.0000 19.8146 0.0000 -16.8977
# 5 -12.2231 3.6772 2.0745 0.0000 39.5063 0.0000
# 6 0.0000 0.0000 0.0000 -16.8977 0.0000 187.8896
#
#
#
# Elastic Compliance Matrix: (Units=1/GPa)
#
#
# Indices 1 2 3 4 5 6 
#
# 1 0.009485 -0.002480 -0.003805 0.000000 0.003365 0.000000
# 2 -0.002480 0.007884 -0.001979 0.000000 -0.001397 0.000000
# 3 -0.003805 -0.001979 0.015570 0.000000 -0.001811 0.000000
# 4 0.000000 0.000000 0.000000 0.054660 0.000000 0.004916
# 5 0.003365 -0.001397 -0.001811 0.000000 0.026579 0.000000
# 6 0.000000 0.000000 0.000000 0.004916 0.000000 0.005764
#
#
# Mechanical properties :
#
#
# Convention : Reuss Voigt Hill
#
# Bulk Modulus (GPa) = 60.93598 68.20317 64.56957
# Shear Modulus (GPa) = 35.22606 65.84738 50.53672
#
# Velocity S-wave (km/s) = 3.99445 5.46127 4.78441
# Velocity P-wave (km/s) = 6.99107 8.40594 7.73094
#
# Compressibility (1/GPa) = 0.01641067
#
# Stress axis : x y z
#
# Youngs Moduli (GPa) = 105.43124 126.83256 64.22780
#
# Poissons Ratio (x) = 0.31454 0.24437
# Poissons Ratio (y) = 0.26147 0.12713
# Poissons Ratio (z) = 0.40114 0.25104
#
# Static dielectric constant tensor:
#      x y z
#    x 2.010660 0.000000 -0.042790 
#    y 0.000000 1.866600 0.000000 
#    z -0.042790 0.000000 1.832560 
# 
# From -- ./inp_files/62582.got.cif
#   From: 2010.05.17/outbox.cif.g08.bks.cpg/sg12_32_cif.got.tgz:62582.got - 2010.06.03 13:09:07.
