data_PCOD9189529
_publ_section_title
;
Structure prediction by ZEFSAII (Michael W. Deem and Ramdas Pophale) SiO2 
 PCOD9189529
Probable space group: C 2/M
;
_chemical_formula_sum "Si O2"
_cell_formula_units_Z 56
_cell_length_a 9.434507
_cell_length_b 17.690140
_cell_length_c 29.557639
_cell_angle_alpha 90.000000
_cell_angle_beta 35.484265
_cell_angle_gamma 90.000000
_cell_volume 2863.564701
_symmetry_space_group_name_H-M "C 2/M"
_symmetry_group_IT_number 12
_symmetry_cell_setting 'monoclinic'
loop_
_space_group_symop_operation_xyz
x,y,z
-x,y,-z
-x,-y,-z
x,-y,z
1/2+x,1/2+y,z
1/2-x,1/2+y,-z
1/2-x,1/2-y,-z
1/2+x,1/2-y,z
loop_
_atom_site_type_symbol
_atom_site_label
_atom_site_fract_x
_atom_site_fract_y
_atom_site_fract_z
Si Si1 0.693963 0.789709 0.680680
Si Si2 0.789573 0.180843 0.920462
Si Si3 0.771951 0.413915 0.152978
Si Si4 0.283651 0.782370 0.218390
Si Si5 0.448949 0.186207 0.460195
Si Si6 0.857750 0.913355 0.991165
Si Si7 0.470326 0.586216 0.454072
O O1 0.718456 0.796010 0.727851
O O2 0.411588 0.783387 0.741259
O O3 0.818669 0.712624 0.628958
O O4 0.840133 0.857840 0.619463
O O5 0.811286 0.122005 0.873088
O O6 0.886431 0.143091 0.941571
O O7 0.952244 0.253125 0.866343
O O8 0.500000 0.197417 0.000000
O O9 0.684811 0.500000 0.181381
O O10 0.708135 0.355719 0.209298
O O11 0.067286 0.415821 0.075171
O O12 0.500000 0.189396 0.500000
O O13 0.250000 0.250000 0.500000
O O14 0.307265 0.109795 0.485439
O O15 0.933220 0.000000 0.959696
O O16 0.000000 0.892441 0.000000
O O17 0.500000 0.595611 0.500000
O O18 0.517892 0.500000 0.429131
#
# Coordination Sequence:
#
# PCOD9189529 Si02
#       7
#     8   8   8   8   8   8   8
#     4  11  22  39  61  89 129 164 207 251 318 370
#     4  10  22  41  63  87 120 164 220 268 314 374
#     4  10  22  41  59  83 120 161 204 259 321 379
#     4  12  24  39  60  92 125 171 213 260 317 381
#     4  10  19  37  65  93 119 160 205 252 299 369
#     4   9  19  35  62  90 114 151 204 267 323 369
#     4  10  21  40  66  95 127 164 206 253 308 373
#
# _framework density 19.556045000000001
#
# number of rings (size 3 to 8) (size 9 to 14) (size 15 to 20)
#    0.000    1.714    1.429    4.714    2.000    5.429 
#    0.000    2.143    0.000    0.000    0.000    0.000 
#    0.000    0.000    0.000    0.000    0.000    0.000 
#
# Total GULP energy -156378.137602 kJ/mol
# GULP energy per Si atom -5584.933486 kJ/mol
# Density = 1.951153 g / cm^3
# Si number density = 19.556045 Si / 1000 Ang^3
#
#
#
# Elastic Constant Matrix: (Units=GPa)
#
#
# Indices 1 2 3 4 5 6 
#
# 1 117.8319 44.1200 25.9516 0.0080 17.9582 0.0021
# 2 44.1200 122.8656 55.1659 0.0059 15.3734 -0.0065
# 3 25.9516 55.1659 84.4028 0.0150 11.3483 -0.0121
# 4 0.0080 0.0059 0.0150 26.2541 0.0047 3.3681
# 5 17.9582 15.3734 11.3483 0.0047 28.8565 -0.0048
# 6 0.0021 -0.0065 -0.0121 3.3681 -0.0048 27.1405
#
#
#
# Elastic Compliance Matrix: (Units=1/GPa)
#
#
# Indices 1 2 3 4 5 6 
#
# 1 0.010421 -0.002830 -0.000723 -0.000001 -0.004693 -0.000003
# 2 -0.002830 0.012604 -0.007076 0.000003 -0.002171 -0.000001
# 3 -0.000723 -0.007076 0.017028 -0.000008 -0.002477 0.000007
# 4 -0.000001 0.000003 -0.000008 0.038706 -0.000005 -0.004803
# 5 -0.004693 -0.002171 -0.002477 -0.000005 0.039705 0.000006
# 6 -0.000003 -0.000001 0.000007 -0.004803 0.000006 0.037441
#
#
# Mechanical properties :
#
#
# Convention : Reuss Voigt Hill
#
# Bulk Modulus (GPa) = 53.20774 63.95282 58.58028
# Shear Modulus (GPa) = 27.25853 29.77438 28.51645
#
# Velocity S-wave (km/s) = 3.73750 3.90618 3.82277
# Velocity P-wave (km/s) = 6.77437 7.28818 7.03597
#
# Compressibility (1/GPa) = 0.01879426
#
# Stress axis : x y z
#
# Youngs Moduli (GPa) = 95.96111 79.34070 58.72600
#
# Poissons Ratio (x) = 0.22454 0.04248
# Poissons Ratio (y) = 0.27157 0.41554
# Poissons Ratio (z) = 0.06942 0.56141
#
# Static dielectric constant tensor:
#      x y z
#    x 1.678350 0.000000 -0.019120 
#    y 0.000000 1.709260 0.000010 
#    z -0.019120 0.000010 1.696620 
# 
# From -- ./inp_files/356634.got.cif
#   From: 2010.05.17/outbox.cif.g08.bks.cpg/sg12_179_cif.got.tgz:356634.got - 2010.06.03 13:09:07.
