data_PCOD9189357
_publ_section_title
;
Structure prediction by ZEFSAII (Michael W. Deem and Ramdas Pophale) SiO2 
 PCOD9189357
Probable space group: C 2/M
;
_chemical_formula_sum "Si O2"
_cell_formula_units_Z 48
_cell_length_a 25.534080
_cell_length_b 8.568756
_cell_length_c 12.924450
_cell_angle_alpha 90.000000
_cell_angle_beta 109.406166
_cell_angle_gamma 90.000000
_cell_volume 2667.152357
_symmetry_space_group_name_H-M "C 2/M"
_symmetry_group_IT_number 12
_symmetry_cell_setting 'monoclinic'
loop_
_space_group_symop_operation_xyz
x,y,z
-x,y,-z
-x,-y,-z
x,-y,z
1/2+x,1/2+y,z
1/2-x,1/2+y,-z
1/2-x,1/2-y,-z
1/2+x,1/2-y,z
loop_
_atom_site_type_symbol
_atom_site_label
_atom_site_fract_x
_atom_site_fract_y
_atom_site_fract_z
Si Si1 0.690614 0.686998 0.629129
Si Si2 0.809413 0.686578 0.000991
Si Si3 0.810349 0.813190 0.773265
Si Si4 0.375396 0.309938 0.616271
Si Si5 0.387346 0.813106 0.241213
Si Si6 0.496481 0.688698 0.619168
O O1 0.696651 0.500000 0.633053
O O2 0.749018 0.762754 0.696711
O O3 0.667136 0.738099 0.502222
O O4 0.645561 0.734672 0.685536
O O5 0.806234 0.500000 0.997322
O O6 0.855988 0.732949 0.115089
O O7 0.750000 0.750000 0.000000
O O8 0.821210 0.746363 0.893828
O O9 0.853385 0.759088 0.713398
O O10 0.812109 0.000000 0.780124
O O11 0.375670 0.500000 0.615645
O O12 0.437444 0.260236 0.626963
O O13 0.450838 0.760006 0.288438
O O14 0.383530 0.000000 0.249406
O O15 0.500000 0.731280 0.500000
O O16 0.499598 0.500000 0.626844
#
# Coordination Sequence:
#
# PCOD9189357 Si02
#       6
#     8   8   8   8   8   8
#     4  11  20  35  59  85 117 153 189 230 287 347
#     4  11  23  39  59  82 114 151 193 237 287 339
#     4  11  22  37  57  85 120 151 190 238 286 341
#     4   9  20  37  57  85 118 153 190 234 283 341
#     4  11  23  37  56  87 117 144 187 243 290 332
#     4  10  19  37  62  84 112 152 193 231 278 341
#
# _framework density 17.996722999999999
#
# number of rings (size 3 to 8) (size 9 to 14) (size 15 to 20)
#    0.000    1.500    3.333    2.500    0.000    2.333 
#    0.000    5.000    0.000    5.000    0.000    0.000 
#    0.000    0.000    0.000    0.000    0.000    0.000 
#
# Total GULP energy -134093.472884 kJ/mol
# GULP energy per Si atom -5587.228037 kJ/mol
# Density = 1.795576 g / cm^3
# Si number density = 17.996723 Si / 1000 Ang^3
#
#
#
# Elastic Constant Matrix: (Units=GPa)
#
#
# Indices 1 2 3 4 5 6 
#
# 1 57.0256 5.1000 53.3824 0.0000 -6.4701 0.0000
# 2 5.1000 30.2875 30.9057 0.0000 -0.2005 0.0000
# 3 53.3824 30.9057 161.7825 0.0000 -7.0834 0.0000
# 4 0.0000 0.0000 0.0000 29.3894 0.0000 4.7519
# 5 -6.4701 -0.2005 -7.0834 0.0000 37.5694 0.0000
# 6 0.0000 0.0000 0.0000 4.7519 0.0000 22.3039
#
#
#
# Elastic Compliance Matrix: (Units=1/GPa)
#
#
# Indices 1 2 3 4 5 6 
#
# 1 0.026359 0.005380 -0.009604 0.000000 0.002757 0.000000
# 2 0.005380 0.042170 -0.009862 0.000000 -0.000708 0.000000
# 3 -0.009604 -0.009862 0.011252 0.000000 0.000415 0.000000
# 4 0.000000 0.000000 0.000000 0.035240 0.000000 -0.007508
# 5 0.002757 -0.000708 0.000415 0.000000 0.027167 0.000000
# 6 0.000000 0.000000 0.000000 -0.007508 0.000000 0.046435
#
#
# Mechanical properties :
#
#
# Convention : Reuss Voigt Hill
#
# Bulk Modulus (GPa) = 19.37679 47.54130 33.45904
# Shear Modulus (GPa) = 21.36781 28.49970 24.93376
#
# Velocity S-wave (km/s) = 3.44948 3.98377 3.72622
# Velocity P-wave (km/s) = 5.16289 6.90178 6.09467
#
# Compressibility (1/GPa) = 0.05160815
#
# Stress axis : x y z
#
# Youngs Moduli (GPa) = 37.93839 23.71379 88.86997
#
# Poissons Ratio (x) = -0.12759 0.85355
# Poissons Ratio (y) = -0.20412 0.87644
# Poissons Ratio (z) = 0.36438 0.23387
#
# Static dielectric constant tensor:
#      x y z
#    x 1.597240 0.000000 -0.007150 
#    y 0.000000 1.615340 0.000000 
#    z -0.007150 0.000000 1.604690 
# 
# From -- ./inp_files/172124.got.cif
#   From: 2010.05.17/outbox.cif.g08.bks.cpg/sg12_87_cif.got.tgz:172124.got - 2010.06.03 13:09:07.
