data_PCOD9189140
_publ_section_title
;
Structure prediction by ZEFSAII (Michael W. Deem and Ramdas Pophale) SiO2 
 PCOD9189140
Probable space group: C 2/M
;
_chemical_formula_sum "Si O2"
_cell_formula_units_Z 48
_cell_length_a 16.788021
_cell_length_b 20.321046
_cell_length_c 13.602025
_cell_angle_alpha 90.000000
_cell_angle_beta 150.519005
_cell_angle_gamma 90.000000
_cell_volume 2283.669436
_symmetry_space_group_name_H-M "C 2/M"
_symmetry_group_IT_number 12
_symmetry_cell_setting 'monoclinic'
loop_
_space_group_symop_operation_xyz
x,y,z
-x,y,-z
-x,-y,-z
x,-y,z
1/2+x,1/2+y,z
1/2-x,1/2+y,-z
1/2-x,1/2-y,-z
1/2+x,1/2-y,z
loop_
_atom_site_type_symbol
_atom_site_label
_atom_site_fract_x
_atom_site_fract_y
_atom_site_fract_z
Si Si1 0.255174 0.705670 0.360426
Si Si2 0.314319 0.352161 0.770767
Si Si3 0.330825 0.427783 0.376876
Si Si4 0.579080 0.574083 0.297201
Si Si5 0.736729 0.653225 0.077449
Si Si6 0.514466 0.769798 0.774839
O O1 0.216304 0.775112 0.270304
O O2 0.251525 0.644402 0.281737
O O3 0.424905 0.721513 0.599475
O O4 0.119436 0.699881 0.298182
O O5 0.308563 0.384680 0.657347
O O6 0.216107 0.370948 0.762783
O O7 0.500000 0.365289 0.000000
O O8 0.500000 0.425745 0.500000
O O9 0.255806 0.500000 0.271825
O O10 0.358664 0.426906 0.524526
O O11 0.575314 0.500000 0.254699
O O12 0.396564 0.602159 0.104456
O O13 0.888938 0.672482 0.175552
O O14 0.634780 0.722332 0.965068
#
# Coordination Sequence:
#
# PCOD9189140 Si02
#       6
#     8   8   8   8   8   8
#     4  11  19  36  57  82 113 152 187 237 287 327
#     4  10  20  34  54  90 116 146 192 233 276 343
#     4  10  22  37  57  85 110 146 198 237 281 344
#     4  10  19  37  58  80 117 156 187 231 282 340
#     4  10  20  35  52  88 118 145 187 235 277 335
#     4  10  20  33  56  81 117 149 186 235 276 335
#
# _framework density 21.018803999999999
#
# number of rings (size 3 to 8) (size 9 to 14) (size 15 to 20)
#    0.000    1.833    5.000    1.000    2.333    3.000 
#    0.000    0.833    0.000    1.500    0.000    8.167 
#    0.000    0.000    0.000    0.000    0.000    0.000 
#
# Total GULP energy -133703.692536 kJ/mol
# GULP energy per Si atom -5570.987189 kJ/mol
# Density = 2.097096 g / cm^3
# Si number density = 21.018804 Si / 1000 Ang^3
#
#
#
# Elastic Constant Matrix: (Units=GPa)
#
#
# Indices 1 2 3 4 5 6 
#
# 1 31.6973 0.2001 10.0153 0.0000 -10.3122 0.0000
# 2 0.2001 99.6076 -16.5307 0.0000 10.9968 0.0000
# 3 10.0153 -16.5307 18.8837 0.0000 1.1891 0.0000
# 4 0.0000 0.0000 0.0000 19.5129 0.0000 1.6000
# 5 -10.3122 10.9968 1.1891 0.0000 20.5080 0.0000
# 6 0.0000 0.0000 0.0000 1.6000 0.0000 13.2627
#
#
#
# Elastic Compliance Matrix: (Units=1/GPa)
#
#
# Indices 1 2 3 4 5 6 
#
# 1 0.057206 -0.011298 -0.042579 0.000000 0.037293 0.000000
# 2 -0.011298 0.015045 0.020101 0.000000 -0.014914 0.000000
# 3 -0.042579 0.020101 0.095511 0.000000 -0.037727 0.000000
# 4 0.000000 0.000000 0.000000 0.051760 0.000000 -0.006244
# 5 0.037293 -0.014914 -0.037727 0.000000 0.077699 0.000000
# 6 0.000000 0.000000 0.000000 -0.006244 0.000000 0.076153
#
#
# Mechanical properties :
#
#
# Convention : Reuss Voigt Hill
#
# Bulk Modulus (GPa) = 9.97912 15.28421 12.63166
# Shear Modulus (GPa) = 10.54123 21.09031 15.81577
#
# Velocity S-wave (km/s) = 2.24188 3.17109 2.74607
# Velocity P-wave (km/s) = 3.38517 4.54920 4.00965
#
# Compressibility (1/GPa) = 0.10020926
#
# Stress axis : x y z
#
# Youngs Moduli (GPa) = 17.48071 66.46891 10.47002
#
# Poissons Ratio (x) = 0.75099 0.44580
# Poissons Ratio (y) = 0.19750 -0.21046
# Poissons Ratio (z) = 0.74431 -1.33612
#
# Static dielectric constant tensor:
#      x y z
#    x 1.806060 0.000000 -0.042380 
#    y 0.000000 1.848140 0.000000 
#    z -0.042380 0.000000 1.799520 
# 
# From -- ./inp_files/77269.got.cif
#   From: 2010.05.17/outbox.cif.g08.bks.cpg/sg12_39_cif.got.tgz:77269.got - 2010.06.03 13:09:07.
