data_PCOD9189200
_publ_section_title
;
Structure prediction by ZEFSAII (Michael W. Deem and Ramdas Pophale) SiO2 
 PCOD9189200
Probable space group: C 2/M
;
_chemical_formula_sum "Si O2"
_cell_formula_units_Z 56
_cell_length_a 30.920109
_cell_length_b 8.695269
_cell_length_c 17.228279
_cell_angle_alpha 90.000000
_cell_angle_beta 133.875522
_cell_angle_gamma 90.000000
_cell_volume 3338.944497
_symmetry_space_group_name_H-M "C 2/M"
_symmetry_group_IT_number 12
_symmetry_cell_setting 'monoclinic'
loop_
_space_group_symop_operation_xyz
x,y,z
-x,y,-z
-x,-y,-z
x,-y,z
1/2+x,1/2+y,z
1/2-x,1/2+y,-z
1/2-x,1/2-y,-z
1/2+x,1/2-y,z
loop_
_atom_site_type_symbol
_atom_site_label
_atom_site_fract_x
_atom_site_fract_y
_atom_site_fract_z
Si Si1 0.491906 0.182613 0.204627
Si Si2 0.373598 0.684946 0.632555
Si Si3 0.594545 0.684969 0.584757
Si Si4 0.028320 0.185290 0.657048
Si Si5 0.828797 0.187009 0.746525
Si Si6 0.193446 0.684308 0.601247
Si Si7 0.555660 0.685788 0.012550
O O1 0.558087 0.257524 0.283521
O O2 0.463103 0.236515 0.249811
O O3 0.455660 0.241010 0.084974
O O4 0.497677 0.000000 0.210241
O O5 0.373826 0.500000 0.628481
O O6 0.343554 0.733312 0.676560
O O7 0.337771 0.750811 0.515038
O O8 0.599942 0.500000 0.588808
O O9 0.575377 0.728138 0.648197
O O10 0.537672 0.725431 0.459064
O O11 0.653823 0.759704 0.624158
O O12 0.029641 0.000000 0.667276
O O13 0.762581 0.236857 0.689168
O O14 0.829500 0.000000 0.747841
O O15 0.882731 0.236189 0.869795
O O16 0.192377 0.500000 0.596615
O O17 0.556169 0.500000 0.005329
O O18 0.500000 0.724473 0.000000
#
# Coordination Sequence:
#
# PCOD9189200 Si02
#       7
#     8   8   8   8   8   8   8
#     4  12  23  33  51  83 114 135 167 224 278 309
#     4  11  20  35  54  74 105 148 186 210 247 316
#     4   9  18  33  54  78 104 138 178 212 253 315
#     4   9  18  34  55  77 103 138 178 215 254 314
#     4   9  20  36  54  76 104 142 185 218 254 308
#     4  11  21  33  51  81 114 139 169 218 270 311
#     4  10  19  37  60  75  97 143 189 219 252 308
#
# _framework density 16.771768000000002
#
# number of rings (size 3 to 8) (size 9 to 14) (size 15 to 20)
#    0.000    1.857    2.857    3.429    0.000    0.857 
#    0.000    5.000    0.000    0.857    0.000    0.000 
#    0.000    0.000    0.000    0.000    0.000    0.000 
#
# Total GULP energy -156324.128485 kJ/mol
# GULP energy per Si atom -5583.004589 kJ/mol
# Density = 1.673359 g / cm^3
# Si number density = 16.771768 Si / 1000 Ang^3
#
#
#
# Elastic Constant Matrix: (Units=GPa)
#
#
# Indices 1 2 3 4 5 6 
#
# 1 155.4491 43.7332 87.0567 0.0000 -5.6587 0.0000
# 2 43.7332 40.1308 29.2258 0.0000 -5.7882 0.0000
# 3 87.0567 29.2258 97.4427 0.0000 -2.2716 0.0000
# 4 0.0000 0.0000 0.0000 15.7135 0.0000 2.0974
# 5 -5.6587 -5.7882 -2.2716 0.0000 31.4251 0.0000
# 6 0.0000 0.0000 0.0000 2.0974 0.0000 16.3525
#
#
#
# Elastic Compliance Matrix: (Units=1/GPa)
#
#
# Indices 1 2 3 4 5 6 
#
# 1 0.014760 -0.008233 -0.010709 0.000000 0.000367 0.000000
# 2 -0.008233 0.037343 -0.003725 0.000000 0.005126 0.000000
# 3 -0.010709 -0.003725 0.020921 0.000000 -0.001102 0.000000
# 4 0.000000 0.000000 0.000000 0.064748 0.000000 -0.008305
# 5 0.000367 0.005126 -0.001102 0.000000 0.032752 0.000000
# 6 0.000000 0.000000 0.000000 -0.008305 0.000000 0.062218
#
#
# Mechanical properties :
#
#
# Convention : Reuss Voigt Hill
#
# Bulk Modulus (GPa) = 36.11389 68.11711 52.11550
# Shear Modulus (GPa) = 17.40301 21.56533 19.48417
#
# Velocity S-wave (km/s) = 3.22473 3.58971 3.41211
# Velocity P-wave (km/s) = 5.95353 7.60813 6.83111
#
# Compressibility (1/GPa) = 0.02769018
#
# Stress axis : x y z
#
# Youngs Moduli (GPa) = 67.75137 26.77889 47.79780
#
# Poissons Ratio (x) = 0.22047 0.51186
# Poissons Ratio (y) = 0.55779 0.17806
# Poissons Ratio (z) = 0.72554 0.09976
#
# Static dielectric constant tensor:
#      x y z
#    x 1.566740 0.000000 -0.004160 
#    y 0.000000 1.563430 0.000000 
#    z -0.004160 0.000000 1.541380 
# 
# From -- ./inp_files/249307.got.cif
#   From: 2010.05.17/outbox.cif.g08.bks.cpg/sg12_125_cif.got.tgz:249307.got - 2010.06.03 13:09:07.
