data_PCOD9189476
_publ_section_title
;
Structure prediction by ZEFSAII (Michael W. Deem and Ramdas Pophale) SiO2 
 PCOD9189476
Probable space group: C 2/M
;
_chemical_formula_sum "Si O2"
_cell_formula_units_Z 52
_cell_length_a 11.048216
_cell_length_b 28.709484
_cell_length_c 8.340611
_cell_angle_alpha 90.000000
_cell_angle_beta 115.153874
_cell_angle_gamma 90.000000
_cell_volume 2394.668148
_symmetry_space_group_name_H-M "C 2/M"
_symmetry_group_IT_number 12
_symmetry_cell_setting 'monoclinic'
loop_
_space_group_symop_operation_xyz
x,y,z
-x,y,-z
-x,-y,-z
x,-y,z
1/2+x,1/2+y,z
1/2-x,1/2+y,-z
1/2-x,1/2-y,-z
1/2+x,1/2-y,z
loop_
_atom_site_type_symbol
_atom_site_label
_atom_site_fract_x
_atom_site_fract_y
_atom_site_fract_z
Si Si1 0.346966 0.447593 0.633169
Si Si2 0.409078 0.763951 0.611228
Si Si3 0.638803 0.551553 0.877764
Si Si4 0.996722 0.353097 0.186026
Si Si5 0.000000 0.783675 0.000000
Si Si6 0.701219 0.632510 0.143352
Si Si7 0.865061 0.449913 0.763623
O O1 0.321951 0.500000 0.691414
O O2 0.505962 0.445206 0.695257
O O3 0.303981 0.400920 0.703993
O O4 0.257774 0.448401 0.427122
O O5 0.500000 0.754729 0.500000
O O6 0.250000 0.750000 0.500000
O O7 0.414218 0.818851 0.656043
O O8 0.482304 0.742982 0.816133
O O9 0.627358 0.500000 0.945136
O O10 0.785309 0.553367 0.884144
O O11 0.632499 0.596619 0.982264
O O12 0.046303 0.405854 0.216548
O O13 0.849719 0.354460 0.175244
O O14 0.000000 0.338610 0.000000
O O15 0.876153 0.819116 0.913947
O O16 0.934118 0.500000 0.787645
#
# Coordination Sequence:
#
# PCOD9189476 Si02
#       7
#     8   8   8   8   4   8   8
#     4  10  21  39  63  99 145 188 242 301 358 433
#     4  12  31  55  85 113 149 201 249 319 394 458
#     4  10  19  37  63  96 138 188 240 286 348 428
#     4  12  27  47  71 101 146 189 243 307 371 449
#     4  12  28  52  79 116 147 180 264 320 378 462
#     4  12  24  41  69 104 138 186 233 310 370 438
#     4  10  23  40  65 101 143 191 241 295 356 435
#
# _framework density 21.714908999999999
#
# number of rings (size 3 to 8) (size 9 to 14) (size 15 to 20)
#    0.000    0.923    3.846    1.846    6.462    5.846 
#    0.000    1.538    0.000    0.000    0.000    0.000 
#    0.000    0.000    0.000    0.000    0.000    0.000 
#
# Total GULP energy -144848.991465 kJ/mol
# GULP energy per Si atom -5571.115056 kJ/mol
# Density = 2.166548 g / cm^3
# Si number density = 21.714909 Si / 1000 Ang^3
#
#
#
# Elastic Constant Matrix: (Units=GPa)
#
#
# Indices 1 2 3 4 5 6 
#
# 1 122.7189 59.6730 20.9117 0.0000 13.1823 0.0000
# 2 59.6730 125.5214 50.9164 0.0000 -5.0818 0.0000
# 3 20.9117 50.9164 88.2491 0.0000 4.8069 0.0000
# 4 0.0000 0.0000 0.0000 36.8350 0.0000 0.9947
# 5 13.1823 -5.0818 4.8069 0.0000 29.3210 0.0000
# 6 0.0000 0.0000 0.0000 0.9947 0.0000 -9.0832
#
#
#
# Elastic Compliance Matrix: (Units=1/GPa)
#
#
# Indices 1 2 3 4 5 6 
#
# 1 0.011729 -0.006345 0.001240 0.000000 -0.006576 0.000000
# 2 -0.006345 0.014069 -0.006964 0.000000 0.006433 0.000000
# 3 0.001240 -0.006964 0.015288 0.000000 -0.004271 0.000000
# 4 0.000000 0.000000 0.000000 0.027068 0.000000 0.002964
# 5 -0.006576 0.006433 -0.004271 0.000000 0.038877 0.000000
# 6 0.000000 0.000000 0.000000 0.002964 0.000000 -0.109769
#
#
# Mechanical properties :
#
#
# Convention : Reuss Voigt Hill
#
# Bulk Modulus (GPa) = 59.00575 66.61019 62.80797
# Shear Modulus (GPa) = 184.84372 25.08046 104.96209
#
# Velocity S-wave (km/s) = 9.23622 3.40220 6.95998
# Velocity P-wave (km/s) = 11.87331 6.79520 9.67343
#
# Compressibility (1/GPa) = 0.01694750
#
# Stress axis : x y z
#
# Youngs Moduli (GPa) = 85.25658 71.08046 65.40968
#
# Poissons Ratio (x) = 0.45103 -0.08110
# Poissons Ratio (y) = 0.54098 0.45550
# Poissons Ratio (z) = -0.10570 0.49499
#
# Static dielectric constant tensor:
#      x y z
#    x 1.811150 0.000000 -0.054930 
#    y 0.000000 1.783380 0.000000 
#    z -0.054930 0.000000 1.886770 
# 
# From -- ./inp_files/53353.got.cif
#   From: 2010.05.17/outbox.cif.g08.bks.cpg/sg12_27_cif.got.tgz:53353.got - 2010.06.03 13:09:07.
