data_PCOD9189952
_publ_section_title
;
Structure prediction by ZEFSAII (Michael W. Deem and Ramdas Pophale) SiO2 
 PCOD9189952
Probable space group: C 2/M
;
_chemical_formula_sum "Si O2"
_cell_formula_units_Z 64
_cell_length_a 24.981213
_cell_length_b 18.585091
_cell_length_c 9.996589
_cell_angle_alpha 90.000000
_cell_angle_beta 52.404973
_cell_angle_gamma 90.000000
_cell_volume 3677.418498
_symmetry_space_group_name_H-M "C 2/M"
_symmetry_group_IT_number 12
_symmetry_cell_setting 'monoclinic'
loop_
_space_group_symop_operation_xyz
x,y,z
-x,y,-z
-x,-y,-z
x,-y,z
1/2+x,1/2+y,z
1/2-x,1/2+y,-z
1/2-x,1/2-y,-z
1/2+x,1/2-y,z
loop_
_atom_site_type_symbol
_atom_site_label
_atom_site_fract_x
_atom_site_fract_y
_atom_site_fract_z
Si Si1 0.067462 0.683497 0.617506
Si Si2 0.307991 0.084652 0.626743
Si Si3 0.587906 0.203534 0.152710
Si Si4 0.923276 0.764279 0.125363
Si Si5 0.694023 0.081987 0.062224
Si Si6 0.421053 0.686832 0.601932
Si Si7 0.188814 0.916300 0.336166
Si Si8 0.713774 0.328009 0.567892
O O1 0.117729 0.619906 0.502165
O O2 0.074004 0.703466 0.763472
O O3 0.087912 0.754186 0.501971
O O4 0.988334 0.674766 0.706625
O O5 0.285362 0.094216 0.815185
O O6 0.257982 0.125884 0.603790
O O7 0.309822 0.000000 0.593825
O O8 0.638985 0.140520 0.107663
O O9 0.600700 0.271257 0.230707
O O10 0.592723 0.229938 0.993363
O O11 0.862468 0.816245 0.261584
O O12 0.000000 0.795395 0.000000
O O13 0.667381 0.000000 0.095459
O O14 0.754657 0.088061 0.865065
O O15 0.500000 0.670040 0.500000
O O16 0.377948 0.618449 0.626222
O O17 0.210194 0.869051 0.431793
O O18 0.180082 0.000000 0.386838
O O19 0.750000 0.250000 0.500000
#
# Coordination Sequence:
#
# PCOD9189952 Si02
#       8
#     8   8   8   8   8   8   8   8
#     4  10  19  39  57  88 117 146 195 239 286 343
#     4  11  23  38  57  84 119 155 194 239 285 346
#     4  10  21  35  61  88 116 151 191 241 289 343
#     4  10  21  37  60  89 117 145 192 250 289 336
#     4  10  23  39  55  83 122 155 191 237 290 348
#     4  10  20  37  62  86 111 145 194 244 282 339
#     4  11  24  41  59  84 119 154 191 240 296 350
#     4  12  22  39  64  86 113 154 200 240 286 345
#
# _framework density 17.403513
#
# number of rings (size 3 to 8) (size 9 to 14) (size 15 to 20)
#    0.000    1.500    3.750    1.125    1.750    1.250 
#    0.000    1.250    0.000    3.750    0.000    0.000 
#    0.000    0.000    0.000    0.000    0.000    0.000 
#
# Total GULP energy -178610.521884 kJ/mol
# GULP energy per Si atom -5581.578809 kJ/mol
# Density = 1.736390 g / cm^3
# Si number density = 17.403513 Si / 1000 Ang^3
#
#
#
# Elastic Constant Matrix: (Units=GPa)
#
#
# Indices 1 2 3 4 5 6 
#
# 1 98.8311 77.8345 45.2757 0.0000 13.2018 0.0000
# 2 77.8345 123.3444 57.2395 0.0000 -0.6266 0.0000
# 3 45.2757 57.2395 98.7704 0.0000 14.3243 0.0000
# 4 0.0000 0.0000 0.0000 15.6274 0.0000 8.0562
# 5 13.2018 -0.6266 14.3243 0.0000 33.3294 0.0000
# 6 0.0000 0.0000 0.0000 8.0562 0.0000 11.2220
#
#
#
# Elastic Compliance Matrix: (Units=1/GPa)
#
#
# Indices 1 2 3 4 5 6 
#
# 1 0.022721 -0.013871 -0.001102 0.000000 -0.008787 0.000000
# 2 -0.013871 0.019880 -0.006414 0.000000 0.008624 0.000000
# 3 -0.001102 -0.006414 0.015251 0.000000 -0.006239 0.000000
# 4 0.000000 0.000000 0.000000 0.101585 0.000000 -0.072927
# 5 -0.008787 0.008624 -0.006239 0.000000 0.036327 0.000000
# 6 0.000000 0.000000 0.000000 -0.072927 0.000000 0.141464
#
#
# Mechanical properties :
#
#
# Convention : Reuss Voigt Hill
#
# Bulk Modulus (GPa) = 66.31650 75.73835 71.02742
# Shear Modulus (GPa) = 12.98602 21.40885 17.19743
#
# Velocity S-wave (km/s) = 2.73458 3.51115 3.14691
# Velocity P-wave (km/s) = 6.93963 7.74926 7.35559
#
# Compressibility (1/GPa) = 0.01507920
#
# Stress axis : x y z
#
# Youngs Moduli (GPa) = 44.01228 50.30085 65.56759
#
# Poissons Ratio (x) = 0.69771 0.07229
# Poissons Ratio (y) = 0.61048 0.42053
# Poissons Ratio (z) = 0.04852 0.32261
#
# Static dielectric constant tensor:
#      x y z
#    x 1.590420 0.000000 -0.000210 
#    y 0.000000 1.557700 0.000000 
#    z -0.000210 0.000000 1.603760 
# 
# From -- ./inp_files/99068.got.cif
#   From: 2010.05.17/outbox.cif.g08.bks.cpg/sg12_50_cif.got.tgz:99068.got - 2010.06.03 13:09:07.
