data_PCOD9189370
_publ_section_title
;
Structure prediction by ZEFSAII (Michael W. Deem and Ramdas Pophale) SiO2 
 PCOD9189370
Probable space group: C 2/M
;
_chemical_formula_sum "Si O2"
_cell_formula_units_Z 56
_cell_length_a 31.926579
_cell_length_b 7.853741
_cell_length_c 12.209194
_cell_angle_alpha 90.000000
_cell_angle_beta 121.164469
_cell_angle_gamma 90.000000
_cell_volume 2619.570236
_symmetry_space_group_name_H-M "C 2/M"
_symmetry_group_IT_number 12
_symmetry_cell_setting 'monoclinic'
loop_
_space_group_symop_operation_xyz
x,y,z
-x,y,-z
-x,-y,-z
x,-y,z
1/2+x,1/2+y,z
1/2-x,1/2+y,-z
1/2-x,1/2-y,-z
1/2+x,1/2-y,z
loop_
_atom_site_type_symbol
_atom_site_label
_atom_site_fract_x
_atom_site_fract_y
_atom_site_fract_z
Si Si1 0.056593 0.705377 0.073556
Si Si2 0.433307 0.307977 0.155653
Si Si3 0.714798 0.795437 0.551263
Si Si4 0.251237 0.792932 0.167598
Si Si5 0.020360 0.695500 0.414191
Si Si6 0.603718 0.209445 0.366586
Si Si7 0.667651 0.801348 0.895760
O O1 0.057156 0.500000 0.075239
O O2 0.084005 0.763533 0.220445
O O3 0.077462 0.762201 0.984941
O O4 0.000000 0.761630 0.000000
O O5 0.451570 0.500000 0.185232
O O6 0.476183 0.196849 0.266787
O O7 0.383566 0.289569 0.156431
O O8 0.750000 0.750000 0.500000
O O9 0.738556 0.735039 0.696338
O O10 0.659308 0.734363 0.459923
O O11 0.711767 0.000000 0.554829
O O12 0.297435 0.740483 0.155121
O O13 0.248209 0.000000 0.158265
O O14 0.201923 0.721335 0.048437
O O15 0.033764 0.500000 0.459719
O O16 0.067284 0.768448 0.413957
O O17 0.000000 0.774072 0.500000
O O18 0.602319 0.000000 0.365192
O O19 0.656981 0.000000 0.863761
#
# Coordination Sequence:
#
# PCOD9189370 Si02
#       7
#     8   8   8   8   8   8   8
#     4  10  19  37  62  86 114 149 200 249 288 344
#     4  12  25  38  57  88 127 158 192 241 301 358
#     4  10  22  39  59  86 119 155 197 242 295 352
#     4   9  20  39  61  86 118 150 193 253 306 351
#     4  10  21  39  66  92 117 155 206 248 292 357
#     4   9  19  37  61  88 116 151 196 250 295 344
#     4  10  21  38  63  88 114 153 201 244 296 357
#
# _framework density 21.377552000000001
#
# number of rings (size 3 to 8) (size 9 to 14) (size 15 to 20)
#    0.000    2.000    1.429    1.714    4.000    1.714 
#    0.000    0.714    0.000    0.000    0.000    0.000 
#    0.000    0.000    0.000    0.000    0.000    0.000 
#
# Total GULP energy -156430.500128 kJ/mol
# GULP energy per Si atom -5586.803576 kJ/mol
# Density = 2.132890 g / cm^3
# Si number density = 21.377552 Si / 1000 Ang^3
#
#
#
# Elastic Constant Matrix: (Units=GPa)
#
#
# Indices 1 2 3 4 5 6 
#
# 1 126.1205 -3.4653 45.4148 0.0000 0.1483 0.0000
# 2 -3.4653 28.3057 -6.4017 0.0000 -1.6216 0.0000
# 3 45.4148 -6.4017 94.9939 0.0000 -24.8405 0.0000
# 4 0.0000 0.0000 0.0000 -40.3295 0.0000 17.1042
# 5 0.1483 -1.6216 -24.8405 0.0000 26.0405 0.0000
# 6 0.0000 0.0000 0.0000 17.1042 0.0000 3.6157
#
#
#
# Elastic Compliance Matrix: (Units=1/GPa)
#
#
# Indices 1 2 3 4 5 6 
#
# 1 0.010318 -0.000613 -0.006661 0.000000 -0.006451 0.000000
# 2 -0.000613 0.036642 0.004477 0.000000 0.006556 0.000000
# 3 -0.006661 0.004477 0.018781 0.000000 0.018232 0.000000
# 4 0.000000 0.000000 0.000000 -0.008248 0.000000 0.039018
# 5 -0.006451 0.006556 0.018232 0.000000 0.056239 0.000000
# 6 0.000000 0.000000 0.000000 0.039018 0.000000 0.091998
#
#
# Mechanical properties :
#
#
# Convention : Reuss Voigt Hill
#
# Bulk Modulus (GPa) = 16.62631 35.61284 26.11957
# Shear Modulus (GPa) = 21.61007 12.12349 16.86678
#
# Velocity S-wave (km/s) = 3.18288 2.38400 2.81195
# Velocity P-wave (km/s) = 4.61540 4.92677 4.77363
#
# Compressibility (1/GPa) = 0.06014564
#
# Stress axis : x y z
#
# Youngs Moduli (GPa) = 96.91492 27.29139 53.24553
#
# Poissons Ratio (x) = 0.01673 0.35468
# Poissons Ratio (y) = 0.05940 -0.23836
# Poissons Ratio (z) = 0.64558 -0.12217
#
# Static dielectric constant tensor:
#      x y z
#    x 1.749030 0.000000 -0.025060 
#    y 0.000000 1.810260 0.000000 
#    z -0.025060 0.000000 1.750730 
# 
# From -- ./inp_files/186435.got.cif
#   From: 2010.05.17/outbox.cif.g08.bks.cpg/sg12_94_cif.got.tgz:186435.got - 2010.06.03 13:09:07.
