data_PCOD9189279
_publ_section_title
;
Structure prediction by ZEFSAII (Michael W. Deem and Ramdas Pophale) SiO2 
 PCOD9189279
Probable space group: C 2/M
;
_chemical_formula_sum "Si O2"
_cell_formula_units_Z 48
_cell_length_a 20.229631
_cell_length_b 8.816122
_cell_length_c 27.331106
_cell_angle_alpha 90.000000
_cell_angle_beta 33.572940
_cell_angle_gamma 90.000000
_cell_volume 2695.543882
_symmetry_space_group_name_H-M "C 2/M"
_symmetry_group_IT_number 12
_symmetry_cell_setting 'monoclinic'
loop_
_space_group_symop_operation_xyz
x,y,z
-x,y,-z
-x,-y,-z
x,-y,z
1/2+x,1/2+y,z
1/2-x,1/2+y,-z
1/2-x,1/2-y,-z
1/2+x,1/2-y,z
loop_
_atom_site_type_symbol
_atom_site_label
_atom_site_fract_x
_atom_site_fract_y
_atom_site_fract_z
Si Si1 0.250421 0.817935 0.765723
Si Si2 0.985441 0.821629 0.950545
Si Si3 0.904067 0.318104 0.766892
Si Si4 0.463308 0.682587 0.576652
Si Si5 0.751510 0.820391 0.945276
Si Si6 0.881565 0.817640 0.424429
O O1 0.112081 0.772830 0.849567
O O2 0.308455 0.779591 0.782780
O O3 0.336052 0.745962 0.672557
O O4 0.254633 0.000000 0.759130
O O5 0.963393 0.000000 0.952312
O O6 0.000000 0.812947 0.000000
O O7 0.874578 0.724128 0.001399
O O8 0.912554 0.500000 0.764502
O O9 0.854313 0.251409 0.847823
O O10 0.028694 0.248176 0.671822
O O11 0.500000 0.735121 0.500000
O O12 0.457124 0.500000 0.579906
O O13 0.558826 0.725176 0.559926
O O14 0.766612 0.000000 0.938206
O O15 0.750000 0.750000 0.000000
O O16 0.750000 0.750000 0.500000
O O17 0.878225 0.000000 0.423474
#
# Coordination Sequence:
#
# PCOD9189279 Si02
#       6
#     8   8   8   8   8   8
#     4   9  18  33  58  86 111 145 185 228 279 333
#     4  10  19  37  61  85 115 149 187 233 282 338
#     4  10  19  37  61  84 112 149 189 235 288 342
#     4   9  19  36  56  79 111 146 182 231 283 326
#     4  12  25  40  58  84 117 154 192 235 288 343
#     4  10  20  36  58  84 111 147 191 236 283 341
#
# _framework density 17.807167
#
# number of rings (size 3 to 8) (size 9 to 14) (size 15 to 20)
#    0.000    2.000    1.667    2.500    0.000    2.667 
#    3.000    0.000    0.000    0.000    0.000    0.000 
#    0.000    0.000    0.000    0.000    0.000    0.000 
#
# Total GULP energy -133996.550899 kJ/mol
# GULP energy per Si atom -5583.189621 kJ/mol
# Density = 1.776664 g / cm^3
# Si number density = 17.807167 Si / 1000 Ang^3
#
#
#
# Elastic Constant Matrix: (Units=GPa)
#
#
# Indices 1 2 3 4 5 6 
#
# 1 60.2954 35.3151 72.5938 0.0012 8.0334 -0.0048
# 2 35.3151 66.2278 57.9834 0.0025 3.4802 -0.0015
# 3 72.5938 57.9834 184.7594 0.0001 9.2439 0.0003
# 4 0.0012 0.0025 0.0001 36.4816 -0.0002 -1.5891
# 5 8.0334 3.4802 9.2439 -0.0002 36.6156 0.0013
# 6 -0.0048 -0.0015 0.0003 -1.5891 0.0013 23.9499
#
#
#
# Elastic Compliance Matrix: (Units=1/GPa)
#
#
# Indices 1 2 3 4 5 6 
#
# 1 0.035711 -0.009268 -0.010913 0.000000 -0.004199 0.000007
# 2 -0.009268 0.023229 -0.003687 -0.000001 0.000756 0.000000
# 3 -0.010913 -0.003687 0.010857 0.000000 0.000004 -0.000002
# 4 0.000000 -0.000001 0.000000 0.027491 0.000000 0.001824
# 5 -0.004199 0.000756 0.000004 0.000000 0.028159 -0.000002
# 6 0.000007 0.000000 -0.000002 0.001824 -0.000002 0.041875
#
#
# Mechanical properties :
#
#
# Convention : Reuss Voigt Hill
#
# Bulk Modulus (GPa) = 45.32383 71.45194 58.38788
# Shear Modulus (GPa) = 22.48104 29.10211 25.79157
#
# Velocity S-wave (km/s) = 3.55698 4.04702 3.80989
# Velocity P-wave (km/s) = 6.50979 7.87720 7.22591
#
# Compressibility (1/GPa) = 0.02206345
#
# Stress axis : x y z
#
# Youngs Moduli (GPa) = 28.00257 43.04942 92.10722
#
# Poissons Ratio (x) = 0.39896 1.00513
# Poissons Ratio (y) = 0.25952 0.33956
# Poissons Ratio (z) = 0.30558 0.15870
#
# Static dielectric constant tensor:
#      x y z
#    x 1.599160 0.000000 0.002310 
#    y 0.000000 1.596370 0.000000 
#    z 0.002310 0.000000 1.593990 
# 
# From -- ./inp_files/221505.got.cif
#   From: 2010.05.17/outbox.cif.g08.bks.cpg/sg12_111_cif.got.tgz:221505.got - 2010.06.03 13:09:07.
