data_PCOD9189187
_publ_section_title
;
Structure prediction by ZEFSAII (Michael W. Deem and Ramdas Pophale) SiO2 
 PCOD9189187
Probable space group: C 2/M
;
_chemical_formula_sum "Si O2"
_cell_formula_units_Z 56
_cell_length_a 13.861196
_cell_length_b 16.144969
_cell_length_c 12.333420
_cell_angle_alpha 90.000000
_cell_angle_beta 70.886773
_cell_angle_gamma 90.000000
_cell_volume 2607.924653
_symmetry_space_group_name_H-M "C 2/M"
_symmetry_group_IT_number 12
_symmetry_cell_setting 'monoclinic'
loop_
_space_group_symop_operation_xyz
x,y,z
-x,y,-z
-x,-y,-z
x,-y,z
1/2+x,1/2+y,z
1/2-x,1/2+y,-z
1/2-x,1/2-y,-z
1/2+x,1/2-y,z
loop_
_atom_site_type_symbol
_atom_site_label
_atom_site_fract_x
_atom_site_fract_y
_atom_site_fract_z
Si Si1 0.584896 0.681807 0.885028
Si Si2 0.610129 0.867407 0.955274
Si Si3 0.314888 0.175687 0.833108
Si Si4 0.281772 0.400434 0.526433
Si Si5 0.298473 0.638215 0.757571
Si Si6 0.970083 0.093962 0.312038
Si Si7 0.109453 0.400237 0.414679
O O1 0.590776 0.780890 0.897895
O O2 0.696704 0.648640 0.872481
O O3 0.555495 0.655342 0.776005
O O4 0.500000 0.650631 0.000000
O O5 0.707942 0.904998 0.858481
O O6 0.500000 0.910032 0.000000
O O7 0.640778 0.845357 0.066560
O O8 0.315816 0.273953 0.810379
O O9 0.371874 0.134177 0.711711
O O10 0.270928 0.500000 0.549989
O O11 0.263554 0.354011 0.645829
O O12 0.395979 0.385674 0.439569
O O13 0.200745 0.376360 0.463221
O O14 0.409439 0.596596 0.710745
O O15 0.941683 0.000000 0.289583
O O16 0.109410 0.500000 0.409821
O O17 0.000000 0.372342 0.500000
#
# Coordination Sequence:
#
# PCOD9189187 Si02
#       7
#     8   8   8   8   8   8   8
#     4  10  19  37  59  87 120 161 200 246 303 360
#     4  10  22  40  61  87 125 163 199 254 309 358
#     4  11  22  40  64  91 125 158 205 257 306 363
#     4  10  22  41  62  88 125 163 202 253 311 366
#     4  11  22  37  62  94 126 163 201 252 308 367
#     4  11  22  39  62  91 128 166 204 249 306 370
#     4  10  23  43  64  87 120 163 206 254 309 367
#
# _framework density 21.473012000000001
#
# number of rings (size 3 to 8) (size 9 to 14) (size 15 to 20)
#    0.000    1.571    1.429    5.143    2.000    3.143 
#    0.000    2.857    0.000    2.143    0.000    0.000 
#    0.000    0.000    0.000    0.000    0.000    0.000 
#
# Total GULP energy -156494.235218 kJ/mol
# GULP energy per Si atom -5589.079829 kJ/mol
# Density = 2.142414 g / cm^3
# Si number density = 21.473012 Si / 1000 Ang^3
#
#
#
# Elastic Constant Matrix: (Units=GPa)
#
#
# Indices 1 2 3 4 5 6 
#
# 1 104.8776 28.2004 74.9899 0.0000 -27.1778 0.0000
# 2 28.2004 31.9172 43.8915 0.0000 4.7668 0.0000
# 3 74.9899 43.8915 164.5377 0.0000 -16.7291 0.0000
# 4 0.0000 0.0000 0.0000 1690.4532 0.0000 1427.3176
# 5 -27.1778 4.7668 -16.7291 0.0000 51.9850 0.0000
# 6 0.0000 0.0000 0.0000 1427.3176 0.0000 1238.2493
#
#
#
# Elastic Compliance Matrix: (Units=1/GPa)
#
#
# Indices 1 2 3 4 5 6 
#
# 1 0.017987 -0.011449 -0.004219 0.000000 0.009096 0.000000
# 2 -0.011449 0.061299 -0.012730 0.000000 -0.015703 0.000000
# 3 -0.004219 -0.012730 0.011673 0.000000 0.002718 0.000000
# 4 0.000000 0.000000 0.000000 0.022125 0.000000 -0.025503
# 5 0.009096 -0.015703 0.002718 0.000000 0.026306 0.000000
# 6 0.000000 0.000000 0.000000 -0.025503 0.000000 0.030204
#
#
# Mechanical properties :
#
#
# Convention : Reuss Voigt Hill
#
# Bulk Modulus (GPa) = 29.27266 66.16624 47.71945
# Shear Modulus (GPa) = 21.02801 606.42089 313.72445
#
# Velocity S-wave (km/s) = 3.13273 16.82331 12.10037
# Velocity P-wave (km/s) = 5.17178 20.20509 14.74776
#
# Compressibility (1/GPa) = 0.03416157
#
# Stress axis : x y z
#
# Youngs Moduli (GPa) = 55.59504 16.31357 85.67023
#
# Poissons Ratio (x) = 0.18678 0.36143
# Poissons Ratio (y) = 0.63653 1.09060
# Poissons Ratio (z) = 0.23455 0.20768
#
# Static dielectric constant tensor:
#      x y z
#    x 1.801440 0.000000 -0.045480 
#    y 0.000000 1.785380 0.000000 
#    z -0.045480 0.000000 1.752890 
# 
# From -- ./inp_files/146029.got.cif
#   From: 2010.05.17/outbox.cif.g08.bks.cpg/sg12_74_cif.got.tgz:146029.got - 2010.06.03 13:09:07.
