data_PCOD9189224
_publ_section_title
;
Structure prediction by ZEFSAII (Michael W. Deem and Ramdas Pophale) SiO2 
 PCOD9189224
Probable space group: C 2/M
;
_chemical_formula_sum "Si O2"
_cell_formula_units_Z 50
_cell_length_a 18.742186
_cell_length_b 11.415983
_cell_length_c 14.740773
_cell_angle_alpha 90.000000
_cell_angle_beta 56.054827
_cell_angle_gamma 90.000000
_cell_volume 2616.423570
_symmetry_space_group_name_H-M "C 2/M"
_symmetry_group_IT_number 12
_symmetry_cell_setting 'monoclinic'
loop_
_space_group_symop_operation_xyz
x,y,z
-x,y,-z
-x,-y,-z
x,-y,z
1/2+x,1/2+y,z
1/2-x,1/2+y,-z
1/2-x,1/2-y,-z
1/2+x,1/2-y,z
loop_
_atom_site_type_symbol
_atom_site_label
_atom_site_fract_x
_atom_site_fract_y
_atom_site_fract_z
Si Si1 0.868793 0.714507 0.129471
Si Si2 0.309007 0.364695 0.475247
Si Si3 0.372498 0.268935 0.819006
Si Si4 0.182606 0.863406 0.324420
Si Si5 0.783117 0.873228 0.042004
Si Si6 0.000000 0.500000 0.000000
Si Si7 0.542461 0.635744 0.781196
O O1 0.781543 0.677797 0.244152
O O2 0.835640 0.778578 0.062439
O O3 0.926642 0.602989 0.067819
O O4 0.921396 0.806025 0.153609
O O5 0.270801 0.500000 0.500348
O O6 0.250000 0.250000 0.500000
O O7 0.344551 0.349324 0.552159
O O8 0.382485 0.363865 0.347218
O O9 0.371059 0.295351 0.713638
O O10 0.318357 0.151270 0.875182
O O11 0.464803 0.286325 0.797243
O O12 0.311724 0.359970 0.917723
O O13 0.177159 0.000000 0.305524
O O14 0.804737 0.000000 0.062591
O O15 0.515045 0.500000 0.813794
#
# Coordination Sequence:
#
# PCOD9189224 Si02
#       7
#     8   8   8   8   8   2   8
#     4  11  22  37  59  88 122 159 200 249 300 354
#     4  10  21  38  62  91 118 156 208 254 316 368
#     4  10  22  37  56  87 119 156 197 246 306 356
#     4  10  19  37  60  83 117 159 194 246 299 357
#     4  10  21  41  60  83 117 165 206 238 299 374
#     4  12  24  36  54 100 124 156 204 252 308 358
#     4  11  22  39  61  91 121 156 204 258 305 361
#
# _framework density 19.110056
#
# number of rings (size 3 to 8) (size 9 to 14) (size 15 to 20)
#    0.000    1.600    2.400    2.880    0.000    0.640 
#   11.520    4.800    0.000    0.000    0.000    3.360 
#    0.000    0.000    0.000    0.000    0.000    0.000 
#
# Total GULP energy -139182.282681 kJ/mol
# GULP energy per Si atom -5567.291307 kJ/mol
# Density = 1.906656 g / cm^3
# Si number density = 19.110056 Si / 1000 Ang^3
#
#
#
# Elastic Constant Matrix: (Units=GPa)
#
#
# Indices 1 2 3 4 5 6 
#
# 1 86.6593 21.6748 23.5459 0.0000 5.8878 0.0000
# 2 21.6748 87.6142 38.9500 0.0000 3.6589 0.0000
# 3 23.5459 38.9500 52.0925 0.0000 13.9328 0.0000
# 4 0.0000 0.0000 0.0000 15.3505 0.0000 -3.5288
# 5 5.8878 3.6589 13.9328 0.0000 27.1152 0.0000
# 6 0.0000 0.0000 0.0000 -3.5288 0.0000 18.4598
#
#
#
# Elastic Compliance Matrix: (Units=1/GPa)
#
#
# Indices 1 2 3 4 5 6 
#
# 1 0.013204 -0.000923 -0.005269 0.000000 -0.000035 0.000000
# 2 -0.000923 0.017752 -0.014224 0.000000 0.005114 0.000000
# 3 -0.005269 -0.014224 0.036396 0.000000 -0.015638 0.000000
# 4 0.000000 0.000000 0.000000 0.068139 0.000000 0.013026
# 5 -0.000035 0.005114 -0.015638 0.000000 0.044233 0.000000
# 6 0.000000 0.000000 0.000000 0.013026 0.000000 0.056662
#
#
# Mechanical properties :
#
#
# Convention : Reuss Voigt Hill
#
# Bulk Modulus (GPa) = 37.70584 43.85639 40.78111
# Shear Modulus (GPa) = 17.47906 21.66480 19.57193
#
# Velocity S-wave (km/s) = 3.02760 3.37068 3.20374
# Velocity P-wave (km/s) = 5.65646 6.17639 5.92214
#
# Compressibility (1/GPa) = 0.02652109
#
# Stress axis : x y z
#
# Youngs Moduli (GPa) = 75.73322 56.33252 27.47552
#
# Poissons Ratio (x) = 0.05198 0.14477
# Poissons Ratio (y) = 0.06988 0.39081
# Poissons Ratio (z) = 0.39904 0.80126
#
# Static dielectric constant tensor:
#      x y z
#    x 1.663980 0.000000 -0.003860 
#    y 0.000000 1.664280 0.000000 
#    z -0.003860 0.000000 1.675280 
# 
# From -- ./inp_files/223051.got.cif
#   From: 2010.05.17/outbox.cif.g08.bks.cpg/sg12_112_cif.got.tgz:223051.got - 2010.06.03 13:09:07.
