data_PCOD9189663
_publ_section_title
;
Structure prediction by ZEFSAII (Michael W. Deem and Ramdas Pophale) SiO2 
 PCOD9189663
Probable space group: C 2/M
;
_chemical_formula_sum "Si O2"
_cell_formula_units_Z 58
_cell_length_a 8.591287
_cell_length_b 19.118969
_cell_length_c 19.670351
_cell_angle_alpha 90.000000
_cell_angle_beta 127.095014
_cell_angle_gamma 90.000000
_cell_volume 2577.150496
_symmetry_space_group_name_H-M "C 2/M"
_symmetry_group_IT_number 12
_symmetry_cell_setting 'monoclinic'
loop_
_space_group_symop_operation_xyz
x,y,z
-x,y,-z
-x,-y,-z
x,-y,z
1/2+x,1/2+y,z
1/2-x,1/2+y,-z
1/2-x,1/2-y,-z
1/2+x,1/2-y,z
loop_
_atom_site_type_symbol
_atom_site_label
_atom_site_fract_x
_atom_site_fract_y
_atom_site_fract_z
Si Si1 0.764010 0.580937 0.388379
Si Si2 0.406777 0.184597 0.698006
Si Si3 0.938005 0.076709 0.185953
Si Si4 0.355135 0.295266 0.798412
Si Si5 0.053636 0.419877 0.175085
Si Si6 0.200601 0.620935 0.460019
Si Si7 0.500000 0.500000 0.500000
Si Si8 0.076487 0.693864 0.947435
O O1 0.764315 0.500000 0.413964
O O2 0.598202 0.583802 0.288214
O O3 0.724839 0.630141 0.443018
O O4 0.975503 0.597396 0.412955
O O5 0.371284 0.254903 0.730952
O O6 0.637896 0.178053 0.748271
O O7 0.362476 0.118961 0.736003
O O8 0.303705 0.180836 0.598072
O O9 0.729245 0.079038 0.166724
O O10 0.989161 0.142565 0.153500
O O11 0.962240 0.000000 0.160196
O O12 0.400711 0.237536 0.866727
O O13 0.995606 0.500000 0.173697
O O14 0.891853 0.370201 0.096754
O O15 0.331535 0.560585 0.462964
O O16 0.250000 0.750000 0.000000
O O17 0.000000 0.669011 0.000000
#
# Coordination Sequence:
#
# PCOD9189663 Si02
#       8
#     8   8   8   8   8   8   2   8
#     4  10  19  38  59  88 129 171 216 264 329 379
#     4  11  24  40  66  89 130 177 216 275 318 380
#     4  10  21  38  68  95 130 171 211 275 325 380
#     4  11  22  44  64  94 129 168 224 258 319 400
#     4  10  23  39  63 102 131 160 217 272 321 379
#     4  11  22  36  58  93 123 177 217 269 321 374
#     4  12  24  34  64  92 136 162 226 278 322 386
#     4  11  22  41  68  93 127 175 208 252 324 398
#
# _framework density 22.505476999999999
#
# number of rings (size 3 to 8) (size 9 to 14) (size 15 to 20)
#    0.000    1.379    2.759    4.552    2.897    0.828 
#    0.000    1.379    0.000    1.655    0.000    0.000 
#    0.000    0.000    0.000    0.000    0.000    0.000 
#
# Total GULP energy -161755.983465 kJ/mol
# GULP energy per Si atom -5577.792533 kJ/mol
# Density = 2.245425 g / cm^3
# Si number density = 22.505477 Si / 1000 Ang^3
#
#
#
# Elastic Constant Matrix: (Units=GPa)
#
#
# Indices 1 2 3 4 5 6 
#
# 1 46.5478 11.3547 -2.5607 0.0000 -5.5619 0.0000
# 2 11.3547 112.4155 5.3884 0.0000 -17.5943 0.0000
# 3 -2.5607 5.3884 50.0215 0.0000 -14.7956 0.0000
# 4 0.0000 0.0000 0.0000 19.7891 0.0000 2.0572
# 5 -5.5619 -17.5943 -14.7956 0.0000 29.7523 0.0000
# 6 0.0000 0.0000 0.0000 2.0572 0.0000 11.0734
#
#
#
# Elastic Compliance Matrix: (Units=1/GPa)
#
#
# Indices 1 2 3 4 5 6 
#
# 1 0.022589 -0.001698 0.002687 0.000000 0.004555 0.000000
# 2 -0.001698 0.009956 0.000572 0.000000 0.005855 0.000000
# 3 0.002687 0.000572 0.023820 0.000000 0.012686 0.000000
# 4 0.000000 0.000000 0.000000 0.051528 0.000000 -0.009573
# 5 0.004555 0.005855 0.012686 0.000000 0.044233 0.000000
# 6 0.000000 0.000000 0.000000 -0.009573 0.000000 0.092085
#
#
# Mechanical properties :
#
#
# Convention : Reuss Voigt Hill
#
# Bulk Modulus (GPa) = 16.81015 26.37216 21.59115
# Shear Modulus (GPa) = 19.16312 25.10980 22.13646
#
# Velocity S-wave (km/s) = 2.92119 3.34386 3.13965
# Velocity P-wave (km/s) = 4.34320 5.16257 4.77051
#
# Compressibility (1/GPa) = 0.05948788
#
# Stress axis : x y z
#
# Youngs Moduli (GPa) = 44.26841 100.44252 41.98229
#
# Poissons Ratio (x) = 0.17051 -0.11279
# Poissons Ratio (y) = 0.07515 -0.02403
# Poissons Ratio (z) = -0.11893 -0.05749
#
# Static dielectric constant tensor:
#      x y z
#    x 1.816180 0.000000 -0.024340 
#    y 0.000000 1.864860 0.000000 
#    z -0.024340 0.000000 1.867300 
# 
# From -- ./inp_files/301151.got.cif
#   From: 2010.05.17/outbox.cif.g08.bks.cpg/sg12_151_cif.got.tgz:301151.got - 2010.06.03 13:09:07.
