data_PCOD9189805
_publ_section_title
;
Structure prediction by ZEFSAII (Michael W. Deem and Ramdas Pophale) SiO2 
 PCOD9189805
Probable space group: C 2/M
;
_chemical_formula_sum "Si O2"
_cell_formula_units_Z 52
_cell_length_a 17.344572
_cell_length_b 7.407226
_cell_length_c 16.561562
_cell_angle_alpha 90.000000
_cell_angle_beta 75.230680
_cell_angle_gamma 90.000000
_cell_volume 2057.448635
_symmetry_space_group_name_H-M "C 2/M"
_symmetry_group_IT_number 12
_symmetry_cell_setting 'monoclinic'
loop_
_space_group_symop_operation_xyz
x,y,z
-x,y,-z
-x,-y,-z
x,-y,z
1/2+x,1/2+y,z
1/2-x,1/2+y,-z
1/2-x,1/2-y,-z
1/2+x,1/2-y,z
loop_
_atom_site_type_symbol
_atom_site_label
_atom_site_fract_x
_atom_site_fract_y
_atom_site_fract_z
Si Si1 0.878549 0.802376 0.227062
Si Si2 0.298017 0.000000 0.136188
Si Si3 0.051727 0.282696 0.621222
Si Si4 0.973561 0.281257 0.917842
Si Si5 0.129975 0.280398 0.303175
Si Si6 0.806032 0.715157 0.889373
Si Si7 0.675559 0.784511 0.461926
O O1 0.831043 0.655883 0.189762
O O2 0.893109 0.764005 0.317116
O O3 0.966401 0.797698 0.163565
O O4 0.841336 0.000000 0.227962
O O5 0.269404 0.841486 0.079092
O O6 0.047321 0.500000 0.617738
O O7 0.096270 0.217771 0.528975
O O8 0.961490 0.220600 0.659703
O O9 0.982067 0.500000 0.910863
O O10 0.883169 0.238978 0.921712
O O11 0.000000 0.226667 0.000000
O O12 0.128986 0.500000 0.299264
O O13 0.165564 0.220181 0.208845
O O14 0.179171 0.219887 0.368806
O O15 0.793036 0.500000 0.892027
O O16 0.750000 0.750000 0.500000
O O17 0.668030 0.000000 0.457734
#
# Coordination Sequence:
#
# PCOD9189805 Si02
#       7
#     8   4   8   8   8   8   8
#     4  12  25  42  70 102 134 179 228 279 339 404
#     4  12  26  44  66 100 144 180 220 284 344 400
#     4  10  19  38  63  89 126 169 220 278 336 391
#     4  10  21  44  77 107 137 176 227 280 333 407
#     4   9  18  36  62  90 124 163 224 279 329 393
#     4  10  22  41  70 101 133 178 226 279 340 405
#     4  10  22  35  55  86 123 172 219 269 333 394
#
# _framework density 25.274021999999999
#
# number of rings (size 3 to 8) (size 9 to 14) (size 15 to 20)
#    0.000    1.692    3.077    0.923    3.231    2.769 
#    0.000    0.769    0.000    1.846    0.000    0.000 
#    0.000    0.000    0.000    0.000    0.000    0.000 
#
# Total GULP energy -145166.512080 kJ/mol
# GULP energy per Si atom -5583.327388 kJ/mol
# Density = 2.521650 g / cm^3
# Si number density = 25.274022 Si / 1000 Ang^3
#
#
#
# Elastic Constant Matrix: (Units=GPa)
#
#
# Indices 1 2 3 4 5 6 
#
# 1 107.8068 16.5196 47.7746 0.0000 21.0037 0.0000
# 2 16.5196 118.7415 1.9843 0.0000 14.2048 0.0000
# 3 47.7746 1.9843 128.5136 0.0000 8.9920 0.0000
# 4 0.0000 0.0000 0.0000 -2.4563 0.0000 33.4110
# 5 21.0037 14.2048 8.9920 0.0000 53.1462 0.0000
# 6 0.0000 0.0000 0.0000 33.4110 0.0000 -6.4221
#
#
#
# Elastic Compliance Matrix: (Units=1/GPa)
#
#
# Indices 1 2 3 4 5 6 
#
# 1 0.012042 -0.001158 -0.004197 0.000000 -0.003739 0.000000
# 2 -0.001158 0.008811 0.000432 0.000000 -0.001971 0.000000
# 3 -0.004197 0.000432 0.009337 0.000000 -0.000037 0.000000
# 4 0.000000 0.000000 0.000000 0.005836 0.000000 0.030359
# 5 -0.003739 -0.001971 -0.000037 0.000000 0.020827 0.000000
# 6 0.000000 0.000000 0.000000 0.030359 0.000000 0.002232
#
#
# Mechanical properties :
#
#
# Convention : Reuss Voigt Hill
#
# Bulk Modulus (GPa) = 49.15140 54.17987 51.66564
# Shear Modulus (GPa) = 66.04034 28.10579 47.07307
#
# Velocity S-wave (km/s) = 5.11727 3.33835 4.32036
# Velocity P-wave (km/s) = 7.37597 6.02851 6.73602
#
# Compressibility (1/GPa) = 0.02034530
#
# Stress axis : x y z
#
# Youngs Moduli (GPa) = 83.04493 113.49136 107.09650
#
# Poissons Ratio (x) = 0.13140 0.44948
# Poissons Ratio (y) = 0.09615 -0.04629
# Poissons Ratio (z) = 0.34853 -0.04906
#
# Static dielectric constant tensor:
#      x y z
#    x 2.034420 0.000000 -0.053910 
#    y 0.000000 1.955340 0.000000 
#    z -0.053910 0.000000 2.048840 
# 
# From -- ./inp_files/274357.got.cif
#   From: 2010.05.17/outbox.cif.g08.bks.cpg/sg12_138_cif.got.tgz:274357.got - 2010.06.03 13:09:07.
