data_PCOD9189799
_publ_section_title
;
Structure prediction by ZEFSAII (Michael W. Deem and Ramdas Pophale) SiO2 
 PCOD9189799
Probable space group: C 2/M
;
_chemical_formula_sum "Si O2"
_cell_formula_units_Z 56
_cell_length_a 18.201214
_cell_length_b 23.062236
_cell_length_c 7.848392
_cell_angle_alpha 90.000000
_cell_angle_beta 134.962700
_cell_angle_gamma 90.000000
_cell_volume 2331.041480
_symmetry_space_group_name_H-M "C 2/M"
_symmetry_group_IT_number 12
_symmetry_cell_setting 'monoclinic'
loop_
_space_group_symop_operation_xyz
x,y,z
-x,y,-z
-x,-y,-z
x,-y,z
1/2+x,1/2+y,z
1/2-x,1/2+y,-z
1/2-x,1/2-y,-z
1/2+x,1/2-y,z
loop_
_atom_site_type_symbol
_atom_site_label
_atom_site_fract_x
_atom_site_fract_y
_atom_site_fract_z
Si Si1 0.935948 0.754659 0.066229
Si Si2 0.753633 0.604012 0.394327
Si Si3 0.883364 0.121898 0.132857
Si Si4 0.392762 0.935788 0.898676
Si Si5 0.069230 0.065579 0.284607
Si Si6 0.285394 0.165910 0.923813
Si Si7 0.588940 0.179383 0.540702
O O1 0.907157 0.819138 0.070590
O O2 0.830111 0.716454 0.876596
O O3 0.016200 0.728068 0.337747
O O4 0.000000 0.753540 0.000000
O O5 0.820877 0.560054 0.614301
O O6 0.658185 0.611025 0.371811
O O7 0.839071 0.652033 0.486578
O O8 0.701467 0.588853 0.126761
O O9 0.988966 0.085926 0.296361
O O10 0.829547 0.143811 0.218205
O O11 0.409239 0.000000 0.998061
O O12 0.500000 0.911927 0.000000
O O13 0.343802 0.891206 0.951154
O O14 0.108957 0.000000 0.386337
O O15 0.000000 0.061482 0.000000
O O16 0.328084 0.190981 0.174433
O O17 0.500000 0.142678 0.500000
#
# Coordination Sequence:
#
# PCOD9189799 Si02
#       7
#     8   8   8   8   8   8   8
#     4  11  20  37  63  92 126 161 206 262 320 383
#     4  10  19  38  63  88 120 164 209 253 313 378
#     4  10  22  39  62  94 125 162 216 262 313 383
#     4  11  23  40  64  94 126 164 214 267 319 380
#     4   9  18  35  59  86 119 158 205 261 312 366
#     4  10  21  40  60  85 127 170 206 256 320 375
#     4   9  19  35  60  88 122 163 205 256 320 379
#
# _framework density 24.023596000000001
#
# number of rings (size 3 to 8) (size 9 to 14) (size 15 to 20)
#    0.000    2.000    0.000    5.143    0.000    1.143 
#    0.000   26.429    0.000   14.143    0.000    0.000 
#    0.000    0.000    0.000    0.000    0.000    0.000 
#
# Total GULP energy -155981.461175 kJ/mol
# GULP energy per Si atom -5570.766471 kJ/mol
# Density = 2.396892 g / cm^3
# Si number density = 24.023596 Si / 1000 Ang^3
#
#
#
# Elastic Constant Matrix: (Units=GPa)
#
#
# Indices 1 2 3 4 5 6 
#
# 1 206.4448 62.8797 20.5218 0.0000 12.1035 0.0000
# 2 62.8797 74.1989 6.9074 0.0000 -0.8921 0.0000
# 3 20.5218 6.9074 73.5566 0.0000 4.5417 0.0000
# 4 0.0000 0.0000 0.0000 7.1476 0.0000 0.3686
# 5 12.1035 -0.8921 4.5417 0.0000 41.0653 0.0000
# 6 0.0000 0.0000 0.0000 0.3686 0.0000 12.0172
#
#
#
# Elastic Compliance Matrix: (Units=1/GPa)
#
#
# Indices 1 2 3 4 5 6 
#
# 1 0.006816 -0.005684 -0.001245 0.000000 -0.001995 0.000000
# 2 -0.005684 0.018344 -0.000267 0.000000 0.002103 0.000000
# 3 -0.001245 -0.000267 0.014041 0.000000 -0.001192 0.000000
# 4 0.000000 0.000000 0.000000 0.140129 0.000000 -0.004298
# 5 -0.001995 0.002103 -0.001192 0.000000 0.025117 0.000000
# 6 0.000000 0.000000 0.000000 -0.004298 0.000000 0.083346
#
#
# Mechanical properties :
#
#
# Convention : Reuss Voigt Hill
#
# Bulk Modulus (GPa) = 40.30608 59.42423 49.86516
# Shear Modulus (GPa) = 16.10544 29.63878 22.87211
#
# Velocity S-wave (km/s) = 2.59202 3.51627 3.08891
# Velocity P-wave (km/s) = 5.07663 6.42456 5.78996
#
# Compressibility (1/GPa) = 0.02481015
#
# Stress axis : x y z
#
# Youngs Moduli (GPa) = 146.71561 54.51230 71.22071
#
# Poissons Ratio (x) = 0.30986 0.08864
# Poissons Ratio (y) = 0.83397 0.01899
# Poissons Ratio (z) = 0.18261 0.01454
#
# Static dielectric constant tensor:
#      x y z
#    x 1.954490 0.000000 0.020700 
#    y 0.000000 1.902850 0.000000 
#    z 0.020700 0.000000 1.998210 
# 
# From -- ./inp_files/79177.got.cif
#   From: 2010.05.17/outbox.cif.g08.bks.cpg/sg12_40_cif.got.tgz:79177.got - 2010.06.03 13:09:07.
