data_PCOD9189697
_publ_section_title
;
Structure prediction by ZEFSAII (Michael W. Deem and Ramdas Pophale) SiO2 
 PCOD9189697
Probable space group: C 2/M
;
_chemical_formula_sum "Si O2"
_cell_formula_units_Z 48
_cell_length_a 11.921662
_cell_length_b 15.750500
_cell_length_c 26.678018
_cell_angle_alpha 90.000000
_cell_angle_beta 26.521536
_cell_angle_gamma 90.000000
_cell_volume 2236.863089
_symmetry_space_group_name_H-M "C 2/M"
_symmetry_group_IT_number 12
_symmetry_cell_setting 'monoclinic'
loop_
_space_group_symop_operation_xyz
x,y,z
-x,y,-z
-x,-y,-z
x,-y,z
1/2+x,1/2+y,z
1/2-x,1/2+y,-z
1/2-x,1/2-y,-z
1/2+x,1/2-y,z
loop_
_atom_site_type_symbol
_atom_site_label
_atom_site_fract_x
_atom_site_fract_y
_atom_site_fract_z
Si Si1 0.296653 0.093673 0.872863
Si Si2 0.532377 0.751475 0.128161
Si Si3 0.978605 0.835705 0.701500
Si Si4 0.867575 0.156038 0.466545
Si Si5 0.798303 0.096610 0.876431
Si Si6 0.148162 0.341347 0.656219
O O1 0.399951 0.170309 0.863573
O O2 0.394566 0.117412 0.778746
O O3 0.392224 0.000000 0.848581
O O4 0.000000 0.093372 0.000000
O O5 0.261760 0.777251 0.216377
O O6 0.549747 0.664269 0.151603
O O7 0.750000 0.750000 0.000000
O O8 0.890792 0.894153 0.782191
O O9 0.085499 0.878871 0.608395
O O10 0.160223 0.761407 0.648434
O O11 0.750000 0.250000 0.500000
O O12 0.691182 0.124893 0.582589
O O13 0.132986 0.143725 0.389971
O O14 0.827438 0.000000 0.882209
O O15 0.500000 0.118356 0.000000
#
# Coordination Sequence:
#
# PCOD9189697 Si02
#       6
#     8   8   8   8   8   8
#     4  11  23  39  60  88 126 167 208 262 317 374
#     4  12  22  37  62  87 124 169 210 257 320 389
#     4  11  19  36  62  88 122 166 213 255 315 385
#     4   9  19  34  62  93 120 164 210 260 319 381
#     4  11  23  38  57  89 128 165 212 267 316 378
#     4  10  19  38  60  91 128 158 211 269 312 377
#
# _framework density 21.458621000000001
#
# number of rings (size 3 to 8) (size 9 to 14) (size 15 to 20)
#    0.000    1.333    5.000    1.500    0.000    1.333 
#    0.000    3.333    0.000    0.000    0.000   40.833 
#    0.000    0.000    0.000    0.000    0.000    0.000 
#
# Total GULP energy -133758.185776 kJ/mol
# GULP energy per Si atom -5573.257741 kJ/mol
# Density = 2.140978 g / cm^3
# Si number density = 21.458621 Si / 1000 Ang^3
#
#
#
# Elastic Constant Matrix: (Units=GPa)
#
#
# Indices 1 2 3 4 5 6 
#
# 1 51.7071 18.1571 27.0916 0.1062 26.1976 0.0982
# 2 18.1571 79.4996 3.9890 0.0603 1.2329 0.1148
# 3 27.0916 3.9890 134.4853 0.2937 51.3308 0.5608
# 4 0.1062 0.0603 0.2937 57.3971 -0.0955 129.7172
# 5 26.1976 1.2329 51.3308 -0.0955 46.3263 -0.1099
# 6 0.0982 0.1148 0.5608 129.7172 -0.1099 242.6275
#
#
#
# Elastic Compliance Matrix: (Units=1/GPa)
#
#
# Indices 1 2 3 4 5 6 
#
# 1 0.030326 -0.006695 0.000983 0.000192 -0.018060 -0.000122
# 2 -0.006695 0.014076 -0.000643 -0.000044 0.004124 0.000023
# 3 0.000983 -0.000643 0.012932 0.000043 -0.014867 -0.000060
# 4 0.000192 -0.000044 0.000043 -0.083650 -0.000222 0.044722
# 5 -0.018060 0.004124 -0.014867 -0.000222 0.048163 0.000180
# 6 -0.000122 0.000023 -0.000060 0.044722 0.000180 -0.019788
#
#
# Mechanical properties :
#
#
# Convention : Reuss Voigt Hill
#
# Bulk Modulus (GPa) = 22.40988 40.46305 31.43646
# Shear Modulus (GPa) = 168.67364 83.70045 126.18704
#
# Velocity S-wave (km/s) = 8.87552 6.25221 7.67675
# Velocity P-wave (km/s) = 10.74705 8.42719 9.65703
#
# Compressibility (1/GPa) = 0.04462318
#
# Stress axis : x y z
#
# Youngs Moduli (GPa) = 32.97506 71.04214 77.32997
#
# Poissons Ratio (x) = 0.47566 -0.07601
# Poissons Ratio (y) = 0.22078 0.04970
# Poissons Ratio (z) = -0.03241 0.04566
#
# Static dielectric constant tensor:
#      x y z
#    x 1.798830 0.000450 -0.042680 
#    y 0.000450 1.589510 0.000470 
#    z -0.042680 0.000470 2.020010 
# 
# From -- ./inp_files/358347.got.cif
#   From: 2010.05.17/outbox.cif.g08.bks.cpg/sg12_180_cif.got.tgz:358347.got - 2010.06.03 13:09:07.
