data_PCOD9189504
_publ_section_title
;
Structure prediction by ZEFSAII (Michael W. Deem and Ramdas Pophale) SiO2 
 PCOD9189504
Probable space group: C 2/M
;
_chemical_formula_sum "Si O2"
_cell_formula_units_Z 64
_cell_length_a 8.717519
_cell_length_b 20.718367
_cell_length_c 17.189821
_cell_angle_alpha 90.000000
_cell_angle_beta 82.684362
_cell_angle_gamma 90.000000
_cell_volume 3079.427861
_symmetry_space_group_name_H-M "C 2/M"
_symmetry_group_IT_number 12
_symmetry_cell_setting 'monoclinic'
loop_
_space_group_symop_operation_xyz
x,y,z
-x,y,-z
-x,-y,-z
x,-y,z
1/2+x,1/2+y,z
1/2-x,1/2+y,-z
1/2-x,1/2-y,-z
1/2+x,1/2-y,z
loop_
_atom_site_type_symbol
_atom_site_label
_atom_site_fract_x
_atom_site_fract_y
_atom_site_fract_z
Si Si1 0.309194 0.425282 0.428520
Si Si2 0.817071 0.076924 0.600665
Si Si3 0.507037 0.632053 0.840936
Si Si4 0.794950 0.424347 0.733694
Si Si5 0.807055 0.193274 0.721081
Si Si6 0.460018 0.194826 0.771781
Si Si7 0.254596 0.304597 0.066125
Si Si8 0.175981 0.929031 0.023168
O O1 0.263349 0.500000 0.432258
O O2 0.495515 0.423466 0.412314
O O3 0.262353 0.402479 0.517479
O O4 0.245420 0.400390 0.351016
O O5 0.779529 0.136240 0.660550
O O6 0.773258 0.000000 0.619020
O O7 0.647548 0.588906 0.799301
O O8 0.432499 0.666620 0.773114
O O9 0.582584 0.680661 0.899615
O O10 0.366925 0.591967 0.887276
O O11 0.828027 0.500000 0.730926
O O12 0.931117 0.380324 0.756624
O O13 0.639989 0.207453 0.767586
O O14 0.883961 0.264045 0.705406
O O15 0.366271 0.208401 0.857286
O O16 0.250000 0.250000 0.000000
O O17 0.228586 0.373287 0.025023
O O18 0.243707 0.000000 0.011580
O O19 0.000000 0.931250 0.000000
#
# Coordination Sequence:
#
# PCOD9189504 Si02
#       8
#     8   8   8   8   8   8   8   8
#     4   8  15  32  62  97 124 157 204 249 296 355
#     4   9  18  34  63  96 125 160 203 252 298 355
#     4  10  20  35  63  92 117 155 201 248 306 366
#     4  10  19  37  64  93 124 161 206 252 305 367
#     4  12  24  42  59  86 125 160 204 256 306 365
#     4  11  26  41  61  86 120 161 204 259 312 367
#     4  10  21  40  62  87 116 154 202 251 308 369
#     4   9  18  33  56  86 115 143 185 239 292 354
#
# _framework density 20.783080999999999
#
# number of rings (size 3 to 8) (size 9 to 14) (size 15 to 20)
#    0.000    2.125    1.250    3.375    0.000    6.000 
#    0.000    5.000    0.000    3.000    0.000    0.000 
#    0.000    0.000    0.000    0.000    0.000    0.000 
#
# Total GULP energy -178227.901565 kJ/mol
# GULP energy per Si atom -5569.621924 kJ/mol
# Density = 2.073578 g / cm^3
# Si number density = 20.783081 Si / 1000 Ang^3
#
#
#
# Elastic Constant Matrix: (Units=GPa)
#
#
# Indices 1 2 3 4 5 6 
#
# 1 44.5412 20.5738 1.5294 0.0000 -2.8411 0.0000
# 2 20.5738 131.8882 48.4565 0.0000 -5.1326 0.0000
# 3 1.5294 48.4565 97.6484 0.0000 1.7586 0.0000
# 4 0.0000 0.0000 0.0000 31.8992 0.0000 0.3084
# 5 -2.8411 -5.1326 1.7586 0.0000 17.0943 0.0000
# 6 0.0000 0.0000 0.0000 0.3084 0.0000 14.0219
#
#
#
# Elastic Compliance Matrix: (Units=1/GPa)
#
#
# Indices 1 2 3 4 5 6 
#
# 1 0.024576 -0.004371 0.001738 0.000000 0.002593 0.000000
# 2 -0.004371 0.010236 -0.005062 0.000000 0.002868 0.000000
# 3 0.001738 -0.005062 0.012772 0.000000 -0.002545 0.000000
# 4 0.000000 0.000000 0.000000 0.031355 0.000000 -0.000690
# 5 0.002593 0.002868 -0.002545 0.000000 0.060053 0.000000
# 6 0.000000 0.000000 0.000000 -0.000690 0.000000 0.071332
#
#
# Mechanical properties :
#
#
# Convention : Reuss Voigt Hill
#
# Bulk Modulus (GPa) = 31.06463 46.13303 38.59883
# Shear Modulus (GPa) = 21.14646 26.17096 23.65871
#
# Velocity S-wave (km/s) = 3.19326 3.55243 3.37763
# Velocity P-wave (km/s) = 5.34560 6.25076 5.81581
#
# Compressibility (1/GPa) = 0.03219095
#
# Stress axis : x y z
#
# Youngs Moduli (GPa) = 40.69023 97.69798 78.29866
#
# Poissons Ratio (x) = 0.42705 -0.13604
# Poissons Ratio (y) = 0.17786 0.39638
# Poissons Ratio (z) = -0.07070 0.49459
#
# Static dielectric constant tensor:
#      x y z
#    x 1.716690 0.000000 0.017880 
#    y 0.000000 1.802080 0.000000 
#    z 0.017880 0.000000 1.868080 
# 
# From -- ./inp_files/258125.got.cif
#   From: 2010.05.17/outbox.cif.g08.bks.cpg/sg12_130_cif.got.tgz:258125.got - 2010.06.03 13:09:07.
