data_PCOD9189645
_publ_section_title
;
Structure prediction by ZEFSAII (Michael W. Deem and Ramdas Pophale) SiO2 
 PCOD9189645
Probable space group: C 2/M
;
_chemical_formula_sum "Si O2"
_cell_formula_units_Z 52
_cell_length_a 26.931489
_cell_length_b 24.193893
_cell_length_c 9.800498
_cell_angle_alpha 90.000000
_cell_angle_beta 25.161321
_cell_angle_gamma 90.000000
_cell_volume 2715.033617
_symmetry_space_group_name_H-M "C 2/M"
_symmetry_group_IT_number 12
_symmetry_cell_setting 'monoclinic'
loop_
_space_group_symop_operation_xyz
x,y,z
-x,y,-z
-x,-y,-z
x,-y,z
1/2+x,1/2+y,z
1/2-x,1/2+y,-z
1/2-x,1/2-y,-z
1/2+x,1/2-y,z
loop_
_atom_site_type_symbol
_atom_site_label
_atom_site_fract_x
_atom_site_fract_y
_atom_site_fract_z
Si Si1 0.609522 0.500000 0.625528
Si Si2 0.376331 0.500000 0.738594
Si Si3 0.999921 0.436784 0.700739
Si Si4 0.133140 0.802161 0.702116
Si Si5 0.000000 0.601336 0.000000
Si Si6 0.752136 0.614620 0.930456
Si Si7 0.219687 0.682615 0.403826
Si Si8 0.746111 0.891877 0.766580
O O1 0.598874 0.500000 0.486287
O O2 0.681717 0.444127 0.469108
O O3 0.500000 0.500000 0.000000
O O4 0.500000 0.500000 0.500000
O O5 0.307714 0.555435 0.953308
O O6 0.021105 0.500000 0.605888
O O7 0.984059 0.433917 0.903249
O O8 0.110902 0.398563 0.400085
O O9 0.886722 0.412099 0.909918
O O10 0.154700 0.741219 0.586837
O O11 0.169833 0.810129 0.768935
O O12 0.227056 0.840846 0.395212
O O13 0.000000 0.818647 0.000000
O O14 0.881797 0.638225 0.305494
O O15 0.737025 0.661349 0.852633
O O16 0.714596 0.625680 0.179216
#
# Coordination Sequence:
#
# PCOD9189645 Si02
#       8
#     4   4   8   8   4   8   8   8
#     4  10  22  39  55  82 118 159 202 252 291 373
#     4  10  22  41  59  84 124 161 202 244 316 374
#     4  11  20  36  61  92 126 157 203 254 318 374
#     4  11  23  41  64  88 120 168 208 258 311 372
#     4  10  19  38  58  92 122 155 198 266 302 374
#     4  10  23  38  60  91 120 162 197 258 314 375
#     4  10  22  40  63  87 122 154 211 255 315 359
#     4  11  22  37  60  89 123 157 206 249 316 370
#
# _framework density 19.152616999999999
#
# number of rings (size 3 to 8) (size 9 to 14) (size 15 to 20)
#    0.000    1.538    3.846    1.154    0.000    4.923 
#    0.000    0.000    0.000    1.846    0.000    0.000 
#    0.000    0.000    0.000    0.000    0.000    0.000 
#
# Total GULP energy -144922.483601 kJ/mol
# GULP energy per Si atom -5573.941677 kJ/mol
# Density = 1.910902 g / cm^3
# Si number density = 19.152617 Si / 1000 Ang^3
#
#
#
# Elastic Constant Matrix: (Units=GPa)
#
#
# Indices 1 2 3 4 5 6 
#
# 1 85.3673 32.6686 16.9912 -0.0001 3.9384 0.0001
# 2 32.6686 70.9015 9.0099 -0.0001 12.0231 0.0000
# 3 16.9912 9.0099 54.2586 -0.0001 0.1926 0.0004
# 4 -0.0001 -0.0001 -0.0001 26.9432 0.0001 22.8080
# 5 3.9384 12.0231 0.1926 0.0001 41.3122 -0.0002
# 6 0.0001 0.0000 0.0004 22.8080 -0.0002 67.9958
#
#
#
# Elastic Compliance Matrix: (Units=1/GPa)
#
#
# Indices 1 2 3 4 5 6 
#
# 1 0.014888 -0.006486 -0.003587 0.000000 0.000485 0.000000
# 2 -0.006486 0.017995 -0.000941 0.000000 -0.004614 0.000000
# 3 -0.003587 -0.000941 0.019708 0.000000 0.000524 0.000000
# 4 0.000000 0.000000 0.000000 0.051833 0.000000 -0.017386
# 5 0.000485 -0.004614 0.000524 0.000000 0.025500 0.000000
# 6 0.000000 0.000000 0.000000 -0.017386 0.000000 0.020539
#
#
# Mechanical properties :
#
#
# Convention : Reuss Voigt Hill
#
# Bulk Modulus (GPa) = 32.71914 36.42965 34.57439
# Shear Modulus (GPa) = 27.37072 37.37409 32.37240
#
# Velocity S-wave (km/s) = 3.78443 4.42224 4.11571
# Velocity P-wave (km/s) = 6.01800 6.71840 6.37782
#
# Compressibility (1/GPa) = 0.03056315
#
# Stress axis : x y z
#
# Youngs Moduli (GPa) = 67.16932 55.57211 50.74135
#
# Poissons Ratio (x) = 0.36045 0.18200
# Poissons Ratio (y) = 0.43567 0.04773
# Poissons Ratio (z) = 0.24092 0.05227
#
# Static dielectric constant tensor:
#      x y z
#    x 1.694890 0.000000 0.020530 
#    y 0.000000 1.632630 0.000000 
#    z 0.020530 0.000000 1.678890 
# 
# From -- ./inp_files/106859.got.cif
#   From: 2010.05.17/outbox.cif.g08.bks.cpg/sg12_54_cif.got.tgz:106859.got - 2010.06.03 13:09:07.
