data_PCOD9189035
_publ_section_title
;
Structure prediction by ZEFSAII (Michael W. Deem and Ramdas Pophale) SiO2 
 PCOD9189035
Probable space group: C 2/M
;
_chemical_formula_sum "Si O2"
_cell_formula_units_Z 40
_cell_length_a 9.787995
_cell_length_b 15.607730
_cell_length_c 11.585624
_cell_angle_alpha 90.000000
_cell_angle_beta 75.216616
_cell_angle_gamma 90.000000
_cell_volume 1711.328241
_symmetry_space_group_name_H-M "C 2/M"
_symmetry_group_IT_number 12
_symmetry_cell_setting 'monoclinic'
loop_
_space_group_symop_operation_xyz
x,y,z
-x,y,-z
-x,-y,-z
x,-y,z
1/2+x,1/2+y,z
1/2-x,1/2+y,-z
1/2-x,1/2-y,-z
1/2+x,1/2-y,z
loop_
_atom_site_type_symbol
_atom_site_label
_atom_site_fract_x
_atom_site_fract_y
_atom_site_fract_z
Si Si1 0.410529 0.674434 0.864003
Si Si2 0.123950 0.101955 0.378229
Si Si3 0.801188 0.095756 0.221924
Si Si4 0.658793 0.895164 0.483024
Si Si5 0.867592 0.630694 0.952142
O O1 0.401962 0.658447 0.728565
O O2 0.568503 0.645364 0.861843
O O3 0.393336 0.770654 0.911496
O O4 0.276857 0.623173 0.943787
O O5 0.267372 0.127761 0.413324
O O6 0.000000 0.110121 0.500000
O O7 0.131135 0.000000 0.346553
O O8 0.751191 0.133767 0.353854
O O9 0.669636 0.090853 0.163499
O O10 0.854714 0.000000 0.233223
O O11 0.500000 0.864648 0.500000
O O12 0.658185 0.000000 0.478359
O O13 0.000000 0.601222 0.000000
#
# Coordination Sequence:
#
# PCOD9189035 Si02
#       5
#     8   8   8   8   8
#     4  11  22  42  67  92 132 183 219 268 341 407
#     4  10  19  36  66 102 133 168 221 278 334 404
#     4  11  23  43  71 100 131 176 233 279 333 407
#     4   9  19  36  60  96 138 169 202 273 346 390
#     4  11  26  44  63  91 134 178 225 285 339 384
#
# _framework density 23.373659
#
# number of rings (size 3 to 8) (size 9 to 14) (size 15 to 20)
#    0.000    1.600    2.000    3.600    2.800    2.800 
#    0.000    2.000    0.000    0.000    0.000    0.000 
#    0.000    0.000    0.000    0.000    0.000    0.000 
#
# Total GULP energy -111857.273602 kJ/mol
# GULP energy per Si atom -5592.863680 kJ/mol
# Density = 2.332046 g / cm^3
# Si number density = 23.373659 Si / 1000 Ang^3
#
#
#
# Elastic Constant Matrix: (Units=GPa)
#
#
# Indices 1 2 3 4 5 6 
#
# 1 161.5467 11.5756 39.0510 0.0000 29.2640 0.0000
# 2 11.5756 37.4932 10.7509 0.0000 -3.7914 0.0000
# 3 39.0510 10.7509 103.2055 0.0000 19.8313 0.0000
# 4 0.0000 0.0000 0.0000 17.8133 0.0000 4.0004
# 5 29.2640 -3.7914 19.8313 0.0000 50.9145 0.0000
# 6 0.0000 0.0000 0.0000 4.0004 0.0000 22.9746
#
#
#
# Elastic Compliance Matrix: (Units=1/GPa)
#
#
# Indices 1 2 3 4 5 6 
#
# 1 0.007474 -0.002142 -0.001890 0.000000 -0.003719 0.000000
# 2 -0.002142 0.028668 -0.003051 0.000000 0.004554 0.000000
# 3 -0.001890 -0.003051 0.011411 0.000000 -0.003585 0.000000
# 4 0.000000 0.000000 0.000000 0.058422 0.000000 -0.010173
# 5 -0.003719 0.004554 -0.003585 0.000000 0.023514 0.000000
# 6 0.000000 0.000000 0.000000 -0.010173 0.000000 0.045298
#
#
# Mechanical properties :
#
#
# Convention : Reuss Voigt Hill
#
# Bulk Modulus (GPa) = 29.95120 47.22227 38.58673
# Shear Modulus (GPa) = 24.98957 34.39834 29.69395
#
# Velocity S-wave (km/s) = 3.27331 3.84040 3.56814
# Velocity P-wave (km/s) = 5.20845 6.31759 5.78964
#
# Compressibility (1/GPa) = 0.03338765
#
# Stress axis : x y z
#
# Youngs Moduli (GPa) = 133.79167 34.88198 87.63104
#
# Poissons Ratio (x) = 0.07470 0.16566
# Poissons Ratio (y) = 0.28653 0.26737
# Poissons Ratio (z) = 0.25292 0.10643
#
# Static dielectric constant tensor:
#      x y z
#    x 1.893200 0.000000 0.020250 
#    y 0.000000 1.884430 0.000000 
#    z 0.020250 0.000000 1.864370 
# 
# From -- ./inp_files/118895.got.cif
#   From: 2010.05.17/outbox.cif.g08.bks.cpg/sg12_60_cif.got.tgz:118895.got - 2010.06.03 13:09:07.
