data_PCOD9189181
_publ_section_title
;
Structure prediction by ZEFSAII (Michael W. Deem and Ramdas Pophale) SiO2 
 PCOD9189181
Probable space group: C 2/M
;
_chemical_formula_sum "Si O2"
_cell_formula_units_Z 48
_cell_length_a 19.994750
_cell_length_b 29.452099
_cell_length_c 9.167828
_cell_angle_alpha 90.000000
_cell_angle_beta 153.403467
_cell_angle_gamma 90.000000
_cell_volume 2417.077709
_symmetry_space_group_name_H-M "C 2/M"
_symmetry_group_IT_number 12
_symmetry_cell_setting 'monoclinic'
loop_
_space_group_symop_operation_xyz
x,y,z
-x,y,-z
-x,-y,-z
x,-y,z
1/2+x,1/2+y,z
1/2-x,1/2+y,-z
1/2-x,1/2-y,-z
1/2+x,1/2-y,z
loop_
_atom_site_type_symbol
_atom_site_label
_atom_site_fract_x
_atom_site_fract_y
_atom_site_fract_z
Si Si1 0.341163 0.606313 0.510626
Si Si2 0.829819 0.360383 0.217710
Si Si3 0.174511 0.860704 0.206446
Si Si4 0.953025 0.236612 0.063503
Si Si5 0.768340 0.803783 0.218537
Si Si6 0.827790 0.949054 0.216634
O O1 0.299923 0.609809 0.599281
O O2 0.251299 0.647177 0.260759
O O3 0.319286 0.561566 0.373052
O O4 0.516830 0.619807 0.838106
O O5 0.802563 0.360361 0.336619
O O6 0.000000 0.355261 0.500000
O O7 0.737602 0.318632 0.962585
O O8 0.764179 0.408708 0.037440
O O9 0.139839 0.807832 0.171224
O O10 0.084732 0.218107 0.423769
O O11 0.861213 0.270782 0.983263
O O12 0.000000 0.258384 0.000000
O O13 0.000000 0.945182 0.500000
O O14 0.776288 0.000000 0.082856
#
# Coordination Sequence:
#
# PCOD9189181 Si02
#       6
#     8   8   8   8   8   8
#     4   9  18  37  62  88 116 157 198 254 303 356
#     4  11  25  41  59  88 126 167 204 252 312 365
#     4  10  19  37  59  85 122 161 203 247 305 352
#     4  11  21  36  60  87 120 161 210 264 304 355
#     4  10  23  37  56  84 119 164 206 254 304 354
#     4  10  20  39  68  96 121 154 199 250 307 376
#
# _framework density 19.858692000000001
#
# number of rings (size 3 to 8) (size 9 to 14) (size 15 to 20)
#    0.000    1.833    5.000    0.500    2.333    1.000 
#    0.000    5.000    0.000    1.000    0.000    0.000 
#    0.000    0.000    0.000    0.000    0.000    0.000 
#
# Total GULP energy -133879.694243 kJ/mol
# GULP energy per Si atom -5578.320593 kJ/mol
# Density = 1.981349 g / cm^3
# Si number density = 19.858692 Si / 1000 Ang^3
#
#
#
# Elastic Constant Matrix: (Units=GPa)
#
#
# Indices 1 2 3 4 5 6 
#
# 1 131.4155 25.8792 26.5389 0.0000 8.0397 0.0000
# 2 25.8792 72.8509 18.3717 0.0000 1.0352 0.0000
# 3 26.5389 18.3717 46.7074 0.0000 4.3286 0.0000
# 4 0.0000 0.0000 0.0000 4.8229 0.0000 4.7895
# 5 8.0397 1.0352 4.3286 0.0000 14.1670 0.0000
# 6 0.0000 0.0000 0.0000 4.7895 0.0000 12.4241
#
#
#
# Elastic Compliance Matrix: (Units=1/GPa)
#
#
# Indices 1 2 3 4 5 6 
#
# 1 0.009065 -0.002171 -0.003946 0.000000 -0.003780 0.000000
# 2 -0.002171 0.015766 -0.005120 0.000000 0.001645 0.000000
# 3 -0.003946 -0.005120 0.026165 0.000000 -0.005381 0.000000
# 4 0.000000 0.000000 0.000000 0.335965 0.000000 -0.129516
# 5 -0.003780 0.001645 -0.005381 0.000000 0.074256 0.000000
# 6 0.000000 0.000000 0.000000 -0.129516 0.000000 0.130418
#
#
# Mechanical properties :
#
#
# Convention : Reuss Voigt Hill
#
# Bulk Modulus (GPa) = 35.06269 43.61705 39.33987
# Shear Modulus (GPa) = 8.01775 18.29505 13.15640
#
# Velocity S-wave (km/s) = 2.01151 3.03852 2.57670
# Velocity P-wave (km/s) = 4.80513 5.85846 5.35774
#
# Compressibility (1/GPa) = 0.02852035
#
# Stress axis : x y z
#
# Youngs Moduli (GPa) = 110.31107 63.42840 38.21941
#
# Poissons Ratio (x) = 0.13773 0.15083
# Poissons Ratio (y) = 0.23953 0.19568
# Poissons Ratio (z) = 0.43534 0.32475
#
# Static dielectric constant tensor:
#      x y z
#    x 1.746370 0.000000 -0.029620 
#    y 0.000000 1.667840 0.000000 
#    z -0.029620 0.000000 1.748230 
# 
# From -- ./inp_files/42149.got.cif
#   From: 2010.05.17/outbox.cif.g08.bks.cpg/sg12_22_cif.got.tgz:42149.got - 2010.06.03 13:09:07.
