data_PCOD9189878
_publ_section_title
;
Structure prediction by ZEFSAII (Michael W. Deem and Ramdas Pophale) SiO2 
 PCOD9189878
Probable space group: C 2/M
;
_chemical_formula_sum "Si O2"
_cell_formula_units_Z 44
_cell_length_a 5.279335
_cell_length_b 20.270484
_cell_length_c 23.857544
_cell_angle_alpha 90.000000
_cell_angle_beta 57.268379
_cell_angle_gamma 90.000000
_cell_volume 2147.705803
_symmetry_space_group_name_H-M "C 2/M"
_symmetry_group_IT_number 12
_symmetry_cell_setting 'monoclinic'
loop_
_space_group_symop_operation_xyz
x,y,z
-x,y,-z
-x,-y,-z
x,-y,z
1/2+x,1/2+y,z
1/2-x,1/2+y,-z
1/2-x,1/2-y,-z
1/2+x,1/2-y,z
loop_
_atom_site_type_symbol
_atom_site_label
_atom_site_fract_x
_atom_site_fract_y
_atom_site_fract_z
Si Si1 0.774989 0.711472 0.572669
Si Si2 0.553209 0.075682 0.746699
Si Si3 0.243628 0.600839 0.337864
Si Si4 0.607028 0.188074 0.925408
Si Si5 0.234202 0.165383 0.873186
Si Si6 0.138137 0.500000 0.545280
O O1 0.474106 0.727868 0.573700
O O2 0.721830 0.669861 0.634479
O O3 0.000000 0.679217 0.500000
O O4 0.392885 0.098349 0.708073
O O5 0.459484 0.129998 0.803976
O O6 0.916297 0.073476 0.700233
O O7 0.452796 0.000000 0.770716
O O8 0.002683 0.560921 0.403788
O O9 0.349483 0.151938 0.921774
O O10 0.693306 0.254325 0.879909
O O11 0.899705 0.143537 0.897581
O O12 0.500000 0.208554 0.000000
O O13 0.500000 0.500000 0.500000
O O14 0.000000 0.500000 0.500000
#
# Coordination Sequence:
#
# PCOD9189878 Si02
#       6
#     8   8   8   8   8   4
#     4  10  22  42  63  88 119 154 195 251 324 387
#     4  12  24  43  61  83 132 171 210 254 304 378
#     4  12  24  44  62  90 122 165 207 262 320 369
#     4  10  19  38  65  94 127 157 201 267 311 348
#     4  10  20  35  59  92 119 165 202 241 310 367
#     4  12  24  40  68  94 114 150 219 278 311 358
#
# _framework density 20.486978000000001
#
# number of rings (size 3 to 8) (size 9 to 14) (size 15 to 20)
#    0.000    1.091    1.818    6.545    0.000    2.182 
#   19.636    0.000    0.000    6.000    0.000    0.000 
#    0.000    0.000    0.000    0.000    0.000    0.000 
#
# Total GULP energy -122579.114034 kJ/mol
# GULP energy per Si atom -5571.777911 kJ/mol
# Density = 2.044035 g / cm^3
# Si number density = 20.486978 Si / 1000 Ang^3
#
#
#
# Elastic Constant Matrix: (Units=GPa)
#
#
# Indices 1 2 3 4 5 6 
#
# 1 145.7476 -2.2604 26.4562 0.0000 6.6313 0.0000
# 2 -2.2604 40.5038 40.3071 0.0000 3.7650 0.0000
# 3 26.4562 40.3071 90.3786 0.0000 9.9516 0.0000
# 4 0.0000 0.0000 0.0000 -482.4690 0.0000 -163.3418
# 5 6.6313 3.7650 9.9516 0.0000 45.3578 0.0000
# 6 0.0000 0.0000 0.0000 -163.3418 0.0000 -43.4259
#
#
#
# Elastic Compliance Matrix: (Units=1/GPa)
#
#
# Indices 1 2 3 4 5 6 
#
# 1 0.007753 0.004821 -0.004356 0.000000 -0.000578 0.000000
# 2 0.004821 0.047408 -0.022589 0.000000 0.000316 0.000000
# 3 -0.004356 -0.022589 0.022686 0.000000 -0.002465 0.000000
# 4 0.000000 0.000000 0.000000 0.007580 0.000000 -0.028512
# 5 -0.000578 0.000316 -0.002465 0.000000 0.022646 0.000000
# 6 0.000000 0.000000 0.000000 -0.028512 0.000000 0.084217
#
#
# Mechanical properties :
#
#
# Convention : Reuss Voigt Hill
#
# Bulk Modulus (GPa) = 29.76308 45.07064 37.41686
# Shear Modulus (GPa) = 20.18265 -81.96561 -30.89148
#
# Velocity S-wave (km/s) = 3.14211 -6.33210 -3.88733
# Velocity P-wave (km/s) = 5.26528 5.60475 1.35833
#
# Compressibility (1/GPa) = 0.03359867
#
# Stress axis : x y z
#
# Youngs Moduli (GPa) = 128.98302 21.09337 44.08101
#
# Poissons Ratio (x) = -0.10170 0.19202
# Poissons Ratio (y) = -0.62186 0.99576
# Poissons Ratio (z) = 0.56186 0.47648
#
# Static dielectric constant tensor:
#      x y z
#    x 1.793700 0.000000 -0.017960 
#    y 0.000000 1.766070 0.000000 
#    z -0.017960 0.000000 1.742510 
# 
# From -- ./inp_files/331149.got.cif
#   From: 2010.05.17/outbox.cif.g08.bks.cpg/sg12_166_cif.got.tgz:331149.got - 2010.06.03 13:09:07.
