data_PCOD9189254
_publ_section_title
;
Structure prediction by ZEFSAII (Michael W. Deem and Ramdas Pophale) SiO2 
 PCOD9189254
Probable space group: C 2/M
;
_chemical_formula_sum "Si O2"
_cell_formula_units_Z 60
_cell_length_a 18.759342
_cell_length_b 9.777727
_cell_length_c 16.480225
_cell_angle_alpha 90.000000
_cell_angle_beta 65.892223
_cell_angle_gamma 90.000000
_cell_volume 2759.206239
_symmetry_space_group_name_H-M "C 2/M"
_symmetry_group_IT_number 12
_symmetry_cell_setting 'monoclinic'
loop_
_space_group_symop_operation_xyz
x,y,z
-x,y,-z
-x,-y,-z
x,-y,z
1/2+x,1/2+y,z
1/2-x,1/2+y,-z
1/2-x,1/2-y,-z
1/2+x,1/2-y,z
loop_
_atom_site_type_symbol
_atom_site_label
_atom_site_fract_x
_atom_site_fract_y
_atom_site_fract_z
Si Si1 0.245398 0.658641 0.422115
Si Si2 0.300430 0.665011 0.220737
Si Si3 0.929082 0.659217 0.477017
Si Si4 0.839096 0.842213 0.783459
Si Si5 0.027586 0.162863 0.873568
Si Si6 0.856048 0.769084 0.965225
Si Si7 0.758535 0.500000 0.972061
Si Si8 0.484210 0.340741 0.314555
O O1 0.262228 0.500000 0.434640
O O2 0.250000 0.750000 0.500000
O O3 0.295336 0.696549 0.320077
O O4 0.153886 0.667829 0.440368
O O5 0.292705 0.500000 0.218907
O O6 0.227330 0.741700 0.215809
O O7 0.384686 0.709776 0.147099
O O8 0.942615 0.500000 0.450424
O O9 0.000000 0.706884 0.500000
O O10 0.930915 0.746929 0.394652
O O11 0.850189 0.828902 0.875241
O O12 0.924646 0.812352 0.707880
O O13 0.818395 0.000000 0.776014
O O14 0.947772 0.227788 0.944204
O O15 0.024136 0.180681 0.777413
O O16 0.022506 0.000000 0.892192
O O17 0.817185 0.621103 0.979810
O O18 0.801644 0.879829 0.034275
O O19 0.468437 0.500000 0.338138
#
# Coordination Sequence:
#
# PCOD9189254 Si02
#       8
#     8   8   8   8   8   8   4   8
#     4  10  21  36  53  75 104 143 188 229 277 327
#     4  10  21  35  56  78 107 150 187 224 269 329
#     4  10  20  33  48  71 103 133 170 228 282 316
#     4  10  20  36  55  81 114 143 180 226 276 314
#     4   9  17  35  56  78 107 139 180 221 261 306
#     4  10  19  37  60  90 110 143 176 222 256 319
#     4  10  20  34  64  90 114 138 176 214 268 310
#     4   9  18  33  54  74  97 136 182 225 266 317
#
# _framework density 21.745384999999999
#
# number of rings (size 3 to 8) (size 9 to 14) (size 15 to 20)
#    0.000    2.267    1.333    2.400    0.933    4.000 
#    4.800    0.000    0.000    4.800    0.000    0.000 
#    0.000    0.000    0.000    0.000    0.000    0.000 
#
# Total GULP energy -167112.919388 kJ/mol
# GULP energy per Si atom -5570.430646 kJ/mol
# Density = 2.169589 g / cm^3
# Si number density = 21.745385 Si / 1000 Ang^3
#
#
#
# Elastic Constant Matrix: (Units=GPa)
#
#
# Indices 1 2 3 4 5 6 
#
# 1 113.7030 31.4752 22.5376 0.0000 -25.1325 0.0000
# 2 31.4752 72.6586 29.8021 0.0000 -18.7868 0.0000
# 3 22.5376 29.8021 101.1497 0.0000 -13.8923 0.0000
# 4 0.0000 0.0000 0.0000 72.5205 0.0000 0.3211
# 5 -25.1325 -18.7868 -13.8923 0.0000 39.3284 0.0000
# 6 0.0000 0.0000 0.0000 0.3211 0.0000 27.0340
#
#
#
# Elastic Compliance Matrix: (Units=1/GPa)
#
#
# Indices 1 2 3 4 5 6 
#
# 1 0.010965 -0.003054 -0.000821 0.000000 0.005258 0.000000
# 2 -0.003054 0.018060 -0.003914 0.000000 0.005293 0.000000
# 3 -0.000821 -0.003914 0.011449 0.000000 0.001650 0.000000
# 4 0.000000 0.000000 0.000000 0.013790 0.000000 -0.000164
# 5 0.005258 0.005293 0.001650 0.000000 0.031899 0.000000
# 6 0.000000 0.000000 0.000000 -0.000164 0.000000 0.036992
#
#
# Mechanical properties :
#
#
# Convention : Reuss Voigt Hill
#
# Bulk Modulus (GPa) = 40.16563 50.57123 45.36843
# Shear Modulus (GPa) = 34.00649 41.35633 37.68141
#
# Velocity S-wave (km/s) = 3.95884 4.36574 4.16726
# Velocity P-wave (km/s) = 6.27754 6.97994 6.63804
#
# Compressibility (1/GPa) = 0.02489691
#
# Stress axis : x y z
#
# Youngs Moduli (GPa) = 91.19734 55.37221 87.34376
#
# Poissons Ratio (x) = 0.16908 0.07174
# Poissons Ratio (y) = 0.27848 0.34183
# Poissons Ratio (z) = 0.07490 0.21671
#
# Static dielectric constant tensor:
#      x y z
#    x 1.856550 0.000000 0.010720 
#    y 0.000000 1.714720 0.000000 
#    z 0.010720 0.000000 1.861070 
# 
# From -- ./inp_files/342418.got.cif
#   From: 2010.05.17/outbox.cif.g08.bks.cpg/sg12_172_cif.got.tgz:342418.got - 2010.06.03 13:09:07.
