data_PCOD9189316
_publ_section_title
;
Structure prediction by ZEFSAII (Michael W. Deem and Ramdas Pophale) SiO2 
 PCOD9189316
Probable space group: C 2/M
;
_chemical_formula_sum "Si O2"
_cell_formula_units_Z 32
_cell_length_a 18.852347
_cell_length_b 13.784989
_cell_length_c 17.418702
_cell_angle_alpha 90.000000
_cell_angle_beta 23.608911
_cell_angle_gamma 90.000000
_cell_volume 1812.929815
_symmetry_space_group_name_H-M "C 2/M"
_symmetry_group_IT_number 12
_symmetry_cell_setting 'monoclinic'
loop_
_space_group_symop_operation_xyz
x,y,z
-x,y,-z
-x,-y,-z
x,-y,z
1/2+x,1/2+y,z
1/2-x,1/2+y,-z
1/2-x,1/2-y,-z
1/2+x,1/2-y,z
loop_
_atom_site_type_symbol
_atom_site_label
_atom_site_fract_x
_atom_site_fract_y
_atom_site_fract_z
Si Si1 0.771997 0.747242 0.387500
Si Si2 0.475659 0.109554 0.615823
Si Si3 0.386361 0.285564 0.042930
Si Si4 0.792748 0.111762 0.684531
O O1 0.750000 0.750000 0.500000
O O2 0.632489 0.825259 0.493201
O O3 0.730675 0.649892 0.379422
O O4 0.972790 0.770244 0.163773
O O5 0.500000 0.108174 0.500000
O O6 0.282254 0.155465 0.818778
O O7 0.484582 0.000000 0.636608
O O8 0.312087 0.186332 0.155954
O O9 0.500000 0.333793 0.000000
O O10 0.000000 0.119199 0.500000
O O11 0.737055 0.000000 0.748427
#
# Coordination Sequence:
#
# PCOD9189316 Si02
#       4
#     8   8   8   8
#     4  11  23  38  59  86 123 152 187 240 299 346
#     4  11  21  38  60  85 116 149 196 240 279 340
#     4  10  19  37  61  88 110 153 199 235 290 340
#     4  10  19  38  64  85 111 150 200 243 283 341
#
# _framework density 17.650988000000002
#
# number of rings (size 3 to 8) (size 9 to 14) (size 15 to 20)
#    0.000    1.500    7.500    0.000    0.000    8.000 
#    0.000    0.000    0.000    0.000    0.000    0.000 
#    0.000    0.000    0.000    0.000    0.000    0.000 
#
# Total GULP energy -89219.391076 kJ/mol
# GULP energy per Si atom -5576.211942 kJ/mol
# Density = 1.761081 g / cm^3
# Si number density = 17.650988 Si / 1000 Ang^3
#
#
#
# Elastic Constant Matrix: (Units=GPa)
#
#
# Indices 1 2 3 4 5 6 
#
# 1 68.3373 33.9273 48.5275 -0.0009 10.6594 0.0003
# 2 33.9273 94.3870 33.4968 -0.0030 -15.0679 0.0014
# 3 48.5275 33.4968 134.3561 0.0003 -2.8091 0.0004
# 4 -0.0009 -0.0030 0.0003 -15.4350 -0.0015 9.8048
# 5 10.6594 -15.0679 -2.8091 -0.0015 39.6182 0.0006
# 6 0.0003 0.0014 0.0004 9.8048 0.0006 4.2886
#
#
#
# Elastic Compliance Matrix: (Units=1/GPa)
#
#
# Indices 1 2 3 4 5 6 
#
# 1 0.025670 -0.008280 -0.007429 0.000001 -0.010582 0.000000
# 2 -0.008280 0.015044 -0.000595 -0.000003 0.007907 0.000001
# 3 -0.007429 -0.000595 0.010327 0.000000 0.002505 -0.000001
# 4 0.000001 -0.000003 0.000000 -0.026419 -0.000003 0.060401
# 5 -0.010582 0.007907 0.002505 -0.000003 0.031273 0.000001
# 6 0.000000 0.000001 -0.000001 0.060401 0.000001 0.095084
#
#
# Mechanical properties :
#
#
# Convention : Reuss Voigt Hill
#
# Bulk Modulus (GPa) = 54.24729 58.77595 56.51162
# Shear Modulus (GPa) = 26.35312 17.76962 22.06137
#
# Velocity S-wave (km/s) = 3.86814 3.17633 3.53918
# Velocity P-wave (km/s) = 7.12391 6.84276 6.98475
#
# Compressibility (1/GPa) = 0.01843410
#
# Stress axis : x y z
#
# Youngs Moduli (GPa) = 38.95615 66.47010 96.83700
#
# Poissons Ratio (x) = 0.55038 0.71935
# Poissons Ratio (y) = 0.32256 0.05760
# Poissons Ratio (z) = 0.28939 0.03954
#
# Static dielectric constant tensor:
#      x y z
#    x 1.570040 0.000000 0.019770 
#    y 0.000000 1.626100 -0.000010 
#    z 0.019770 -0.000010 1.546090 
# 
# From -- ./inp_files/283904.got.cif
#   From: 2010.05.17/outbox.cif.g08.bks.cpg/sg12_142_cif.got.tgz:283904.got - 2010.06.03 13:09:07.
