data_PCOD9189743
_publ_section_title
;
Structure prediction by ZEFSAII (Michael W. Deem and Ramdas Pophale) SiO2 
 PCOD9189743
Probable space group: C 2/M
;
_chemical_formula_sum "Si O2"
_cell_formula_units_Z 32
_cell_length_a 12.030517
_cell_length_b 14.165740
_cell_length_c 15.463089
_cell_angle_alpha 90.000000
_cell_angle_beta 150.511707
_cell_angle_gamma 90.000000
_cell_volume 1297.184517
_symmetry_space_group_name_H-M "C 2/M"
_symmetry_group_IT_number 12
_symmetry_cell_setting 'monoclinic'
loop_
_space_group_symop_operation_xyz
x,y,z
-x,y,-z
-x,-y,-z
x,-y,z
1/2+x,1/2+y,z
1/2-x,1/2+y,-z
1/2-x,1/2-y,-z
1/2+x,1/2-y,z
loop_
_atom_site_type_symbol
_atom_site_label
_atom_site_fract_x
_atom_site_fract_y
_atom_site_fract_z
Si Si1 0.709173 0.818676 0.052716
Si Si2 0.657120 0.000000 0.724490
Si Si3 0.104499 0.000000 0.918698
Si Si4 0.755923 0.390197 0.687433
Si Si5 0.543125 0.820641 0.352808
O O1 0.833344 0.751361 0.205640
O O2 0.837918 0.912410 0.105815
O O3 0.750000 0.750000 0.000000
O O4 0.444898 0.845249 0.877607
O O5 0.514810 0.903923 0.620830
O O6 0.852197 0.000000 0.784974
O O7 0.763915 0.000000 0.897035
O O8 0.500000 0.352998 0.500000
O O9 0.732498 0.500000 0.696851
O O10 0.884273 0.378522 0.683711
O O11 0.750000 0.750000 0.500000
#
# Coordination Sequence:
#
# PCOD9189743 Si02
#       5
#     8   4   4   8   8
#     4  10  19  38  62  91 118 166 210 252 313 382
#     4  11  22  41  63  95 126 168 204 270 328 364
#     4  11  20  39  69  91 122 166 218 259 316 387
#     4  10  19  38  62  83 116 161 206 248 310 380
#     4  11  23  40  61  92 129 162 206 263 317 376
#
# _framework density 24.668811000000002
#
# number of rings (size 3 to 8) (size 9 to 14) (size 15 to 20)
#    0.000    1.500    7.500    0.000    0.000    5.000 
#    0.000    1.250    0.000    3.000    0.000    0.875 
#    0.000    0.000    0.000    0.000    0.000    0.000 
#
# Total GULP energy -89175.734440 kJ/mol
# GULP energy per Si atom -5573.483403 kJ/mol
# Density = 2.461266 g / cm^3
# Si number density = 24.668811 Si / 1000 Ang^3
#
#
#
# Elastic Constant Matrix: (Units=GPa)
#
#
# Indices 1 2 3 4 5 6 
#
# 1 70.0198 31.5812 43.0814 0.0027 33.5783 0.0006
# 2 31.5812 203.8348 76.5890 0.0102 25.5569 0.0007
# 3 43.0814 76.5890 181.5511 0.0151 40.6572 0.0004
# 4 0.0027 0.0102 0.0151 36.7774 0.0048 14.2953
# 5 33.5783 25.5569 40.6572 0.0048 47.9666 0.0006
# 6 0.0006 0.0007 0.0004 14.2953 0.0006 8.9016
#
#
#
# Elastic Compliance Matrix: (Units=1/GPa)
#
#
# Indices 1 2 3 4 5 6 
#
# 1 0.022391 -0.001086 -0.001820 0.000003 -0.013553 -0.000006
# 2 -0.001086 0.005945 -0.002112 -0.000001 -0.000617 0.000002
# 3 -0.001820 -0.002112 0.007768 -0.000005 -0.004185 0.000009
# 4 0.000003 -0.000001 -0.000005 0.072358 -0.000003 -0.116201
# 5 -0.013553 -0.000617 -0.004185 -0.000003 0.034212 0.000003
# 6 -0.000006 0.000002 0.000009 -0.116201 0.000003 0.298949
#
#
# Mechanical properties :
#
#
# Convention : Reuss Voigt Hill
#
# Bulk Modulus (GPa) = 38.36135 84.21211 61.28673
# Shear Modulus (GPa) = 10.86135 39.00605 24.93370
#
# Velocity S-wave (km/s) = 2.10058 3.98073 3.18266
# Velocity P-wave (km/s) = 4.63331 7.43905 6.19706
#
# Compressibility (1/GPa) = 0.02606790
#
# Stress axis : x y z
#
# Youngs Moduli (GPa) = 44.66136 168.20349 128.73002
#
# Poissons Ratio (x) = 0.18267 0.23429
# Poissons Ratio (y) = 0.04850 0.27189
# Poissons Ratio (z) = 0.08128 0.35527
#
# Static dielectric constant tensor:
#      x y z
#    x 2.060700 0.000000 -0.109210 
#    y 0.000000 1.930250 0.000000 
#    z -0.109210 0.000000 2.125800 
# 
# From -- ./inp_files/58748.got.cif
#   From: 2010.05.17/outbox.cif.g08.bks.cpg/sg12_30_cif.got.tgz:58748.got - 2010.06.03 13:09:07.
