data_PCOD9189163
_publ_section_title
;
Structure prediction by ZEFSAII (Michael W. Deem and Ramdas Pophale) SiO2 
 PCOD9189163
Probable space group: C 2/M
;
_chemical_formula_sum "Si O2"
_cell_formula_units_Z 64
_cell_length_a 15.030346
_cell_length_b 8.675861
_cell_length_c 26.232797
_cell_angle_alpha 90.000000
_cell_angle_beta 90.535852
_cell_angle_gamma 90.000000
_cell_volume 3420.638414
_symmetry_space_group_name_H-M "C 2/M"
_symmetry_group_IT_number 12
_symmetry_cell_setting 'monoclinic'
loop_
_space_group_symop_operation_xyz
x,y,z
-x,y,-z
-x,-y,-z
x,-y,z
1/2+x,1/2+y,z
1/2-x,1/2+y,-z
1/2-x,1/2-y,-z
1/2+x,1/2-y,z
loop_
_atom_site_type_symbol
_atom_site_label
_atom_site_fract_x
_atom_site_fract_y
_atom_site_fract_z
Si Si1 0.061862 0.184438 0.383838
Si Si2 0.350063 0.313896 0.998390
Si Si3 0.217095 0.315255 0.446341
Si Si4 0.137951 0.187372 0.635888
Si Si5 0.036687 0.683948 0.809582
Si Si6 0.808215 0.814664 0.250535
Si Si7 0.499396 0.314118 0.919889
Si Si8 0.108700 0.685730 0.274171
O O1 0.120815 0.256323 0.428674
O O2 0.099268 0.237943 0.329256
O O3 0.958995 0.234751 0.383856
O O4 0.065463 0.000000 0.387215
O O5 0.344770 0.500000 0.998212
O O6 0.409548 0.266651 0.949528
O O7 0.250000 0.250000 0.000000
O O8 0.413646 0.268454 0.046329
O O9 0.217643 0.500000 0.447932
O O10 0.250000 0.250000 0.500000
O O11 0.285150 0.263025 0.402192
O O12 0.155154 0.238110 0.693925
O O13 0.139911 0.000000 0.637076
O O14 0.034283 0.500000 0.811504
O O15 0.133904 0.740550 0.793467
O O16 0.006900 0.749459 0.863497
O O17 0.969559 0.734893 0.764217
O O18 0.703972 0.777712 0.250020
O O19 0.817672 0.000000 0.247714
O O20 0.499051 0.500000 0.918399
O O21 0.105031 0.500000 0.281249
#
# Coordination Sequence:
#
# PCOD9189163 Si02
#       8
#     8   8   8   8   8   8   8   8
#     4  11  21  36  60  87 109 142 188 231 276 335
#     4   9  19  37  62  87 112 149 197 239 286 340
#     4  11  23  42  61  84 115 148 186 233 285 339
#     4   9  19  36  60  82 109 148 186 221 275 346
#     4  11  23  36  54  87 121 148 189 246 287 321
#     4  10  19  37  59  79 108 155 192 220 280 349
#     4   9  20  39  58  80 116 159 192 228 284 353
#     4  10  21  37  56  80 113 151 187 229 281 335
#
# _framework density 18.709958
#
# number of rings (size 3 to 8) (size 9 to 14) (size 15 to 20)
#    0.000    2.000    2.500    1.875    0.000    3.500 
#    0.000   10.000    0.000    0.000    0.000    0.000 
#    0.000    0.000    0.000    0.000    0.000    0.000 
#
# Total GULP energy -178655.975271 kJ/mol
# GULP energy per Si atom -5582.999227 kJ/mol
# Density = 1.866737 g / cm^3
# Si number density = 18.709958 Si / 1000 Ang^3
#
#
#
# Elastic Constant Matrix: (Units=GPa)
#
#
# Indices 1 2 3 4 5 6 
#
# 1 88.8530 14.0202 -5.5005 0.0000 -3.2709 0.0000
# 2 14.0202 21.8155 8.0977 0.0000 1.0930 0.0000
# 3 -5.5005 8.0977 52.2593 0.0000 -3.2063 0.0000
# 4 0.0000 0.0000 0.0000 32.0737 0.0000 0.8038
# 5 -3.2709 1.0930 -3.2063 0.0000 19.1223 0.0000
# 6 0.0000 0.0000 0.0000 0.8038 0.0000 28.6308
#
#
#
# Elastic Compliance Matrix: (Units=1/GPa)
#
#
# Indices 1 2 3 4 5 6 
#
# 1 0.013104 -0.009735 0.003091 0.000000 0.003316 0.000000
# 2 -0.009735 0.056187 -0.010134 0.000000 -0.006576 0.000000
# 3 0.003091 -0.010134 0.021318 0.000000 0.004683 0.000000
# 4 0.000000 0.000000 0.000000 0.031200 0.000000 -0.000876
# 5 0.003316 -0.006576 0.004683 0.000000 0.054023 0.000000
# 6 0.000000 0.000000 0.000000 -0.000876 0.000000 0.034952
#
#
# Mechanical properties :
#
#
# Convention : Reuss Voigt Hill
#
# Bulk Modulus (GPa) = 17.52774 21.79585 19.66179
# Shear Modulus (GPa) = 18.98549 25.71940 22.35244
#
# Velocity S-wave (km/s) = 3.18893 3.71163 3.46017
# Velocity P-wave (km/s) = 4.79036 5.48114 5.14735
#
# Compressibility (1/GPa) = 0.05705242
#
# Stress axis : x y z
#
# Youngs Moduli (GPa) = 76.31184 17.79775 46.90794
#
# Poissons Ratio (x) = 0.17327 -0.14500
# Poissons Ratio (y) = 0.74292 0.47539
# Poissons Ratio (z) = -0.23590 0.18037
#
# Static dielectric constant tensor:
#      x y z
#    x 1.646880 0.000000 0.002940 
#    y 0.000000 1.634470 0.000000 
#    z 0.002940 0.000000 1.621340 
# 
# From -- ./inp_files/338750.got.cif
#   From: 2010.05.17/outbox.cif.g08.bks.cpg/sg12_170_cif.got.tgz:338750.got - 2010.06.03 13:09:07.
