data_PCOD9189189
_publ_section_title
;
Structure prediction by ZEFSAII (Michael W. Deem and Ramdas Pophale) SiO2 
 PCOD9189189
Probable space group: C 2/M
;
_chemical_formula_sum "Si O2"
_cell_formula_units_Z 64
_cell_length_a 27.665948
_cell_length_b 18.565043
_cell_length_c 9.992174
_cell_angle_alpha 90.000000
_cell_angle_beta 147.811608
_cell_angle_gamma 90.000000
_cell_volume 2733.934698
_symmetry_space_group_name_H-M "C 2/M"
_symmetry_group_IT_number 12
_symmetry_cell_setting 'monoclinic'
loop_
_space_group_symop_operation_xyz
x,y,z
-x,y,-z
-x,-y,-z
x,-y,z
1/2+x,1/2+y,z
1/2-x,1/2+y,-z
1/2-x,1/2-y,-z
1/2+x,1/2-y,z
loop_
_atom_site_type_symbol
_atom_site_label
_atom_site_fract_x
_atom_site_fract_y
_atom_site_fract_z
Si Si1 0.057049 0.881333 0.261742
Si Si2 0.224022 0.353352 0.735862
Si Si3 0.311733 0.780484 0.828561
Si Si4 0.593970 0.176836 0.675207
Si Si5 0.493295 0.760026 0.762202
Si Si6 0.608610 0.581815 0.963820
Si Si7 0.448003 0.921784 0.739836
Si Si8 0.726519 0.420015 0.514630
O O1 0.155111 0.914520 0.471474
O O2 0.059308 0.794613 0.266622
O O3 0.000000 0.907485 0.000000
O O4 0.994268 0.897488 0.242226
O O5 0.234377 0.277131 0.683624
O O6 0.169582 0.351952 0.748134
O O7 0.328281 0.376248 0.992275
O O8 0.159920 0.407310 0.500951
O O9 0.285446 0.848497 0.676348
O O10 0.351376 0.807306 0.063051
O O11 0.400713 0.741868 0.976261
O O12 0.500000 0.136246 0.500000
O O13 0.550779 0.243438 0.489111
O O14 0.483865 0.845624 0.766460
O O15 0.607820 0.500000 0.918766
O O16 0.666759 0.586373 0.239469
O O17 0.460765 0.000000 0.700242
O O18 0.500000 0.926896 0.000000
O O19 0.769910 0.500000 0.618104
#
# Coordination Sequence:
#
# PCOD9189189 Si02
#       8
#     8   8   8   8   8   8   8   8
#     4  10  19  37  59  88 120 157 198 239 290 351
#     4  11  21  38  62  89 118 150 200 249 291 346
#     4  11  22  38  61  91 116 152 202 248 291 344
#     4   9  21  40  62  86 115 153 198 245 297 349
#     4  10  20  37  60  86 115 152 201 243 293 344
#     4  10  21  37  59  89 123 157 191 236 298 356
#     4  10  22  37  55  81 121 164 194 232 290 351
#     4  10  22  37  58  86 123 161 194 238 291 351
#
# _framework density 23.409483999999999
#
# number of rings (size 3 to 8) (size 9 to 14) (size 15 to 20)
#    0.000    1.875    1.250    3.000    1.750    3.500 
#    0.000    3.125    0.000   13.500    0.000    2.625 
#    0.000    0.000    0.000    0.000    0.000    0.000 
#
# Total GULP energy -178293.745771 kJ/mol
# GULP energy per Si atom -5571.679555 kJ/mol
# Density = 2.335620 g / cm^3
# Si number density = 23.409484 Si / 1000 Ang^3
#
#
#
# Elastic Constant Matrix: (Units=GPa)
#
#
# Indices 1 2 3 4 5 6 
#
# 1 82.9031 16.4355 1.0157 0.0000 27.0652 0.0000
# 2 16.4355 115.8635 1.2623 0.0000 0.5822 0.0000
# 3 1.0157 1.2623 29.2696 0.0000 8.3123 0.0000
# 4 0.0000 0.0000 0.0000 -31.9695 0.0000 9.1617
# 5 27.0652 0.5822 8.3123 0.0000 44.7094 0.0000
# 6 0.0000 0.0000 0.0000 9.1617 0.0000 18.8543
#
#
#
# Elastic Compliance Matrix: (Units=1/GPa)
#
#
# Indices 1 2 3 4 5 6 
#
# 1 0.015709 -0.002204 0.002367 0.000000 -0.009921 0.000000
# 2 -0.002204 0.008944 -0.000692 0.000000 0.001347 0.000000
# 3 0.002367 -0.000692 0.036441 0.000000 -0.008199 0.000000
# 4 0.000000 0.000000 0.000000 -0.027456 0.000000 0.013342
# 5 -0.009921 0.001347 -0.008199 0.000000 0.029879 0.000000
# 6 0.000000 0.000000 0.000000 0.013342 0.000000 0.046555
#
#
# Mechanical properties :
#
#
# Convention : Reuss Voigt Hill
#
# Bulk Modulus (GPa) = 16.65617 29.49591 23.07604
# Shear Modulus (GPa) = 38.12635 20.27368 29.20002
#
# Velocity S-wave (km/s) = 4.04006 2.94606 3.53563
# Velocity P-wave (km/s) = 5.37525 4.91932 5.15233
#
# Compressibility (1/GPa) = 0.06003782
#
# Stress axis : x y z
#
# Youngs Moduli (GPa) = 63.65683 111.80294 27.44138
#
# Poissons Ratio (x) = 0.24645 -0.06497
# Poissons Ratio (y) = 0.14032 0.01898
# Poissons Ratio (z) = -0.15070 0.07733
#
# Static dielectric constant tensor:
#      x y z
#    x 1.995610 0.000000 0.032740 
#    y 0.000000 1.956280 0.000000 
#    z 0.032740 0.000000 1.909470 
# 
# From -- ./inp_files/190097.got.cif
#   From: 2010.05.17/outbox.cif.g08.bks.cpg/sg12_96_cif.got.tgz:190097.got - 2010.06.03 13:09:07.
