data_PCOD9189076
_publ_section_title
;
Structure prediction by ZEFSAII (Michael W. Deem and Ramdas Pophale) SiO2 
 PCOD9189076
Probable space group: C 2/M
;
_chemical_formula_sum "Si O2"
_cell_formula_units_Z 56
_cell_length_a 24.685295
_cell_length_b 15.077535
_cell_length_c 24.162671
_cell_angle_alpha 90.000000
_cell_angle_beta 16.776114
_cell_angle_gamma 90.000000
_cell_volume 2595.727526
_symmetry_space_group_name_H-M "C 2/M"
_symmetry_group_IT_number 12
_symmetry_cell_setting 'monoclinic'
loop_
_space_group_symop_operation_xyz
x,y,z
-x,y,-z
-x,-y,-z
x,-y,z
1/2+x,1/2+y,z
1/2-x,1/2+y,-z
1/2-x,1/2-y,-z
1/2+x,1/2-y,z
loop_
_atom_site_type_symbol
_atom_site_label
_atom_site_fract_x
_atom_site_fract_y
_atom_site_fract_z
Si Si1 0.962903 0.644157 0.247378
Si Si2 0.400107 0.405119 0.813579
Si Si3 0.276645 0.099346 0.318975
Si Si4 0.501277 0.792655 0.323287
Si Si5 0.434059 0.340055 0.894463
Si Si6 0.464706 0.738226 0.972831
Si Si7 0.528014 0.271293 0.408815
O O1 0.826006 0.602134 0.336230
O O2 0.898277 0.655346 0.374376
O O3 0.993251 0.744963 0.197997
O O4 0.171493 0.602599 0.038584
O O5 0.447470 0.500000 0.740629
O O6 0.471530 0.311750 0.718764
O O7 0.470493 0.404923 0.808346
O O8 0.070270 0.134020 0.504980
O O9 0.311142 0.000000 0.265103
O O10 0.409415 0.175056 0.162393
O O11 0.436315 0.790774 0.450400
O O12 0.708498 0.833931 0.118280
O O13 0.498879 0.338885 0.894311
O O14 0.248643 0.770016 0.180356
O O15 0.500000 0.706753 0.000000
O O16 0.500000 0.244523 0.500000
#
# Coordination Sequence:
#
# PCOD9189076 Si02
#       7
#     8   8   8   8   8   8   8
#     4   8  15  30  48  71  97 133 169 202 249 300
#     4   9  14  25  49  77 102 129 162 205 258 307
#     4  11  23  35  51  76 106 135 167 208 252 301
#     4   8  16  30  49  69 100 133 167 208 247 296
#     4   7  14  27  47  72  96 125 166 209 248 292
#     4  10  19  37  55  68  97 138 176 206 245 294
#     4  11  22  36  50  74 100 131 175 215 241 290
#
# _framework density 21.573913000000001
#
# number of rings (size 3 to 8) (size 9 to 14) (size 15 to 20)
#    0.000    2.857    1.429    3.000    0.000    2.286 
#    0.000    0.000    0.000    0.429    0.000    0.000 
#    0.000   57.143    0.000    1.286    0.000    0.000 
#
# Total GULP energy -156012.313496 kJ/mol
# GULP energy per Si atom -5571.868339 kJ/mol
# Density = 2.152481 g / cm^3
# Si number density = 21.573913 Si / 1000 Ang^3
#
#
#
# Elastic Constant Matrix: (Units=GPa)
#
#
# Indices 1 2 3 4 5 6 
#
# 1 156.7227 -4.0267 9.1830 -0.0008 17.0261 -0.0001
# 2 -4.0267 24.6506 -1.2852 -0.0284 0.3736 -0.0061
# 3 9.1830 -1.2852 71.2122 -0.0160 -13.7276 -0.0093
# 4 -0.0008 -0.0284 -0.0160 7.7472 0.0062 5.8451
# 5 17.0261 0.3736 -13.7276 0.0062 27.7008 0.0078
# 6 -0.0001 -0.0061 -0.0093 5.8451 0.0078 4.3641
#
#
#
# Elastic Compliance Matrix: (Units=1/GPa)
#
#
# Indices 1 2 3 4 5 6 
#
# 1 0.007102 0.001141 -0.001923 0.000026 -0.005334 -0.000027
# 2 0.001141 0.040781 0.000384 -0.010146 -0.001063 0.013649
# 3 -0.001923 0.000384 0.016058 -0.001269 0.009135 0.001718
# 4 0.000026 -0.010146 -0.001269-12.278456 -0.002407 16.445294
# 5 -0.005334 -0.001063 0.009135 -0.002407 0.043919 0.003162
# 6 -0.000027 0.013649 0.001718 16.445294 0.003162-21.797053
#
#
# Mechanical properties :
#
#
# Convention : Reuss Voigt Hill
#
# Bulk Modulus (GPa) = 15.83701 28.92528 22.38114
# Shear Modulus (GPa) = -0.14729 24.54338 12.19804
#
# Velocity S-wave (km/s) = -0.26158 3.37655 2.38041
# Velocity P-wave (km/s) = 2.69546 5.35146 4.23696
#
# Compressibility (1/GPa) = 0.06314325
#
# Stress axis : x y z
#
# Youngs Moduli (GPa) = 140.80193 24.52117 62.27283
#
# Poissons Ratio (x) = -0.02797 0.11978
# Poissons Ratio (y) = -0.16062 -0.02388
# Poissons Ratio (z) = 0.27083 -0.00940
#
# Static dielectric constant tensor:
#      x y z
#    x 1.890290 0.000000 0.011040 
#    y 0.000000 1.719760 0.000010 
#    z 0.011040 0.000010 1.860080 
# 
# From -- ./inp_files/349711.got.cif
#   From: 2010.05.17/outbox.cif.g08.bks.cpg/sg12_175_cif.got.tgz:349711.got - 2010.06.03 13:09:07.
