data_PCOD9189948
_publ_section_title
;
Structure prediction by ZEFSAII (Michael W. Deem and Ramdas Pophale) SiO2 
 PCOD9189948
Probable space group: C 2/M
;
_chemical_formula_sum "Si O2"
_cell_formula_units_Z 44
_cell_length_a 18.267642
_cell_length_b 14.373266
_cell_length_c 17.350153
_cell_angle_alpha 90.000000
_cell_angle_beta 30.791471
_cell_angle_gamma 90.000000
_cell_volume 2332.056752
_symmetry_space_group_name_H-M "C 2/M"
_symmetry_group_IT_number 12
_symmetry_cell_setting 'monoclinic'
loop_
_space_group_symop_operation_xyz
x,y,z
-x,y,-z
-x,-y,-z
x,-y,z
1/2+x,1/2+y,z
1/2-x,1/2+y,-z
1/2-x,1/2-y,-z
1/2+x,1/2-y,z
loop_
_atom_site_type_symbol
_atom_site_label
_atom_site_fract_x
_atom_site_fract_y
_atom_site_fract_z
Si Si1 0.996469 0.000000 0.877292
Si Si2 0.143304 0.298915 0.217902
Si Si3 0.114828 0.289649 0.668143
Si Si4 0.462801 0.709293 0.948866
Si Si5 0.295826 0.000000 0.900142
Si Si6 0.170067 0.500000 0.435077
Si Si7 0.416629 0.000000 0.308884
Si Si8 0.500000 0.842756 0.500000
O O1 0.968169 0.903357 0.946267
O O2 0.160794 0.000000 0.706055
O O3 0.870590 0.000000 0.926749
O O4 0.171822 0.408958 0.179313
O O5 0.076916 0.286337 0.362609
O O6 0.024872 0.275933 0.260667
O O7 0.303203 0.258124 0.068176
O O8 0.250000 0.250000 0.500000
O O9 0.139445 0.399135 0.663991
O O10 0.076941 0.239012 0.781640
O O11 0.500000 0.744561 0.000000
O O12 0.412779 0.000000 0.861337
O O13 0.103755 0.500000 0.579927
O O14 0.114724 0.410490 0.438086
#
# Coordination Sequence:
#
# PCOD9189948 Si02
#       8
#     4   8   8   8   4   4   4   4
#     4  10  20  32  53  86 122 141 173 234 290 339
#     4  10  20  34  54  79 120 152 182 232 281 345
#     4  11  23  39  58  86 115 152 194 232 288 343
#     4  11  23  37  57  87 119 151 192 235 287 345
#     4   8  15  32  48  77 108 152 177 210 282 348
#     4  11  17  28  52  82 111 148 185 218 279 354
#     4  10  19  39  56  75 115 153 186 234 281 339
#     4  11  18  28  54  82 112 149 188 213 294 354
#
# _framework density 18.867466
#
# number of rings (size 3 to 8) (size 9 to 14) (size 15 to 20)
#    0.000    1.636    3.636    3.545    2.545    1.455 
#    0.000    0.455    0.000    0.000    0.000    1.273 
#    0.000    0.000    0.000    0.000    0.000    0.000 
#
# Total GULP energy -122613.679799 kJ/mol
# GULP energy per Si atom -5573.349082 kJ/mol
# Density = 1.882452 g / cm^3
# Si number density = 18.867466 Si / 1000 Ang^3
#
#
#
# Elastic Constant Matrix: (Units=GPa)
#
#
# Indices 1 2 3 4 5 6 
#
# 1 72.8654 23.8838 51.4320 0.0000 6.5012 0.0000
# 2 23.8838 58.3667 19.7116 0.0000 -2.7039 0.0000
# 3 51.4320 19.7116 133.9664 0.0000 -16.7991 0.0000
# 4 0.0000 0.0000 0.0000 11.1848 0.0000 -5.3635
# 5 6.5012 -2.7039 -16.7991 0.0000 38.6736 0.0000
# 6 0.0000 0.0000 0.0000 -5.3635 0.0000 7.9109
#
#
#
# Elastic Compliance Matrix: (Units=1/GPa)
#
#
# Indices 1 2 3 4 5 6 
#
# 1 0.022891 -0.006768 -0.008815 0.000000 -0.008150 0.000000
# 2 -0.006768 0.020030 -0.000032 0.000000 0.002524 0.000000
# 3 -0.008815 -0.000032 0.011675 0.000000 0.006551 0.000000
# 4 0.000000 0.000000 0.000000 0.132480 0.000000 0.089821
# 5 -0.008150 0.002524 0.006551 0.000000 0.030250 0.000000
# 6 0.000000 0.000000 0.000000 0.089821 0.000000 0.187306
#
#
# Mechanical properties :
#
#
# Convention : Reuss Voigt Hill
#
# Bulk Modulus (GPa) = 42.79578 50.58371 46.68974
# Shear Modulus (GPa) = 11.27014 22.89859 17.08436
#
# Velocity S-wave (km/s) = 2.44669 3.48753 3.01241
# Velocity P-wave (km/s) = 5.54196 6.56395 6.07448
#
# Compressibility (1/GPa) = 0.02336679
#
# Stress axis : x y z
#
# Youngs Moduli (GPa) = 43.68493 49.92421 85.65434
#
# Poissons Ratio (x) = 0.33788 0.75500
# Poissons Ratio (y) = 0.29565 0.00278
# Poissons Ratio (z) = 0.38506 0.00162
#
# Static dielectric constant tensor:
#      x y z
#    x 1.687170 0.000000 -0.051520 
#    y 0.000000 1.678030 0.000000 
#    z -0.051520 0.000000 1.697240 
# 
# From -- ./inp_files/112720.got.cif
#   From: 2010.05.17/outbox.cif.g08.bks.cpg/sg12_57_cif.got.tgz:112720.got - 2010.06.03 13:09:07.
