data_PCOD9189165
_publ_section_title
;
Structure prediction by ZEFSAII (Michael W. Deem and Ramdas Pophale) SiO2 
 PCOD9189165
Probable space group: C 2/M
;
_chemical_formula_sum "Si O2"
_cell_formula_units_Z 56
_cell_length_a 26.473135
_cell_length_b 7.521123
_cell_length_c 12.884919
_cell_angle_alpha 90.000000
_cell_angle_beta 69.516708
_cell_angle_gamma 90.000000
_cell_volume 2403.281888
_symmetry_space_group_name_H-M "C 2/M"
_symmetry_group_IT_number 12
_symmetry_cell_setting 'monoclinic'
loop_
_space_group_symop_operation_xyz
x,y,z
-x,y,-z
-x,-y,-z
x,-y,z
1/2+x,1/2+y,z
1/2-x,1/2+y,-z
1/2-x,1/2-y,-z
1/2+x,1/2-y,z
loop_
_atom_site_type_symbol
_atom_site_label
_atom_site_fract_x
_atom_site_fract_y
_atom_site_fract_z
Si Si1 0.403991 0.784466 0.348710
Si Si2 0.129924 0.207772 0.977003
Si Si3 0.714019 0.787640 0.625329
Si Si4 0.439871 0.710745 0.553439
Si Si5 0.540961 0.202834 0.887742
Si Si6 0.631892 0.717978 0.203013
Si Si7 0.748515 0.785006 0.825306
O O1 0.345968 0.718657 0.351590
O O2 0.412616 0.733857 0.461230
O O3 0.448650 0.719390 0.233782
O O4 0.404384 0.000000 0.343398
O O5 0.098502 0.299553 0.905730
O O6 0.194380 0.228317 0.923007
O O7 0.117173 0.000000 0.977024
O O8 0.112106 0.273192 0.103318
O O9 0.750000 0.750000 0.500000
O O10 0.740387 0.722352 0.712651
O O11 0.709782 0.000000 0.639242
O O12 0.500000 0.786540 0.500000
O O13 0.444949 0.500000 0.569392
O O14 0.404626 0.779880 0.674814
O O15 0.522142 0.000000 0.885227
O O16 0.500000 0.287276 0.000000
O O17 0.632292 0.500000 0.202642
O O18 0.693879 0.775906 0.173996
O O19 0.749466 0.000000 0.826611
#
# Coordination Sequence:
#
# PCOD9189165 Si02
#       7
#     8   8   8   8   8   8   8
#     4  10  21  39  59  85 117 146 189 241 283 331
#     4  11  22  36  58  89 121 148 189 245 289 335
#     4  10  20  34  56  83 114 151 189 234 282 337
#     4  10  22  40  62  85 113 153 195 232 286 350
#     4  10  22  41  63  85 114 155 195 232 287 353
#     4   9  20  37  57  84 118 155 192 236 286 338
#     4  10  19  37  59  79 115 159 193 229 285 348
#
# _framework density 23.301469999999998
#
# number of rings (size 3 to 8) (size 9 to 14) (size 15 to 20)
#    0.000    2.000    1.429    1.714    2.000    3.429 
#    0.000    2.857    0.000    0.000    0.000    0.000 
#    0.000    0.000    0.000    0.000    0.000    0.000 
#
# Total GULP energy -156520.979828 kJ/mol
# GULP energy per Si atom -5590.034994 kJ/mol
# Density = 2.324843 g / cm^3
# Si number density = 23.301470 Si / 1000 Ang^3
#
#
#
# Elastic Constant Matrix: (Units=GPa)
#
#
# Indices 1 2 3 4 5 6 
#
# 1 39.0099 -4.0884 7.1284 0.0000 -1.3276 0.0000
# 2 -4.0884 63.9384 -6.7396 0.0000 -2.5416 0.0000
# 3 7.1284 -6.7396 174.2584 0.0000 -3.1283 0.0000
# 4 0.0000 0.0000 0.0000 16.4549 0.0000 2.4044
# 5 -1.3276 -2.5416 -3.1283 0.0000 42.9739 0.0000
# 6 0.0000 0.0000 0.0000 2.4044 0.0000 47.5796
#
#
#
# Elastic Compliance Matrix: (Units=1/GPa)
#
#
# Indices 1 2 3 4 5 6 
#
# 1 0.026010 0.001592 -0.000988 0.000000 0.000826 0.000000
# 2 0.001592 0.015842 0.000566 0.000000 0.001027 0.000000
# 3 -0.000988 0.000566 0.005809 0.000000 0.000426 0.000000
# 4 0.000000 0.000000 0.000000 0.061224 0.000000 -0.003094
# 5 0.000826 0.001027 0.000426 0.000000 0.023387 0.000000
# 6 0.000000 0.000000 0.000000 -0.003094 0.000000 0.021174
#
#
# Mechanical properties :
#
#
# Convention : Reuss Voigt Hill
#
# Bulk Modulus (GPa) = 19.99946 29.97864 24.98905
# Shear Modulus (GPa) = 29.80227 40.12875 34.96551
#
# Velocity S-wave (km/s) = 3.58017 4.15439 3.87792
# Velocity P-wave (km/s) = 5.06870 5.99211 5.54965
#
# Compressibility (1/GPa) = 0.05000136
#
# Stress axis : x y z
#
# Youngs Moduli (GPa) = 38.44690 63.12197 172.16028
#
# Poissons Ratio (x) = -0.10048 0.17003
# Poissons Ratio (y) = -0.06120 -0.09745
# Poissons Ratio (z) = 0.03797 -0.03573
#
# Static dielectric constant tensor:
#      x y z
#    x 1.854960 0.000000 -0.016790 
#    y 0.000000 1.931130 0.000000 
#    z -0.016790 0.000000 1.869350 
# 
# From -- ./inp_files/180864.got.cif
#   From: 2010.05.17/outbox.cif.g08.bks.cpg/sg12_91_cif.got.tgz:180864.got - 2010.06.03 13:09:07.
