data_PCOD9189746
_publ_section_title
;
Structure prediction by ZEFSAII (Michael W. Deem and Ramdas Pophale) SiO2 
 PCOD9189746
Probable space group: C 2/M
;
_chemical_formula_sum "Si O2"
_cell_formula_units_Z 52
_cell_length_a 14.887906
_cell_length_b 24.161930
_cell_length_c 13.006565
_cell_angle_alpha 90.000000
_cell_angle_beta 30.717791
_cell_angle_gamma 90.000000
_cell_volume 2389.940839
_symmetry_space_group_name_H-M "C 2/M"
_symmetry_group_IT_number 12
_symmetry_cell_setting 'monoclinic'
loop_
_space_group_symop_operation_xyz
x,y,z
-x,y,-z
-x,-y,-z
x,-y,z
1/2+x,1/2+y,z
1/2-x,1/2+y,-z
1/2-x,1/2-y,-z
1/2+x,1/2-y,z
loop_
_atom_site_type_symbol
_atom_site_label
_atom_site_fract_x
_atom_site_fract_y
_atom_site_fract_z
Si Si1 0.520660 0.868480 0.176325
Si Si2 0.803504 0.059046 0.234923
Si Si3 0.236067 0.271772 0.895847
Si Si4 0.352043 0.835678 0.720080
Si Si5 0.184382 0.937075 0.531420
Si Si6 0.000000 0.156648 0.500000
Si Si7 0.185826 0.064030 0.217658
O O1 0.573700 0.852026 0.240843
O O2 0.323532 0.889941 0.365500
O O3 0.577469 0.815445 0.052900
O O4 0.645453 0.917812 0.012982
O O5 0.710791 0.109241 0.271979
O O6 0.813719 0.064376 0.346933
O O7 0.718611 0.000000 0.292660
O O8 0.000000 0.058274 0.000000
O O9 0.210986 0.213559 0.863932
O O10 0.412027 0.303015 0.675308
O O11 0.250000 0.250000 0.000000
O O12 0.500000 0.812296 0.500000
O O13 0.985977 0.929120 0.686182
O O14 0.238138 0.000000 0.447644
O O15 0.845320 0.108760 0.661151
O O16 0.193770 0.000000 0.243132
#
# Coordination Sequence:
#
# PCOD9189746 Si02
#       7
#     8   8   8   8   8   4   8
#     4  10  20  36  58  84 115 157 197 241 293 351
#     4  10  21  35  53  82 119 154 191 238 293 352
#     4   9  20  36  60  85 115 151 194 244 298 344
#     4  11  19  34  59  83 112 151 195 241 289 345
#     4  10  20  35  55  84 120 155 192 241 294 346
#     4  10  19  38  62  84 113 156 198 240 294 350
#     4  10  21  37  59  85 118 156 195 240 292 348
#
# _framework density 21.757860999999998
#
# number of rings (size 3 to 8) (size 9 to 14) (size 15 to 20)
#    0.000    2.000    2.308    1.615    0.000    2.769 
#    0.000    4.615    0.000   18.462    0.000    0.000 
#    0.000    0.000    0.000    0.000    0.000    0.000 
#
# Total GULP energy -144766.374513 kJ/mol
# GULP energy per Si atom -5567.937481 kJ/mol
# Density = 2.170834 g / cm^3
# Si number density = 21.757861 Si / 1000 Ang^3
#
#
#
# Elastic Constant Matrix: (Units=GPa)
#
#
# Indices 1 2 3 4 5 6 
#
# 1 67.6048 49.8608 16.5270 0.0042 8.5863 -0.0015
# 2 49.8608 160.1134 42.7701 -0.0011 7.9602 -0.0067
# 3 16.5270 42.7701 102.1682 -0.0004 15.8688 0.0096
# 4 0.0042 -0.0011 -0.0004 40.1401 -0.0045 4.8158
# 5 8.5863 7.9602 15.8688 -0.0045 26.6773 0.0014
# 6 -0.0015 -0.0067 0.0096 4.8158 0.0014 -4.6644
#
#
#
# Elastic Compliance Matrix: (Units=1/GPa)
#
#
# Indices 1 2 3 4 5 6 
#
# 1 0.019740 -0.005918 -0.000003 -0.000003 -0.004585 -0.000002
# 2 -0.005918 0.008810 -0.002885 0.000003 0.000992 -0.000014
# 3 -0.000003 -0.002885 0.011968 -0.000003 -0.006257 0.000023
# 4 -0.000003 0.000003 -0.000003 0.022167 0.000005 0.022887
# 5 -0.004585 0.000992 -0.006257 0.000005 0.042387 0.000005
# 6 -0.000002 -0.000014 0.000023 0.022887 0.000005 -0.190761
#
#
# Mechanical properties :
#
#
# Convention : Reuss Voigt Hill
#
# Bulk Modulus (GPa) = 43.65916 60.91137 52.28527
# Shear Modulus (GPa) = -82.72462 27.14584 -27.78939
#
# Velocity S-wave (km/s) = -6.17277 3.53602 -3.57769
# Velocity P-wave (km/s) = 5.54028 6.68783 2.64882
#
# Compressibility (1/GPa) = 0.02290470
#
# Stress axis : x y z
#
# Youngs Moduli (GPa) = 50.65845 113.50910 83.55744
#
# Poissons Ratio (x) = 0.67179 0.00028
# Poissons Ratio (y) = 0.29981 0.24104
# Poissons Ratio (z) = 0.00017 0.32745
#
# Static dielectric constant tensor:
#      x y z
#    x 1.770700 0.000000 0.100930 
#    y 0.000000 1.854020 0.000010 
#    z 0.100930 0.000010 1.762020 
# 
# From -- ./inp_files/227890.got.cif
#   From: 2010.05.17/outbox.cif.g08.bks.cpg/sg12_114_cif.got.tgz:227890.got - 2010.06.03 13:09:07.
