data_PCOD9189618
_publ_section_title
;
Structure prediction by ZEFSAII (Michael W. Deem and Ramdas Pophale) SiO2 
 PCOD9189618
Probable space group: C 2/M
;
_chemical_formula_sum "Si O2"
_cell_formula_units_Z 52
_cell_length_a 7.216430
_cell_length_b 15.536778
_cell_length_c 25.915475
_cell_angle_alpha 90.000000
_cell_angle_beta 44.760116
_cell_angle_gamma 90.000000
_cell_volume 2045.981092
_symmetry_space_group_name_H-M "C 2/M"
_symmetry_group_IT_number 12
_symmetry_cell_setting 'monoclinic'
loop_
_space_group_symop_operation_xyz
x,y,z
-x,y,-z
-x,-y,-z
x,-y,z
1/2+x,1/2+y,z
1/2-x,1/2+y,-z
1/2-x,1/2-y,-z
1/2+x,1/2-y,z
loop_
_atom_site_type_symbol
_atom_site_label
_atom_site_fract_x
_atom_site_fract_y
_atom_site_fract_z
Si Si1 0.713696 0.154344 0.254801
Si Si2 0.112558 0.149496 0.270687
Si Si3 0.168393 0.598549 0.422378
Si Si4 0.507466 0.000000 0.829357
Si Si5 0.255121 0.402127 0.583704
Si Si6 0.115221 0.641177 0.062238
Si Si7 0.100180 0.842803 0.094621
O O1 0.731025 0.256553 0.243745
O O2 0.416665 0.134461 0.333535
O O3 0.924164 0.130478 0.258200
O O4 0.841370 0.121687 0.175487
O O5 0.923700 0.149973 0.357400
O O6 0.318782 0.074713 0.234437
O O7 0.235638 0.500000 0.423190
O O8 0.000000 0.640690 0.500000
O O9 0.977113 0.594176 0.411981
O O10 0.390992 0.925127 0.890829
O O11 0.500000 0.365668 0.500000
O O12 0.335347 0.500000 0.581488
O O13 0.119533 0.739155 0.082673
O O14 0.842319 0.632885 0.084039
O O15 0.338869 0.625339 0.975048
#
# Coordination Sequence:
#
# PCOD9189618 Si02
#       7
#     8   8   8   4   8   8   8
#     4  11  21  38  61  87 118 156 193 246 291 355
#     4  11  23  37  62  87 119 154 201 237 299 344
#     4   9  18  34  56  82 112 149 193 239 283 340
#     4  12  20  39  59  91 117 157 196 249 278 357
#     4   9  20  37  58  83 117 156 191 241 299 346
#     4  10  22  35  64  83 123 152 200 240 301 340
#     4  10  19  38  56  92 112 160 191 246 289 353
#
# _framework density 25.415680999999999
#
# number of rings (size 3 to 8) (size 9 to 14) (size 15 to 20)
#    0.000    1.846    3.846    0.000    1.077    3.077 
#    1.385    3.077    1.692   10.154    0.000    0.000 
#    0.000    0.000    0.000    0.000    0.000    0.000 
#
# Total GULP energy -144794.447777 kJ/mol
# GULP energy per Si atom -5569.017222 kJ/mol
# Density = 2.535783 g / cm^3
# Si number density = 25.415681 Si / 1000 Ang^3
#
#
#
# Elastic Constant Matrix: (Units=GPa)
#
#
# Indices 1 2 3 4 5 6 
#
# 1 100.6787 -2.0003 27.4724 0.0019 -13.8834 -0.0029
# 2 -2.0003 20.0384 27.0721 0.0003 -4.8371 -0.0010
# 3 27.4724 27.0721 274.4000 0.0055 11.5928 -0.0004
# 4 0.0019 0.0003 0.0055 51.0693 -0.0027 12.6984
# 5 -13.8834 -4.8371 11.5928 -0.0027 28.4231 0.0008
# 6 -0.0029 -0.0010 -0.0004 12.6984 0.0008 22.1157
#
#
#
# Elastic Compliance Matrix: (Units=1/GPa)
#
#
# Indices 1 2 3 4 5 6 
#
# 1 0.011639 0.005739 -0.002048 0.000000 0.007497 0.000002
# 2 0.005739 0.064992 -0.007705 0.000001 0.017006 0.000003
# 3 -0.002048 -0.007705 0.004790 -0.000001 -0.004265 0.000000
# 4 0.000000 0.000001 -0.000001 0.022842 0.000003 -0.013116
# 5 0.007497 0.017006 -0.004265 0.000003 0.043479 -0.000001
# 6 0.000002 0.000003 0.000000 -0.013116 -0.000001 0.052747
#
#
# Mechanical properties :
#
#
# Convention : Reuss Voigt Hill
#
# Bulk Modulus (GPa) = 13.62542 55.57838 34.60190
# Shear Modulus (GPa) = 21.46081 43.15982 32.31031
#
# Velocity S-wave (km/s) = 2.90900 4.12534 3.56936
# Velocity P-wave (km/s) = 4.08114 6.67881 5.53453
#
# Compressibility (1/GPa) = 0.07339226
#
# Stress axis : x y z
#
# Youngs Moduli (GPa) = 85.91514 15.38651 208.77857
#
# Poissons Ratio (x) = -0.08830 0.42763
# Poissons Ratio (y) = -0.49306 1.60866
# Poissons Ratio (z) = 0.17598 0.11855
#
# Static dielectric constant tensor:
#      x y z
#    x 2.065090 0.000000 0.010250 
#    y 0.000000 1.943860 0.000000 
#    z 0.010250 0.000000 2.077050 
# 
# From -- ./inp_files/372481.got.cif
#   From: 2010.05.17/outbox.cif.g08.bks.cpg/sg12_187_cif.got.tgz:372481.got - 2010.06.03 13:09:07.
