data_PCOD9189757
_publ_section_title
;
Structure prediction by ZEFSAII (Michael W. Deem and Ramdas Pophale) SiO2 
 PCOD9189757
Probable space group: C 2/M
;
_chemical_formula_sum "Si O2"
_cell_formula_units_Z 40
_cell_length_a 28.271154
_cell_length_b 17.351862
_cell_length_c 10.235226
_cell_angle_alpha 90.000000
_cell_angle_beta 154.062650
_cell_angle_gamma 90.000000
_cell_volume 2196.109652
_symmetry_space_group_name_H-M "C 2/M"
_symmetry_group_IT_number 12
_symmetry_cell_setting 'monoclinic'
loop_
_space_group_symop_operation_xyz
x,y,z
-x,y,-z
-x,-y,-z
x,-y,z
1/2+x,1/2+y,z
1/2-x,1/2+y,-z
1/2-x,1/2-y,-z
1/2+x,1/2-y,z
loop_
_atom_site_type_symbol
_atom_site_label
_atom_site_fract_x
_atom_site_fract_y
_atom_site_fract_z
Si Si1 0.893345 0.500000 0.643738
Si Si2 0.130166 0.818997 0.330831
Si Si3 0.124768 0.796429 0.816052
Si Si4 0.760125 0.860732 0.134321
Si Si5 0.741692 0.848249 0.613027
Si Si6 0.105796 0.500000 0.670957
O O1 0.825852 0.423556 0.515187
O O2 0.914499 0.500000 0.537771
O O3 0.000000 0.500000 0.000000
O O4 0.176137 0.863354 0.571448
O O5 0.196942 0.850937 0.372763
O O6 0.164808 0.728113 0.425300
O O7 0.000000 0.824930 0.000000
O O8 0.155301 0.851060 0.772182
O O9 0.000000 0.778423 0.500000
O O10 0.190667 0.717476 0.967243
O O11 0.165320 0.834834 0.049160
O O12 0.678005 0.927342 0.892247
O O13 0.000000 0.500000 0.500000
#
# Coordination Sequence:
#
# PCOD9189757 Si02
#       6
#     4   8   8   8   8   4
#     4  12  26  44  65  90 124 162 203 256 319 368
#     4  10  21  40  64  92 124 164 207 251 306 358
#     4  10  19  38  62  88 120 164 202 251 307 352
#     4  10  22  38  61  90 124 154 209 255 293 372
#     4  10  22  40  63  93 125 159 208 256 298 373
#     4  12  26  44  63  92 124 162 203 258 317 364
#
# _framework density 18.214026
#
# number of rings (size 3 to 8) (size 9 to 14) (size 15 to 20)
#    0.000    1.600    2.000    2.400    2.800    0.000 
#    7.200    6.000    0.000    0.000    0.000    0.000 
#    0.000    0.000    0.000    0.000    0.000    0.000 
#
# Total GULP energy -111594.026420 kJ/mol
# GULP energy per Si atom -5579.701321 kJ/mol
# Density = 1.817257 g / cm^3
# Si number density = 18.214026 Si / 1000 Ang^3
#
#
#
# Elastic Constant Matrix: (Units=GPa)
#
#
# Indices 1 2 3 4 5 6 
#
# 1 118.1677 18.4785 64.6430 0.0000 -28.8106 0.0000
# 2 18.4785 51.7848 16.0702 0.0000 -18.8924 0.0000
# 3 64.6430 16.0702 145.0109 0.0000 -18.6272 0.0000
# 4 0.0000 0.0000 0.0000 4.4279 0.0000 -8.9954
# 5 -28.8106 -18.8924 -18.6272 0.0000 41.1986 0.0000
# 6 0.0000 0.0000 0.0000 -8.9954 0.0000 -3.6234
#
#
#
# Elastic Compliance Matrix: (Units=1/GPa)
#
#
# Indices 1 2 3 4 5 6 
#
# 1 0.012759 -0.000724 -0.004782 0.000000 0.006429 0.000000
# 2 -0.000724 0.023457 -0.001019 0.000000 0.009790 0.000000
# 3 -0.004782 -0.001019 0.009184 0.000000 0.000341 0.000000
# 4 0.000000 0.000000 0.000000 0.037369 0.000000 -0.092773
# 5 0.006429 0.009790 0.000341 0.000000 0.033412 0.000000
# 6 0.000000 0.000000 0.000000 -0.092773 0.000000 -0.045666
#
#
# Mechanical properties :
#
#
# Convention : Reuss Voigt Hill
#
# Bulk Modulus (GPa) = 30.91120 57.03851 43.97485
# Shear Modulus (GPa) = 52.99535 22.78540 37.89037
#
# Velocity S-wave (km/s) = 5.39991 3.54076 4.56596
# Velocity P-wave (km/s) = 7.47574 6.93539 7.21063
#
# Compressibility (1/GPa) = 0.03235073
#
# Stress axis : x y z
#
# Youngs Moduli (GPa) = 78.37687 42.63162 108.88008
#
# Poissons Ratio (x) = 0.03085 0.52063
# Poissons Ratio (y) = 0.05671 0.11100
# Poissons Ratio (z) = 0.37477 0.04346
#
# Static dielectric constant tensor:
#      x y z
#    x 1.634410 0.000000 -0.034400 
#    y 0.000000 1.622320 0.000000 
#    z -0.034400 0.000000 1.589620 
# 
# From -- ./inp_files/47175.got.cif
#   From: 2010.05.17/outbox.cif.g08.bks.cpg/sg12_24_cif.got.tgz:47175.got - 2010.06.03 13:09:07.
