data_PCOD9189910
_publ_section_title
;
Structure prediction by ZEFSAII (Michael W. Deem and Ramdas Pophale) SiO2 
 PCOD9189910
Probable space group: C 2/M
;
_chemical_formula_sum "Si O2"
_cell_formula_units_Z 60
_cell_length_a 14.064478
_cell_length_b 15.017831
_cell_length_c 19.448874
_cell_angle_alpha 90.000000
_cell_angle_beta 137.696403
_cell_angle_gamma 90.000000
_cell_volume 2764.893417
_symmetry_space_group_name_H-M "C 2/M"
_symmetry_group_IT_number 12
_symmetry_cell_setting 'monoclinic'
loop_
_space_group_symop_operation_xyz
x,y,z
-x,y,-z
-x,-y,-z
x,-y,z
1/2+x,1/2+y,z
1/2-x,1/2+y,-z
1/2-x,1/2-y,-z
1/2+x,1/2-y,z
loop_
_atom_site_type_symbol
_atom_site_label
_atom_site_fract_x
_atom_site_fract_y
_atom_site_fract_z
Si Si1 0.442336 0.094979 0.258352
Si Si2 0.353736 0.099323 0.752730
Si Si3 0.199712 0.202204 0.329319
Si Si4 0.000000 0.282499 0.500000
Si Si5 0.846709 0.159518 0.939282
Si Si6 0.248240 0.351172 0.161547
Si Si7 0.421575 0.601777 0.124324
Si Si8 0.536834 0.723196 0.374412
O O1 0.499058 0.099635 0.210037
O O2 0.275934 0.106095 0.163983
O O3 0.508849 0.175747 0.335138
O O4 0.484512 0.000000 0.309955
O O5 0.292902 0.194204 0.692321
O O6 0.351572 0.105718 0.834200
O O7 0.290304 0.000000 0.702191
O O8 0.357704 0.166052 0.401207
O O9 0.065716 0.155829 0.220190
O O10 0.159480 0.191924 0.388590
O O11 0.946390 0.223961 0.535493
O O12 0.822298 0.260546 0.902447
O O13 0.844588 0.148835 0.019721
O O14 0.000000 0.127771 0.000000
O O15 0.311540 0.398927 0.128848
O O16 0.393420 0.328537 0.279861
O O17 0.457621 0.500000 0.126464
#
# Coordination Sequence:
#
# PCOD9189910 Si02
#       8
#     8   8   8   4   8   8   8   8
#     4   9  20  38  58  87 124 160 204 249 297 360
#     4  10  19  38  67  92 122 159 200 255 314 365
#     4  10  22  40  61  89 126 161 205 258 312 369
#     4  12  20  38  66  86 116 164 216 252 318 372
#     4  11  23  38  61  87 122 169 207 240 294 362
#     4  10  20  39  62  91 123 156 197 252 313 362
#     4  11  24  41  62  91 126 165 207 252 301 359
#     4   9  20  36  60  86 118 162 201 252 308 368
#
# _framework density 21.700655999999999
#
# number of rings (size 3 to 8) (size 9 to 14) (size 15 to 20)
#    0.000    1.867    1.333    3.200    1.867    2.133 
#    0.000    1.667    0.000    9.600    0.000    0.000 
#    0.000    0.000    0.000    0.000    0.000    0.000 
#
# Total GULP energy -167240.349127 kJ/mol
# GULP energy per Si atom -5574.678304 kJ/mol
# Density = 2.165126 g / cm^3
# Si number density = 21.700656 Si / 1000 Ang^3
#
#
#
# Elastic Constant Matrix: (Units=GPa)
#
#
# Indices 1 2 3 4 5 6 
#
# 1 89.0768 16.3382 6.1192 0.0000 -12.2932 0.0000
# 2 16.3382 73.0988 1.4842 0.0000 -2.7847 0.0000
# 3 6.1192 1.4842 37.7323 0.0000 -10.6964 0.0000
# 4 0.0000 0.0000 0.0000 8.2108 0.0000 1.0667
# 5 -12.2932 -2.7847 -10.6964 0.0000 41.3504 0.0000
# 6 0.0000 0.0000 0.0000 1.0667 0.0000 13.6216
#
#
#
# Elastic Compliance Matrix: (Units=1/GPa)
#
#
# Indices 1 2 3 4 5 6 
#
# 1 0.012210 -0.002587 -0.000970 0.000000 0.003205 0.000000
# 2 -0.002587 0.014267 -0.000094 0.000000 0.000167 0.000000
# 3 -0.000970 -0.000094 0.028683 0.000000 0.007125 0.000000
# 4 0.000000 0.000000 0.000000 0.123042 0.000000 -0.009635
# 5 0.003205 0.000167 0.007125 0.000000 0.026991 0.000000
# 6 0.000000 0.000000 0.000000 -0.009635 0.000000 0.074168
#
#
# Mechanical properties :
#
#
# Convention : Reuss Voigt Hill
#
# Bulk Modulus (GPa) = 20.89551 27.53235 24.21393
# Shear Modulus (GPa) = 16.52264 24.36764 20.44514
#
# Velocity S-wave (km/s) = 2.76232 3.35460 3.07277
# Velocity P-wave (km/s) = 4.45239 5.26492 4.87561
#
# Compressibility (1/GPa) = 0.04785716
#
# Stress axis : x y z
#
# Youngs Moduli (GPa) = 81.90201 70.09350 34.86353
#
# Poissons Ratio (x) = 0.18135 0.03381
# Poissons Ratio (y) = 0.21190 0.00328
# Poissons Ratio (z) = 0.07943 0.00660
#
# Static dielectric constant tensor:
#      x y z
#    x 1.859500 0.000000 -0.010810 
#    y 0.000000 1.840070 0.000000 
#    z -0.010810 0.000000 1.796240 
# 
# From -- ./inp_files/311045.got.cif
#   From: 2010.05.17/outbox.cif.g08.bks.cpg/sg12_156_cif.got.tgz:311045.got - 2010.06.03 13:09:07.
