data_PCOD9189475
_publ_section_title
;
Structure prediction by ZEFSAII (Michael W. Deem and Ramdas Pophale) SiO2 
 PCOD9189475
Probable space group: C 2/M
;
_chemical_formula_sum "Si O2"
_cell_formula_units_Z 44
_cell_length_a 25.334217
_cell_length_b 11.802780
_cell_length_c 8.178919
_cell_angle_alpha 90.000000
_cell_angle_beta 119.916049
_cell_angle_gamma 90.000000
_cell_volume 2119.752253
_symmetry_space_group_name_H-M "C 2/M"
_symmetry_group_IT_number 12
_symmetry_cell_setting 'monoclinic'
loop_
_space_group_symop_operation_xyz
x,y,z
-x,y,-z
-x,-y,-z
x,-y,z
1/2+x,1/2+y,z
1/2-x,1/2+y,-z
1/2-x,1/2-y,-z
1/2+x,1/2-y,z
loop_
_atom_site_type_symbol
_atom_site_label
_atom_site_fract_x
_atom_site_fract_y
_atom_site_fract_z
Si Si1 0.839538 0.314368 0.032413
Si Si2 0.033584 0.500000 0.314328
Si Si3 0.756714 0.000000 0.111531
Si Si4 0.063402 0.265358 0.537513
Si Si5 0.271448 0.630157 0.727085
Si Si6 0.675195 0.319898 0.544431
Si Si7 0.404314 0.000000 0.934644
O O1 0.892180 0.286717 0.240931
O O2 0.789384 0.398978 0.027350
O O3 0.811363 0.200873 0.916497
O O4 0.865426 0.390007 0.922230
O O5 0.046330 0.386777 0.434400
O O6 0.076241 0.500000 0.221308
O O7 0.964568 0.500000 0.140168
O O8 0.795361 0.098678 0.273857
O O9 0.103953 0.195584 0.470942
O O10 0.000000 0.211935 0.500000
O O11 0.266761 0.500000 0.769048
O O12 0.305435 0.636259 0.603802
O O13 0.208073 0.697039 0.608773
#
# Coordination Sequence:
#
# PCOD9189475 Si02
#       7
#     8   4   4   8   8   8   4
#     4  10  21  39  63  95 132 160 211 269 322 383
#     4  11  21  35  63  90 122 170 208 260 313 368
#     4   9  19  39  63  89 123 162 203 270 317 364
#     4  12  24  41  60  95 137 174 207 258 329 393
#     4  10  21  41  66  96 123 165 220 275 320 374
#     4  10  22  40  66  94 127 167 214 267 326 383
#     4  10  19  37  63  95 119 160 216 261 311 370
#
# _framework density 20.757142999999999
#
# number of rings (size 3 to 8) (size 9 to 14) (size 15 to 20)
#    0.000    1.636    2.727    2.455    1.273    4.364 
#    4.909    0.455    0.000    1.091    0.000    0.000 
#    0.000    0.000    0.000    0.000    0.000    0.000 
#
# Total GULP energy -122577.659804 kJ/mol
# GULP energy per Si atom -5571.711809 kJ/mol
# Density = 2.070990 g / cm^3
# Si number density = 20.757143 Si / 1000 Ang^3
#
#
#
# Elastic Constant Matrix: (Units=GPa)
#
#
# Indices 1 2 3 4 5 6 
#
# 1 147.4293 40.2224 28.2964 0.0000 11.6160 0.0000
# 2 40.2224 131.7094 22.7017 0.0000 12.1348 0.0000
# 3 28.2964 22.7017 78.8113 0.0000 13.0938 0.0000
# 4 0.0000 0.0000 0.0000 23.4301 0.0000 -5.3902
# 5 11.6160 12.1348 13.0938 0.0000 15.0452 0.0000
# 6 0.0000 0.0000 0.0000 -5.3902 0.0000 35.7406
#
#
#
# Elastic Compliance Matrix: (Units=1/GPa)
#
#
# Indices 1 2 3 4 5 6 
#
# 1 0.007861 -0.001811 -0.001795 0.000000 -0.003047 0.000000
# 2 -0.001811 0.008769 -0.001091 0.000000 -0.004725 0.000000
# 3 -0.001795 -0.001091 0.015514 0.000000 -0.011236 0.000000
# 4 0.000000 0.000000 0.000000 0.044214 0.000000 0.006668
# 5 -0.003047 -0.004725 -0.011236 0.000000 0.082409 0.000000
# 6 0.000000 0.000000 0.000000 0.006668 0.000000 0.028985
#
#
# Mechanical properties :
#
#
# Convention : Reuss Voigt Hill
#
# Bulk Modulus (GPa) = 43.95230 60.04344 51.99787
# Shear Modulus (GPa) = 24.42252 32.62512 28.52382
#
# Velocity S-wave (km/s) = 3.43386 3.96884 3.71100
# Velocity P-wave (km/s) = 6.07802 7.07048 6.59295
#
# Compressibility (1/GPa) = 0.02275194
#
# Stress axis : x y z
#
# Youngs Moduli (GPa) = 127.20257 114.04085 64.45828
#
# Poissons Ratio (x) = 0.20649 0.11569
# Poissons Ratio (y) = 0.23033 0.07030
# Poissons Ratio (z) = 0.22829 0.12438
#
# Static dielectric constant tensor:
#      x y z
#    x 1.851660 0.000000 -0.066680 
#    y 0.000000 1.714620 0.000000 
#    z -0.066680 0.000000 1.744460 
# 
# From -- ./inp_files/103396.got.cif
#   From: 2010.05.17/outbox.cif.g08.bks.cpg/sg12_52_cif.got.tgz:103396.got - 2010.06.03 13:09:07.
