data_PCOD9189845
_publ_section_title
;
Structure prediction by ZEFSAII (Michael W. Deem and Ramdas Pophale) SiO2 
 PCOD9189845
Probable space group: C 2/M
;
_chemical_formula_sum "Si O2"
_cell_formula_units_Z 56
_cell_length_a 9.005841
_cell_length_b 30.373690
_cell_length_c 11.260700
_cell_angle_alpha 90.000000
_cell_angle_beta 68.110779
_cell_angle_gamma 90.000000
_cell_volume 2858.191960
_symmetry_space_group_name_H-M "C 2/M"
_symmetry_group_IT_number 12
_symmetry_cell_setting 'monoclinic'
loop_
_space_group_symop_operation_xyz
x,y,z
-x,y,-z
-x,-y,-z
x,-y,z
1/2+x,1/2+y,z
1/2-x,1/2+y,-z
1/2-x,1/2-y,-z
1/2+x,1/2-y,z
loop_
_atom_site_type_symbol
_atom_site_label
_atom_site_fract_x
_atom_site_fract_y
_atom_site_fract_z
Si Si1 0.267406 0.785297 0.740206
Si Si2 0.418680 0.301584 0.737364
Si Si3 0.754946 0.552104 0.140457
Si Si4 0.093695 0.590634 0.123043
Si Si5 0.854774 0.618664 0.631058
Si Si6 0.505002 0.603848 0.632657
Si Si7 0.655599 0.810168 0.018073
O O1 0.349175 0.739176 0.683554
O O2 0.351173 0.829180 0.664787
O O3 0.284694 0.787372 0.878834
O O4 0.086551 0.787981 0.747406
O O5 0.440168 0.345974 0.656549
O O6 0.294828 0.312641 0.879900
O O7 0.747679 0.500000 0.157558
O O8 0.605664 0.575702 0.246415
O O9 0.918598 0.571000 0.149790
O O10 0.778542 0.564347 0.994823
O O11 0.127561 0.592386 0.251654
O O12 0.104097 0.640972 0.074558
O O13 0.686226 0.606461 0.623305
O O14 0.000000 0.609723 0.500000
O O15 0.500000 0.586875 0.500000
O O16 0.500000 0.789632 0.000000
#
# Coordination Sequence:
#
# PCOD9189845 Si02
#       7
#     8   8   8   8   8   8   8
#     4  10  23  34  56  84 121 163 208 254 296 350
#     4  11  21  38  53  84 121 162 208 253 301 352
#     4  11  22  41  68  98 126 153 198 252 309 376
#     4  10  19  38  64  95 123 159 197 246 305 365
#     4  10  23  41  63  90 125 166 209 251 298 363
#     4  11  24  42  64  89 123 166 206 253 311 365
#     4  11  18  32  56  84 121 158 201 246 298 356
#
# _framework density 19.592806
#
# number of rings (size 3 to 8) (size 9 to 14) (size 15 to 20)
#    0.000    1.429    2.857    3.429    0.000    4.857 
#    0.000    5.000    0.000    3.000    0.000    0.000 
#    0.000    0.000    0.000    0.000    0.000    0.000 
#
# Total GULP energy -156505.045475 kJ/mol
# GULP energy per Si atom -5589.465910 kJ/mol
# Density = 1.954821 g / cm^3
# Si number density = 19.592806 Si / 1000 Ang^3
#
#
#
# Elastic Constant Matrix: (Units=GPa)
#
#
# Indices 1 2 3 4 5 6 
#
# 1 68.9358 40.3571 63.2767 0.0000 -12.7251 0.0000
# 2 40.3571 99.5035 45.8716 0.0000 -14.2909 0.0000
# 3 63.2767 45.8716 139.2739 0.0000 -11.8246 0.0000
# 4 0.0000 0.0000 0.0000 5.9188 0.0000 2.7002
# 5 -12.7251 -14.2909 -11.8246 0.0000 31.3558 0.0000
# 6 0.0000 0.0000 0.0000 2.7002 0.0000 17.7063
#
#
#
# Elastic Compliance Matrix: (Units=1/GPa)
#
#
# Indices 1 2 3 4 5 6 
#
# 1 0.028710 -0.006037 -0.010640 0.000000 0.004887 0.000000
# 2 -0.006037 0.013640 -0.001477 0.000000 0.003210 0.000000
# 3 -0.010640 -0.001477 0.012477 0.000000 -0.000286 0.000000
# 4 0.000000 0.000000 0.000000 0.181586 0.000000 -0.027691
# 5 0.004887 0.003210 -0.000286 0.000000 0.035230 0.000000
# 6 0.000000 0.000000 0.000000 -0.027691 0.000000 0.060700
#
#
# Mechanical properties :
#
#
# Convention : Reuss Voigt Hill
#
# Bulk Modulus (GPa) = 54.00393 67.41379 60.70886
# Shear Modulus (GPa) = 13.33959 21.54336 17.44148
#
# Velocity S-wave (km/s) = 2.61212 3.31955 2.98686
# Velocity P-wave (km/s) = 6.05975 7.01247 6.55344
#
# Compressibility (1/GPa) = 0.01851717
#
# Stress axis : x y z
#
# Youngs Moduli (GPa) = 34.83163 73.31126 80.14968
#
# Poissons Ratio (x) = 0.44258 0.85283
# Poissons Ratio (y) = 0.21028 0.11841
# Poissons Ratio (z) = 0.37062 0.10831
#
# Static dielectric constant tensor:
#      x y z
#    x 1.668210 0.000000 0.010020 
#    y 0.000000 1.694770 0.000000 
#    z 0.010020 0.000000 1.679130 
# 
# From -- ./inp_files/125601.got.cif
#   From: 2010.05.17/outbox.cif.g08.bks.cpg/sg12_63_cif.got.tgz:125601.got - 2010.06.03 13:09:07.
