data_PCOD9189048
_publ_section_title
;
Structure prediction by ZEFSAII (Michael W. Deem and Ramdas Pophale) SiO2 
 PCOD9189048
Probable space group: C 2/M
;
_chemical_formula_sum "Si O2"
_cell_formula_units_Z 40
_cell_length_a 11.114525
_cell_length_b 15.192150
_cell_length_c 11.624123
_cell_angle_alpha 90.000000
_cell_angle_beta 105.377844
_cell_angle_gamma 90.000000
_cell_volume 1892.503013
_symmetry_space_group_name_H-M "C 2/M"
_symmetry_group_IT_number 12
_symmetry_cell_setting 'monoclinic'
loop_
_space_group_symop_operation_xyz
x,y,z
-x,y,-z
-x,-y,-z
x,-y,z
1/2+x,1/2+y,z
1/2-x,1/2+y,-z
1/2-x,1/2-y,-z
1/2+x,1/2-y,z
loop_
_atom_site_type_symbol
_atom_site_label
_atom_site_fract_x
_atom_site_fract_y
_atom_site_fract_z
Si Si1 0.685569 0.000000 0.600741
Si Si2 0.139504 0.152684 0.423415
Si Si3 0.862966 0.098155 0.327566
Si Si4 0.274808 0.735933 0.139769
Si Si5 0.553287 0.000000 0.318265
Si Si6 0.053070 0.697152 0.248066
O O1 0.760613 0.907402 0.617257
O O2 0.617768 0.000000 0.459735
O O3 0.592530 0.000000 0.683348
O O4 0.170173 0.153167 0.566580
O O5 0.100185 0.249268 0.371801
O O6 0.012044 0.099014 0.370245
O O7 0.817931 0.140611 0.198290
O O8 0.817043 0.000000 0.332355
O O9 0.141247 0.743591 0.172969
O O10 0.403292 0.789540 0.199718
O O11 0.250000 0.750000 0.000000
O O12 0.577945 0.907078 0.261825
#
# Coordination Sequence:
#
# PCOD9189048 Si02
#       6
#     4   8   8   8   4   8
#     4  11  20  35  60  95 153 166 221 263 343 420
#     4  10  19  36  68  99 135 175 217 283 337 408
#     4  10  19  36  67 103 130 168 228 278 341 400
#     4  11  25  45  69  94 132 179 237 283 335 395
#     4  11  26  38  59 101 140 187 219 267 345 420
#     4  11  25  45  69  98 140 180 231 280 347 401
#
# _framework density 21.136030000000002
#
# number of rings (size 3 to 8) (size 9 to 14) (size 15 to 20)
#    0.000    1.400    2.000    3.600    1.400    9.600 
#    1.800    1.000    0.000    2.400    0.000    0.000 
#    0.000    0.000    0.000    0.000    0.000    0.000 
#
# Total GULP energy -111468.527798 kJ/mol
# GULP energy per Si atom -5573.426390 kJ/mol
# Density = 2.108792 g / cm^3
# Si number density = 21.136030 Si / 1000 Ang^3
#
#
#
# Elastic Constant Matrix: (Units=GPa)
#
#
# Indices 1 2 3 4 5 6 
#
# 1 127.6808 44.2716 29.0146 0.0000 -0.1087 0.0000
# 2 44.2716 131.6904 62.2704 0.0000 4.8663 0.0000
# 3 29.0146 62.2704 117.6722 0.0000 -5.2567 0.0000
# 4 0.0000 0.0000 0.0000 3.0648 0.0000 -7.4175
# 5 -0.1087 4.8663 -5.2567 0.0000 31.5810 0.0000
# 6 0.0000 0.0000 0.0000 -7.4175 0.0000 38.4010
#
#
#
# Elastic Compliance Matrix: (Units=1/GPa)
#
#
# Indices 1 2 3 4 5 6 
#
# 1 0.008927 -0.002638 -0.000791 0.000000 0.000305 0.000000
# 2 -0.002638 0.011103 -0.005341 0.000000 -0.002609 0.000000
# 3 -0.000791 -0.005341 0.011643 0.000000 0.002758 0.000000
# 4 0.000000 0.000000 0.000000 0.612728 0.000000 0.118354
# 5 0.000305 -0.002609 0.002758 0.000000 0.032527 0.000000
# 6 0.000000 0.000000 0.000000 0.118354 0.000000 0.048902
#
#
# Mechanical properties :
#
#
# Convention : Reuss Voigt Hill
#
# Bulk Modulus (GPa) = 70.76763 72.01740 71.39252
# Shear Modulus (GPa) = 6.68376 30.70849 18.69613
#
# Velocity S-wave (km/s) = 1.78020 3.81582 2.97738
# Velocity P-wave (km/s) = 6.14656 7.31856 6.75801
#
# Compressibility (1/GPa) = 0.01413075
#
# Stress axis : x y z
#
# Youngs Moduli (GPa) = 112.02151 90.06952 85.88766
#
# Poissons Ratio (x) = 0.23761 0.06797
# Poissons Ratio (y) = 0.29552 0.45876
# Poissons Ratio (z) = 0.08866 0.48109
#
# Static dielectric constant tensor:
#      x y z
#    x 1.912010 0.000000 0.018760 
#    y 0.000000 1.783950 0.000000 
#    z 0.018760 0.000000 1.715410 
# 
# From -- ./inp_files/129847.got.cif
#   From: 2010.05.17/outbox.cif.g08.bks.cpg/sg12_65_cif.got.tgz:129847.got - 2010.06.03 13:09:07.
