data_PCOD9189673
_publ_section_title
;
Structure prediction by ZEFSAII (Michael W. Deem and Ramdas Pophale) SiO2 
 PCOD9189673
Probable space group: C 2/M
;
_chemical_formula_sum "Si O2"
_cell_formula_units_Z 56
_cell_length_a 11.305489
_cell_length_b 33.599708
_cell_length_c 9.444405
_cell_angle_alpha 90.000000
_cell_angle_beta 55.219222
_cell_angle_gamma 90.000000
_cell_volume 2946.610719
_symmetry_space_group_name_H-M "C 2/M"
_symmetry_group_IT_number 12
_symmetry_cell_setting 'monoclinic'
loop_
_space_group_symop_operation_xyz
x,y,z
-x,y,-z
-x,-y,-z
x,-y,z
1/2+x,1/2+y,z
1/2-x,1/2+y,-z
1/2-x,1/2-y,-z
1/2+x,1/2-y,z
loop_
_atom_site_type_symbol
_atom_site_label
_atom_site_fract_x
_atom_site_fract_y
_atom_site_fract_z
Si Si1 0.162037 0.588856 0.842756
Si Si2 0.577349 0.760261 0.602657
Si Si3 0.640040 0.545143 0.503347
Si Si4 0.740434 0.125780 0.063339
Si Si5 0.332396 0.382414 0.308171
Si Si6 0.083186 0.648373 0.669905
Si Si7 0.044065 0.189518 0.132191
O O1 0.228600 0.557607 0.689064
O O2 0.157571 0.630859 0.760530
O O3 0.252753 0.596402 0.922390
O O4 0.000000 0.578763 0.000000
O O5 0.500000 0.760696 0.500000
O O6 0.750000 0.750000 0.500000
O O7 0.567388 0.804585 0.671585
O O8 0.488281 0.727859 0.752961
O O9 0.500000 0.547901 0.500000
O O10 0.655256 0.500000 0.544399
O O11 0.631747 0.577669 0.632438
O O12 0.823993 0.112206 0.145713
O O13 0.574117 0.129247 0.218716
O O14 0.799026 0.169481 0.980554
O O15 0.180502 0.366511 0.473354
O O16 0.444429 0.346672 0.257162
O O17 0.000000 0.197955 0.000000
#
# Coordination Sequence:
#
# PCOD9189673 Si02
#       7
#     8   8   8   8   8   8   8
#     4   9  20  37  60  86 114 152 194 237 296 349
#     4  12  26  41  60  87 124 165 210 256 306 360
#     4  10  21  37  60  87 116 150 189 234 289 361
#     4  10  20  35  59  87 110 154 195 250 291 348
#     4  10  19  38  60  80 114 152 194 239 292 357
#     4  10  21  38  59  80 117 156 202 242 295 353
#     4  10  23  37  57  84 117 152 202 247 304 345
#
# _framework density 19.004885999999999
#
# number of rings (size 3 to 8) (size 9 to 14) (size 15 to 20)
#    0.000    1.857    1.429    2.143    4.000    3.143 
#    0.000    0.714    0.000   16.714    0.000    0.000 
#    0.000    0.000    0.000    0.000    0.000    0.000 
#
# Total GULP energy -156211.913814 kJ/mol
# GULP energy per Si atom -5578.996922 kJ/mol
# Density = 1.896163 g / cm^3
# Si number density = 19.004886 Si / 1000 Ang^3
#
#
#
# Elastic Constant Matrix: (Units=GPa)
#
#
# Indices 1 2 3 4 5 6 
#
# 1 56.6836 26.2399 28.2588 0.0000 2.9551 0.0000
# 2 26.2399 134.5605 41.0467 0.0000 19.0094 0.0000
# 3 28.2588 41.0467 81.9506 0.0000 1.5155 0.0000
# 4 0.0000 0.0000 0.0000 15.8619 0.0000 -0.4013
# 5 2.9551 19.0094 1.5155 0.0000 23.6299 0.0000
# 6 0.0000 0.0000 0.0000 -0.4013 0.0000 14.4825
#
#
#
# Elastic Compliance Matrix: (Units=1/GPa)
#
#
# Indices 1 2 3 4 5 6 
#
# 1 0.021908 -0.002238 -0.006424 0.000000 -0.000527 0.000000
# 2 -0.002238 0.010240 -0.004215 0.000000 -0.007687 0.000000
# 3 -0.006424 -0.004215 0.016471 0.000000 0.003138 0.000000
# 4 0.000000 0.000000 0.000000 0.063088 0.000000 0.001748
# 5 -0.000527 -0.007687 0.003138 0.000000 0.048368 0.000000
# 6 0.000000 0.000000 0.000000 0.001748 0.000000 0.069098
#
#
# Mechanical properties :
#
#
# Convention : Reuss Voigt Hill
#
# Bulk Modulus (GPa) = 43.73525 51.58727 47.66126
# Shear Modulus (GPa) = 19.04421 22.63814 20.84118
#
# Velocity S-wave (km/s) = 3.16898 3.45508 3.31512
# Velocity P-wave (km/s) = 6.03759 6.56658 6.30763
#
# Compressibility (1/GPa) = 0.02286485
#
# Stress axis : x y z
#
# Youngs Moduli (GPa) = 45.64592 97.65851 60.71423
#
# Poissons Ratio (x) = 0.21857 0.39000
# Poissons Ratio (y) = 0.10216 0.25590
# Poissons Ratio (z) = 0.29321 0.41162
#
# Static dielectric constant tensor:
#      x y z
#    x 1.695800 0.000000 -0.007760 
#    y 0.000000 1.620730 0.000000 
#    z -0.007760 0.000000 1.678540 
# 
# From -- ./inp_files/54596.got.cif
#   From: 2010.05.17/outbox.cif.g08.bks.cpg/sg12_28_cif.got.tgz:54596.got - 2010.06.03 13:09:07.
