data_PCOD9189434
_publ_section_title
;
Structure prediction by ZEFSAII (Michael W. Deem and Ramdas Pophale) SiO2 
 PCOD9189434
Probable space group: C 2/M
;
_chemical_formula_sum "Si O2"
_cell_formula_units_Z 56
_cell_length_a 19.451275
_cell_length_b 7.792384
_cell_length_c 19.385204
_cell_angle_alpha 90.000000
_cell_angle_beta 120.643813
_cell_angle_gamma 90.000000
_cell_volume 2527.931090
_symmetry_space_group_name_H-M "C 2/M"
_symmetry_group_IT_number 12
_symmetry_cell_setting 'monoclinic'
loop_
_space_group_symop_operation_xyz
x,y,z
-x,y,-z
-x,-y,-z
x,-y,z
1/2+x,1/2+y,z
1/2-x,1/2+y,-z
1/2-x,1/2-y,-z
1/2+x,1/2-y,z
loop_
_atom_site_type_symbol
_atom_site_label
_atom_site_fract_x
_atom_site_fract_y
_atom_site_fract_z
Si Si1 0.427895 0.709605 0.916884
Si Si2 0.103104 0.302808 0.356050
Si Si3 0.920534 0.289234 0.500919
Si Si4 0.253662 0.290437 0.818461
Si Si5 0.325673 0.204886 0.086225
Si Si6 0.242873 0.704681 0.655589
Si Si7 0.499379 0.300544 0.814402
O O1 0.430873 0.500000 0.919206
O O2 0.339791 0.761266 0.892961
O O3 0.442186 0.764081 0.845799
O O4 0.500000 0.773721 0.000000
O O5 0.123886 0.500000 0.378148
O O6 0.085083 0.228914 0.422467
O O7 0.178282 0.232927 0.350617
O O8 0.024305 0.290327 0.268174
O O9 0.922649 0.500000 0.502191
O O10 0.838394 0.233782 0.422065
O O11 0.000000 0.234582 0.500000
O O12 0.252083 0.500000 0.816128
O O13 0.190269 0.236153 0.843080
O O14 0.247358 0.228887 0.736682
O O15 0.411206 0.281974 0.111232
O O16 0.333752 0.000000 0.089522
O O17 0.250000 0.250000 0.000000
O O18 0.235442 0.500000 0.658227
O O19 0.482245 0.500000 0.794092
#
# Coordination Sequence:
#
# PCOD9189434 Si02
#       7
#     8   8   8   8   8   8   8
#     4   9  16  30  55  82 105 138 191 240 275 329
#     4  11  22  37  59  89 122 152 188 242 300 351
#     4   9  20  36  60  89 115 152 201 242 281 347
#     4   9  18  33  57  85 109 149 201 240 279 343
#     4  11  23  39  60  87 120 158 200 247 297 349
#     4  10  19  37  63  86 112 152 202 245 286 347
#     4  11  22  38  61  86 117 156 198 243 291 350
#
# _framework density 22.152502999999999
#
# number of rings (size 3 to 8) (size 9 to 14) (size 15 to 20)
#    0.000    2.000    1.429    2.571    2.000    2.286 
#    0.000    2.143    0.000    3.857    0.000    0.000 
#    0.000    0.000    0.000    0.000    0.000    0.000 
#
# Total GULP energy -156324.058690 kJ/mol
# GULP energy per Si atom -5583.002096 kJ/mol
# Density = 2.210208 g / cm^3
# Si number density = 22.152503 Si / 1000 Ang^3
#
#
#
# Elastic Constant Matrix: (Units=GPa)
#
#
# Indices 1 2 3 4 5 6 
#
# 1 87.3662 -1.0262 17.7318 0.0000 -1.6828 0.0000
# 2 -1.0262 27.9927 0.8254 0.0000 -5.5084 0.0000
# 3 17.7318 0.8254 103.1924 0.0000 -1.8890 0.0000
# 4 0.0000 0.0000 0.0000 14.9997 0.0000 -1.3110
# 5 -1.6828 -5.5084 -1.8890 0.0000 38.1055 0.0000
# 6 0.0000 0.0000 0.0000 -1.3110 0.0000 10.9974
#
#
#
# Elastic Compliance Matrix: (Units=1/GPa)
#
#
# Indices 1 2 3 4 5 6 
#
# 1 0.011876 0.000596 -0.002036 0.000000 0.000510 0.000000
# 2 0.000596 0.036803 -0.000299 0.000000 0.005332 0.000000
# 3 -0.002036 -0.000299 0.010050 0.000000 0.000365 0.000000
# 4 0.000000 0.000000 0.000000 0.067370 0.000000 0.008031
# 5 0.000510 0.005332 0.000365 0.000000 0.027054 0.000000
# 6 0.000000 0.000000 0.000000 0.008031 0.000000 0.091888
#
#
# Mechanical properties :
#
#
# Convention : Reuss Voigt Hill
#
# Bulk Modulus (GPa) = 18.09954 28.17926 23.13940
# Shear Modulus (GPa) = 18.73101 26.22187 22.47644
#
# Velocity S-wave (km/s) = 2.91099 3.44422 3.18877
# Velocity P-wave (km/s) = 4.41436 5.34463 4.90162
#
# Compressibility (1/GPa) = 0.05525001
#
# Stress axis : x y z
#
# Youngs Moduli (GPa) = 84.20239 27.17137 99.50662
#
# Poissons Ratio (x) = -0.01619 0.20261
# Poissons Ratio (y) = -0.05016 0.02977
# Poissons Ratio (z) = 0.17145 0.00813
#
# Static dielectric constant tensor:
#      x y z
#    x 1.772950 0.000000 -0.016070 
#    y 0.000000 1.826750 0.000000 
#    z -0.016070 0.000000 1.824940 
# 
# From -- ./inp_files/281727.got.cif
#   From: 2010.05.17/outbox.cif.g08.bks.cpg/sg12_141_cif.got.tgz:281727.got - 2010.06.03 13:09:07.
