data_PCOD9189154
_publ_section_title
;
Structure prediction by ZEFSAII (Michael W. Deem and Ramdas Pophale) SiO2 
 PCOD9189154
Probable space group: C 2/M
;
_chemical_formula_sum "Si O2"
_cell_formula_units_Z 42
_cell_length_a 7.073252
_cell_length_b 12.603795
_cell_length_c 20.815705
_cell_angle_alpha 90.000000
_cell_angle_beta 122.103500
_cell_angle_gamma 90.000000
_cell_volume 1571.957730
_symmetry_space_group_name_H-M "C 2/M"
_symmetry_group_IT_number 12
_symmetry_cell_setting 'monoclinic'
loop_
_space_group_symop_operation_xyz
x,y,z
-x,y,-z
-x,-y,-z
x,-y,z
1/2+x,1/2+y,z
1/2-x,1/2+y,-z
1/2-x,1/2-y,-z
1/2+x,1/2-y,z
loop_
_atom_site_type_symbol
_atom_site_label
_atom_site_fract_x
_atom_site_fract_y
_atom_site_fract_z
Si Si1 0.682381 0.654894 0.129643
Si Si2 0.696984 0.380026 0.484307
Si Si3 0.000000 0.000000 0.000000
Si Si4 0.558092 0.886432 0.299408
Si Si5 0.324785 0.655375 0.668335
Si Si6 0.702190 0.614103 0.838334
O O1 0.912291 0.630266 0.208545
O O2 0.482096 0.613440 0.138364
O O3 0.656548 0.781352 0.123900
O O4 0.659272 0.592970 0.060173
O O5 0.500000 0.386738 0.500000
O O6 0.811276 0.500000 0.517606
O O7 0.750000 0.250000 0.500000
O O8 0.672521 0.383539 0.403068
O O9 0.702980 0.782749 0.335211
O O10 0.376761 0.885235 0.324059
O O11 0.672157 0.000000 0.318641
O O12 0.554829 0.629682 0.747222
O O13 0.814451 0.500000 0.857925
#
# Coordination Sequence:
#
# PCOD9189154 Si02
#       6
#     8   8   2   8   8   8
#     4  10  21  37  61  84 116 155 184 239 289 344
#     4  11  24  40  58  87 124 159 197 240 298 359
#     4  12  20  40  62  82 124 156 180 228 306 344
#     4  10  19  37  58  86 113 146 199 241 286 336
#     4  10  20  36  63  84 113 156 192 244 292 333
#     4  10  20  41  60  87 114 146 202 240 280 335
#
# _framework density 26.718277
#
# number of rings (size 3 to 8) (size 9 to 14) (size 15 to 20)
#    0.000    1.714    1.905    4.000    0.000    1.905 
#    1.714   11.905    0.000    0.000    0.000    0.000 
#    0.000    0.000    0.000    0.000    0.000    0.000 
#
# Total GULP energy -117229.585492 kJ/mol
# GULP energy per Si atom -5582.361214 kJ/mol
# Density = 2.665746 g / cm^3
# Si number density = 26.718277 Si / 1000 Ang^3
#
#
#
# Elastic Constant Matrix: (Units=GPa)
#
#
# Indices 1 2 3 4 5 6 
#
# 1 64.4230 37.4034 -11.6383 0.0000 -3.1552 0.0000
# 2 37.4034 348.5303 54.2378 0.0000 9.3540 0.0000
# 3 -11.6383 54.2378 -34.9291 0.0000 48.4889 0.0000
# 4 0.0000 0.0000 0.0000 50.2255 0.0000 -8.0260
# 5 -3.1552 9.3540 48.4889 0.0000 2.9162 0.0000
# 6 0.0000 0.0000 0.0000 -8.0260 0.0000 48.0877
#
#
#
# Elastic Compliance Matrix: (Units=1/GPa)
#
#
# Indices 1 2 3 4 5 6 
#
# 1 0.017391 -0.002241 0.001114 0.000000 0.007483 0.000000
# 2 -0.002241 0.003312 -0.000508 0.000000 -0.004608 0.000000
# 3 0.001114 -0.000508 -0.001074 0.000000 0.020685 0.000000
# 4 0.000000 0.000000 0.000000 0.020456 0.000000 0.003414
# 5 0.007483 -0.004608 0.020685 0.000000 0.021851 0.000000
# 6 0.000000 0.000000 0.000000 0.003414 0.000000 0.021365
#
#
# Mechanical properties :
#
#
# Convention : Reuss Voigt Hill
#
# Bulk Modulus (GPa) = 61.12088 59.78112 60.45100
# Shear Modulus (GPa) = 54.33362 40.11398 47.22380
#
# Velocity S-wave (km/s) = 4.51441 3.87895 4.20869
# Velocity P-wave (km/s) = 7.07806 6.51804 6.80382
#
# Compressibility (1/GPa) = 0.01636102
#
# Stress axis : x y z
#
# Youngs Moduli (GPa) = 57.50128 301.90378 -931.40512
#
# Poissons Ratio (x) = 0.67642 1.03743
# Poissons Ratio (y) = 0.12883 -0.47279
# Poissons Ratio (z) = -0.06405 0.15325
#
# Static dielectric constant tensor:
#      x y z
#    x 2.088160 0.000000 0.012120 
#    y 0.000000 2.098100 0.000000 
#    z 0.012120 0.000000 2.084110 
# 
# From -- ./inp_files/299395.got.cif
#   From: 2010.05.17/outbox.cif.g08.bks.cpg/sg12_150_cif.got.tgz:299395.got - 2010.06.03 13:09:07.
