data_PCOD9189062
_publ_section_title
;
Structure prediction by ZEFSAII (Michael W. Deem and Ramdas Pophale) SiO2 
 PCOD9189062
Probable space group: C 2/M
;
_chemical_formula_sum "Si O2"
_cell_formula_units_Z 56
_cell_length_a 19.077905
_cell_length_b 27.221141
_cell_length_c 15.397284
_cell_angle_alpha 90.000000
_cell_angle_beta 158.067504
_cell_angle_gamma 90.000000
_cell_volume 2986.674961
_symmetry_space_group_name_H-M "C 2/M"
_symmetry_group_IT_number 12
_symmetry_cell_setting 'monoclinic'
loop_
_space_group_symop_operation_xyz
x,y,z
-x,y,-z
-x,-y,-z
x,-y,z
1/2+x,1/2+y,z
1/2-x,1/2+y,-z
1/2-x,1/2-y,-z
1/2+x,1/2-y,z
loop_
_atom_site_type_symbol
_atom_site_label
_atom_site_fract_x
_atom_site_fract_y
_atom_site_fract_z
Si Si1 0.884241 0.720047 0.724240
Si Si2 0.323379 0.443092 0.535904
Si Si3 0.435664 0.701440 0.517868
Si Si4 0.253099 0.773119 0.100654
Si Si5 0.538771 0.888966 0.864327
Si Si6 0.214367 0.942985 0.713980
Si Si7 0.865146 0.868021 0.110710
O O1 0.750000 0.750000 0.500000
O O2 0.771677 0.712663 0.685023
O O3 0.947917 0.665399 0.767309
O O4 0.079155 0.749543 0.951859
O O5 0.362724 0.500000 0.594458
O O6 0.293551 0.434615 0.397934
O O7 0.493476 0.408770 0.760529
O O8 0.127834 0.425764 0.350330
O O9 0.500000 0.677889 0.500000
O O10 0.547713 0.752703 0.642304
O O11 0.518133 0.666466 0.687984
O O12 0.250000 0.750000 0.000000
O O13 0.221155 0.830679 0.057803
O O14 0.645157 0.906885 0.074209
O O15 0.697655 0.889910 0.974258
O O16 0.000000 0.938448 0.500000
O O17 0.273623 0.000000 0.797871
#
# Coordination Sequence:
#
# PCOD9189062 Si02
#       7
#     8   8   8   8   8   8   8
#     4  12  20  36  56  73 102 140 177 218 272 320
#     4  11  23  35  48  70  99 137 182 224 264 304
#     4  11  23  34  53  81 108 134 180 229 259 309
#     4  10  19  37  53  75 100 136 177 212 269 323
#     4  12  21  31  52  71  90 137 182 218 260 314
#     4  10  21  35  47  63  99 139 174 224 270 297
#     4  11  21  35  55  71 103 141 179 217 265 316
#
# _framework density 18.749948
#
# number of rings (size 3 to 8) (size 9 to 14) (size 15 to 20)
#    0.000    1.000    8.571    0.857    2.000    3.429 
#    0.000    0.000    0.000    0.000    0.000    0.000 
#    0.000    0.571    0.000   11.000    0.000    8.143 
#
# Total GULP energy -156267.601839 kJ/mol
# GULP energy per Si atom -5580.985780 kJ/mol
# Density = 1.870727 g / cm^3
# Si number density = 18.749948 Si / 1000 Ang^3
#
#
#
# Elastic Constant Matrix: (Units=GPa)
#
#
# Indices 1 2 3 4 5 6 
#
# 1 42.2450 -8.0391 14.1109 0.0000 24.1632 0.0000
# 2 -8.0391 98.9929 30.0101 0.0000 -0.8666 0.0000
# 3 14.1109 30.0101 57.0480 -0.0001 33.0612 -0.0001
# 4 0.0000 0.0000 -0.0001 26.2730 0.0000 3.7650
# 5 24.1632 -0.8666 33.0612 0.0000 38.7565 0.0000
# 6 0.0000 0.0000 -0.0001 3.7650 0.0000 21.3613
#
#
#
# Elastic Compliance Matrix: (Units=1/GPa)
#
#
# Indices 1 2 3 4 5 6 
#
# 1 0.038896 0.000334 0.008411 0.000000 -0.031417 0.000000
# 2 0.000334 0.015110 -0.016032 0.000000 0.013806 0.000000
# 3 0.008411 -0.016032 0.053654 0.000000 -0.051372 0.000000
# 4 0.000000 0.000000 0.000000 0.039048 0.000000 -0.006882
# 5 -0.031417 0.013806 -0.051372 0.000000 0.089521 0.000000
# 6 0.000000 0.000000 0.000000 -0.006882 0.000000 0.048027
#
#
# Mechanical properties :
#
#
# Convention : Reuss Voigt Hill
#
# Bulk Modulus (GPa) = 10.74289 30.04999 20.39644
# Shear Modulus (GPa) = 15.15800 28.09177 21.62488
#
# Velocity S-wave (km/s) = 2.84637 3.87490 3.39976
# Velocity P-wave (km/s) = 4.06749 6.00677 5.12961
#
# Compressibility (1/GPa) = 0.09308486
#
# Stress axis : x y z
#
# Youngs Moduli (GPa) = 25.70990 66.18171 18.63787
#
# Poissons Ratio (x) = -0.02209 -0.15676
# Poissons Ratio (y) = -0.00858 0.29881
# Poissons Ratio (z) = -0.21625 1.06104
#
# Static dielectric constant tensor:
#      x y z
#    x 1.667530 0.000000 -0.016640 
#    y 0.000000 1.689530 0.000000 
#    z -0.016640 0.000000 1.701190 
# 
# From -- ./inp_files/286637.got.cif
#   From: 2010.05.17/outbox.cif.g08.bks.cpg/sg12_144_cif.got.tgz:286637.got - 2010.06.03 13:09:07.
