data_PCOD9189395
_publ_section_title
;
Structure prediction by ZEFSAII (Michael W. Deem and Ramdas Pophale) SiO2 
 PCOD9189395
Probable space group: C 2/M
;
_chemical_formula_sum "Si O2"
_cell_formula_units_Z 64
_cell_length_a 30.467612
_cell_length_b 8.685854
_cell_length_c 12.063750
_cell_angle_alpha 90.000000
_cell_angle_beta 93.012481
_cell_angle_gamma 90.000000
_cell_volume 3188.105672
_symmetry_space_group_name_H-M "C 2/M"
_symmetry_group_IT_number 12
_symmetry_cell_setting 'monoclinic'
loop_
_space_group_symop_operation_xyz
x,y,z
-x,y,-z
-x,-y,-z
x,-y,z
1/2+x,1/2+y,z
1/2-x,1/2+y,-z
1/2-x,1/2-y,-z
1/2+x,1/2-y,z
loop_
_atom_site_type_symbol
_atom_site_label
_atom_site_fract_x
_atom_site_fract_y
_atom_site_fract_z
Si Si1 0.107871 0.813532 0.012227
Si Si2 0.162722 0.183422 0.682899
Si Si3 0.077934 0.318360 0.786038
Si Si4 0.263705 0.182258 0.726315
Si Si5 0.500611 0.313644 0.371339
Si Si6 0.793655 0.181835 0.951668
Si Si7 0.827703 0.184349 0.575177
Si Si8 0.590000 0.312775 0.261811
O O1 0.078059 0.749510 0.910193
O O2 0.106972 0.000000 0.008749
O O3 0.158748 0.763543 0.000118
O O4 0.094226 0.764083 0.134389
O O5 0.125024 0.273978 0.740363
O O6 0.212232 0.220625 0.727000
O O7 0.161131 0.212640 0.551115
O O8 0.155874 0.000000 0.700500
O O9 0.072424 0.500000 0.789219
O O10 0.040839 0.245778 0.702867
O O11 0.290106 0.276258 0.822067
O O12 0.284727 0.227896 0.612145
O O13 0.268271 0.000000 0.745929
O O14 0.500000 0.264204 0.500000
O O15 0.499549 0.500000 0.370840
O O16 0.545231 0.263355 0.315626
O O17 0.792487 0.000000 0.967944
O O18 0.750000 0.250000 0.000000
O O19 0.868275 0.233415 0.658508
O O20 0.820900 0.000000 0.586233
O O21 0.590206 0.500000 0.261186
#
# Coordination Sequence:
#
# PCOD9189395 Si02
#       8
#     8   8   8   8   8   8   8   8
#     4  10  21  40  62  84 116 158 207 253 295 354
#     4  10  22  39  60  85 119 163 209 252 296 361
#     4  12  26  41  60  89 125 158 196 250 312 364
#     4  11  22  35  54  87 124 160 201 247 305 367
#     4  10  21  41  70  97 121 155 200 244 294 364
#     4  11  22  37  58  83 116 160 208 261 306 354
#     4  10  19  37  62  88 119 156 203 253 299 354
#     4   9  18  36  64  92 115 152 204 251 296 353
#
# _framework density 20.074617
#
# number of rings (size 3 to 8) (size 9 to 14) (size 15 to 20)
#    0.000    1.625    1.250    3.750    0.000    8.250 
#    0.000    3.750    0.000    0.000    0.000    0.000 
#    0.000    0.000    0.000    0.000    0.000    0.000 
#
# Total GULP energy -178869.331918 kJ/mol
# GULP energy per Si atom -5589.666622 kJ/mol
# Density = 2.002893 g / cm^3
# Si number density = 20.074617 Si / 1000 Ang^3
#
#
#
# Elastic Constant Matrix: (Units=GPa)
#
#
# Indices 1 2 3 4 5 6 
#
# 1 102.1576 17.0592 36.8082 0.0000 1.5819 0.0000
# 2 17.0592 10.6044 10.4779 0.0000 -1.4279 0.0000
# 3 36.8082 10.4779 90.4041 0.0000 14.0294 0.0000
# 4 0.0000 0.0000 0.0000 18.9959 0.0000 -1.8033
# 5 1.5819 -1.4279 14.0294 0.0000 37.2325 0.0000
# 6 0.0000 0.0000 0.0000 -1.8033 0.0000 24.3068
#
#
#
# Elastic Compliance Matrix: (Units=1/GPa)
#
#
# Indices 1 2 3 4 5 6 
#
# 1 0.014339 -0.019539 -0.003571 0.000000 -0.000013 0.000000
# 2 -0.019539 0.136228 -0.009318 0.000000 0.009566 0.000000
# 3 -0.003571 -0.009318 0.014474 0.000000 -0.005659 0.000000
# 4 0.000000 0.000000 0.000000 0.053016 0.000000 0.003933
# 5 -0.000013 0.009566 -0.005659 0.000000 0.029358 0.000000
# 6 0.000000 0.000000 0.000000 0.003933 0.000000 0.041433
#
#
# Mechanical properties :
#
#
# Convention : Reuss Voigt Hill
#
# Bulk Modulus (GPa) = 9.98174 36.87296 23.42735
# Shear Modulus (GPa) = 12.91660 25.36175 19.13918
#
# Velocity S-wave (km/s) = 2.53934 3.55825 3.09107
# Velocity P-wave (km/s) = 3.68521 5.94049 4.94319
#
# Compressibility (1/GPa) = 0.10018290
#
# Stress axis : x y z
#
# Youngs Moduli (GPa) = 69.74157 7.34065 69.09061
#
# Poissons Ratio (x) = 0.14343 0.24675
# Poissons Ratio (y) = 1.36271 0.64378
# Poissons Ratio (z) = 0.24907 0.06840
#
# Static dielectric constant tensor:
#      x y z
#    x 1.699470 0.000000 -0.007360 
#    y 0.000000 1.674110 0.000000 
#    z -0.007360 0.000000 1.732590 
# 
# From -- ./inp_files/187513.got.cif
#   From: 2010.05.17/outbox.cif.g08.bks.cpg/sg12_94_cif.got.tgz:187513.got - 2010.06.03 13:09:07.
