data_PCOD9189778
_publ_section_title
;
Structure prediction by ZEFSAII (Michael W. Deem and Ramdas Pophale) SiO2 
 PCOD9189778
Probable space group: C 2/M
;
_chemical_formula_sum "Si O2"
_cell_formula_units_Z 64
_cell_length_a 25.086525
_cell_length_b 8.620651
_cell_length_c 15.670056
_cell_angle_alpha 90.000000
_cell_angle_beta 87.278788
_cell_angle_gamma 90.000000
_cell_volume 3385.019053
_symmetry_space_group_name_H-M "C 2/M"
_symmetry_group_IT_number 12
_symmetry_cell_setting 'monoclinic'
loop_
_space_group_symop_operation_xyz
x,y,z
-x,y,-z
-x,-y,-z
x,-y,z
1/2+x,1/2+y,z
1/2-x,1/2+y,-z
1/2-x,1/2-y,-z
1/2+x,1/2-y,z
loop_
_atom_site_type_symbol
_atom_site_label
_atom_site_fract_x
_atom_site_fract_y
_atom_site_fract_z
Si Si1 0.530155 0.312536 0.909060
Si Si2 0.336570 0.814842 0.525592
Si Si3 0.764928 0.185366 0.180012
Si Si4 0.452525 0.687816 0.566637
Si Si5 0.848510 0.814361 0.865578
Si Si6 0.642929 0.816148 0.945150
Si Si7 0.272145 0.686781 0.373928
Si Si8 0.453781 0.311412 0.760374
O O1 0.535772 0.500000 0.906922
O O2 0.587806 0.236075 0.906468
O O3 0.495906 0.263236 0.829492
O O4 0.500000 0.273864 0.000000
O O5 0.393725 0.742467 0.542965
O O6 0.313914 0.763069 0.435378
O O7 0.288234 0.767821 0.593481
O O8 0.341353 0.000000 0.528697
O O9 0.708612 0.262654 0.163629
O O10 0.808253 0.239168 0.108566
O O11 0.781694 0.227567 0.275039
O O12 0.758862 0.000000 0.176671
O O13 0.500000 0.739506 0.500000
O O14 0.452230 0.500000 0.566034
O O15 0.463354 0.740773 0.663070
O O16 0.895335 0.764421 0.797784
O O17 0.850930 0.000000 0.873746
O O18 0.858120 0.742200 0.957566
O O19 0.648921 0.000000 0.943012
O O20 0.275852 0.500000 0.383075
O O21 0.455015 0.500000 0.759463
#
# Coordination Sequence:
#
# PCOD9189778 Si02
#       8
#     8   8   8   8   8   8   8   8
#     4  10  19  38  63  84 111 150 197 244 287 341
#     4  10  20  36  60  87 116 148 189 239 291 340
#     4  11  23  39  58  84 117 153 193 237 290 348
#     4  10  21  37  57  84 118 154 193 235 284 346
#     4  11  21  38  61  84 112 150 195 241 291 346
#     4  12  25  39  56  84 119 154 192 238 293 347
#     4   9  20  38  60  85 114 151 192 235 287 348
#     4   9  19  36  61  87 111 149 196 238 288 346
#
# _framework density 18.906836999999999
#
# number of rings (size 3 to 8) (size 9 to 14) (size 15 to 20)
#    0.000    1.750    1.250    3.375    0.000    3.000 
#    0.000    3.750    0.000    0.000    0.000    0.000 
#    0.000    0.000    0.000    0.000    0.000    0.000 
#
# Total GULP energy -178789.501856 kJ/mol
# GULP energy per Si atom -5587.171933 kJ/mol
# Density = 1.886380 g / cm^3
# Si number density = 18.906837 Si / 1000 Ang^3
#
#
#
# Elastic Constant Matrix: (Units=GPa)
#
#
# Indices 1 2 3 4 5 6 
#
# 1 -37.7653 27.5104 93.0423 0.0000 25.3716 0.0000
# 2 27.5104 57.4086 49.4602 0.0000 -2.0249 0.0000
# 3 93.0423 49.4602 173.4691 0.0000 -10.9505 0.0000
# 4 0.0000 0.0000 0.0000 17.0412 0.0000 5.7651
# 5 25.3716 -2.0249 -10.9505 0.0000 23.3662 0.0000
# 6 0.0000 0.0000 0.0000 5.7651 0.0000 34.2919
#
#
#
# Elastic Compliance Matrix: (Units=1/GPa)
#
#
# Indices 1 2 3 4 5 6 
#
# 1 -0.007649 -0.000094 0.004795 0.000000 0.010545 0.000000
# 2 -0.000094 0.023119 -0.006604 0.000000 -0.000990 0.000000
# 3 0.004795 -0.006604 0.004854 0.000000 -0.003504 0.000000
# 4 0.000000 0.000000 0.000000 0.062220 0.000000 -0.010460
# 5 0.010545 -0.000990 -0.003504 0.000000 0.029619 0.000000
# 6 0.000000 0.000000 0.000000 -0.010460 0.000000 0.030920
#
#
# Mechanical properties :
#
#
# Convention : Reuss Voigt Hill
#
# Bulk Modulus (GPa) = 60.53671 59.23758 59.88715
# Shear Modulus (GPa) = 32.80975 16.47983 24.64479
#
# Velocity S-wave (km/s) = 4.17026 2.95555 3.61430
# Velocity P-wave (km/s) = 7.43478 6.56097 7.01150
#
# Compressibility (1/GPa) = 0.01651890
#
# Stress axis : x y z
#
# Youngs Moduli (GPa) = -130.73035 43.25535 205.99660
#
# Poissons Ratio (x) = 0.00406 -0.98780
# Poissons Ratio (y) = -0.01226 1.36036
# Poissons Ratio (z) = 0.62688 0.28565
#
# Static dielectric constant tensor:
#      x y z
#    x 1.619140 0.000000 -0.001880 
#    y 0.000000 1.635740 0.000000 
#    z -0.001880 0.000000 1.648390 
# 
# From -- ./inp_files/238575.got.cif
#   From: 2010.05.17/outbox.cif.g08.bks.cpg/sg12_120_cif.got.tgz:238575.got - 2010.06.03 13:09:07.
