data_PCOD9189771
_publ_section_title
;
Structure prediction by ZEFSAII (Michael W. Deem and Ramdas Pophale) SiO2 
 PCOD9189771
Probable space group: C 2/M
;
_chemical_formula_sum "Si O2"
_cell_formula_units_Z 54
_cell_length_a 9.243979
_cell_length_b 19.611354
_cell_length_c 17.877139
_cell_angle_alpha 90.000000
_cell_angle_beta 120.771974
_cell_angle_gamma 90.000000
_cell_volume 2784.607571
_symmetry_space_group_name_H-M "C 2/M"
_symmetry_group_IT_number 12
_symmetry_cell_setting 'monoclinic'
loop_
_space_group_symop_operation_xyz
x,y,z
-x,y,-z
-x,-y,-z
x,-y,z
1/2+x,1/2+y,z
1/2-x,1/2+y,-z
1/2-x,1/2-y,-z
1/2+x,1/2-y,z
loop_
_atom_site_type_symbol
_atom_site_label
_atom_site_fract_x
_atom_site_fract_y
_atom_site_fract_z
Si Si1 0.474877 0.315639 0.352723
Si Si2 0.958575 0.688460 0.103752
Si Si3 0.000000 0.500000 0.500000
Si Si4 0.717644 0.331976 0.913670
Si Si5 0.000000 0.256355 0.500000
Si Si6 0.111750 0.374949 0.630665
Si Si7 0.040483 0.081387 0.247130
Si Si8 0.584344 0.816817 0.294321
O O1 0.571501 0.292819 0.454013
O O2 0.510682 0.387180 0.322497
O O3 0.513632 0.256931 0.301987
O O4 0.279748 0.314758 0.325297
O O5 0.894298 0.765939 0.096632
O O6 0.135492 0.687619 0.106476
O O7 0.987860 0.660426 0.194256
O O8 0.820322 0.650382 0.016355
O O9 0.911967 0.440549 0.425614
O O10 0.601929 0.388999 0.845304
O O11 0.117030 0.309148 0.577267
O O12 0.278803 0.385195 0.723650
O O13 0.956594 0.363666 0.645561
O O14 0.043881 0.000000 0.247402
#
# Coordination Sequence:
#
# PCOD9189771 Si02
#       8
#     8   8   2   8   4   8   8   8
#     4  11  22  38  62  94 124 157 208 266 318 366
#     4  10  19  38  62  97 123 151 201 268 314 372
#     4  10  20  48  60  90 120 172 214 246 310 384
#     4  10  22  36  63  94 124 160 202 253 326 367
#     4   9  22  37  63  92 115 148 210 266 313 354
#     4  10  23  39  66  87 120 169 206 257 313 371
#     4  12  24  42  60  85 128 177 208 246 312 390
#     4  11  20  37  66  97 121 154 207 271 316 362
#
# _framework density 19.392319000000001
#
# number of rings (size 3 to 8) (size 9 to 14) (size 15 to 20)
#    0.000    1.481    3.704    1.778    2.074    6.519 
#    1.333    1.852    1.630    0.889    0.000    0.000 
#    0.000    0.000    0.000    0.000    0.000    0.000 
#
# Total GULP energy -150367.231275 kJ/mol
# GULP energy per Si atom -5569.156714 kJ/mol
# Density = 1.934818 g / cm^3
# Si number density = 19.392319 Si / 1000 Ang^3
#
#
#
# Elastic Constant Matrix: (Units=GPa)
#
#
# Indices 1 2 3 4 5 6 
#
# 1 90.2887 12.4834 17.1411 0.0000 8.2248 0.0000
# 2 12.4834 75.7661 26.0870 0.0000 5.8212 0.0000
# 3 17.1411 26.0870 103.5734 0.0000 -6.1056 0.0000
# 4 0.0000 0.0000 0.0000 27.7283 0.0000 4.5824
# 5 8.2248 5.8212 -6.1056 0.0000 30.1701 0.0000
# 6 0.0000 0.0000 0.0000 4.5824 0.0000 5.0330
#
#
#
# Elastic Compliance Matrix: (Units=1/GPa)
#
#
# Indices 1 2 3 4 5 6 
#
# 1 0.011894 -0.001039 -0.001909 0.000000 -0.003428 0.000000
# 2 -0.001039 0.014932 -0.003787 0.000000 -0.003364 0.000000
# 3 -0.001909 -0.003787 0.011131 0.000000 0.003504 0.000000
# 4 0.000000 0.000000 0.000000 0.042452 0.000000 -0.038652
# 5 -0.003428 -0.003364 0.003504 0.000000 0.035438 0.000000
# 6 0.000000 0.000000 0.000000 -0.038652 0.000000 0.233880
#
#
# Mechanical properties :
#
#
# Convention : Reuss Voigt Hill
#
# Bulk Modulus (GPa) = 40.83782 42.33903 41.58842
# Shear Modulus (GPa) = 13.46401 26.84739 20.15570
#
# Velocity S-wave (km/s) = 2.63781 3.72484 3.22742
# Velocity P-wave (km/s) = 5.51197 6.35449 5.94816
#
# Compressibility (1/GPa) = 0.02448711
#
# Stress axis : x y z
#
# Youngs Moduli (GPa) = 84.07660 66.96931 89.83634
#
# Poissons Ratio (x) = 0.06958 0.17148
# Poissons Ratio (y) = 0.08736 0.34024
# Poissons Ratio (z) = 0.16049 0.25364
#
# Static dielectric constant tensor:
#      x y z
#    x 1.724240 0.000000 0.027370 
#    y 0.000000 1.628910 0.000000 
#    z 0.027370 0.000000 1.755690 
# 
# From -- ./inp_files/258272.got.cif
#   From: 2010.05.17/outbox.cif.g08.bks.cpg/sg12_130_cif.got.tgz:258272.got - 2010.06.03 13:09:07.
