data_PCOD9189791
_publ_section_title
;
Structure prediction by ZEFSAII (Michael W. Deem and Ramdas Pophale) SiO2 
 PCOD9189791
Probable space group: C 2/M
;
_chemical_formula_sum "Si O2"
_cell_formula_units_Z 40
_cell_length_a 17.712495
_cell_length_b 27.144162
_cell_length_c 11.360996
_cell_angle_alpha 90.000000
_cell_angle_beta 157.345843
_cell_angle_gamma 90.000000
_cell_volume 2103.887644
_symmetry_space_group_name_H-M "C 2/M"
_symmetry_group_IT_number 12
_symmetry_cell_setting 'monoclinic'
loop_
_space_group_symop_operation_xyz
x,y,z
-x,y,-z
-x,-y,-z
x,-y,z
1/2+x,1/2+y,z
1/2-x,1/2+y,-z
1/2-x,1/2-y,-z
1/2+x,1/2-y,z
loop_
_atom_site_type_symbol
_atom_site_label
_atom_site_fract_x
_atom_site_fract_y
_atom_site_fract_z
Si Si1 0.593747 0.393509 0.753689
Si Si2 0.459865 0.118807 0.573458
Si Si3 0.282912 0.709247 0.737321
Si Si4 0.594988 0.558053 0.010696
Si Si5 0.426270 0.716352 0.204693
O O1 0.500000 0.415286 0.500000
O O2 0.541903 0.335563 0.686462
O O3 0.540865 0.416772 0.806440
O O4 0.828568 0.394922 0.074760
O O5 0.500000 0.139993 0.500000
O O6 0.337292 0.159719 0.468866
O O7 0.322062 0.072039 0.355333
O O8 0.128669 0.753145 0.494692
O O9 0.500000 0.717127 0.000000
O O10 0.342046 0.703029 0.957107
O O11 0.560881 0.500000 0.950647
O O12 0.500000 0.574503 0.000000
O O13 0.250000 0.750000 0.000000
#
# Coordination Sequence:
#
# PCOD9189791 Si02
#       5
#     8   8   8   8   8
#     4  11  23  39  62  95 126 164 213 261 314 372
#     4  10  19  38  63  87 119 164 211 254 304 377
#     4  12  23  37  57  90 124 165 214 266 311 367
#     4  10  22  43  70  94 121 162 209 264 325 381
#     4  12  22  39  59  84 124 173 214 252 306 376
#
# _framework density 19.012422999999998
#
# number of rings (size 3 to 8) (size 9 to 14) (size 15 to 20)
#    0.000    1.000    6.000    3.000    0.000    4.000 
#    0.000    1.000    0.000    2.400    0.000    0.000 
#    0.000    0.000    0.000    0.000    0.000    0.000 
#
# Total GULP energy -111379.330128 kJ/mol
# GULP energy per Si atom -5568.966506 kJ/mol
# Density = 1.896915 g / cm^3
# Si number density = 19.012423 Si / 1000 Ang^3
#
#
#
# Elastic Constant Matrix: (Units=GPa)
#
#
# Indices 1 2 3 4 5 6 
#
# 1 107.6826 37.5918 62.0141 0.0000 0.2177 0.0000
# 2 37.5918 64.3451 20.2428 0.0000 1.7206 0.0000
# 3 62.0141 20.2428 138.6282 0.0001 1.5692 0.0002
# 4 0.0000 0.0000 0.0001 25.1107 0.0000 -1.5696
# 5 0.2177 1.7206 1.5692 0.0000 43.8321 0.0000
# 6 0.0000 0.0000 0.0002 -1.5696 0.0000 42.4188
#
#
#
# Elastic Compliance Matrix: (Units=1/GPa)
#
#
# Indices 1 2 3 4 5 6 
#
# 1 0.015005 -0.006985 -0.005697 0.000000 0.000404 0.000000
# 2 -0.006985 0.019554 0.000278 0.000000 -0.000743 0.000000
# 3 -0.005697 0.000278 0.009725 0.000000 -0.000331 0.000000
# 4 0.000000 0.000000 0.000000 0.039916 0.000000 0.001477
# 5 0.000404 -0.000743 -0.000331 0.000000 0.022853 0.000000
# 6 0.000000 0.000000 0.000000 0.001477 0.000000 0.023629
#
#
# Mechanical properties :
#
#
# Convention : Reuss Voigt Hill
#
# Bulk Modulus (GPa) = 51.34444 61.15038 56.24741
# Shear Modulus (GPa) = 30.86738 34.99281 32.93010
#
# Velocity S-wave (km/s) = 4.03369 4.29479 4.16628
# Velocity P-wave (km/s) = 6.98273 7.53835 7.26586
#
# Compressibility (1/GPa) = 0.01947631
#
# Stress axis : x y z
#
# Youngs Moduli (GPa) = 66.64458 51.13949 102.82520
#
# Poissons Ratio (x) = 0.35720 0.58579
# Poissons Ratio (y) = 0.46550 -0.02854
# Poissons Ratio (z) = 0.37967 -0.01420
#
# Static dielectric constant tensor:
#      x y z
#    x 1.643810 0.000000 -0.020330 
#    y 0.000000 1.515500 0.000000 
#    z -0.020330 0.000000 1.628330 
# 
# From -- ./inp_files/40358.got.cif
#   From: 2010.05.17/outbox.cif.g08.bks.cpg/sg12_21_cif.got.tgz:40358.got - 2010.06.03 13:09:07.
