data_PCOD9189172
_publ_section_title
;
Structure prediction by ZEFSAII (Michael W. Deem and Ramdas Pophale) SiO2 
 PCOD9189172
Probable space group: C 2/M
;
_chemical_formula_sum "Si O2"
_cell_formula_units_Z 44
_cell_length_a 27.185944
_cell_length_b 18.038276
_cell_length_c 6.518957
_cell_angle_alpha 90.000000
_cell_angle_beta 42.057495
_cell_angle_gamma 90.000000
_cell_volume 2141.469923
_symmetry_space_group_name_H-M "C 2/M"
_symmetry_group_IT_number 12
_symmetry_cell_setting 'monoclinic'
loop_
_space_group_symop_operation_xyz
x,y,z
-x,y,-z
-x,-y,-z
x,-y,z
1/2+x,1/2+y,z
1/2-x,1/2+y,-z
1/2-x,1/2-y,-z
1/2+x,1/2-y,z
loop_
_atom_site_type_symbol
_atom_site_label
_atom_site_fract_x
_atom_site_fract_y
_atom_site_fract_z
Si Si1 0.742032 0.826433 0.304730
Si Si2 0.171430 0.584028 0.149278
Si Si3 0.638239 0.784682 0.001089
Si Si4 0.685971 0.417257 0.572911
Si Si5 0.432918 0.583864 0.363690
Si Si6 0.500000 0.312562 0.500000
O O1 0.706044 0.876695 0.241730
O O2 0.677720 0.801017 0.660911
O O3 0.795445 0.758045 0.081484
O O4 0.798461 0.874962 0.267442
O O5 0.144780 0.500000 0.274517
O O6 0.119355 0.642330 0.193475
O O7 0.237160 0.577261 0.781529
O O8 0.564729 0.737305 0.204353
O O9 0.656996 0.500000 0.706045
O O10 0.631982 0.382264 0.573068
O O11 0.411658 0.500000 0.497903
O O12 0.459015 0.635123 0.465099
O O13 0.500000 0.577381 0.000000
#
# Coordination Sequence:
#
# PCOD9189172 Si02
#       6
#     8   8   8   8   8   4
#     4  10  19  37  59  83 111 144 177 224 280 326
#     4  10  20  36  59  82 107 141 183 231 278 324
#     4  10  23  36  55  84 111 141 186 228 268 324
#     4   9  18  32  53  84 114 141 180 223 265 324
#     4  10  21  35  53  81 116 151 185 217 257 324
#     4  12  23  38  57  78 112 156 184 222 277 322
#
# _framework density 20.546634000000001
#
# number of rings (size 3 to 8) (size 9 to 14) (size 15 to 20)
#    0.000    2.000    0.000    3.545    0.000    5.091 
#    0.000    7.727    0.000    2.182    0.000    0.000 
#    0.000    0.000    0.000    0.000    0.000    0.000 
#
# Total GULP energy -122753.411652 kJ/mol
# GULP energy per Si atom -5579.700530 kJ/mol
# Density = 2.049987 g / cm^3
# Si number density = 20.546634 Si / 1000 Ang^3
#
#
#
# Elastic Constant Matrix: (Units=GPa)
#
#
# Indices 1 2 3 4 5 6 
#
# 1 72.7276 39.0171 9.8227 0.0000 6.6036 0.0000
# 2 39.0171 111.4084 26.2442 0.0000 14.6615 0.0000
# 3 9.8227 26.2442 38.1883 0.0000 -3.3681 0.0000
# 4 0.0000 0.0000 0.0000 88.1277 0.0000 -8.0550
# 5 6.6036 14.6615 -3.3681 0.0000 22.6900 0.0000
# 6 0.0000 0.0000 0.0000 -8.0550 0.0000 25.3712
#
#
#
# Elastic Compliance Matrix: (Units=1/GPa)
#
#
# Indices 1 2 3 4 5 6 
#
# 1 0.016973 -0.005609 -0.000635 0.000000 -0.001410 0.000000
# 2 -0.005609 0.014276 -0.009157 0.000000 -0.008951 0.000000
# 3 -0.000635 -0.009157 0.033621 0.000000 0.011093 0.000000
# 4 0.000000 0.000000 0.000000 0.011686 0.000000 0.003710
# 5 -0.001410 -0.008951 0.011093 0.000000 0.051913 0.000000
# 6 0.000000 0.000000 0.000000 0.003710 0.000000 0.040593
#
#
# Mechanical properties :
#
#
# Convention : Reuss Voigt Hill
#
# Bulk Modulus (GPa) = 29.35479 41.38803 35.37141
# Shear Modulus (GPa) = 23.67198 37.05382 30.36290
#
# Velocity S-wave (km/s) = 3.39796 4.25125 3.84833
# Velocity P-wave (km/s) = 5.45094 6.65468 6.08266
#
# Compressibility (1/GPa) = 0.03406599
#
# Stress axis : x y z
#
# Youngs Moduli (GPa) = 58.91754 70.04999 29.74331
#
# Poissons Ratio (x) = 0.39291 0.01890
# Poissons Ratio (y) = 0.33047 0.27237
# Poissons Ratio (z) = 0.03744 0.64147
#
# Static dielectric constant tensor:
#      x y z
#    x 1.725050 0.000000 0.004680 
#    y 0.000000 1.882000 0.000000 
#    z 0.004680 0.000000 1.725360 
# 
# From -- ./inp_files/28686.got.cif
#   From: 2010.05.17/outbox.cif.g08.bks.cpg/sg12_15_cif.got.tgz:28686.got - 2010.06.03 13:09:07.
