data_PCOD9189458
_publ_section_title
;
Structure prediction by ZEFSAII (Michael W. Deem and Ramdas Pophale) SiO2 
 PCOD9189458
Probable space group: C 2/M
;
_chemical_formula_sum "Si O2"
_cell_formula_units_Z 52
_cell_length_a 22.987515
_cell_length_b 11.414039
_cell_length_c 12.978900
_cell_angle_alpha 90.000000
_cell_angle_beta 125.264389
_cell_angle_gamma 90.000000
_cell_volume 2780.504730
_symmetry_space_group_name_H-M "C 2/M"
_symmetry_group_IT_number 12
_symmetry_cell_setting 'monoclinic'
loop_
_space_group_symop_operation_xyz
x,y,z
-x,y,-z
-x,-y,-z
x,-y,z
1/2+x,1/2+y,z
1/2-x,1/2+y,-z
1/2-x,1/2-y,-z
1/2+x,1/2-y,z
loop_
_atom_site_type_symbol
_atom_site_label
_atom_site_fract_x
_atom_site_fract_y
_atom_site_fract_z
Si Si1 0.512801 0.256567 0.635569
Si Si2 0.715560 0.744600 0.121386
Si Si3 0.588547 0.500000 0.231299
Si Si4 0.552205 0.500000 0.775924
Si Si5 0.641638 0.500000 0.066275
Si Si6 0.265510 0.865112 0.646996
Si Si7 0.848962 0.639390 0.142459
Si Si8 0.865132 0.233255 0.607309
O O1 0.500000 0.248635 0.500000
O O2 0.544338 0.384537 0.698652
O O3 0.571996 0.165560 0.735749
O O4 0.438567 0.243605 0.622198
O O5 0.684035 0.620155 0.123707
O O6 0.721658 0.830742 0.222882
O O7 0.792422 0.711133 0.153776
O O8 0.665569 0.805287 0.984750
O O9 0.512471 0.500000 0.208641
O O10 0.586667 0.500000 0.105772
O O11 0.626115 0.616673 0.313726
O O12 0.618061 0.500000 0.922015
O O13 0.198420 0.791027 0.537701
O O14 0.335063 0.833518 0.650996
O O15 0.247276 0.000000 0.616909
O O16 0.834054 0.500000 0.128098
#
# Coordination Sequence:
#
# PCOD9189458 Si02
#       8
#     8   8   4   4   4   8   8   8
#     4  11  23  42  62  89 123 162 205 254 307 365
#     4  11  23  40  63  92 122 161 206 253 306 362
#     4  10  19  37  63  90 126 157 202 259 301 362
#     4  10  22  38  62  92 124 161 205 253 307 360
#     4  12  19  39  65  94 119 163 200 257 306 359
#     4  11  22  40  64  91 124 160 202 253 310 363
#     4  11  24  42  62  88 126 163 206 251 302 370
#     4  10  22  39  61  92 123 160 205 253 304 363
#
# _framework density 18.701640000000001
#
# number of rings (size 3 to 8) (size 9 to 14) (size 15 to 20)
#    0.000    1.231    4.615    1.846    0.000    0.923 
#    4.154    0.769    0.000    1.846    0.000    0.000 
#    0.000    0.000    0.000    0.000    0.000    0.000 
#
# Total GULP energy -145131.936012 kJ/mol
# GULP energy per Si atom -5581.997539 kJ/mol
# Density = 1.865907 g / cm^3
# Si number density = 18.701640 Si / 1000 Ang^3
#
#
#
# Elastic Constant Matrix: (Units=GPa)
#
#
# Indices 1 2 3 4 5 6 
#
# 1 73.5091 17.1214 44.9249 0.0000 -8.4385 0.0000
# 2 17.1214 39.3882 12.8476 0.0000 -8.8626 0.0000
# 3 44.9249 12.8476 93.2526 0.0000 -16.6754 0.0000
# 4 0.0000 0.0000 0.0000 23.0028 0.0000 1.4985
# 5 -8.4385 -8.8626 -16.6754 0.0000 29.4848 0.0000
# 6 0.0000 0.0000 0.0000 1.4985 0.0000 14.8549
#
#
#
# Elastic Compliance Matrix: (Units=1/GPa)
#
#
# Indices 1 2 3 4 5 6 
#
# 1 0.020576 -0.006192 -0.009278 0.000000 -0.001220 0.000000
# 2 -0.006192 0.029648 0.000195 0.000000 0.007250 0.000000
# 3 -0.009278 0.000195 0.016356 0.000000 0.006654 0.000000
# 4 0.000000 0.000000 0.000000 0.043760 0.000000 -0.004414
# 5 -0.001220 0.007250 0.006654 0.000000 0.039509 0.000000
# 6 0.000000 0.000000 0.000000 -0.004414 0.000000 0.067763
#
#
# Mechanical properties :
#
#
# Convention : Reuss Voigt Hill
#
# Bulk Modulus (GPa) = 27.75478 39.54862 33.65170
# Shear Modulus (GPa) = 19.21805 22.21890 20.71847
#
# Velocity S-wave (km/s) = 3.20912 3.45058 3.33204
# Velocity P-wave (km/s) = 5.34830 6.08838 5.73030
#
# Compressibility (1/GPa) = 0.03602984
#
# Stress axis : x y z
#
# Youngs Moduli (GPa) = 48.60026 33.72948 61.13950
#
# Poissons Ratio (x) = 0.20886 0.56722
# Poissons Ratio (y) = 0.30095 -0.01192
# Poissons Ratio (z) = 0.45089 -0.00658
#
# Static dielectric constant tensor:
#      x y z
#    x 1.644840 0.000000 0.007270 
#    y 0.000000 1.619610 0.000000 
#    z 0.007270 0.000000 1.649120 
# 
# From -- ./inp_files/165570.got.cif
#   From: 2010.05.17/outbox.cif.g08.bks.cpg/sg12_83_cif.got.tgz:165570.got - 2010.06.03 13:09:07.
