data_PCOD9189852
_publ_section_title
;
Structure prediction by ZEFSAII (Michael W. Deem and Ramdas Pophale) SiO2 
 PCOD9189852
Probable space group: C 2/M
;
_chemical_formula_sum "Si O2"
_cell_formula_units_Z 44
_cell_length_a 19.362322
_cell_length_b 7.927610
_cell_length_c 17.760921
_cell_angle_alpha 90.000000
_cell_angle_beta 136.155520
_cell_angle_gamma 90.000000
_cell_volume 1888.480236
_symmetry_space_group_name_H-M "C 2/M"
_symmetry_group_IT_number 12
_symmetry_cell_setting 'monoclinic'
loop_
_space_group_symop_operation_xyz
x,y,z
-x,y,-z
-x,-y,-z
x,-y,z
1/2+x,1/2+y,z
1/2-x,1/2+y,-z
1/2-x,1/2-y,-z
1/2+x,1/2-y,z
loop_
_atom_site_type_symbol
_atom_site_label
_atom_site_fract_x
_atom_site_fract_y
_atom_site_fract_z
Si Si1 0.527821 0.302702 0.437012
Si Si2 0.607827 0.193208 0.803271
Si Si3 0.500000 0.758057 0.000000
Si Si4 0.729726 0.693381 0.172351
Si Si5 0.258580 0.203009 0.364875
Si Si6 0.038000 0.196748 0.187435
O O1 0.500000 0.246927 0.500000
O O2 0.501372 0.500000 0.409126
O O3 0.465878 0.202945 0.326512
O O4 0.646316 0.281469 0.520578
O O5 0.711010 0.268203 0.851682
O O6 0.551056 0.289234 0.824461
O O7 0.620809 0.000000 0.838796
O O8 0.388749 0.688227 0.928586
O O9 0.478261 0.815343 0.897505
O O10 0.764771 0.500000 0.202125
O O11 0.756859 0.764458 0.275931
O O12 0.146987 0.236902 0.307175
O O13 0.271300 0.000000 0.375396
O O14 0.044281 0.000000 0.164784
#
# Coordination Sequence:
#
# PCOD9189852 Si02
#       6
#     8   8   4   8   8   8
#     4  11  22  36  58  88 118 152 191 236 289 342
#     4  11  23  37  57  86 122 155 189 237 289 342
#     4  10  19  38  65  86 111 152 197 240 289 344
#     4   9  17  32  57  86 112 148 195 235 279 341
#     4   9  18  35  59  84 114 155 197 234 277 338
#     4  10  21  38  61  88 116 151 196 241 286 338
#
# _framework density 23.299160000000001
#
# number of rings (size 3 to 8) (size 9 to 14) (size 15 to 20)
#    0.000    2.000    1.818    3.818    0.000    2.909 
#    0.000    0.455    0.000    2.182    0.000    0.000 
#    0.000    0.000    0.000    0.000    0.000    0.000 
#
# Total GULP energy -122603.273049 kJ/mol
# GULP energy per Si atom -5572.876048 kJ/mol
# Density = 2.324613 g / cm^3
# Si number density = 23.299160 Si / 1000 Ang^3
#
#
#
# Elastic Constant Matrix: (Units=GPa)
#
#
# Indices 1 2 3 4 5 6 
#
# 1 174.4964 14.8619 25.6641 0.0000 23.0526 0.0000
# 2 14.8619 50.5271 4.7718 0.0000 0.5017 0.0000
# 3 25.6641 4.7718 66.0498 0.0000 22.3330 0.0000
# 4 0.0000 0.0000 0.0000 -126.4392 0.0000 19.3415
# 5 23.0526 0.5017 22.3330 0.0000 36.5766 0.0000
# 6 0.0000 0.0000 0.0000 19.3415 0.0000 7.0090
#
#
#
# Elastic Compliance Matrix: (Units=1/GPa)
#
#
# Indices 1 2 3 4 5 6 
#
# 1 0.006505 -0.001759 -0.001288 0.000000 -0.003289 0.000000
# 2 -0.001759 0.020420 -0.001351 0.000000 0.001653 0.000000
# 3 -0.001288 -0.001351 0.019479 0.000000 -0.011063 0.000000
# 4 0.000000 0.000000 0.000000 -0.005561 0.000000 0.015347
# 5 -0.003289 0.001653 -0.011063 0.000000 0.036145 0.000000
# 6 0.000000 0.000000 0.000000 0.015347 0.000000 0.100324
#
#
# Mechanical properties :
#
#
# Convention : Reuss Voigt Hill
#
# Bulk Modulus (GPa) = 26.59059 42.40767 34.49913
# Shear Modulus (GPa) = 25.17078 -0.18569 12.49254
#
# Velocity S-wave (km/s) = 3.29040 -0.28262 2.31807
# Velocity P-wave (km/s) = 5.08656 4.25845 4.69082
#
# Compressibility (1/GPa) = 0.03760729
#
# Stress axis : x y z
#
# Youngs Moduli (GPa) = 153.73880 48.97188 51.33754
#
# Poissons Ratio (x) = 0.08614 0.06614
# Poissons Ratio (y) = 0.27041 0.06935
# Poissons Ratio (z) = 0.19806 0.06615
#
# Static dielectric constant tensor:
#      x y z
#    x 1.910810 0.000000 -0.001980 
#    y 0.000000 1.887330 0.000000 
#    z -0.001980 0.000000 1.841640 
# 
# From -- ./inp_files/275871.got.cif
#   From: 2010.05.17/outbox.cif.g08.bks.cpg/sg12_138_cif.got.tgz:275871.got - 2010.06.03 13:09:07.
