data_PCOD9189497
_publ_section_title
;
Structure prediction by ZEFSAII (Michael W. Deem and Ramdas Pophale) SiO2 
 PCOD9189497
Probable space group: C 2/M
;
_chemical_formula_sum "Si O2"
_cell_formula_units_Z 56
_cell_length_a 17.252116
_cell_length_b 16.529421
_cell_length_c 19.381863
_cell_angle_alpha 90.000000
_cell_angle_beta 30.427711
_cell_angle_gamma 90.000000
_cell_volume 2799.192988
_symmetry_space_group_name_H-M "C 2/M"
_symmetry_group_IT_number 12
_symmetry_cell_setting 'monoclinic'
loop_
_space_group_symop_operation_xyz
x,y,z
-x,y,-z
-x,-y,-z
x,-y,z
1/2+x,1/2+y,z
1/2-x,1/2+y,-z
1/2-x,1/2-y,-z
1/2+x,1/2-y,z
loop_
_atom_site_type_symbol
_atom_site_label
_atom_site_fract_x
_atom_site_fract_y
_atom_site_fract_z
Si Si1 0.979457 0.000000 0.598634
Si Si2 0.548651 0.657123 0.632781
Si Si3 0.051951 0.659876 0.826734
Si Si4 0.750605 0.253781 0.082838
Si Si5 0.197517 0.407629 0.461189
Si Si6 0.417824 0.094393 0.784041
Si Si7 0.635290 0.000000 0.842849
Si Si8 0.854504 0.257213 0.566793
O O1 0.000000 0.000000 0.500000
O O2 0.044834 0.920279 0.584808
O O3 0.799539 0.000000 0.751569
O O4 0.384835 0.688259 0.785499
O O5 0.657452 0.632595 0.611959
O O6 0.616466 0.728103 0.533721
O O7 0.115418 0.579922 0.813523
O O8 0.195394 0.719187 0.711418
O O9 0.990789 0.629522 0.799014
O O10 0.913456 0.704422 0.973143
O O11 0.710411 0.161853 0.137137
O O12 0.750000 0.250000 0.000000
O O13 0.232818 0.500000 0.417821
O O14 0.158459 0.353402 0.425570
O O15 0.053176 0.405967 0.624001
O O16 0.368099 0.000000 0.831445
O O17 0.500000 0.000000 0.000000
O O18 0.000000 0.230404 0.500000
#
# Coordination Sequence:
#
# PCOD9189497 Si02
#       8
#     4   8   8   8   8   8   4   8
#     4  12  26  38  62 102 137 168 206 260 331 413
#     4  12  21  42  63  94 132 165 216 263 325 391
#     4  11  22  40  60  89 129 170 211 257 318 380
#     4  10  22  37  60  92 127 166 215 272 314 375
#     4  11  22  39  68  95 122 164 216 272 319 377
#     4  10  19  37  64  91 120 160 215 267 313 375
#     4  12  24  40  58  90 136 180 204 241 320 403
#     4  12  25  41  65  94 128 170 214 268 325 389
#
# _framework density 20.005766000000001
#
# number of rings (size 3 to 8) (size 9 to 14) (size 15 to 20)
#    0.000    0.857    4.286    5.143    0.000    0.286 
#    1.286    0.714    0.000    0.000    0.000    2.000 
#    0.000    0.000    0.000    0.000    0.000    0.000 
#
# Total GULP energy -156438.457697 kJ/mol
# GULP energy per Si atom -5587.087775 kJ/mol
# Density = 1.996023 g / cm^3
# Si number density = 20.005766 Si / 1000 Ang^3
#
#
#
# Elastic Constant Matrix: (Units=GPa)
#
#
# Indices 1 2 3 4 5 6 
#
# 1 24.3976 27.7433 0.0372 -0.0002 -9.2902 0.0003
# 2 27.7433 153.5356 43.5030 -0.0033 -11.7883 -0.0006
# 3 0.0372 43.5030 111.5249 -0.0026 -12.0674 -0.0014
# 4 -0.0002 -0.0033 -0.0026 32.6550 -0.0005 3.8458
# 5 -9.2902 -11.7883 -12.0674 -0.0005 26.4534 0.0008
# 6 0.0003 -0.0006 -0.0014 3.8458 0.0008 32.2993
#
#
#
# Elastic Compliance Matrix: (Units=1/GPa)
#
#
# Indices 1 2 3 4 5 6 
#
# 1 0.061419 -0.011462 0.006555 0.000000 0.019452 -0.000001
# 2 -0.011462 0.009570 -0.003896 0.000001 -0.001538 0.000000
# 3 0.006555 -0.003896 0.011093 0.000001 0.005626 0.000000
# 4 0.000000 0.000001 0.000001 0.031059 0.000001 -0.003698
# 5 0.019452 -0.001538 0.005626 0.000001 0.046515 -0.000001
# 6 -0.000001 0.000000 0.000000 -0.003698 -0.000001 0.031401
#
#
# Mechanical properties :
#
#
# Convention : Reuss Voigt Hill
#
# Bulk Modulus (GPa) = 15.50942 48.00278 31.75610
# Shear Modulus (GPa) = 21.72472 32.82652 27.27562
#
# Velocity S-wave (km/s) = 3.29891 4.05514 3.69641
# Velocity P-wave (km/s) = 4.72014 6.78027 5.84174
#
# Compressibility (1/GPa) = 0.06447693
#
# Stress axis : x y z
#
# Youngs Moduli (GPa) = 16.28173 104.49340 90.14862
#
# Poissons Ratio (x) = 1.19770 -0.59095
# Poissons Ratio (y) = 0.18662 0.35118
# Poissons Ratio (z) = -0.10673 0.40706
#
# Static dielectric constant tensor:
#      x y z
#    x 1.711580 -0.000010 -0.010280 
#    y -0.000010 1.661820 0.000010 
#    z -0.010280 0.000010 1.694360 
# 
# From -- ./inp_files/316736.got.cif
#   From: 2010.05.17/outbox.cif.g08.bks.cpg/sg12_159_cif.got.tgz:316736.got - 2010.06.03 13:09:07.
