data_PCOD9189468
_publ_section_title
;
Structure prediction by ZEFSAII (Michael W. Deem and Ramdas Pophale) SiO2 
 PCOD9189468
Probable space group: C 2/M
;
_chemical_formula_sum "Si O2"
_cell_formula_units_Z 36
_cell_length_a 16.724177
_cell_length_b 18.712893
_cell_length_c 7.473394
_cell_angle_alpha 90.000000
_cell_angle_beta 50.248829
_cell_angle_gamma 90.000000
_cell_volume 1798.180117
_symmetry_space_group_name_H-M "C 2/M"
_symmetry_group_IT_number 12
_symmetry_cell_setting 'monoclinic'
loop_
_space_group_symop_operation_xyz
x,y,z
-x,y,-z
-x,-y,-z
x,-y,z
1/2+x,1/2+y,z
1/2-x,1/2+y,-z
1/2-x,1/2-y,-z
1/2+x,1/2-y,z
loop_
_atom_site_type_symbol
_atom_site_label
_atom_site_fract_x
_atom_site_fract_y
_atom_site_fract_z
Si Si1 0.222124 0.122101 0.434687
Si Si2 0.379752 0.717935 0.715926
Si Si3 0.249219 0.844818 0.796054
Si Si4 0.898627 0.000000 0.525860
Si Si5 0.777046 0.500000 0.911756
Si Si6 0.116249 0.500000 0.901790
O O1 0.196909 0.175856 0.310391
O O2 0.234895 0.160509 0.604708
O O3 0.123060 0.068437 0.565878
O O4 0.320834 0.070331 0.256603
O O5 0.500000 0.705715 0.500000
O O6 0.346777 0.799833 0.732149
O O7 0.348056 0.687829 0.955009
O O8 0.263469 0.928236 0.819869
O O9 0.000000 0.000000 0.500000
O O10 0.810280 0.000000 0.806895
O O11 0.879538 0.500000 0.888104
O O12 0.000000 0.500000 0.000000
#
# Coordination Sequence:
#
# PCOD9189468 Si02
#       6
#     8   8   8   4   4   4
#     4  10  21  41  62  92 129 169 214 265 316 389
#     4  11  24  43  64  93 134 170 212 275 330 376
#     4  11  23  42  67  91 132 169 218 266 320 396
#     4  10  19  37  63  92 133 162 205 270 317 379
#     4  10  20  40  62  90 126 163 203 267 317 371
#     4  10  21  39  65  95 134 171 210 267 323 381
#
# _framework density 20.020240999999999
#
# number of rings (size 3 to 8) (size 9 to 14) (size 15 to 20)
#    0.000    1.778    4.444    2.667    0.000    2.667 
#    0.000    2.778    0.000    0.000    0.000    0.000 
#    0.000    0.000    0.000    0.000    0.000    0.000 
#
# Total GULP energy -100430.179749 kJ/mol
# GULP energy per Si atom -5579.454431 kJ/mol
# Density = 1.997467 g / cm^3
# Si number density = 20.020241 Si / 1000 Ang^3
#
#
#
# Elastic Constant Matrix: (Units=GPa)
#
#
# Indices 1 2 3 4 5 6 
#
# 1 91.9145 13.6769 39.8764 0.0000 -16.8638 0.0000
# 2 13.6769 106.3661 18.5516 0.0000 -2.8776 0.0000
# 3 39.8764 18.5516 72.5775 0.0000 -0.9008 0.0000
# 4 0.0000 0.0000 0.0000 20.1525 0.0000 9.0557
# 5 -16.8638 -2.8776 -0.9008 0.0000 40.2893 0.0000
# 6 0.0000 0.0000 0.0000 9.0557 0.0000 22.1681
#
#
#
# Elastic Compliance Matrix: (Units=1/GPa)
#
#
# Indices 1 2 3 4 5 6 
#
# 1 0.015799 -0.000375 -0.008505 0.000000 0.006396 0.000000
# 2 -0.000375 0.009866 -0.002310 0.000000 0.000496 0.000000
# 3 -0.008505 -0.002310 0.019001 0.000000 -0.003300 0.000000
# 4 0.000000 0.000000 0.000000 0.060779 0.000000 -0.024828
# 5 0.006396 0.000496 -0.003300 0.000000 0.027459 0.000000
# 6 0.000000 0.000000 0.000000 -0.024828 0.000000 0.055252
#
#
# Mechanical properties :
#
#
# Convention : Reuss Voigt Hill
#
# Bulk Modulus (GPa) = 44.87128 46.11865 45.49496
# Shear Modulus (GPa) = 22.93957 29.77220 26.35588
#
# Velocity S-wave (km/s) = 3.38867 3.86048 3.63224
# Velocity P-wave (km/s) = 6.14592 6.55417 6.35333
#
# Compressibility (1/GPa) = 0.02228597
#
# Stress axis : x y z
#
# Youngs Moduli (GPa) = 63.29566 101.35860 52.62939
#
# Poissons Ratio (x) = 0.03801 0.44762
# Poissons Ratio (y) = 0.02374 0.12155
# Poissons Ratio (z) = 0.53834 0.23410
#
# Static dielectric constant tensor:
#      x y z
#    x 1.723180 0.000000 -0.004800 
#    y 0.000000 1.790540 0.000000 
#    z -0.004800 0.000000 1.716770 
# 
# From -- ./inp_files/74322.got.cif
#   From: 2010.05.17/outbox.cif.g08.bks.cpg/sg12_38_cif.got.tgz:74322.got - 2010.06.03 13:09:07.
