data_PCOD9189535
_publ_section_title
;
Structure prediction by ZEFSAII (Michael W. Deem and Ramdas Pophale) SiO2 
 PCOD9189535
Probable space group: C 2/M
;
_chemical_formula_sum "Si O2"
_cell_formula_units_Z 56
_cell_length_a 7.027222
_cell_length_b 29.404076
_cell_length_c 11.775614
_cell_angle_alpha 90.000000
_cell_angle_beta 54.370121
_cell_angle_gamma 90.000000
_cell_volume 1977.684031
_symmetry_space_group_name_H-M "C 2/M"
_symmetry_group_IT_number 12
_symmetry_cell_setting 'monoclinic'
loop_
_space_group_symop_operation_xyz
x,y,z
-x,y,-z
-x,-y,-z
x,-y,z
1/2+x,1/2+y,z
1/2-x,1/2+y,-z
1/2-x,1/2-y,-z
1/2+x,1/2-y,z
loop_
_atom_site_type_symbol
_atom_site_label
_atom_site_fract_x
_atom_site_fract_y
_atom_site_fract_z
Si Si1 0.811216 0.684467 0.968953
Si Si2 0.753778 0.576678 0.970550
Si Si3 0.554726 0.449839 0.270389
Si Si4 0.795402 0.874269 0.457553
Si Si5 0.585482 0.302767 0.731720
Si Si6 0.042999 0.549701 0.328102
Si Si7 0.198524 0.296067 0.673894
O O1 0.797910 0.630171 0.967119
O O2 0.930203 0.699865 0.810154
O O3 0.557685 0.700633 0.100949
O O4 0.000000 0.697757 0.000000
O O5 0.927954 0.556132 0.817030
O O6 0.500000 0.570269 0.000000
O O7 0.733736 0.557253 0.104065
O O8 0.584897 0.500000 0.310825
O O9 0.529695 0.405925 0.360625
O O10 0.300233 0.449381 0.295444
O O11 0.614088 0.911179 0.565769
O O12 0.758232 0.831010 0.554026
O O13 0.774392 0.848979 0.341815
O O14 0.372362 0.308121 0.715723
O O15 0.726460 0.257905 0.648200
O O16 0.942517 0.500000 0.387706
#
# Coordination Sequence:
#
# PCOD9189535 Si02
#       7
#     8   8   8   8   8   8   8
#     4  10  21  42  66  90 124 163 204 258 314 371
#     4  10  19  37  65  95 123 161 210 262 310 363
#     4  10  21  37  61  95 130 165 209 262 313 363
#     4  12  22  37  61  87 130 168 204 244 312 376
#     4  11  25  43  66  93 125 164 209 260 314 372
#     4  10  21  37  61  95 130 165 209 262 313 363
#     4  11  25  43  66  93 125 164 209 260 314 372
#
# _framework density 28.315947999999999
#
# number of rings (size 3 to 8) (size 9 to 14) (size 15 to 20)
#    0.000    1.429    2.857    2.571    0.000    6.286 
#    0.000    0.000    0.000   12.000    0.000    0.000 
#    0.000    0.000    0.000    0.000    0.000    0.000 
#
# Total GULP energy -156984.548464 kJ/mol
# GULP energy per Si atom -5606.591017 kJ/mol
# Density = 2.825150 g / cm^3
# Si number density = 28.315948 Si / 1000 Ang^3
#
#
#
# Elastic Constant Matrix: (Units=GPa)
#
#
# Indices 1 2 3 4 5 6 
#
# 1 92.5930 -0.2674 31.5484 0.0000 0.1963 0.0000
# 2 -0.2674 254.1142 93.3136 0.0000 -8.3341 0.0000
# 3 31.5484 93.3136 231.7502 0.0000 -9.6158 0.0000
# 4 0.0000 0.0000 0.0000 21.5730 0.0000 -12.0295
# 5 0.1963 -8.3341 -9.6158 0.0000 43.0863 0.0000
# 6 0.0000 0.0000 0.0000 -12.0295 0.0000 15.0993
#
#
#
# Elastic Compliance Matrix: (Units=1/GPa)
#
#
# Indices 1 2 3 4 5 6 
#
# 1 0.011430 0.000678 -0.001843 0.000000 -0.000332 0.000000
# 2 0.000678 0.004668 -0.001953 0.000000 0.000464 0.000000
# 3 -0.001843 -0.001953 0.005387 0.000000 0.000833 0.000000
# 4 0.000000 0.000000 0.000000 0.083408 0.000000 0.066451
# 5 -0.000332 0.000464 0.000833 0.000000 0.023486 0.000000
# 6 0.000000 0.000000 0.000000 0.066451 0.000000 0.119169
#
#
# Mechanical properties :
#
#
# Convention : Reuss Voigt Hill
#
# Bulk Modulus (GPa) = 65.57319 91.96074 78.76696
# Shear Modulus (GPa) = 19.31492 46.20923 32.76207
#
# Velocity S-wave (km/s) = 2.61458 4.04408 3.40519
# Velocity P-wave (km/s) = 5.68530 7.37247 6.58316
#
# Compressibility (1/GPa) = 0.01525014
#
# Stress axis : x y z
#
# Youngs Moduli (GPa) = 87.48541 214.21484 185.64468
#
# Poissons Ratio (x) = -0.14520 0.34210
# Poissons Ratio (y) = -0.05930 0.36250
# Poissons Ratio (z) = 0.16121 0.41829
#
# Static dielectric constant tensor:
#      x y z
#    x 2.378150 0.000000 -0.016520 
#    y 0.000000 2.098630 0.000000 
#    z -0.016520 0.000000 2.200280 
# 
# From -- ./inp_files/209137.got.cif
#   From: 2010.05.17/outbox.cif.g08.bks.cpg/sg12_105_cif.got.tgz:209137.got - 2010.06.03 13:09:07.
