data_PCOD9189916
_publ_section_title
;
Structure prediction by ZEFSAII (Michael W. Deem and Ramdas Pophale) SiO2 
 PCOD9189916
Probable space group: C 2/M
;
_chemical_formula_sum "Si O2"
_cell_formula_units_Z 44
_cell_length_a 11.764330
_cell_length_b 23.739311
_cell_length_c 11.499243
_cell_angle_alpha 90.000000
_cell_angle_beta 38.857408
_cell_angle_gamma 90.000000
_cell_volume 2014.829257
_symmetry_space_group_name_H-M "C 2/M"
_symmetry_group_IT_number 12
_symmetry_cell_setting 'monoclinic'
loop_
_space_group_symop_operation_xyz
x,y,z
-x,y,-z
-x,-y,-z
x,-y,z
1/2+x,1/2+y,z
1/2-x,1/2+y,-z
1/2-x,1/2-y,-z
1/2+x,1/2-y,z
loop_
_atom_site_type_symbol
_atom_site_label
_atom_site_fract_x
_atom_site_fract_y
_atom_site_fract_z
Si Si1 0.973663 0.599564 0.274659
Si Si2 0.889379 0.835368 0.709283
Si Si3 0.500000 0.124413 0.000000
Si Si4 0.940787 0.725045 0.404182
Si Si5 0.414899 0.565542 0.315696
Si Si6 0.307157 0.066483 0.707650
O O1 0.961325 0.664977 0.324933
O O2 0.786412 0.570224 0.464709
O O3 0.993165 0.590323 0.123536
O O4 0.157796 0.577626 0.187074
O O5 0.679099 0.838818 0.853971
O O6 0.000000 0.836609 0.500000
O O7 0.929375 0.775925 0.736662
O O8 0.956156 0.890101 0.725425
O O9 0.750000 0.750000 0.500000
O O10 0.000000 0.718098 0.500000
O O11 0.473031 0.500000 0.272419
O O12 0.364961 0.587428 0.225509
O O13 0.500000 0.086692 0.500000
O O14 0.300870 0.000000 0.693140
#
# Coordination Sequence:
#
# PCOD9189916 Si02
#       6
#     8   8   4   8   8   8
#     4  11  20  38  62  95 130 167 214 262 328 390
#     4  11  23  44  64  92 133 170 216 267 324 383
#     4  12  26  44  61  94 140 172 211 274 318 388
#     4  11  21  38  70 100 127 173 221 267 327 396
#     4  10  19  38  67  94 126 169 217 271 324 378
#     4   8  16  32  59  92 121 157 211 267 317 377
#
# _framework density 21.838076999999998
#
# number of rings (size 3 to 8) (size 9 to 14) (size 15 to 20)
#    0.000    1.636    3.636    4.364    0.000    1.091 
#    0.000    5.000    0.000    2.182    0.000    0.000 
#    0.000    0.000    0.000    0.000    0.000    0.000 
#
# Total GULP energy -122476.379267 kJ/mol
# GULP energy per Si atom -5567.108148 kJ/mol
# Density = 2.178837 g / cm^3
# Si number density = 21.838077 Si / 1000 Ang^3
#
#
#
# Elastic Constant Matrix: (Units=GPa)
#
#
# Indices 1 2 3 4 5 6 
#
# 1 139.7269 32.2912 36.5298 0.0000 3.8365 0.0000
# 2 32.2912 96.5718 0.0586 0.0000 -1.7523 0.0000
# 3 36.5298 0.0586 53.9873 0.0000 -6.1023 0.0000
# 4 0.0000 0.0000 0.0000 183.4565 0.0000 -26.5694
# 5 3.8365 -1.7523 -6.1023 0.0000 41.3417 0.0000
# 6 0.0000 0.0000 0.0000 -26.5694 0.0000 40.6534
#
#
#
# Elastic Compliance Matrix: (Units=1/GPa)
#
#
# Indices 1 2 3 4 5 6 
#
# 1 0.009762 -0.003297 -0.006834 0.000000 -0.002054 0.000000
# 2 -0.003297 0.011477 0.002347 0.000000 0.001139 0.000000
# 3 -0.006834 0.002347 0.023621 0.000000 0.004220 0.000000
# 4 0.000000 0.000000 0.000000 0.006021 0.000000 0.003935
# 5 -0.002054 0.001139 0.004220 0.000000 0.025050 0.000000
# 6 0.000000 0.000000 0.000000 0.003935 0.000000 0.027170
#
#
# Mechanical properties :
#
#
# Convention : Reuss Voigt Hill
#
# Bulk Modulus (GPa) = 34.13853 47.56056 40.84955
# Shear Modulus (GPa) = 38.93085 67.85076 53.39081
#
# Velocity S-wave (km/s) = 4.22679 5.58009 4.94991
# Velocity P-wave (km/s) = 6.28391 7.95880 7.17043
#
# Compressibility (1/GPa) = 0.02929241
#
# Stress axis : x y z
#
# Youngs Moduli (GPa) = 102.43961 87.13266 42.33451
#
# Poissons Ratio (x) = 0.28730 0.28931
# Poissons Ratio (y) = 0.33777 -0.09937
# Poissons Ratio (z) = 0.70006 -0.20453
#
# Static dielectric constant tensor:
#      x y z
#    x 1.748180 0.000000 0.125110 
#    y 0.000000 1.772320 0.000000 
#    z 0.125110 0.000000 1.872520 
# 
# From -- ./inp_files/135737.got.cif
#   From: 2010.05.17/outbox.cif.g08.bks.cpg/sg12_68_cif.got.tgz:135737.got - 2010.06.03 13:09:07.
