data_PCOD9189671
_publ_section_title
;
Structure prediction by ZEFSAII (Michael W. Deem and Ramdas Pophale) SiO2 
 PCOD9189671
Probable space group: C 2/M
;
_chemical_formula_sum "Si O2"
_cell_formula_units_Z 64
_cell_length_a 15.385742
_cell_length_b 8.352773
_cell_length_c 29.737491
_cell_angle_alpha 90.000000
_cell_angle_beta 125.419198
_cell_angle_gamma 90.000000
_cell_volume 3114.409387
_symmetry_space_group_name_H-M "C 2/M"
_symmetry_group_IT_number 12
_symmetry_cell_setting 'monoclinic'
loop_
_space_group_symop_operation_xyz
x,y,z
-x,y,-z
-x,-y,-z
x,-y,z
1/2+x,1/2+y,z
1/2-x,1/2+y,-z
1/2-x,1/2-y,-z
1/2+x,1/2-y,z
loop_
_atom_site_type_symbol
_atom_site_label
_atom_site_fract_x
_atom_site_fract_y
_atom_site_fract_z
Si Si1 0.695019 0.308951 0.707170
Si Si2 0.066130 0.303373 0.209233
Si Si3 0.906032 0.804523 0.415572
Si Si4 0.848446 0.806780 0.498269
Si Si5 0.080993 0.684603 0.757764
Si Si6 0.498655 0.183945 0.903570
Si Si7 0.236993 0.320298 0.130552
Si Si8 0.673268 0.686951 0.015970
O O1 0.705651 0.500000 0.706400
O O2 0.811912 0.248105 0.756381
O O3 0.655550 0.247876 0.647158
O O4 0.612014 0.273160 0.721720
O O5 0.063399 0.500000 0.206158
O O6 0.993975 0.250878 0.145069
O O7 0.017345 0.254152 0.242180
O O8 0.850322 0.756007 0.445970
O O9 0.031313 0.757662 0.450462
O O10 0.905980 0.000000 0.415878
O O11 0.750000 0.750000 0.500000
O O12 0.845011 0.000000 0.498056
O O13 0.062320 0.500000 0.741129
O O14 0.180256 0.701661 0.821833
O O15 0.373075 0.180984 0.875068
O O16 0.557018 0.279049 0.960352
O O17 0.538737 0.000000 0.917370
O O18 0.282165 0.500000 0.146848
O O19 0.203305 0.278844 0.070063
O O20 0.687236 0.500000 0.028216
O O21 0.750000 0.750000 0.000000
#
# Coordination Sequence:
#
# PCOD9189671 Si02
#       8
#     8   8   8   8   8   8   8   8
#     4  10  19  38  60  79 108 155 200 236 280 340
#     4   9  19  36  57  79 107 146 188 228 283 344
#     4   8  17  33  56  80 112 154 198 235 278 344
#     4   9  17  33  55  85 116 152 194 237 285 337
#     4  11  22  36  57  86 117 148 186 240 292 343
#     4  10  20  38  60  81 107 144 186 231 285 354
#     4  11  22  39  62  84 108 146 190 232 286 355
#     4  12  25  39  56  82 113 145 185 235 290 350
#
# _framework density 20.549641999999999
#
# number of rings (size 3 to 8) (size 9 to 14) (size 15 to 20)
#    0.000    2.000    1.250    3.750    0.000    4.500 
#    0.000    5.625    0.000    0.000    0.000    0.000 
#    0.000    0.000    0.000    0.000    0.000    0.000 
#
# Total GULP energy -178586.628417 kJ/mol
# GULP energy per Si atom -5580.832138 kJ/mol
# Density = 2.050287 g / cm^3
# Si number density = 20.549642 Si / 1000 Ang^3
#
#
#
# Elastic Constant Matrix: (Units=GPa)
#
#
# Indices 1 2 3 4 5 6 
#
# 1 97.0302 2.8503 27.4207 0.0000 -22.0151 0.0000
# 2 2.8503 14.3745 -5.2488 0.0000 1.1427 0.0000
# 3 27.4207 -5.2488 106.4511 0.0000 -25.2607 0.0000
# 4 0.0000 0.0000 0.0000 14.1179 0.0000 -4.8147
# 5 -22.0151 1.1427 -25.2607 0.0000 22.2359 0.0000
# 6 0.0000 0.0000 0.0000 -4.8147 0.0000 26.6399
#
#
#
# Elastic Compliance Matrix: (Units=1/GPa)
#
#
# Indices 1 2 3 4 5 6 
#
# 1 0.013520 -0.003931 -0.000619 0.000000 0.012884 0.000000
# 2 -0.003931 0.071989 0.003780 0.000000 -0.003298 0.000000
# 3 -0.000619 0.003780 0.013072 0.000000 0.014043 0.000000
# 4 0.000000 0.000000 0.000000 0.075485 0.000000 0.013642
# 5 0.012884 -0.003298 0.014043 0.000000 0.073852 0.000000
# 6 0.000000 0.000000 0.000000 0.013642 0.000000 0.040003
#
#
# Mechanical properties :
#
#
# Convention : Reuss Voigt Hill
#
# Bulk Modulus (GPa) = 10.30496 29.76669 20.03582
# Shear Modulus (GPa) = 15.53717 25.45433 20.49575
#
# Velocity S-wave (km/s) = 2.75267 3.52330 3.16155
# Velocity P-wave (km/s) = 3.88954 5.57389 4.80608
#
# Compressibility (1/GPa) = 0.09704069
#
# Stress axis : x y z
#
# Youngs Moduli (GPa) = 73.96555 13.89094 76.49777
#
# Poissons Ratio (x) = 0.05461 0.04735
# Poissons Ratio (y) = 0.29077 -0.28914
# Poissons Ratio (z) = 0.04578 -0.05250
#
# Static dielectric constant tensor:
#      x y z
#    x 1.731120 0.000000 -0.032560 
#    y 0.000000 1.739240 0.000000 
#    z -0.032560 0.000000 1.702300 
# 
# From -- ./inp_files/375070.got.cif
#   From: 2010.05.17/outbox.cif.g08.bks.cpg/sg12_188_cif.got.tgz:375070.got - 2010.06.03 13:09:07.
