data_PCOD9189326
_publ_section_title
;
Structure prediction by ZEFSAII (Michael W. Deem and Ramdas Pophale) SiO2 
 PCOD9189326
Probable space group: C 2/M
;
_chemical_formula_sum "Si O2"
_cell_formula_units_Z 44
_cell_length_a 12.452040
_cell_length_b 24.781288
_cell_length_c 8.812467
_cell_angle_alpha 90.000000
_cell_angle_beta 43.134875
_cell_angle_gamma 90.000000
_cell_volume 1859.254979
_symmetry_space_group_name_H-M "C 2/M"
_symmetry_group_IT_number 12
_symmetry_cell_setting 'monoclinic'
loop_
_space_group_symop_operation_xyz
x,y,z
-x,y,-z
-x,-y,-z
x,-y,z
1/2+x,1/2+y,z
1/2-x,1/2+y,-z
1/2-x,1/2-y,-z
1/2+x,1/2-y,z
loop_
_atom_site_type_symbol
_atom_site_label
_atom_site_fract_x
_atom_site_fract_y
_atom_site_fract_z
Si Si1 0.778307 0.500000 0.543463
Si Si2 0.924360 0.792890 0.737480
Si Si3 0.282491 0.908170 0.743467
Si Si4 0.000000 0.600350 0.000000
Si Si5 0.575247 0.825856 0.173982
Si Si6 0.788808 0.500000 0.175663
Si Si7 0.500000 0.663578 0.000000
Si Si8 0.090642 0.000000 0.111164
O O1 0.852237 0.448203 0.546720
O O2 0.792039 0.500000 0.352185
O O3 0.588518 0.500000 0.757307
O O4 0.972849 0.729890 0.698320
O O5 0.962994 0.809768 0.873817
O O6 0.000000 0.814205 0.500000
O O7 0.738759 0.808290 0.920419
O O8 0.383707 0.868893 0.739993
O O9 0.151769 0.871254 0.801430
O O10 0.182529 0.948288 0.953787
O O11 0.123452 0.557320 0.944809
O O12 0.037903 0.642682 0.825877
O O13 0.627022 0.500000 0.252075
#
# Coordination Sequence:
#
# PCOD9189326 Si02
#       8
#     4   8   8   4   8   4   4   4
#     4  11  22  35  61  98 121 150 209 261 303 366
#     4  10  23  42  67  98 123 157 218 271 313 373
#     4  10  19  37  61  88 123 161 193 246 324 360
#     4  11  23  44  59  82 129 174 195 245 316 374
#     4  10  22  42  65  87 128 171 204 257 320 372
#     4  11  25  37  59  93 122 162 211 248 294 381
#     4  10  19  39  61  92 127 161 197 266 322 366
#     4  11  18  40  60  90 122 153 197 258 301 363
#
# _framework density 23.665393000000002
#
# number of rings (size 3 to 8) (size 9 to 14) (size 15 to 20)
#    0.000    1.636    3.636    1.364    0.000    2.909 
#    0.000   13.636    0.000    0.000    0.000    0.000 
#    0.000    0.000    0.000    0.000    0.000    0.000 
#
# Total GULP energy -122617.296618 kJ/mol
# GULP energy per Si atom -5573.513483 kJ/mol
# Density = 2.361153 g / cm^3
# Si number density = 23.665393 Si / 1000 Ang^3
#
#
#
# Elastic Constant Matrix: (Units=GPa)
#
#
# Indices 1 2 3 4 5 6 
#
# 1 103.3214 35.0734 -0.1473 0.0000 29.8958 0.0000
# 2 35.0734 123.7038 10.0726 0.0000 17.9091 0.0000
# 3 -0.1473 10.0726 88.4462 0.0000 25.2214 0.0000
# 4 0.0000 0.0000 0.0000 21.1881 0.0000 9.0829
# 5 29.8958 17.9091 25.2214 0.0000 30.3922 0.0000
# 6 0.0000 0.0000 0.0000 9.0829 0.0000 40.1969
#
#
#
# Elastic Compliance Matrix: (Units=1/GPa)
#
#
# Indices 1 2 3 4 5 6 
#
# 1 0.015998 -0.002225 0.005756 0.000000 -0.019202 0.000000
# 2 -0.002225 0.009174 -0.000172 0.000000 -0.003075 0.000000
# 3 0.005756 -0.000172 0.016927 0.000000 -0.019608 0.000000
# 4 0.000000 0.000000 0.000000 0.052258 0.000000 -0.011808
# 5 -0.019202 -0.003075 -0.019608 0.000000 0.069876 0.000000
# 6 0.000000 0.000000 0.000000 -0.011808 0.000000 0.027546
#
#
# Mechanical properties :
#
#
# Convention : Reuss Voigt Hill
#
# Bulk Modulus (GPa) = 20.48422 45.05209 32.76816
# Shear Modulus (GPa) = 24.83465 36.38695 30.61080
#
# Velocity S-wave (km/s) = 3.24297 3.92543 3.60041
# Velocity P-wave (km/s) = 4.76414 6.29474 5.58215
#
# Compressibility (1/GPa) = 0.04881806
#
# Stress axis : x y z
#
# Youngs Moduli (GPa) = 62.50752 109.00695 59.07799
#
# Poissons Ratio (x) = 0.24249 -0.34004
# Poissons Ratio (y) = 0.13905 0.01013
# Poissons Ratio (z) = -0.35978 0.01870
#
# Static dielectric constant tensor:
#      x y z
#    x 1.872060 0.000000 -0.020370 
#    y 0.000000 3.999430 0.000000 
#    z -0.020370 0.000000 2.011220 
# 
# From -- ./inp_files/51288.got.cif
#   From: 2010.05.17/outbox.cif.g08.bks.cpg/sg12_26_cif.got.tgz:51288.got - 2010.06.03 13:09:07.
