data_PCOD9189117
_publ_section_title
;
Structure prediction by ZEFSAII (Michael W. Deem and Ramdas Pophale) SiO2 
 PCOD9189117
Probable space group: C 2/M
;
_chemical_formula_sum "Si O2"
_cell_formula_units_Z 58
_cell_length_a 16.749483
_cell_length_b 22.125272
_cell_length_c 11.386150
_cell_angle_alpha 90.000000
_cell_angle_beta 135.637378
_cell_angle_gamma 90.000000
_cell_volume 2950.302443
_symmetry_space_group_name_H-M "C 2/M"
_symmetry_group_IT_number 12
_symmetry_cell_setting 'monoclinic'
loop_
_space_group_symop_operation_xyz
x,y,z
-x,y,-z
-x,-y,-z
x,-y,z
1/2+x,1/2+y,z
1/2-x,1/2+y,-z
1/2-x,1/2-y,-z
1/2+x,1/2-y,z
loop_
_atom_site_type_symbol
_atom_site_label
_atom_site_fract_x
_atom_site_fract_y
_atom_site_fract_z
Si Si1 0.313362 0.882782 0.358520
Si Si2 0.911760 0.885673 0.251186
Si Si3 0.181395 0.759296 0.264185
Si Si4 0.475950 0.846622 0.315303
Si Si5 0.298274 0.199738 0.956731
Si Si6 0.000000 0.000000 0.500000
Si Si7 0.583423 0.720105 0.398831
Si Si8 0.899400 0.068745 0.975091
O O1 0.237415 0.824794 0.307992
O O2 0.389799 0.868703 0.324784
O O3 0.410300 0.888174 0.561122
O O4 0.218583 0.930693 0.221879
O O5 0.805221 0.845471 0.182753
O O6 0.886677 0.899237 0.086905
O O7 0.019514 0.840482 0.364734
O O8 0.940635 0.945869 0.354155
O O9 0.156741 0.733632 0.110762
O O10 0.284643 0.718713 0.424968
O O11 0.085354 0.766213 0.261421
O O12 0.521879 0.778674 0.389144
O O13 0.399497 0.839113 0.120483
O O14 0.250000 0.250000 0.000000
O O15 0.933560 0.000000 0.037414
O O16 0.000000 0.095932 0.000000
#
# Coordination Sequence:
#
# PCOD9189117 Si02
#       8
#     8   8   8   8   8   2   8   8
#     4  10  19  37  57  83 124 157 199 252 314 375
#     4  12  22  40  60  88 129 170 216 261 316 385
#     4  10  20  34  54  89 124 158 206 245 322 394
#     4  10  20  34  57  89 124 161 197 251 322 398
#     4  12  20  35  60  92 122 169 206 264 325 383
#     4  12  28  40  58  88 126 178 224 258 310 390
#     4  10  21  35  56  86 125 164 199 257 318 382
#     4  11  23  40  64  91 116 154 215 270 310 363
#
# _framework density 19.659002000000001
#
# number of rings (size 3 to 8) (size 9 to 14) (size 15 to 20)
#    0.000    1.241    4.828    1.655    0.000    1.655 
#    0.000    1.379    1.517    0.000    0.000    0.000 
#    2.069    7.172    0.000    0.000    0.000    0.000 
#
# Total GULP energy -161523.572126 kJ/mol
# GULP energy per Si atom -5569.778349 kJ/mol
# Density = 1.961426 g / cm^3
# Si number density = 19.659002 Si / 1000 Ang^3
#
#
#
# Elastic Constant Matrix: (Units=GPa)
#
#
# Indices 1 2 3 4 5 6 
#
# 1 71.3441 15.5638 28.2205 0.0000 -5.1249 0.0000
# 2 15.5638 72.3905 22.1016 0.0000 6.8966 0.0000
# 3 28.2205 22.1016 106.3860 0.0000 1.3660 0.0000
# 4 0.0000 0.0000 0.0000 31.4805 0.0000 0.5832
# 5 -5.1249 6.8966 1.3660 0.0000 31.0275 0.0000
# 6 0.0000 0.0000 0.0000 0.5832 0.0000 10.2881
#
#
#
# Elastic Compliance Matrix: (Units=1/GPa)
#
#
# Indices 1 2 3 4 5 6 
#
# 1 0.016365 -0.002680 -0.003829 0.000000 0.003467 0.000000
# 2 -0.002680 0.015502 -0.002461 0.000000 -0.003780 0.000000
# 3 -0.003829 -0.002461 0.010934 0.000000 -0.000567 0.000000
# 4 0.000000 0.000000 0.000000 0.031799 0.000000 -0.001802
# 5 0.003467 -0.003780 -0.000567 0.000000 0.033667 0.000000
# 6 0.000000 0.000000 0.000000 -0.001802 0.000000 0.097302
#
#
# Mechanical properties :
#
#
# Convention : Reuss Voigt Hill
#
# Bulk Modulus (GPa) = 40.22351 42.43248 41.32799
# Shear Modulus (GPa) = 21.57079 26.84153 24.20616
#
# Velocity S-wave (km/s) = 3.31607 3.69908 3.51280
# Velocity P-wave (km/s) = 5.93016 6.31469 6.12544
#
# Compressibility (1/GPa) = 0.02486108
#
# Stress axis : x y z
#
# Youngs Moduli (GPa) = 61.10706 64.50944 91.45832
#
# Poissons Ratio (x) = 0.17287 0.35018
# Poissons Ratio (y) = 0.16375 0.22509
# Poissons Ratio (z) = 0.23397 0.15876
#
# Static dielectric constant tensor:
#      x y z
#    x 1.711730 0.000000 -0.011070 
#    y 0.000000 1.668100 0.000000 
#    z -0.011070 0.000000 1.793170 
# 
# From -- ./inp_files/159806.got.cif
#   From: 2010.05.17/outbox.cif.g08.bks.cpg/sg12_80_cif.got.tgz:159806.got - 2010.06.03 13:09:07.
