data_PCOD9189282
_publ_section_title
;
Structure prediction by ZEFSAII (Michael W. Deem and Ramdas Pophale) SiO2 
 PCOD9189282
Probable space group: C 2/M
;
_chemical_formula_sum "Si O2"
_cell_formula_units_Z 56
_cell_length_a 26.091230
_cell_length_b 12.575282
_cell_length_c 8.545988
_cell_angle_alpha 90.000000
_cell_angle_beta 106.516317
_cell_angle_gamma 90.000000
_cell_volume 2688.282309
_symmetry_space_group_name_H-M "C 2/M"
_symmetry_group_IT_number 12
_symmetry_cell_setting 'monoclinic'
loop_
_space_group_symop_operation_xyz
x,y,z
-x,y,-z
-x,-y,-z
x,-y,z
1/2+x,1/2+y,z
1/2-x,1/2+y,-z
1/2-x,1/2-y,-z
1/2+x,1/2-y,z
loop_
_atom_site_type_symbol
_atom_site_label
_atom_site_fract_x
_atom_site_fract_y
_atom_site_fract_z
Si Si1 0.061139 0.881395 0.004822
Si Si2 0.619674 0.790853 0.270458
Si Si3 0.221448 0.666582 0.205143
Si Si4 0.782034 0.877999 0.952505
Si Si5 0.385299 0.314086 0.241815
Si Si6 0.936644 0.374937 0.471788
Si Si7 0.674667 0.613613 0.515670
O O1 0.067929 0.858795 0.826419
O O2 0.083326 0.000000 0.056287
O O3 0.088323 0.787073 0.126315
O O4 0.000000 0.882187 0.000000
O O5 0.661811 0.860089 0.208295
O O6 0.582166 0.846646 0.366861
O O7 0.658989 0.713802 0.401111
O O8 0.236350 0.624898 0.045440
O O9 0.266520 0.624360 0.360832
O O10 0.230100 0.794602 0.194168
O O11 0.834066 0.827062 0.083151
O O12 0.791149 0.000000 0.916000
O O13 0.402434 0.199731 0.324671
O O14 0.367166 0.381146 0.376071
O O15 0.927448 0.500000 0.436119
O O16 0.000000 0.353368 0.500000
O O17 0.669419 0.500000 0.430406
#
# Coordination Sequence:
#
# PCOD9189282 Si02
#       7
#     8   8   8   8   8   8   8
#     4  11  22  36  60  93 122 151 194 250 308 361
#     4  11  22  38  61  89 121 153 200 252 301 348
#     4  10  20  35  55  87 118 155 195 238 288 353
#     4  10  20  36  59  86 122 158 188 233 297 365
#     4  10  19  37  61  84 112 155 196 240 294 355
#     4  10  23  43  62  81 113 161 208 251 300 348
#     4  10  21  37  58  84 121 160 193 236 296 362
#
# _framework density 20.831146
#
# number of rings (size 3 to 8) (size 9 to 14) (size 15 to 20)
#    0.000    1.714    1.429    4.286    0.000    1.714 
#    0.000   12.857    0.000   11.571    0.000    0.000 
#    0.000    0.000    0.000    0.000    0.000    0.000 
#
# Total GULP energy -156242.480233 kJ/mol
# GULP energy per Si atom -5580.088580 kJ/mol
# Density = 2.078373 g / cm^3
# Si number density = 20.831146 Si / 1000 Ang^3
#
#
#
# Elastic Constant Matrix: (Units=GPa)
#
#
# Indices 1 2 3 4 5 6 
#
# 1 145.7974 40.9507 27.8831 0.0000 -38.5851 0.0000
# 2 40.9507 132.3841 23.8608 0.0000 6.8195 0.0000
# 3 27.8831 23.8608 44.5129 0.0000 -14.7428 0.0000
# 4 0.0000 0.0000 0.0000 23.4279 0.0000 9.6958
# 5 -38.5851 6.8195 -14.7428 0.0000 27.6851 0.0000
# 6 0.0000 0.0000 0.0000 9.6958 0.0000 -17.1082
#
#
#
# Elastic Compliance Matrix: (Units=1/GPa)
#
#
# Indices 1 2 3 4 5 6 
#
# 1 0.013851 -0.005656 0.001470 0.000000 0.021481 0.000000
# 2 -0.005656 0.011393 -0.007412 0.000000 -0.014636 0.000000
# 3 0.001470 -0.007412 0.032540 0.000000 0.021203 0.000000
# 4 0.000000 0.000000 0.000000 0.034575 0.000000 0.019595
# 5 0.021481 -0.014636 0.021203 0.000000 0.080954 0.000000
# 6 0.000000 0.000000 0.000000 0.019595 0.000000 -0.047346
#
#
# Mechanical properties :
#
#
# Convention : Reuss Voigt Hill
#
# Bulk Modulus (GPa) = 28.91146 56.45374 42.68260
# Shear Modulus (GPa) = 31.11526 22.13426 26.62476
#
# Velocity S-wave (km/s) = 3.86902 3.26322 3.57896
# Velocity P-wave (km/s) = 5.81964 6.43099 6.13294
#
# Compressibility (1/GPa) = 0.03458836
#
# Stress axis : x y z
#
# Youngs Moduli (GPa) = 72.19609 87.77121 30.73133
#
# Poissons Ratio (x) = 0.49644 -0.04517
# Poissons Ratio (y) = 0.40835 0.22778
# Poissons Ratio (z) = -0.10612 0.65055
#
# Static dielectric constant tensor:
#      x y z
#    x 1.793640 0.000000 -0.028340 
#    y 0.000000 1.756930 0.000000 
#    z -0.028340 0.000000 1.740580 
# 
# From -- ./inp_files/103254.got.cif
#   From: 2010.05.17/outbox.cif.g08.bks.cpg/sg12_52_cif.got.tgz:103254.got - 2010.06.03 13:09:07.
