data_PCOD9189763
_publ_section_title
;
Structure prediction by ZEFSAII (Michael W. Deem and Ramdas Pophale) SiO2 
 PCOD9189763
Probable space group: C 2/M
;
_chemical_formula_sum "Si O2"
_cell_formula_units_Z 48
_cell_length_a 17.993625
_cell_length_b 18.506312
_cell_length_c 9.050056
_cell_angle_alpha 90.000000
_cell_angle_beta 55.939516
_cell_angle_gamma 90.000000
_cell_volume 2496.631450
_symmetry_space_group_name_H-M "C 2/M"
_symmetry_group_IT_number 12
_symmetry_cell_setting 'monoclinic'
loop_
_space_group_symop_operation_xyz
x,y,z
-x,y,-z
-x,-y,-z
x,-y,z
1/2+x,1/2+y,z
1/2-x,1/2+y,-z
1/2-x,1/2-y,-z
1/2+x,1/2-y,z
loop_
_atom_site_type_symbol
_atom_site_label
_atom_site_fract_x
_atom_site_fract_y
_atom_site_fract_z
Si Si1 0.155928 0.207203 0.127122
Si Si2 0.674593 0.288228 0.440043
Si Si3 0.254369 0.132093 0.598067
Si Si4 0.095835 0.916554 0.967318
Si Si5 0.986173 0.719532 0.189362
Si Si6 0.049816 0.417729 0.595812
O O1 0.144505 0.188972 0.312226
O O2 0.077842 0.261280 0.167699
O O3 0.250000 0.250000 0.000000
O O4 0.133435 0.137065 0.051878
O O5 0.730941 0.213894 0.357275
O O6 0.735361 0.349300 0.448296
O O7 0.593730 0.265693 0.642404
O O8 0.169248 0.092532 0.758001
O O9 0.343238 0.089092 0.540905
O O10 0.089674 0.000000 0.023456
O O11 0.000000 0.896574 0.000000
O O12 0.968555 0.636549 0.250170
O O13 0.000000 0.731133 0.000000
O O14 0.022962 0.500000 0.653931
O O15 0.000000 0.393770 0.500000
#
# Coordination Sequence:
#
# PCOD9189763 Si02
#       6
#     8   8   8   8   8   8
#     4  12  23  38  65  97 123 163 208 266 310 370
#     4  10  21  37  65  93 124 160 213 263 311 366
#     4  10  19  38  62  90 124 167 209 258 309 376
#     4  11  24  42  64  93 132 173 212 258 324 388
#     4  11  23  39  63  91 125 163 208 262 310 372
#     4  10  22  39  60  87 124 168 209 253 317 381
#
# _framework density 19.225905999999998
#
# number of rings (size 3 to 8) (size 9 to 14) (size 15 to 20)
#    0.000    1.333    1.667    5.500    4.667    0.333 
#    0.000    1.667    0.000    4.000    0.000    0.000 
#    0.000    0.000    0.000    0.000    0.000    0.000 
#
# Total GULP energy -133879.271000 kJ/mol
# GULP energy per Si atom -5578.302958 kJ/mol
# Density = 1.918215 g / cm^3
# Si number density = 19.225906 Si / 1000 Ang^3
#
#
#
# Elastic Constant Matrix: (Units=GPa)
#
#
# Indices 1 2 3 4 5 6 
#
# 1 152.0720 33.5352 57.5299 0.0000 0.0382 0.0000
# 2 33.5352 84.1164 33.5718 0.0000 4.3165 0.0000
# 3 57.5299 33.5718 88.0228 0.0000 12.9978 0.0000
# 4 0.0000 0.0000 0.0000 14.8833 0.0000 2.9977
# 5 0.0382 4.3165 12.9978 0.0000 44.6910 0.0000
# 6 0.0000 0.0000 0.0000 2.9977 0.0000 32.1324
#
#
#
# Elastic Compliance Matrix: (Units=1/GPa)
#
#
# Indices 1 2 3 4 5 6 
#
# 1 0.009013 -0.001449 -0.005598 0.000000 0.001760 0.000000
# 2 -0.001449 0.014258 -0.004480 0.000000 -0.000073 0.000000
# 3 -0.005598 -0.004480 0.017411 0.000000 -0.004626 0.000000
# 4 0.000000 0.000000 0.000000 0.068476 0.000000 -0.006388
# 5 0.001760 -0.000073 -0.004626 0.000000 0.023727 0.000000
# 6 0.000000 0.000000 0.000000 -0.006388 0.000000 0.031717
#
#
# Mechanical properties :
#
#
# Convention : Reuss Voigt Hill
#
# Bulk Modulus (GPa) = 56.72898 63.72056 60.22477
# Shear Modulus (GPa) = 25.83560 31.64628 28.74094
#
# Velocity S-wave (km/s) = 3.66975 4.06152 3.87060
# Velocity P-wave (km/s) = 6.89396 7.43032 7.16716
#
# Compressibility (1/GPa) = 0.01762767
#
# Stress axis : x y z
#
# Youngs Moduli (GPa) = 110.95547 70.13697 57.43524
#
# Poissons Ratio (x) = 0.10166 0.32150
# Poissons Ratio (y) = 0.16082 0.25730
# Poissons Ratio (z) = 0.62109 0.31420
#
# Static dielectric constant tensor:
#      x y z
#    x 1.704890 0.000000 0.005090 
#    y 0.000000 1.684470 0.000000 
#    z 0.005090 0.000000 1.711410 
# 
# From -- ./inp_files/75112.got.cif
#   From: 2010.05.17/outbox.cif.g08.bks.cpg/sg12_38_cif.got.tgz:75112.got - 2010.06.03 13:09:07.
