data_PCOD9189963
_publ_section_title
;
Structure prediction by ZEFSAII (Michael W. Deem and Ramdas Pophale) SiO2 
 PCOD9189963
Probable space group: C 2/M
;
_chemical_formula_sum "Si O2"
_cell_formula_units_Z 40
_cell_length_a 9.062935
_cell_length_b 25.433037
_cell_length_c 14.955664
_cell_angle_alpha 90.000000
_cell_angle_beta 142.914337
_cell_angle_gamma 90.000000
_cell_volume 2078.720713
_symmetry_space_group_name_H-M "C 2/M"
_symmetry_group_IT_number 12
_symmetry_cell_setting 'monoclinic'
loop_
_space_group_symop_operation_xyz
x,y,z
-x,y,-z
-x,-y,-z
x,-y,z
1/2+x,1/2+y,z
1/2-x,1/2+y,-z
1/2-x,1/2-y,-z
1/2+x,1/2-y,z
loop_
_atom_site_type_symbol
_atom_site_label
_atom_site_fract_x
_atom_site_fract_y
_atom_site_fract_z
Si Si1 0.789245 0.182542 0.826491
Si Si2 0.709004 0.646177 0.365352
Si Si3 0.938884 0.217843 0.372556
Si Si4 0.999664 0.938190 0.372403
Si Si5 0.849686 0.382069 0.689931
O O1 0.884274 0.167075 0.774436
O O2 0.654907 0.237522 0.739279
O O3 0.606867 0.136969 0.774954
O O4 0.000000 0.190494 0.000000
O O5 0.643348 0.686398 0.414730
O O6 0.572224 0.591396 0.317664
O O7 0.000000 0.638584 0.500000
O O8 0.756143 0.171711 0.317119
O O9 0.000000 0.241613 0.500000
O O10 0.189428 0.908622 0.532604
O O11 0.722061 0.923777 0.267545
O O12 0.038635 0.000000 0.393391
#
# Coordination Sequence:
#
# PCOD9189963 Si02
#       5
#     8   8   8   8   8
#     4  12  26  39  55  87 132 170 197 236 290 355
#     4  11  21  39  61  93 122 154 201 256 297 343
#     4  11  21  37  61  87 124 164 203 237 291 357
#     4  10  20  39  67  93 112 146 202 261 312 350
#     4  10  19  39  59  90 122 157 193 245 305 352
#
# _framework density 19.242602999999999
#
# number of rings (size 3 to 8) (size 9 to 14) (size 15 to 20)
#    0.000    1.200    6.000    3.000    0.000    6.000 
#    3.600    3.000    0.000    6.600    0.000    0.000 
#    0.000    0.000    0.000    0.000    0.000    0.000 
#
# Total GULP energy -111343.273942 kJ/mol
# GULP energy per Si atom -5567.163697 kJ/mol
# Density = 1.919881 g / cm^3
# Si number density = 19.242603 Si / 1000 Ang^3
#
#
#
# Elastic Constant Matrix: (Units=GPa)
#
#
# Indices 1 2 3 4 5 6 
#
# 1 124.8989 52.0111 35.8649 0.0000 -6.9856 0.0000
# 2 52.0111 148.8097 42.0826 0.0000 1.6649 0.0000
# 3 35.8649 42.0826 80.1015 0.0000 -13.0871 0.0000
# 4 0.0000 0.0000 0.0000 1.7788 0.0000 1.2663
# 5 -6.9856 1.6649 -13.0871 0.0000 17.0563 0.0000
# 6 0.0000 0.0000 0.0000 1.2663 0.0000 9.1534
#
#
#
# Elastic Compliance Matrix: (Units=1/GPa)
#
#
# Indices 1 2 3 4 5 6 
#
# 1 0.010063 -0.002793 -0.002653 0.000000 0.002359 0.000000
# 2 -0.002793 0.008985 -0.004344 0.000000 -0.005355 0.000000
# 3 -0.002653 -0.004344 0.018117 0.000000 0.013239 0.000000
# 4 0.000000 0.000000 0.000000 0.623591 0.000000 -0.086266
# 5 0.002359 -0.005355 0.013239 0.000000 0.070276 0.000000
# 6 0.000000 0.000000 0.000000 -0.086266 0.000000 0.121183
#
#
# Mechanical properties :
#
#
# Convention : Reuss Voigt Hill
#
# Bulk Modulus (GPa) = 56.86948 68.19192 62.53070
# Shear Modulus (GPa) = 5.69698 20.52114 13.10906
#
# Velocity S-wave (km/s) = 1.72251 3.26919 2.61291
# Velocity P-wave (km/s) = 5.79432 7.05443 6.45520
#
# Compressibility (1/GPa) = 0.01758412
#
# Stress axis : x y z
#
# Youngs Moduli (GPa) = 99.36945 111.29862 55.19584
#
# Poissons Ratio (x) = 0.31091 0.14643
# Poissons Ratio (y) = 0.27759 0.23979
# Poissons Ratio (z) = 0.26361 0.48352
#
# Static dielectric constant tensor:
#      x y z
#    x 1.758240 0.000000 -0.004060 
#    y 0.000000 1.700620 0.000000 
#    z -0.004060 0.000000 1.714710 
# 
# From -- ./inp_files/199509.got.cif
#   From: 2010.05.17/outbox.cif.g08.bks.cpg/sg12_100_cif.got.tgz:199509.got - 2010.06.03 13:09:07.
