data_PCOD9189122
_publ_section_title
;
Structure prediction by ZEFSAII (Michael W. Deem and Ramdas Pophale) SiO2 
 PCOD9189122
Probable space group: C 2/M
;
_chemical_formula_sum "Si O2"
_cell_formula_units_Z 48
_cell_length_a 13.087952
_cell_length_b 12.859318
_cell_length_c 14.839375
_cell_angle_alpha 90.000000
_cell_angle_beta 57.584612
_cell_angle_gamma 90.000000
_cell_volume 2108.348259
_symmetry_space_group_name_H-M "C 2/M"
_symmetry_group_IT_number 12
_symmetry_cell_setting 'monoclinic'
loop_
_space_group_symop_operation_xyz
x,y,z
-x,y,-z
-x,-y,-z
x,-y,z
1/2+x,1/2+y,z
1/2-x,1/2+y,-z
1/2-x,1/2-y,-z
1/2+x,1/2-y,z
loop_
_atom_site_type_symbol
_atom_site_label
_atom_site_fract_x
_atom_site_fract_y
_atom_site_fract_z
Si Si1 0.905238 0.681838 0.973225
Si Si2 0.443092 0.609425 0.136329
Si Si3 0.711542 0.815402 0.153861
Si Si4 0.114720 0.842602 0.636986
Si Si5 0.588821 0.292528 0.379032
Si Si6 0.301218 0.883406 0.399174
O O1 0.867680 0.640477 0.891882
O O2 0.974267 0.790082 0.916967
O O3 0.779769 0.711079 0.083076
O O4 0.000000 0.630370 0.000000
O O5 0.508466 0.500000 0.094318
O O6 0.325688 0.616277 0.128974
O O7 0.393742 0.615503 0.260339
O O8 0.642935 0.784956 0.278422
O O9 0.233629 0.876557 0.527584
O O10 0.112816 0.716427 0.643600
O O11 0.998331 0.870721 0.633493
O O12 0.500000 0.247695 0.500000
O O13 0.697994 0.352432 0.375708
O O14 0.347978 0.000000 0.362502
#
# Coordination Sequence:
#
# PCOD9189122 Si02
#       6
#     8   8   8   8   8   8
#     4   9  20  36  61  84 111 159 200 241 301 355
#     4  11  21  35  61  92 118 152 203 252 299 351
#     4  10  19  37  57  85 120 157 190 247 304 349
#     4  10  20  36  58  87 125 157 199 250 298 347
#     4  10  20  35  60  86 120 156 198 243 296 351
#     4  10  21  37  59  85 120 165 206 241 292 356
#
# _framework density 22.766638
#
# number of rings (size 3 to 8) (size 9 to 14) (size 15 to 20)
#    0.000    2.000    3.333    0.500    0.000    6.667 
#    0.000    0.833    0.000    3.500    0.000    0.000 
#    0.000    0.000    0.000    0.000    0.000    0.000 
#
# Total GULP energy -133843.625226 kJ/mol
# GULP energy per Si atom -5576.817718 kJ/mol
# Density = 2.271482 g / cm^3
# Si number density = 22.766638 Si / 1000 Ang^3
#
#
#
# Elastic Constant Matrix: (Units=GPa)
#
#
# Indices 1 2 3 4 5 6 
#
# 1 116.4929 9.7889 31.3150 0.0000 27.1422 0.0000
# 2 9.7889 93.3980 14.4386 0.0000 -2.0121 0.0000
# 3 31.3150 14.4386 138.2603 0.0000 30.6599 0.0000
# 4 0.0000 0.0000 0.0000 0.5431 0.0000 -4.8454
# 5 27.1422 -2.0121 30.6599 0.0000 39.4872 0.0000
# 6 0.0000 0.0000 0.0000 -4.8454 0.0000 -1.2811
#
#
#
# Elastic Compliance Matrix: (Units=1/GPa)
#
#
# Indices 1 2 3 4 5 6 
#
# 1 0.010430 -0.001116 -0.000777 0.000000 -0.006623 0.000000
# 2 -0.001116 0.011101 -0.001452 0.000000 0.002460 0.000000
# 3 -0.000777 -0.001452 0.009010 0.000000 -0.006535 0.000000
# 4 0.000000 0.000000 0.000000 0.052997 0.000000 -0.200441
# 5 -0.006623 0.002460 -0.006535 0.000000 0.035076 0.000000
# 6 0.000000 0.000000 0.000000 -0.200441 0.000000 -0.022469
#
#
# Mechanical properties :
#
#
# Convention : Reuss Voigt Hill
#
# Bulk Modulus (GPa) = 41.92731 51.02625 46.47678
# Shear Modulus (GPa) = 45.13208 27.25709 36.19458
#
# Velocity S-wave (km/s) = 4.45722 3.46387 3.99157
# Velocity P-wave (km/s) = 6.70412 6.20155 6.45772
#
# Compressibility (1/GPa) = 0.02385080
#
# Stress axis : x y z
#
# Youngs Moduli (GPa) = 95.87813 90.07963 110.99194
#
# Poissons Ratio (x) = 0.10050 0.08626
# Poissons Ratio (y) = 0.10697 0.16118
# Poissons Ratio (z) = 0.07452 0.13081
#
# Static dielectric constant tensor:
#      x y z
#    x 1.878170 0.000000 0.021850 
#    y 0.000000 1.850640 0.000000 
#    z 0.021850 0.000000 1.882850 
# 
# From -- ./inp_files/213248.got.cif
#   From: 2010.05.17/outbox.cif.g08.bks.cpg/sg12_107_cif.got.tgz:213248.got - 2010.06.03 13:09:07.
