data_PCOD9189732
_publ_section_title
;
Structure prediction by ZEFSAII (Michael W. Deem and Ramdas Pophale) SiO2 
 PCOD9189732
Probable space group: C 2/M
;
_chemical_formula_sum "Si O2"
_cell_formula_units_Z 30
_cell_length_a 10.173963
_cell_length_b 14.310128
_cell_length_c 11.205448
_cell_angle_alpha 90.000000
_cell_angle_beta 109.827270
_cell_angle_gamma 90.000000
_cell_volume 1534.698312
_symmetry_space_group_name_H-M "C 2/M"
_symmetry_group_IT_number 12
_symmetry_cell_setting 'monoclinic'
loop_
_space_group_symop_operation_xyz
x,y,z
-x,y,-z
-x,-y,-z
x,-y,z
1/2+x,1/2+y,z
1/2-x,1/2+y,-z
1/2-x,1/2-y,-z
1/2+x,1/2-y,z
loop_
_atom_site_type_symbol
_atom_site_label
_atom_site_fract_x
_atom_site_fract_y
_atom_site_fract_z
Si Si1 0.000000 0.000000 0.500000
Si Si2 0.207140 0.500000 0.264258
Si Si3 0.531733 0.169177 0.143099
Si Si4 0.234969 0.841605 0.156818
Si Si5 0.143649 0.000000 0.281840
Si Si6 0.351742 0.500000 0.055049
O O1 0.155021 0.000000 0.613711
O O2 0.079619 0.000000 0.392692
O O3 0.111963 0.591930 0.245351
O O4 0.259081 0.500000 0.143927
O O5 0.387139 0.193756 0.164307
O O6 0.629503 0.258025 0.150075
O O7 0.500000 0.131025 0.000000
O O8 0.232360 0.909162 0.271327
O O9 0.183934 0.908045 0.032653
O O10 0.009810 0.000000 0.150721
#
# Coordination Sequence:
#
# PCOD9189732 Si02
#       6
#     2   4   8   8   4   4
#     4  10  26  44  72  86 120 176 226 264 310 354
#     4  11  23  41  64  89 132 167 218 257 314 370
#     4  12  23  37  64 103 136 163 201 261 327 388
#     4  11  23  37  65 101 132 162 205 258 331 381
#     4  10  22  43  64  87 129 171 216 260 310 375
#     4  10  19  38  61  95 131 167 200 259 320 387
#
# _framework density 19.547813999999999
#
# number of rings (size 3 to 8) (size 9 to 14) (size 15 to 20)
#    0.000    1.067    2.667    6.000    7.467    0.000 
#    0.000    4.000    0.000    0.000    0.000    0.000 
#    0.000    0.000    0.000    0.000    0.000    0.000 
#
# Total GULP energy -83552.908922 kJ/mol
# GULP energy per Si atom -5570.193928 kJ/mol
# Density = 1.950332 g / cm^3
# Si number density = 19.547814 Si / 1000 Ang^3
#
#
#
# Elastic Constant Matrix: (Units=GPa)
#
#
# Indices 1 2 3 4 5 6 
#
# 1 207.7352 68.8422 54.0853 0.0000 -3.0314 0.0000
# 2 68.8422 115.4877 45.4988 0.0000 20.8873 0.0000
# 3 54.0853 45.4988 105.6290 0.0000 -3.9148 0.0000
# 4 0.0000 0.0000 0.0000 -1.2502 0.0000 1.6275
# 5 -3.0314 20.8873 -3.9148 0.0000 27.6288 0.0000
# 6 0.0000 0.0000 0.0000 1.6275 0.0000 25.8179
#
#
#
# Elastic Compliance Matrix: (Units=1/GPa)
#
#
# Indices 1 2 3 4 5 6 
#
# 1 0.006571 -0.003941 -0.001538 0.000000 0.003482 0.000000
# 2 -0.003941 0.015292 -0.005040 0.000000 -0.012707 0.000000
# 3 -0.001538 -0.005040 0.012627 0.000000 0.005431 0.000000
# 4 0.000000 0.000000 0.000000 -0.739188 0.000000 0.046596
# 5 0.003482 -0.012707 0.005431 0.000000 0.046952 0.000000
# 6 0.000000 0.000000 0.000000 0.046596 0.000000 0.035796
#
#
# Mechanical properties :
#
#
# Convention : Reuss Voigt Hill
#
# Bulk Modulus (GPa) = 74.33816 85.07826 79.70821
# Shear Modulus (GPa) = -8.38323 27.80100 9.70888
#
# Velocity S-wave (km/s) = -2.07313 3.77530 2.23104
# Velocity P-wave (km/s) = 5.69042 7.91338 6.89211
#
# Compressibility (1/GPa) = 0.01345204
#
# Stress axis : x y z
#
# Youngs Moduli (GPa) = 152.18248 65.39392 79.19667
#
# Poissons Ratio (x) = 0.25771 0.12181
# Poissons Ratio (y) = 0.59974 0.39915
# Poissons Ratio (z) = 0.23406 0.32958
#
# Static dielectric constant tensor:
#      x y z
#    x 1.720050 0.000000 0.007630 
#    y 0.000000 1.714980 0.000000 
#    z 0.007630 0.000000 1.661120 
# 
# From -- ./inp_files/117871.got.cif
#   From: 2010.05.17/outbox.cif.g08.bks.cpg/sg12_59_cif.got.tgz:117871.got - 2010.06.03 13:09:07.
