data_PCOD9189527
_publ_section_title
;
Structure prediction by ZEFSAII (Michael W. Deem and Ramdas Pophale) SiO2 
 PCOD9189527
Probable space group: C 2/M
;
_chemical_formula_sum "Si O2"
_cell_formula_units_Z 40
_cell_length_a 12.511018
_cell_length_b 13.627165
_cell_length_c 15.146385
_cell_angle_alpha 90.000000
_cell_angle_beta 139.806746
_cell_angle_gamma 90.000000
_cell_volume 1666.534916
_symmetry_space_group_name_H-M "C 2/M"
_symmetry_group_IT_number 12
_symmetry_cell_setting 'monoclinic'
loop_
_space_group_symop_operation_xyz
x,y,z
-x,y,-z
-x,-y,-z
x,-y,z
1/2+x,1/2+y,z
1/2-x,1/2+y,-z
1/2-x,1/2-y,-z
1/2+x,1/2-y,z
loop_
_atom_site_type_symbol
_atom_site_label
_atom_site_fract_x
_atom_site_fract_y
_atom_site_fract_z
Si Si1 0.025485 0.310058 0.618846
Si Si2 0.111223 0.346079 0.988868
Si Si3 0.979321 0.110892 0.286876
Si Si4 0.619575 0.894783 0.302661
Si Si5 0.633283 0.697771 0.219755
O O1 0.987499 0.197602 0.622935
O O2 0.918777 0.373241 0.620007
O O3 0.222293 0.330632 0.755409
O O4 0.000000 0.330954 0.500000
O O5 0.054300 0.394492 0.861540
O O6 0.041369 0.235011 0.930412
O O7 0.297048 0.364041 0.133632
O O8 0.000000 0.384465 0.000000
O O9 0.099043 0.125099 0.278204
O O10 0.984224 0.000000 0.323038
O O11 0.699610 0.800172 0.306574
O O12 0.701116 0.000000 0.341080
#
# Coordination Sequence:
#
# PCOD9189527 Si02
#       5
#     8   8   8   8   8
#     4  11  24  42  60  85 122 165 207 244 291 350
#     4  10  19  37  65  92 118 153 190 246 303 366
#     4  11  22  38  62  92 124 154 196 248 301 358
#     4   9  21  38  61  90 118 153 199 246 297 356
#     4   9  22  38  59  88 122 156 195 245 296 352
#
# _framework density 24.001895999999999
#
# number of rings (size 3 to 8) (size 9 to 14) (size 15 to 20)
#    1.200    0.800    2.000    1.200    0.000    8.800 
#    0.000    2.000    0.000    3.000    0.000    0.000 
#    0.000    0.000    0.000    0.000    0.000    0.000 
#
# Total GULP energy -111570.806897 kJ/mol
# GULP energy per Si atom -5578.540345 kJ/mol
# Density = 2.394727 g / cm^3
# Si number density = 24.001896 Si / 1000 Ang^3
#
#
#
# Elastic Constant Matrix: (Units=GPa)
#
#
# Indices 1 2 3 4 5 6 
#
# 1 76.6600 2.6721 -11.9365 0.0001 -12.4554 0.0000
# 2 2.6721 49.4750 11.4367 0.0000 -3.4769 0.0000
# 3 -11.9365 11.4367 101.5048 0.0001 -15.4956 0.0001
# 4 0.0001 0.0000 0.0001 -19.9240 0.0001 11.5390
# 5 -12.4554 -3.4769 -15.4956 0.0001 44.8829 0.0001
# 6 0.0000 0.0000 0.0001 11.5390 0.0001 -9.7022
#
#
#
# Elastic Compliance Matrix: (Units=1/GPa)
#
#
# Indices 1 2 3 4 5 6 
#
# 1 0.014242 -0.001017 0.002513 0.000000 0.004741 0.000001
# 2 -0.001017 0.020856 -0.002392 0.000000 0.000508 0.000000
# 3 0.002513 -0.002392 0.011079 0.000000 0.004337 0.000001
# 4 0.000000 0.000000 0.000000 -0.161279 0.000001 -0.191812
# 5 0.004741 0.000508 0.004337 0.000001 0.025133 0.000001
# 6 0.000001 0.000000 0.000001 -0.191812 0.000001 -0.331195
#
#
# Mechanical properties :
#
#
# Convention : Reuss Voigt Hill
#
# Bulk Modulus (GPa) = 22.53028 25.77605 24.15317
# Shear Modulus (GPa) = -12.35855 18.08251 2.86198
#
# Velocity S-wave (km/s) = -2.27160 2.74775 1.09315
# Velocity P-wave (km/s) = 1.58966 4.56392 3.41734
#
# Compressibility (1/GPa) = 0.04438471
#
# Stress axis : x y z
#
# Youngs Moduli (GPa) = 70.21648 47.94845 90.26195
#
# Poissons Ratio (x) = 0.04876 -0.22684
# Poissons Ratio (y) = 0.07141 0.21590
# Poissons Ratio (z) = -0.17646 0.11469
#
# Static dielectric constant tensor:
#      x y z
#    x 1.891500 0.000000 0.026770 
#    y 0.000000 1.911290 0.000000 
#    z 0.026770 0.000000 2.000090 
# 
# From -- ./inp_files/204680.got.cif
#   From: 2010.05.17/outbox.cif.g08.bks.cpg/sg12_103_cif.got.tgz:204680.got - 2010.06.03 13:09:07.
