data_PCOD9189915
_publ_section_title
;
Structure prediction by ZEFSAII (Michael W. Deem and Ramdas Pophale) SiO2 
 PCOD9189915
Probable space group: C 2/M
;
_chemical_formula_sum "Si O2"
_cell_formula_units_Z 40
_cell_length_a 11.639257
_cell_length_b 16.503134
_cell_length_c 19.033399
_cell_angle_alpha 90.000000
_cell_angle_beta 28.606101
_cell_angle_gamma 90.000000
_cell_volume 1750.446672
_symmetry_space_group_name_H-M "C 2/M"
_symmetry_group_IT_number 12
_symmetry_cell_setting 'monoclinic'
loop_
_space_group_symop_operation_xyz
x,y,z
-x,y,-z
-x,-y,-z
x,-y,z
1/2+x,1/2+y,z
1/2-x,1/2+y,-z
1/2-x,1/2-y,-z
1/2+x,1/2-y,z
loop_
_atom_site_type_symbol
_atom_site_label
_atom_site_fract_x
_atom_site_fract_y
_atom_site_fract_z
Si Si1 0.134729 0.095551 0.742326
Si Si2 0.827997 0.810707 0.146142
Si Si3 0.571631 0.859016 0.042819
Si Si4 0.403976 0.299097 0.362713
Si Si5 0.632586 0.405966 0.358637
O O1 0.252432 0.129992 0.749670
O O2 0.218033 0.152823 0.634107
O O3 0.170183 0.000000 0.712532
O O4 0.848337 0.115900 0.901838
O O5 0.605823 0.764772 0.229446
O O6 0.992676 0.736026 0.087051
O O7 0.000000 0.855764 0.000000
O O8 0.416240 0.895857 0.190701
O O9 0.500000 0.884557 0.000000
O O10 0.250000 0.250000 0.500000
O O11 0.530564 0.365242 0.343630
O O12 0.500000 0.371544 0.500000
O O13 0.574340 0.500000 0.389002
#
# Coordination Sequence:
#
# PCOD9189915 Si02
#       5
#     8   8   8   8   8
#     4  12  24  40  69  99 128 168 222 275 325 384
#     4  10  22  42  64  94 128 168 214 269 319 391
#     4  10  19  38  67  94 124 167 216 267 319 389
#     4  11  25  40  63  90 126 176 217 262 320 397
#     4  10  21  36  58  91 128 158 206 274 326 369
#
# _framework density 22.851310000000002
#
# number of rings (size 3 to 8) (size 9 to 14) (size 15 to 20)
#    0.000    1.400    6.000    1.800    5.600    1.200 
#    0.000    3.000    0.000    0.000    0.000    0.000 
#    0.000    0.000    0.000    0.000    0.000    0.000 
#
# Total GULP energy -111617.319365 kJ/mol
# GULP energy per Si atom -5580.865968 kJ/mol
# Density = 2.279930 g / cm^3
# Si number density = 22.851310 Si / 1000 Ang^3
#
#
#
# Elastic Constant Matrix: (Units=GPa)
#
#
# Indices 1 2 3 4 5 6 
#
# 1 51.3757 25.9923 12.5043 -0.0015 22.6133 0.0064
# 2 25.9923 94.5563 27.9515 0.0202 11.2123 -0.0064
# 3 12.5043 27.9515 125.2601 0.0300 30.7139 -0.0030
# 4 -0.0015 0.0202 0.0300 7.1005 0.0119 7.2139
# 5 22.6133 11.2123 30.7139 0.0119 37.4802 0.0005
# 6 0.0064 -0.0064 -0.0030 7.2139 0.0005 19.2891
#
#
#
# Elastic Compliance Matrix: (Units=1/GPa)
#
#
# Indices 1 2 3 4 5 6 
#
# 1 0.030634 -0.007112 0.003178 0.000091 -0.018960 -0.000046
# 2 -0.007112 0.013056 -0.002876 -0.000060 0.002742 0.000029
# 3 0.003178 -0.002876 0.010721 -0.000032 -0.009843 0.000012
# 4 0.000091 -0.000060 -0.000032 0.227137 -0.000082 -0.084946
# 5 -0.018960 0.002742 -0.009843 -0.000082 0.045366 0.000035
# 6 -0.000046 0.000029 0.000012 -0.084946 0.000035 0.083612
#
#
# Mechanical properties :
#
#
# Convention : Reuss Voigt Hill
#
# Bulk Modulus (GPa) = 24.51503 44.89868 34.70686
# Shear Modulus (GPa) = 11.42223 26.42357 18.92290
#
# Velocity S-wave (km/s) = 2.23816 3.40417 2.88077
# Velocity P-wave (km/s) = 4.17498 5.92807 5.12701
#
# Compressibility (1/GPa) = 0.04079130
#
# Stress axis : x y z
#
# Youngs Moduli (GPa) = 32.64305 76.59490 93.27184
#
# Poissons Ratio (x) = 0.54476 -0.29640
# Poissons Ratio (y) = 0.23216 0.26822
# Poissons Ratio (z) = -0.10373 0.22026
#
# Static dielectric constant tensor:
#      x y z
#    x 1.909400 -0.000020 -0.051910 
#    y -0.000020 1.830710 0.000020 
#    z -0.051910 0.000020 2.095270 
# 
# From -- ./inp_files/264394.got.cif
#   From: 2010.05.17/outbox.cif.g08.bks.cpg/sg12_133_cif.got.tgz:264394.got - 2010.06.03 13:09:07.
