data_PCOD9189853
_publ_section_title
;
Structure prediction by ZEFSAII (Michael W. Deem and Ramdas Pophale) SiO2 
 PCOD9189853
Probable space group: C 2/M
;
_chemical_formula_sum "Si O2"
_cell_formula_units_Z 56
_cell_length_a 28.106095
_cell_length_b 17.797340
_cell_length_c 5.455083
_cell_angle_alpha 90.000000
_cell_angle_beta 68.122801
_cell_angle_gamma 90.000000
_cell_volume 2532.198485
_symmetry_space_group_name_H-M "C 2/M"
_symmetry_group_IT_number 12
_symmetry_cell_setting 'monoclinic'
loop_
_space_group_symop_operation_xyz
x,y,z
-x,y,-z
-x,-y,-z
x,-y,z
1/2+x,1/2+y,z
1/2-x,1/2+y,-z
1/2-x,1/2-y,-z
1/2+x,1/2-y,z
loop_
_atom_site_type_symbol
_atom_site_label
_atom_site_fract_x
_atom_site_fract_y
_atom_site_fract_z
Si Si1 0.018104 0.914165 0.209971
Si Si2 0.862906 0.920480 0.944054
Si Si3 0.060895 0.363160 0.411187
Si Si4 0.304327 0.664159 0.413337
Si Si5 0.633329 0.263634 0.340612
Si Si6 0.206555 0.690059 0.844270
Si Si7 0.617999 0.912839 0.805895
O O1 0.000000 0.879995 0.500000
O O2 0.995264 0.000000 0.254200
O O3 0.078658 0.921556 0.079355
O O4 0.000000 0.873990 0.000000
O O5 0.823824 0.909136 0.241923
O O6 0.853334 0.000000 0.832225
O O7 0.861085 0.843831 0.798590
O O8 0.080232 0.276726 0.386606
O O9 0.085483 0.395030 0.619658
O O10 0.000000 0.370638 0.500000
O O11 0.085056 0.399209 0.117994
O O12 0.353725 0.711446 0.410745
O O13 0.262154 0.652474 0.705309
O O14 0.282082 0.724197 0.263190
O O15 0.676108 0.205052 0.155064
O O16 0.167463 0.640973 0.752611
O O17 0.633483 0.000000 0.765223
#
# Coordination Sequence:
#
# PCOD9189853 Si02
#       7
#     8   8   8   8   8   8   8
#     4   9  19  36  56  77 110 158 203 248 305 368
#     4  10  23  38  56  90 126 160 213 273 328 387
#     4  11  24  43  67  97 133 173 223 271 326 402
#     4  10  19  38  65  86 120 169 215 265 324 385
#     4  10  21  39  62  90 123 173 215 272 322 393
#     4   9  20  38  62  91 123 164 217 262 318 395
#     4  11  23  42  67 100 138 171 213 272 335 401
#
# _framework density 22.115168000000001
#
# number of rings (size 3 to 8) (size 9 to 14) (size 15 to 20)
#    0.000    2.000    1.429    1.286    2.000    3.429 
#    0.000    0.000    0.000    0.000    0.000    0.000 
#    0.000    0.000    0.000    0.000    0.000    0.000 
#
# Total GULP energy -155946.583054 kJ/mol
# GULP energy per Si atom -5569.520823 kJ/mol
# Density = 2.206483 g / cm^3
# Si number density = 22.115168 Si / 1000 Ang^3
#
#
#
# Elastic Constant Matrix: (Units=GPa)
#
#
# Indices 1 2 3 4 5 6 
#
# 1 99.7589 31.6396 29.4568 0.0000 1.6026 0.0000
# 2 31.6396 120.8711 23.8838 0.0000 0.5009 0.0000
# 3 29.4568 23.8838 80.5198 0.0000 9.2780 0.0000
# 4 0.0000 0.0000 0.0000 20.5091 0.0000 -5.3750
# 5 1.6026 0.5009 9.2780 0.0000 36.8385 0.0000
# 6 0.0000 0.0000 0.0000 -5.3750 0.0000 22.1894
#
#
#
# Elastic Compliance Matrix: (Units=1/GPa)
#
#
# Indices 1 2 3 4 5 6 
#
# 1 0.011859 -0.002378 -0.003684 0.000000 0.000444 0.000000
# 2 -0.002378 0.009276 -0.001935 0.000000 0.000465 0.000000
# 3 -0.003684 -0.001935 0.014748 0.000000 -0.003528 0.000000
# 4 0.000000 0.000000 0.000000 0.052064 0.000000 0.012611
# 5 0.000444 0.000465 -0.003528 0.000000 0.028008 0.000000
# 6 0.000000 0.000000 0.000000 0.012611 0.000000 0.048121
#
#
# Mechanical properties :
#
#
# Convention : Reuss Voigt Hill
#
# Bulk Modulus (GPa) = 50.28145 52.34559 51.31352
# Shear Modulus (GPa) = 26.78079 30.31871 28.54975
#
# Velocity S-wave (km/s) = 3.48367 3.70665 3.59689
# Velocity P-wave (km/s) = 6.24234 6.48382 6.36423
#
# Compressibility (1/GPa) = 0.01988805
#
# Stress axis : x y z
#
# Youngs Moduli (GPa) = 84.32288 107.80253 67.80770
#
# Poissons Ratio (x) = 0.25637 0.24982
# Poissons Ratio (y) = 0.20053 0.13121
# Poissons Ratio (z) = 0.31067 0.20860
#
# Static dielectric constant tensor:
#      x y z
#    x 1.855330 0.000000 0.044070 
#    y 0.000000 1.824570 0.000000 
#    z 0.044070 0.000000 1.904910 
# 
# From -- ./inp_files/31986.got.cif
#   From: 2010.05.17/outbox.cif.g08.bks.cpg/sg12_16_cif.got.tgz:31986.got - 2010.06.03 13:09:07.
