data_PCOD9189333
_publ_section_title
;
Structure prediction by ZEFSAII (Michael W. Deem and Ramdas Pophale) SiO2 
 PCOD9189333
Probable space group: C 2/M
;
_chemical_formula_sum "Si O2"
_cell_formula_units_Z 56
_cell_length_a 15.061749
_cell_length_b 20.216063
_cell_length_c 16.948187
_cell_angle_alpha 90.000000
_cell_angle_beta 151.046746
_cell_angle_gamma 90.000000
_cell_volume 2498.196660
_symmetry_space_group_name_H-M "C 2/M"
_symmetry_group_IT_number 12
_symmetry_cell_setting 'monoclinic'
loop_
_space_group_symop_operation_xyz
x,y,z
-x,y,-z
-x,-y,-z
x,-y,z
1/2+x,1/2+y,z
1/2-x,1/2+y,-z
1/2-x,1/2-y,-z
1/2+x,1/2-y,z
loop_
_atom_site_type_symbol
_atom_site_label
_atom_site_fract_x
_atom_site_fract_y
_atom_site_fract_z
Si Si1 0.413304 0.698901 0.737353
Si Si2 0.054575 0.429098 0.291065
Si Si3 0.708292 0.119428 0.156020
Si Si4 0.227720 0.174957 0.630769
Si Si5 0.903181 0.758603 0.281079
Si Si6 0.342029 0.574352 0.097185
Si Si7 0.477335 0.126841 0.572273
O O1 0.359439 0.761508 0.750388
O O2 0.496668 0.734882 0.724854
O O3 0.548999 0.636447 0.855692
O O4 0.219249 0.662971 0.573334
O O5 0.138140 0.500000 0.335821
O O6 0.184440 0.369236 0.369250
O O7 0.012868 0.425929 0.351329
O O8 0.865209 0.421977 0.096212
O O9 0.778658 0.125335 0.300158
O O10 0.825539 0.082839 0.179737
O O11 0.724978 0.195645 0.139392
O O12 0.500000 0.095465 0.000000
O O13 0.043294 0.206473 0.451774
O O14 0.879158 0.684636 0.292463
O O15 0.414173 0.500000 0.135842
O O16 0.500000 0.104989 0.500000
#
# Coordination Sequence:
#
# PCOD9189333 Si02
#       7
#     8   8   8   8   8   8   8
#     4  10  20  38  66  90 118 162 205 255 302 366
#     4  11  23  39  59  84 121 162 198 248 308 364
#     4  11  22  34  59  95 123 161 201 244 293 367
#     4  11  19  38  59  91 124 156 203 251 310 354
#     4  10  19  37  61  89 127 156 194 253 311 358
#     4  10  24  43  61  86 126 170 204 248 308 367
#     4  11  21  39  63  89 117 153 199 260 312 357
#
# _framework density 22.416169
#
# number of rings (size 3 to 8) (size 9 to 14) (size 15 to 20)
#    0.000    1.429    4.286    3.000    0.000    3.429 
#    0.000    0.714    0.000    4.286    0.000    0.000 
#    0.000    0.000    0.000    0.000    0.000    0.000 
#
# Total GULP energy -156154.424588 kJ/mol
# GULP energy per Si atom -5576.943735 kJ/mol
# Density = 2.236515 g / cm^3
# Si number density = 22.416169 Si / 1000 Ang^3
#
#
#
# Elastic Constant Matrix: (Units=GPa)
#
#
# Indices 1 2 3 4 5 6 
#
# 1 75.1883 1.9436 -0.4575 0.0003 -17.1955 -0.0009
# 2 1.9436 107.9764 12.7473 -0.0099 2.2147 -0.0049
# 3 -0.4575 12.7473 24.3790 -0.0149 -8.5397 -0.0099
# 4 0.0003 -0.0099 -0.0149 34.2127 -0.0037 10.0985
# 5 -17.1955 2.2147 -8.5397 -0.0037 27.4839 -0.0035
# 6 -0.0009 -0.0049 -0.0099 10.0985 -0.0035 22.7722
#
#
#
# Elastic Compliance Matrix: (Units=1/GPa)
#
#
# Indices 1 2 3 4 5 6 
#
# 1 0.016026 -0.001114 0.004968 0.000002 0.011660 0.000004
# 2 -0.001114 0.010129 -0.006561 0.000000 -0.003552 -0.000001
# 3 0.004968 -0.006561 0.051413 0.000018 0.019612 0.000016
# 4 0.000002 0.000000 0.000018 0.033631 0.000009 -0.014914
# 5 0.011660 -0.003552 0.019612 0.000009 0.050060 0.000012
# 6 0.000004 -0.000001 0.000016 -0.014914 0.000012 0.050527
#
#
# Mechanical properties :
#
#
# Convention : Reuss Voigt Hill
#
# Bulk Modulus (GPa) = 13.85973 26.22338 20.04156
# Shear Modulus (GPa) = 20.72533 29.78111 25.25322
#
# Velocity S-wave (km/s) = 3.04397 3.64889 3.36007
# Velocity P-wave (km/s) = 4.30705 5.42921 4.90036
#
# Compressibility (1/GPa) = 0.07215147
#
# Stress axis : x y z
#
# Youngs Moduli (GPa) = 62.40030 98.72848 19.45049
#
# Poissons Ratio (x) = 0.10999 -0.09662
# Poissons Ratio (y) = 0.06952 0.12762
# Poissons Ratio (z) = -0.30998 0.64778
#
# Static dielectric constant tensor:
#      x y z
#    x 1.898340 0.000000 0.023290 
#    y 0.000000 1.851220 0.000000 
#    z 0.023290 0.000000 1.850670 
# 
# From -- ./inp_files/272397.got.cif
#   From: 2010.05.17/outbox.cif.g08.bks.cpg/sg12_137_cif.got.tgz:272397.got - 2010.06.03 13:09:07.
