data_PCOD9189709
_publ_section_title
;
Structure prediction by ZEFSAII (Michael W. Deem and Ramdas Pophale) SiO2 
 PCOD9189709
Probable space group: C 2/M
;
_chemical_formula_sum "Si O2"
_cell_formula_units_Z 58
_cell_length_a 25.355522
_cell_length_b 15.209286
_cell_length_c 17.111350
_cell_angle_alpha 90.000000
_cell_angle_beta 27.031131
_cell_angle_gamma 90.000000
_cell_volume 2998.991440
_symmetry_space_group_name_H-M "C 2/M"
_symmetry_group_IT_number 12
_symmetry_cell_setting 'monoclinic'
loop_
_space_group_symop_operation_xyz
x,y,z
-x,y,-z
-x,-y,-z
x,-y,z
1/2+x,1/2+y,z
1/2-x,1/2+y,-z
1/2-x,1/2-y,-z
1/2+x,1/2-y,z
loop_
_atom_site_type_symbol
_atom_site_label
_atom_site_fract_x
_atom_site_fract_y
_atom_site_fract_z
Si Si1 0.636319 0.605130 0.457336
Si Si2 0.797491 0.290164 0.357053
Si Si3 0.000000 0.000000 0.000000
Si Si4 0.436407 0.097855 0.432718
Si Si5 0.055713 0.767286 0.339698
Si Si6 0.482468 0.100359 0.195471
Si Si7 0.218970 0.695068 0.874772
Si Si8 0.318518 0.348912 0.190412
O O1 0.628297 0.500000 0.467757
O O2 0.703707 0.643279 0.443408
O O3 0.512418 0.653802 0.613311
O O4 0.711022 0.640751 0.284658
O O5 0.750000 0.250000 0.500000
O O6 0.821388 0.215212 0.262036
O O7 0.914062 0.342380 0.223260
O O8 0.914594 0.077109 0.074636
O O9 0.521564 0.176000 0.344512
O O10 0.416959 0.103253 0.365085
O O11 0.312147 0.112225 0.637099
O O12 0.481240 0.000000 0.390992
O O13 0.190563 0.784788 0.175910
O O14 0.000000 0.762079 0.500000
O O15 0.489131 0.000000 0.160297
O O16 0.609280 0.138244 0.043298
O O17 0.174005 0.785052 0.894230
#
# Coordination Sequence:
#
# PCOD9189709 Si02
#       8
#     8   8   2   8   8   8   8   8
#     4  10  20  34  58  91 119 152 203 248 295 361
#     4  11  20  38  61  82 120 159 195 242 301 362
#     4  12  24  36  60  86 122 156 194 256 298 344
#     4  11  21  39  61  89 117 155 207 247 296 365
#     4  10  19  38  61  86 116 161 198 247 305 350
#     4  11  23  37  59  89 119 157 196 242 303 364
#     4  10  22  39  59  86 121 155 202 243 305 355
#     4  11  21  39  59  87 118 157 197 246 298 355
#
# _framework density 19.339835000000001
#
# number of rings (size 3 to 8) (size 9 to 14) (size 15 to 20)
#    0.000    1.379    6.207    1.655    0.000    5.517 
#    2.483    3.448    0.000    0.000    0.000    0.000 
#    0.000    0.000    0.000    0.000    0.000    0.000 
#
# Total GULP energy -161688.950833 kJ/mol
# GULP energy per Si atom -5575.481063 kJ/mol
# Density = 1.929582 g / cm^3
# Si number density = 19.339835 Si / 1000 Ang^3
#
#
#
# Elastic Constant Matrix: (Units=GPa)
#
#
# Indices 1 2 3 4 5 6 
#
# 1 72.9426 49.4584 11.6101 0.0000 -32.7986 0.0000
# 2 49.4584 173.7497 22.4976 0.0000 -30.4865 0.0000
# 3 11.6101 22.4976 37.1510 0.0000 -24.1397 0.0000
# 4 0.0000 0.0000 0.0000 13.1358 0.0000 4.6362
# 5 -32.7986 -30.4865 -24.1397 0.0000 34.1848 0.0000
# 6 0.0000 0.0000 0.0000 4.6362 0.0000 2.7530
#
#
#
# Elastic Compliance Matrix: (Units=1/GPa)
#
#
# Indices 1 2 3 4 5 6 
#
# 1 0.031353 -0.004444 0.018228 0.000000 0.038990 0.000000
# 2 -0.004444 0.007455 -0.002912 0.000000 0.000329 0.000000
# 3 0.018228 -0.002912 0.060352 0.000000 0.057509 0.000000
# 4 0.000000 0.000000 0.000000 0.187678 0.000000 -0.316057
# 5 0.038990 0.000329 0.057509 0.000000 0.107565 0.000000
# 6 0.000000 0.000000 0.000000 -0.316057 0.000000 0.895492
#
#
# Mechanical properties :
#
#
# Convention : Reuss Voigt Hill
#
# Bulk Modulus (GPa) = 8.27105 50.10839 29.18972
# Shear Modulus (GPa) = 3.82130 23.36653 13.59392
#
# Velocity S-wave (km/s) = 1.40718 3.47970 2.65410
# Velocity P-wave (km/s) = 2.63177 6.48923 4.95158
#
# Compressibility (1/GPa) = 0.12090369
#
# Stress axis : x y z
#
# Youngs Moduli (GPa) = 31.89478 134.13762 16.56934
#
# Poissons Ratio (x) = 0.59605 -0.30202
# Poissons Ratio (y) = 0.14173 0.04826
# Poissons Ratio (z) = -0.58136 0.39067
#
# Static dielectric constant tensor:
#      x y z
#    x 1.677890 0.000000 0.002490 
#    y 0.000000 1.672770 0.000000 
#    z 0.002490 0.000000 1.690500 
# 
# From -- ./inp_files/156099.got.cif
#   From: 2010.05.17/outbox.cif.g08.bks.cpg/sg12_79_cif.got.tgz:156099.got - 2010.06.03 13:09:07.
