data_PCOD9189812
_publ_section_title
;
Structure prediction by ZEFSAII (Michael W. Deem and Ramdas Pophale) SiO2 
 PCOD9189812
Probable space group: C 2/M
;
_chemical_formula_sum "Si O2"
_cell_formula_units_Z 52
_cell_length_a 14.391777
_cell_length_b 29.845845
_cell_length_c 5.136813
_cell_angle_alpha 90.000000
_cell_angle_beta 94.483727
_cell_angle_gamma 90.000000
_cell_volume 2199.687027
_symmetry_space_group_name_H-M "C 2/M"
_symmetry_group_IT_number 12
_symmetry_cell_setting 'monoclinic'
loop_
_space_group_symop_operation_xyz
x,y,z
-x,y,-z
-x,-y,-z
x,-y,z
1/2+x,1/2+y,z
1/2-x,1/2+y,-z
1/2-x,1/2-y,-z
1/2+x,1/2-y,z
loop_
_atom_site_type_symbol
_atom_site_label
_atom_site_fract_x
_atom_site_fract_y
_atom_site_fract_z
Si Si1 0.734861 0.599770 0.654023
Si Si2 0.566664 0.047533 0.761086
Si Si3 0.500000 0.613198 0.000000
Si Si4 0.433131 0.772738 0.235931
Si Si5 0.344980 0.552823 0.836412
Si Si6 0.899614 0.824194 0.338378
Si Si7 0.109628 0.363083 0.966251
O O1 0.720866 0.564383 0.421533
O O2 0.676866 0.643952 0.552408
O O3 0.694893 0.573850 0.902818
O O4 0.831983 0.620845 0.773416
O O5 0.500000 0.046745 0.500000
O O6 0.617568 0.094742 0.777770
O O7 0.620101 0.000000 0.783434
O O8 0.500000 0.047677 0.000000
O O9 0.443004 0.579018 0.804607
O O10 0.577152 0.647627 0.913920
O O11 0.500000 0.783151 0.500000
O O12 0.377047 0.727403 0.285862
O O13 0.368035 0.814913 0.150226
O O14 0.500000 0.762935 0.000000
O O15 0.359305 0.500000 0.866655
O O16 0.000000 0.824113 0.500000
O O17 0.000000 0.358072 0.000000
#
# Coordination Sequence:
#
# PCOD9189812 Si02
#       7
#     8   8   4   8   8   8   8
#     4  11  25  40  64  94 129 171 211 267 316 382
#     4   9  18  33  55  78 103 145 197 246 299 355
#     4  10  19  38  66  94 132 170 201 258 320 402
#     4  10  21  36  64  92 123 168 212 265 315 379
#     4  11  24  42  65  97 131 167 213 264 320 385
#     4  10  19  38  63  92 130 162 211 253 327 388
#     4  10  23  43  62  89 127 168 219 267 317 364
#
# _framework density 23.639726
#
# number of rings (size 3 to 8) (size 9 to 14) (size 15 to 20)
#    0.000    1.846    2.308    1.154    0.000    6.769 
#    0.000    5.385    0.000   11.077    0.000    0.000 
#    0.000    0.000    0.000    0.000    0.000    0.000 
#
# Total GULP energy -145051.887310 kJ/mol
# GULP energy per Si atom -5578.918743 kJ/mol
# Density = 2.358592 g / cm^3
# Si number density = 23.639726 Si / 1000 Ang^3
#
#
#
# Elastic Constant Matrix: (Units=GPa)
#
#
# Indices 1 2 3 4 5 6 
#
# 1 35.8465 22.4419 6.2368 0.0000 18.9557 0.0000
# 2 22.4419 232.5358 32.2956 0.0000 18.6839 0.0000
# 3 6.2368 32.2956 128.8211 0.0000 12.0163 0.0000
# 4 0.0000 0.0000 0.0000 54.8379 0.0000 2.7881
# 5 18.9557 18.6839 12.0163 0.0000 29.9540 0.0000
# 6 0.0000 0.0000 0.0000 2.7881 0.0000 12.2092
#
#
#
# Elastic Compliance Matrix: (Units=1/GPa)
#
#
# Indices 1 2 3 4 5 6 
#
# 1 0.042944 -0.002166 0.000907 0.000000 -0.026188 0.000000
# 2 -0.002166 0.004741 -0.000972 0.000000 -0.001196 0.000000
# 3 0.000907 -0.000972 0.008269 0.000000 -0.003285 0.000000
# 4 0.000000 0.000000 0.000000 0.018450 0.000000 -0.004213
# 5 -0.026188 -0.001196 -0.003285 0.000000 0.052021 0.000000
# 6 0.000000 0.000000 0.000000 -0.004213 0.000000 0.082868
#
#
# Mechanical properties :
#
#
# Convention : Reuss Voigt Hill
#
# Bulk Modulus (GPa) = 19.42119 57.68358 38.55239
# Shear Modulus (GPa) = 21.65276 41.81550 31.73413
#
# Velocity S-wave (km/s) = 3.02975 4.21035 3.66786
# Velocity P-wave (km/s) = 4.52465 6.93471 5.85503
#
# Compressibility (1/GPa) = 0.05149014
#
# Stress axis : x y z
#
# Youngs Moduli (GPa) = 23.28639 210.94458 120.93538
#
# Poissons Ratio (x) = 0.45695 -0.10966
# Poissons Ratio (y) = 0.05044 0.11755
# Poissons Ratio (z) = -0.02112 0.20504
#
# Static dielectric constant tensor:
#      x y z
#    x 2.007260 0.000000 -0.052610 
#    y 0.000000 1.902060 0.000000 
#    z -0.052610 0.000000 1.932770 
# 
# From -- ./inp_files/17994.got.cif
#   From: 2010.05.17/outbox.cif.g08.bks.cpg/sg12_9_cif.got.tgz:17994.got - 2010.06.03 13:09:07.
