data_PCOD9189323
_publ_section_title
;
Structure prediction by ZEFSAII (Michael W. Deem and Ramdas Pophale) SiO2 
 PCOD9189323
Probable space group: C 2/M
;
_chemical_formula_sum "Si O2"
_cell_formula_units_Z 42
_cell_length_a 8.866047
_cell_length_b 18.306710
_cell_length_c 12.739660
_cell_angle_alpha 90.000000
_cell_angle_beta 101.934648
_cell_angle_gamma 90.000000
_cell_volume 2023.054392
_symmetry_space_group_name_H-M "C 2/M"
_symmetry_group_IT_number 12
_symmetry_cell_setting 'monoclinic'
loop_
_space_group_symop_operation_xyz
x,y,z
-x,y,-z
-x,-y,-z
x,-y,z
1/2+x,1/2+y,z
1/2-x,1/2+y,-z
1/2-x,1/2-y,-z
1/2+x,1/2-y,z
loop_
_atom_site_type_symbol
_atom_site_label
_atom_site_fract_x
_atom_site_fract_y
_atom_site_fract_z
Si Si1 0.370442 0.154112 0.147397
Si Si2 0.641912 0.917351 0.280051
Si Si3 0.500000 0.500000 0.500000
Si Si4 0.464217 0.301762 0.827732
Si Si5 0.789364 0.917737 0.068879
Si Si6 0.558274 0.649731 0.612755
O O1 0.466643 0.107928 0.246031
O O2 0.478419 0.221912 0.132128
O O3 0.213026 0.186247 0.171319
O O4 0.322882 0.106626 0.040350
O O5 0.702445 0.917210 0.168387
O O6 0.757336 0.862665 0.355673
O O7 0.658242 0.000000 0.324922
O O8 0.496401 0.566211 0.589042
O O9 0.570849 0.361367 0.900413
O O10 0.498221 0.313809 0.709486
O O11 0.844134 0.000000 0.058336
O O12 0.500000 0.689580 0.500000
#
# Coordination Sequence:
#
# PCOD9189323 Si02
#       6
#     8   8   2   8   8   8
#     4  12  24  39  55  86 121 160 199 240 287 343
#     4  10  19  37  61  88 118 155 196 242 291 346
#     4   8  16  36  72  86 116 144 190 234 300 348
#     4  11  24  39  59  84 120 158 196 240 292 345
#     4  10  22  39  61  86 119 158 196 238 291 349
#     4   9  18  39  66  89 112 149 190 233 296 351
#
# _framework density 20.760686
#
# number of rings (size 3 to 8) (size 9 to 14) (size 15 to 20)
#    0.571    1.143    0.952    4.571    1.333    5.333 
#    0.000    4.762    0.000    2.286    0.000    0.000 
#    0.000    0.000    0.000    0.000    0.000    0.000 
#
# Total GULP energy -117065.924372 kJ/mol
# GULP energy per Si atom -5574.567827 kJ/mol
# Density = 2.071343 g / cm^3
# Si number density = 20.760686 Si / 1000 Ang^3
#
#
#
# Elastic Constant Matrix: (Units=GPa)
#
#
# Indices 1 2 3 4 5 6 
#
# 1 70.3671 -8.5582 -1.0984 0.0000 25.3955 0.0000
# 2 -8.5582 58.1409 -0.8455 0.0000 -0.3838 0.0000
# 3 -1.0984 -0.8455 96.7593 0.0000 20.1930 0.0000
# 4 0.0000 0.0000 0.0000 8.0952 0.0000 10.1156
# 5 25.3955 -0.3838 20.1930 0.0000 20.8645 0.0000
# 6 0.0000 0.0000 0.0000 10.1156 0.0000 25.8372
#
#
#
# Elastic Compliance Matrix: (Units=1/GPa)
#
#
# Indices 1 2 3 4 5 6 
#
# 1 0.033616 0.004770 0.011208 0.000000 -0.051675 0.000000
# 2 0.004770 0.017879 0.001696 0.000000 -0.007118 0.000000
# 3 0.011208 0.001696 0.016688 0.000000 -0.029761 0.000000
# 4 0.000000 0.000000 0.000000 0.241852 0.000000 -0.094688
# 5 -0.051675 -0.007118 -0.029761 0.000000 0.139498 0.000000
# 6 0.000000 0.000000 0.000000 -0.094688 0.000000 0.075776
#
#
# Mechanical properties :
#
#
# Convention : Reuss Voigt Hill
#
# Bulk Modulus (GPa) = 9.65901 22.69589 16.17745
# Shear Modulus (GPa) = 9.53341 26.67733 18.10537
#
# Velocity S-wave (km/s) = 2.14523 3.58857 2.95634
# Velocity P-wave (km/s) = 3.28613 5.30342 4.41163
#
# Compressibility (1/GPa) = 0.10353033
#
# Stress axis : x y z
#
# Youngs Moduli (GPa) = 29.74782 55.93029 59.92358
#
# Poissons Ratio (x) = -0.26679 -0.67160
# Poissons Ratio (y) = -0.14190 -0.10163
# Poissons Ratio (z) = -0.33340 -0.09485
#
# Static dielectric constant tensor:
#      x y z
#    x 1.746250 0.000000 0.025490 
#    y 0.000000 1.733800 0.000000 
#    z 0.025490 0.000000 1.796310 
# 
# From -- ./inp_files/195631.got.cif
#   From: 2010.05.17/outbox.cif.g08.bks.cpg/sg12_98_cif.got.tgz:195631.got - 2010.06.03 13:09:07.
