data_PCOD9189664
_publ_section_title
;
Structure prediction by ZEFSAII (Michael W. Deem and Ramdas Pophale) SiO2 
 PCOD9189664
Probable space group: C 2/M
;
_chemical_formula_sum "Si O2"
_cell_formula_units_Z 48
_cell_length_a 19.921676
_cell_length_b 21.474443
_cell_length_c 10.374417
_cell_angle_alpha 90.000000
_cell_angle_beta 148.414378
_cell_angle_gamma 90.000000
_cell_volume 2324.630261
_symmetry_space_group_name_H-M "C 2/M"
_symmetry_group_IT_number 12
_symmetry_cell_setting 'monoclinic'
loop_
_space_group_symop_operation_xyz
x,y,z
-x,y,-z
-x,-y,-z
x,-y,z
1/2+x,1/2+y,z
1/2-x,1/2+y,-z
1/2-x,1/2-y,-z
1/2+x,1/2-y,z
loop_
_atom_site_type_symbol
_atom_site_label
_atom_site_fract_x
_atom_site_fract_y
_atom_site_fract_z
Si Si1 0.765173 0.304520 0.708568
Si Si2 0.486625 0.239815 0.733054
Si Si3 0.053303 0.402181 0.400674
Si Si4 0.338934 0.308704 0.176334
Si Si5 0.796726 0.567655 0.095905
Si Si6 0.148707 0.568635 0.283229
O O1 0.653538 0.264680 0.453841
O O2 0.697707 0.318762 0.734750
O O3 0.791251 0.369326 0.679026
O O4 0.901119 0.271367 0.974937
O O5 0.460352 0.172426 0.626613
O O6 0.538934 0.284752 0.704503
O O7 0.122391 0.426017 0.640806
O O8 0.137006 0.423706 0.417567
O O9 0.905950 0.425372 0.163809
O O10 0.250000 0.250000 0.000000
O O11 0.299249 0.375148 0.055574
O O12 0.736069 0.500000 0.985741
O O13 0.202959 0.500000 0.338598
O O14 0.000000 0.569192 0.000000
#
# Coordination Sequence:
#
# PCOD9189664 Si02
#       6
#     8   8   8   8   8   8
#     4  11  23  39  63  96 125 167 213 259 320 382
#     4  11  22  39  65  93 126 164 215 262 319 375
#     4  11  20  36  60  93 125 164 215 265 320 371
#     4  10  19  38  59  89 124 165 206 258 320 377
#     4  11  21  34  60  96 126 161 215 272 318 374
#     4  11  22  40  60  88 130 171 211 261 317 380
#
# _framework density 20.648446
#
# number of rings (size 3 to 8) (size 9 to 14) (size 15 to 20)
#    0.000    1.167    5.000    4.500    2.333    2.667 
#    0.000    0.833    0.000    2.000    0.000    5.833 
#    0.000    0.000    0.000    0.000    0.000    0.000 
#
# Total GULP energy -133693.425044 kJ/mol
# GULP energy per Si atom -5570.559377 kJ/mol
# Density = 2.060145 g / cm^3
# Si number density = 20.648446 Si / 1000 Ang^3
#
#
#
# Elastic Constant Matrix: (Units=GPa)
#
#
# Indices 1 2 3 4 5 6 
#
# 1 97.3559 43.5003 31.0975 0.0000 4.6825 0.0000
# 2 43.5003 185.4382 39.4103 0.0000 20.7935 0.0000
# 3 31.0975 39.4103 70.3116 0.0000 10.8540 0.0000
# 4 0.0000 0.0000 0.0000 2.4929 0.0000 12.1438
# 5 4.6825 20.7935 10.8540 0.0000 16.7069 0.0000
# 6 0.0000 0.0000 0.0000 12.1438 0.0000 27.3858
#
#
#
# Elastic Compliance Matrix: (Units=1/GPa)
#
#
# Indices 1 2 3 4 5 6 
#
# 1 0.012659 -0.002225 -0.004703 0.000000 0.002277 0.000000
# 2 -0.002225 0.007105 -0.001922 0.000000 -0.006970 0.000000
# 3 -0.004703 -0.001922 0.018680 0.000000 -0.008426 0.000000
# 4 0.000000 0.000000 0.000000 -0.345776 0.000000 0.153329
# 5 0.002277 -0.006970 -0.008426 0.000000 0.073366 0.000000
# 6 0.000000 0.000000 0.000000 0.153329 0.000000 -0.031476
#
#
# Mechanical properties :
#
#
# Convention : Reuss Voigt Hill
#
# Bulk Modulus (GPa) = 48.20847 64.56909 56.38878
# Shear Modulus (GPa) = -20.76176 25.25698 2.24761
#
# Velocity S-wave (km/s) = -3.17438 3.50121 1.04445
# Velocity P-wave (km/s) = 3.15632 6.90530 5.36868
#
# Compressibility (1/GPa) = 0.02074324
#
# Stress axis : x y z
#
# Youngs Moduli (GPa) = 78.99790 140.75183 53.53205
#
# Poissons Ratio (x) = 0.31322 0.25175
# Poissons Ratio (y) = 0.17580 0.10289
# Poissons Ratio (z) = 0.37151 0.27053
#
# Static dielectric constant tensor:
#      x y z
#    x 1.791490 0.000000 -0.012170 
#    y 0.000000 1.704860 0.000000 
#    z -0.012170 0.000000 1.820030 
# 
# From -- ./inp_files/169740.got.cif
#   From: 2010.05.17/outbox.cif.g08.bks.cpg/sg12_85_cif.got.tgz:169740.got - 2010.06.03 13:09:07.
