data_PCOD9189841
_publ_section_title
;
Structure prediction by ZEFSAII (Michael W. Deem and Ramdas Pophale) SiO2 
 PCOD9189841
Probable space group: C 2/M
;
_chemical_formula_sum "Si O2"
_cell_formula_units_Z 52
_cell_length_a 21.018587
_cell_length_b 18.396050
_cell_length_c 8.409920
_cell_angle_alpha 90.000000
_cell_angle_beta 129.321324
_cell_angle_gamma 90.000000
_cell_volume 2515.584497
_symmetry_space_group_name_H-M "C 2/M"
_symmetry_group_IT_number 12
_symmetry_cell_setting 'monoclinic'
loop_
_space_group_symop_operation_xyz
x,y,z
-x,y,-z
-x,-y,-z
x,-y,z
1/2+x,1/2+y,z
1/2-x,1/2+y,-z
1/2-x,1/2-y,-z
1/2+x,1/2-y,z
loop_
_atom_site_type_symbol
_atom_site_label
_atom_site_fract_x
_atom_site_fract_y
_atom_site_fract_z
Si Si1 0.500000 0.381672 0.000000
Si Si2 0.838160 0.082190 0.582427
Si Si3 0.804105 0.646158 0.449981
Si Si4 0.130598 0.788245 0.601004
Si Si5 0.408624 0.144157 0.928383
Si Si6 0.420256 0.000000 0.134250
Si Si7 0.890410 0.500000 0.461308
Si Si8 0.942719 0.779373 0.183288
O O1 0.431924 0.422457 0.790372
O O2 0.549536 0.332607 0.953049
O O3 0.785309 0.119482 0.638380
O O4 0.837473 0.139484 0.436302
O O5 0.808263 0.000000 0.500892
O O6 0.815078 0.717557 0.358292
O O7 0.849201 0.662652 0.689052
O O8 0.847545 0.574860 0.446012
O O9 0.114294 0.802680 0.760693
O O10 0.037920 0.770576 0.390038
O O11 0.500000 0.141396 0.000000
O O12 0.391450 0.068764 0.987666
O O13 0.408580 0.204427 0.063312
O O14 0.393074 0.000000 0.274342
O O15 0.519770 0.000000 0.312764
#
# Coordination Sequence:
#
# PCOD9189841 Si02
#       8
#     4   8   8   8   8   4   4   8
#     4  10  21  44  68  89 108 158 208 259 318 366
#     4  11  24  43  65  88 119 158 209 260 312 364
#     4  12  22  38  61  90 127 163 205 245 304 359
#     4  10  21  38  64  94 123 163 199 254 306 360
#     4  12  19  33  56  89 123 167 201 241 286 369
#     4  11  22  31  52  87 127 173 213 229 288 360
#     4  11  21  36  53  85 130 168 204 253 284 351
#     4  10  19  38  64  93 124 154 208 250 299 368
#
# _framework density 20.671139
#
# number of rings (size 3 to 8) (size 9 to 14) (size 15 to 20)
#    0.000    1.077    4.615    3.231    0.000    2.462 
#    0.000   11.538    0.000    0.000    0.000    0.000 
#    0.000    0.000    0.000    0.000    0.000    0.000 
#
# Total GULP energy -145269.033024 kJ/mol
# GULP energy per Si atom -5587.270501 kJ/mol
# Density = 2.062409 g / cm^3
# Si number density = 20.671139 Si / 1000 Ang^3
#
#
#
# Elastic Constant Matrix: (Units=GPa)
#
#
# Indices 1 2 3 4 5 6 
#
# 1 128.3569 71.8416 14.0180 0.0000 -24.8659 0.0000
# 2 71.8416 144.3302 9.5090 0.0000 -18.7212 0.0000
# 3 14.0180 9.5090 24.9792 0.0000 -13.6457 0.0000
# 4 0.0000 0.0000 0.0000 19.1565 0.0000 -3.3304
# 5 -24.8659 -18.7212 -13.6457 0.0000 31.8740 0.0000
# 6 0.0000 0.0000 0.0000 -3.3304 0.0000 -4.9982
#
#
#
# Elastic Compliance Matrix: (Units=1/GPa)
#
#
# Indices 1 2 3 4 5 6 
#
# 1 0.011905 -0.005091 -0.001700 0.000000 0.005569 0.000000
# 2 -0.005091 0.009684 0.000141 0.000000 0.001776 0.000000
# 3 -0.001700 0.000141 0.052543 0.000000 0.021251 0.000000
# 4 0.000000 0.000000 0.000000 0.046782 0.000000 -0.031172
# 5 0.005569 0.001776 0.021251 0.000000 0.045859 0.000000
# 6 0.000000 0.000000 0.000000 -0.031172 0.000000 -0.179300
#
#
# Mechanical properties :
#
#
# Convention : Reuss Voigt Hill
#
# Bulk Modulus (GPa) = 16.43923 54.26706 35.35314
# Shear Modulus (GPa) = 237.51635 22.69296 130.10465
#
# Velocity S-wave (km/s) = 10.73088 3.31691 7.94210
# Velocity P-wave (km/s) = 12.70849 6.40147 10.06192
#
# Compressibility (1/GPa) = 0.06083011
#
# Stress axis : x y z
#
# Youngs Moduli (GPa) = 83.99806 103.26340 19.03216
#
# Poissons Ratio (x) = 0.52576 0.03236
# Poissons Ratio (y) = 0.42767 -0.00269
# Poissons Ratio (z) = 0.14284 -0.01458
#
# Static dielectric constant tensor:
#      x y z
#    x 1.732350 0.000000 0.020140 
#    y 0.000000 1.760030 0.000000 
#    z 0.020140 0.000000 1.763540 
# 
# From -- ./inp_files/88524.got.cif
#   From: 2010.05.17/outbox.cif.g08.bks.cpg/sg12_45_cif.got.tgz:88524.got - 2010.06.03 13:09:07.
