data_PCOD9189289
_publ_section_title
;
Structure prediction by ZEFSAII (Michael W. Deem and Ramdas Pophale) SiO2 
 PCOD9189289
Probable space group: C 2/M
;
_chemical_formula_sum "Si O2"
_cell_formula_units_Z 56
_cell_length_a 19.560013
_cell_length_b 8.865309
_cell_length_c 19.244686
_cell_angle_alpha 90.000000
_cell_angle_beta 112.812020
_cell_angle_gamma 90.000000
_cell_volume 3076.110921
_symmetry_space_group_name_H-M "C 2/M"
_symmetry_group_IT_number 12
_symmetry_cell_setting 'monoclinic'
loop_
_space_group_symop_operation_xyz
x,y,z
-x,y,-z
-x,-y,-z
x,-y,z
1/2+x,1/2+y,z
1/2-x,1/2+y,-z
1/2-x,1/2-y,-z
1/2+x,1/2-y,z
loop_
_atom_site_type_symbol
_atom_site_label
_atom_site_fract_x
_atom_site_fract_y
_atom_site_fract_z
Si Si1 0.778936 0.681212 0.863365
Si Si2 0.080930 0.817488 0.002502
Si Si3 0.942410 0.325433 0.540770
Si Si4 0.719439 0.180612 0.701121
Si Si5 0.789498 0.177669 0.449537
Si Si6 0.941270 0.319258 0.299811
Si Si7 0.119085 0.818778 0.860813
O O1 0.781701 0.500000 0.861982
O O2 0.852369 0.746464 0.927272
O O3 0.767203 0.747754 0.781815
O O4 0.704458 0.725762 0.877383
O O5 0.086616 0.000000 0.008260
O O6 0.092831 0.771599 0.926812
O O7 0.000000 0.775068 0.000000
O O8 0.916218 0.500000 0.539303
O O9 0.875454 0.218896 0.494236
O O10 0.000000 0.327674 0.500000
O O11 0.987108 0.276501 0.627051
O O12 0.736469 0.247363 0.632655
O O13 0.633588 0.217724 0.686547
O O14 0.726926 0.000000 0.703794
O O15 0.750000 0.250000 0.500000
O O16 0.777494 0.000000 0.442014
O O17 0.942696 0.500000 0.293208
O O18 0.931294 0.246229 0.220739
O O19 0.116216 0.000000 0.856548
#
# Coordination Sequence:
#
# PCOD9189289 Si02
#       7
#     8   8   8   8   8   8   8
#     4  10  20  35  58  87 112 141 184 237 285 334
#     4  10  21  38  57  79 111 152 188 226 282 343
#     4  10  19  37  61  85 116 152 193 238 288 345
#     4  10  19  37  61  85 114 150 190 234 286 344
#     4  12  25  40  58  84 117 156 198 241 289 342
#     4   9  18  33  58  87 113 146 186 233 288 339
#     4   9  19  35  56  82 112 143 186 237 279 332
#
# _framework density 18.204805
#
# number of rings (size 3 to 8) (size 9 to 14) (size 15 to 20)
#    0.000    2.000    1.429    2.571    0.000    2.857 
#    2.571    0.000    0.000    0.000    0.000    0.000 
#    0.000    0.000    0.000    0.000    0.000    0.000 
#
# Total GULP energy -156332.520388 kJ/mol
# GULP energy per Si atom -5583.304300 kJ/mol
# Density = 1.816337 g / cm^3
# Si number density = 18.204805 Si / 1000 Ang^3
#
#
#
# Elastic Constant Matrix: (Units=GPa)
#
#
# Indices 1 2 3 4 5 6 
#
# 1 73.2499 30.3785 73.9021 0.0000 -15.1305 0.0000
# 2 30.3785 46.4793 48.1187 0.0000 -9.5384 0.0000
# 3 73.9021 48.1187 178.0111 0.0000 -15.8194 0.0000
# 4 0.0000 0.0000 0.0000 36.3721 0.0000 1.8045
# 5 -15.1305 -9.5384 -15.8194 0.0000 28.1198 0.0000
# 6 0.0000 0.0000 0.0000 1.8045 0.0000 21.3992
#
#
#
# Elastic Compliance Matrix: (Units=1/GPa)
#
#
# Indices 1 2 3 4 5 6 
#
# 1 0.026679 -0.007168 -0.008504 0.000000 0.007140 0.000000
# 2 -0.007168 0.032756 -0.005509 0.000000 0.004155 0.000000
# 3 -0.008504 -0.005509 0.010594 0.000000 -0.000484 0.000000
# 4 0.000000 0.000000 0.000000 0.027609 0.000000 -0.002328
# 5 0.007140 0.004155 -0.000484 0.000000 0.040541 0.000000
# 6 0.000000 0.000000 0.000000 -0.002328 0.000000 0.046927
#
#
# Mechanical properties :
#
#
# Convention : Reuss Voigt Hill
#
# Bulk Modulus (GPa) = 36.14431 66.94875 51.54653
# Shear Modulus (GPa) = 21.12456 26.86762 23.99609
#
# Velocity S-wave (km/s) = 3.41014 3.84585 3.63453
# Velocity P-wave (km/s) = 5.95002 7.52170 6.78154
#
# Compressibility (1/GPa) = 0.02766687
#
# Stress axis : x y z
#
# Youngs Moduli (GPa) = 37.48265 30.52840 94.39159
#
# Poissons Ratio (x) = 0.21884 0.80268
# Poissons Ratio (y) = 0.26869 0.52003
# Poissons Ratio (z) = 0.31874 0.16819
#
# Static dielectric constant tensor:
#      x y z
#    x 1.522630 0.000000 -0.000320 
#    y 0.000000 1.609620 0.000000 
#    z -0.000320 0.000000 1.607710 
# 
# From -- ./inp_files/275517.got.cif
#   From: 2010.05.17/outbox.cif.g08.bks.cpg/sg12_138_cif.got.tgz:275517.got - 2010.06.03 13:09:07.
