data_PCOD9189150
_publ_section_title
;
Structure prediction by ZEFSAII (Michael W. Deem and Ramdas Pophale) SiO2 
 PCOD9189150
Probable space group: C 2/M
;
_chemical_formula_sum "Si O2"
_cell_formula_units_Z 56
_cell_length_a 15.089054
_cell_length_b 17.573491
_cell_length_c 17.351465
_cell_angle_alpha 90.000000
_cell_angle_beta 39.101157
_cell_angle_gamma 90.000000
_cell_volume 2901.838027
_symmetry_space_group_name_H-M "C 2/M"
_symmetry_group_IT_number 12
_symmetry_cell_setting 'monoclinic'
loop_
_space_group_symop_operation_xyz
x,y,z
-x,y,-z
-x,-y,-z
x,-y,z
1/2+x,1/2+y,z
1/2-x,1/2+y,-z
1/2-x,1/2-y,-z
1/2+x,1/2-y,z
loop_
_atom_site_type_symbol
_atom_site_label
_atom_site_fract_x
_atom_site_fract_y
_atom_site_fract_z
Si Si1 0.640628 0.182048 0.090472
Si Si2 0.062329 0.585796 0.871738
Si Si3 0.829741 0.091763 0.208959
Si Si4 0.779567 0.296577 0.595868
Si Si5 0.643757 0.410916 0.983777
Si Si6 0.980361 0.246192 0.336669
Si Si7 0.133660 0.150618 0.360287
O O1 0.518593 0.155122 0.115890
O O2 0.739490 0.109394 0.034461
O O3 0.571498 0.205298 0.217159
O O4 0.750000 0.250000 0.000000
O O5 0.034674 0.500000 0.859007
O O6 0.230103 0.600145 0.751195
O O7 0.000000 0.586746 0.000000
O O8 0.735779 0.135272 0.333699
O O9 0.810676 0.115085 0.132432
O O10 0.816354 0.000000 0.225150
O O11 0.991671 0.118043 0.112732
O O12 0.908081 0.299405 0.449690
O O13 0.642254 0.289987 0.633986
O O14 0.807290 0.220198 0.626893
O O15 0.623546 0.500000 0.988702
O O16 0.069339 0.184697 0.324709
O O17 0.000000 0.118366 0.500000
#
# Coordination Sequence:
#
# PCOD9189150 Si02
#       7
#     8   8   8   8   8   8   8
#     4  12  22  37  61  91 115 154 206 250 304 369
#     4  11  25  43  61  88 127 162 202 260 312 361
#     4   9  18  34  56  84 118 156 193 243 305 366
#     4  10  19  37  58  84 122 150 200 254 299 361
#     4   9  19  34  54  83 120 154 190 242 306 359
#     4  10  21  35  59  87 116 153 198 253 304 349
#     4  10  21  40  65  89 121 165 203 250 309 366
#
# _framework density 19.298114000000002
#
# number of rings (size 3 to 8) (size 9 to 14) (size 15 to 20)
#    0.000    1.857    1.429    3.857    0.000    0.286 
#    0.000    3.571    0.000    5.571    0.000    0.000 
#    0.000    0.000    0.000    0.000    0.000    0.000 
#
# Total GULP energy -156032.590258 kJ/mol
# GULP energy per Si atom -5572.592509 kJ/mol
# Density = 1.925419 g / cm^3
# Si number density = 19.298114 Si / 1000 Ang^3
#
#
#
# Elastic Constant Matrix: (Units=GPa)
#
#
# Indices 1 2 3 4 5 6 
#
# 1 63.1191 11.2434 22.6700 0.0002 -17.9848 0.0000
# 2 11.2434 52.5320 55.9155 0.0001 0.2860 0.0001
# 3 22.6700 55.9155 123.4397 0.0001 0.9502 0.0000
# 4 0.0002 0.0001 0.0001 21.9357 0.0001 -6.4227
# 5 -17.9848 0.2860 0.9502 0.0001 29.6428 -0.0001
# 6 0.0000 0.0001 0.0000 -6.4227 -0.0001 20.2143
#
#
#
# Elastic Compliance Matrix: (Units=1/GPa)
#
#
# Indices 1 2 3 4 5 6 
#
# 1 0.020921 -0.000681 -0.003632 0.000000 0.012816 0.000000
# 2 -0.000681 0.036783 -0.016535 0.000000 -0.000238 0.000000
# 3 -0.003632 -0.016535 0.016278 0.000000 -0.002566 0.000000
# 4 0.000000 0.000000 0.000000 0.050264 0.000000 0.015970
# 5 0.012816 -0.000238 -0.002566 0.000000 0.041595 0.000000
# 6 0.000000 0.000000 0.000000 0.015970 0.000000 0.054544
#
#
# Mechanical properties :
#
#
# Convention : Reuss Voigt Hill
#
# Bulk Modulus (GPa) = 30.97435 46.52761 38.75098
# Shear Modulus (GPa) = 18.32552 24.30936 21.31744
#
# Velocity S-wave (km/s) = 3.08490 3.55304 3.32722
# Velocity P-wave (km/s) = 5.36415 6.40269 5.90629
#
# Compressibility (1/GPa) = 0.03228478
#
# Stress axis : x y z
#
# Youngs Moduli (GPa) = 47.79959 27.18641 61.43289
#
# Poissons Ratio (x) = 0.01852 0.22314
# Poissons Ratio (y) = 0.03257 1.01579
# Poissons Ratio (z) = 0.17362 0.44953
#
# Static dielectric constant tensor:
#      x y z
#    x 1.704890 0.000000 -0.030780 
#    y 0.000000 1.672090 0.000000 
#    z -0.030780 0.000000 1.675440 
# 
# From -- ./inp_files/271399.got.cif
#   From: 2010.05.17/outbox.cif.g08.bks.cpg/sg12_136_cif.got.tgz:271399.got - 2010.06.03 13:09:07.
