data_PCOD9189953
_publ_section_title
;
Structure prediction by ZEFSAII (Michael W. Deem and Ramdas Pophale) SiO2 
 PCOD9189953
Probable space group: C 2/M
;
_chemical_formula_sum "Si O2"
_cell_formula_units_Z 56
_cell_length_a 18.707875
_cell_length_b 20.905475
_cell_length_c 14.116537
_cell_angle_alpha 90.000000
_cell_angle_beta 31.395014
_cell_angle_gamma 90.000000
_cell_volume 2876.050456
_symmetry_space_group_name_H-M "C 2/M"
_symmetry_group_IT_number 12
_symmetry_cell_setting 'monoclinic'
loop_
_space_group_symop_operation_xyz
x,y,z
-x,y,-z
-x,-y,-z
x,-y,z
1/2+x,1/2+y,z
1/2-x,1/2+y,-z
1/2-x,1/2-y,-z
1/2+x,1/2-y,z
loop_
_atom_site_type_symbol
_atom_site_label
_atom_site_fract_x
_atom_site_fract_y
_atom_site_fract_z
Si Si1 0.732063 0.696687 0.606166
Si Si2 0.597663 0.185960 0.808094
Si Si3 0.875384 0.372009 0.938866
Si Si4 0.880992 0.500000 0.056993
Si Si5 0.909360 0.802125 0.694703
Si Si6 0.621160 0.627612 0.568844
Si Si7 0.021023 0.341674 0.372309
Si Si8 0.907554 0.000000 0.510301
O O1 0.750000 0.750000 0.500000
O O2 0.637014 0.740280 0.779995
O O3 0.662052 0.637020 0.632191
O O4 0.869573 0.676807 0.504000
O O5 0.503863 0.172861 0.823138
O O6 0.738006 0.146576 0.644332
O O7 0.500000 0.161434 0.000000
O O8 0.895879 0.379290 0.802765
O O9 0.886346 0.438196 0.982847
O O10 0.735347 0.337047 0.129239
O O11 0.743463 0.500000 0.274562
O O12 0.000000 0.500000 0.000000
O O13 0.000000 0.822265 0.500000
O O14 0.004173 0.821569 0.675753
O O15 0.899098 0.725717 0.702803
O O16 0.572876 0.561219 0.579354
O O17 0.000000 0.371620 0.500000
O O18 0.000000 0.000000 0.500000
#
# Coordination Sequence:
#
# PCOD9189953 Si02
#       8
#     8   8   8   4   8   8   8   4
#     4  10  19  39  58  83 122 155 196 254 310 357
#     4  11  20  34  61  88 119 157 197 246 312 371
#     4  12  23  39  59  88 127 161 203 249 305 363
#     4  12  26  40  59  92 123 159 206 255 298 372
#     4  11  21  35  60  91 125 159 192 249 316 368
#     4  11  20  38  57  81 125 162 193 241 300 363
#     4  11  23  40  61  88 122 160 208 259 304 365
#     4  12  24  38  60  92 121 163 202 238 300 374
#
# _framework density 19.471146999999998
#
# number of rings (size 3 to 8) (size 9 to 14) (size 15 to 20)
#    0.000    0.857    5.714    5.571    2.000    0.000 
#    0.000    0.357    0.000    0.000    0.000    0.500 
#    0.000    0.000    0.000    0.000    0.000    0.000 
#
# Total GULP energy -156216.784447 kJ/mol
# GULP energy per Si atom -5579.170873 kJ/mol
# Density = 1.942683 g / cm^3
# Si number density = 19.471147 Si / 1000 Ang^3
#
#
#
# Elastic Constant Matrix: (Units=GPa)
#
#
# Indices 1 2 3 4 5 6 
#
# 1 94.3359 20.0173 12.5209 0.0001 -5.0108 0.0004
# 2 20.0173 62.1568 5.8508 0.0004 1.5963 -0.0001
# 3 12.5209 5.8508 47.6550 0.0017 -9.1867 -0.0010
# 4 0.0001 0.0004 0.0017 16.4330 -0.0001 2.4546
# 5 -5.0108 1.5963 -9.1867 -0.0001 39.7059 -0.0002
# 6 0.0004 -0.0001 -0.0010 2.4546 -0.0002 28.2888
#
#
#
# Elastic Compliance Matrix: (Units=1/GPa)
#
#
# Indices 1 2 3 4 5 6 
#
# 1 0.011740 -0.003578 -0.002441 0.000000 0.001061 0.000000
# 2 -0.003578 0.017419 -0.001487 0.000000 -0.001496 0.000000
# 3 -0.002441 -0.001487 0.022776 -0.000002 0.005021 0.000001
# 4 0.000000 0.000000 -0.000002 0.061652 0.000000 -0.005350
# 5 0.001061 -0.001496 0.005021 0.000000 0.026541 0.000000
# 6 0.000000 0.000000 0.000001 -0.005350 0.000000 0.035814
#
#
# Mechanical properties :
#
#
# Convention : Reuss Voigt Hill
#
# Bulk Modulus (GPa) = 27.08316 31.21397 29.14857
# Shear Modulus (GPa) = 24.59883 27.93612 26.26748
#
# Velocity S-wave (km/s) = 3.55822 3.79191 3.67692
# Velocity P-wave (km/s) = 5.55165 5.93609 5.74708
#
# Compressibility (1/GPa) = 0.03692331
#
# Stress axis : x y z
#
# Youngs Moduli (GPa) = 85.17891 57.40833 43.90583
#
# Poissons Ratio (x) = 0.20542 0.10716
# Poissons Ratio (y) = 0.30480 0.06528
# Poissons Ratio (z) = 0.20790 0.08536
#
# Static dielectric constant tensor:
#      x y z
#    x 1.772610 0.000000 0.045730 
#    y 0.000000 1.730750 0.000000 
#    z 0.045730 0.000000 1.731230 
# 
# From -- ./inp_files/227606.got.cif
#   From: 2010.05.17/outbox.cif.g08.bks.cpg/sg12_114_cif.got.tgz:227606.got - 2010.06.03 13:09:07.
