data_PCOD9189872
_publ_section_title
;
Structure prediction by ZEFSAII (Michael W. Deem and Ramdas Pophale) SiO2 
 PCOD9189872
Probable space group: C 2/M
;
_chemical_formula_sum "Si O2"
_cell_formula_units_Z 32
_cell_length_a 22.182470
_cell_length_b 9.108612
_cell_length_c 22.006449
_cell_angle_alpha 90.000000
_cell_angle_beta 19.051652
_cell_angle_gamma 90.000000
_cell_volume 1451.407537
_symmetry_space_group_name_H-M "C 2/M"
_symmetry_group_IT_number 12
_symmetry_cell_setting 'monoclinic'
loop_
_space_group_symop_operation_xyz
x,y,z
-x,y,-z
-x,-y,-z
x,-y,z
1/2+x,1/2+y,z
1/2-x,1/2+y,-z
1/2-x,1/2-y,-z
1/2+x,1/2-y,z
loop_
_atom_site_type_symbol
_atom_site_label
_atom_site_fract_x
_atom_site_fract_y
_atom_site_fract_z
Si Si1 0.201025 0.173298 0.278794
Si Si2 0.593709 0.329416 0.609720
Si Si3 0.738425 0.326393 0.907361
Si Si4 0.376917 0.169404 0.236987
O O1 0.229908 0.270571 0.192038
O O2 0.341618 0.203720 0.200133
O O3 0.000000 0.194915 0.500000
O O4 0.217241 0.000000 0.246980
O O5 0.574863 0.500000 0.644388
O O6 0.750000 0.250000 0.500000
O O7 0.397428 0.250265 0.795400
O O8 0.683253 0.322107 0.456816
O O9 0.753720 0.500000 0.897416
O O10 0.532160 0.271431 0.118181
O O11 0.439279 0.000000 0.182438
#
# Coordination Sequence:
#
# PCOD9189872 Si02
#       4
#     8   8   8   8
#     4  10  19  38  65  92 123 165 208 249 305 369
#     4  11  24  45  68  91 120 161 211 260 309 362
#     4  12  25  39  61  95 131 164 201 252 311 368
#     4  10  22  41  66  91 122 165 209 251 304 370
#
# _framework density 22.047561999999999
#
# number of rings (size 3 to 8) (size 9 to 14) (size 15 to 20)
#    0.000    1.250    2.500    3.750    0.000    7.500 
#    0.000    0.000    0.000    0.000    0.000    0.000 
#    0.000    0.000    0.000    0.000    0.000    0.000 
#
# Total GULP energy -89569.587733 kJ/mol
# GULP energy per Si atom -5598.099233 kJ/mol
# Density = 2.199738 g / cm^3
# Si number density = 22.047562 Si / 1000 Ang^3
#
#
#
# Elastic Constant Matrix: (Units=GPa)
#
#
# Indices 1 2 3 4 5 6 
#
# 1 74.5481 48.5604 4.8275 0.0052 -25.5781 0.0003
# 2 48.5604 143.3721 44.8931 0.0010 -43.1901 0.0006
# 3 4.8275 44.8931 94.5050 0.0004 -28.3356 0.0010
# 4 0.0052 0.0010 0.0004 20.4001 -0.0024 -15.3318
# 5 -25.5781 -43.1901 -28.3356 -0.0024 47.4982 -0.0001
# 6 0.0003 0.0006 0.0010 -15.3318 -0.0001 27.4008
#
#
#
# Elastic Compliance Matrix: (Units=1/GPa)
#
#
# Indices 1 2 3 4 5 6 
#
# 1 0.019397 -0.005440 0.003948 -0.000007 0.007854 -0.000004
# 2 -0.005440 0.011588 -0.003587 0.000003 0.005467 0.000001
# 3 0.003948 -0.003587 0.014301 -0.000001 0.007396 -0.000001
# 4 -0.000007 0.000003 -0.000001 0.084593 0.000002 0.047333
# 5 0.007854 0.005467 0.007396 0.000002 0.034666 0.000001
# 6 -0.000004 0.000001 -0.000001 0.047333 0.000001 0.062980
#
#
# Mechanical properties :
#
#
# Convention : Reuss Voigt Hill
#
# Bulk Modulus (GPa) = 28.46766 56.55412 42.51089
# Shear Modulus (GPa) = 20.04874 33.33610 26.69242
#
# Velocity S-wave (km/s) = 3.01880 3.89267 3.48325
# Velocity P-wave (km/s) = 5.00907 6.77573 5.95824
#
# Compressibility (1/GPa) = 0.03512758
#
# Stress axis : x y z
#
# Youngs Moduli (GPa) = 51.55444 86.29888 69.92309
#
# Poissons Ratio (x) = 0.46947 -0.27608
# Poissons Ratio (y) = 0.28046 0.25085
# Poissons Ratio (z) = -0.20355 0.30959
#
# Static dielectric constant tensor:
#      x y z
#    x 1.835690 0.000000 0.033020 
#    y 0.000000 1.729400 0.000000 
#    z 0.033020 0.000000 1.834070 
# 
# From -- ./inp_files/92137.got.cif
#   From: 2010.05.17/outbox.cif.g08.bks.cpg/sg12_47_cif.got.tgz:92137.got - 2010.06.03 13:09:07.
