data_PCOD9189674
_publ_section_title
;
Structure prediction by ZEFSAII (Michael W. Deem and Ramdas Pophale) SiO2 
 PCOD9189674
Probable space group: C 2/M
;
_chemical_formula_sum "Si O2"
_cell_formula_units_Z 48
_cell_length_a 18.379127
_cell_length_b 17.428433
_cell_length_c 11.247284
_cell_angle_alpha 90.000000
_cell_angle_beta 39.624941
_cell_angle_gamma 90.000000
_cell_volume 2297.670277
_symmetry_space_group_name_H-M "C 2/M"
_symmetry_group_IT_number 12
_symmetry_cell_setting 'monoclinic'
loop_
_space_group_symop_operation_xyz
x,y,z
-x,y,-z
-x,-y,-z
x,-y,z
1/2+x,1/2+y,z
1/2-x,1/2+y,-z
1/2-x,1/2-y,-z
1/2+x,1/2-y,z
loop_
_atom_site_type_symbol
_atom_site_label
_atom_site_fract_x
_atom_site_fract_y
_atom_site_fract_z
Si Si1 0.364075 0.756324 0.687171
Si Si2 0.658936 0.169351 0.530226
Si Si3 0.097920 0.650538 0.140550
Si Si4 0.795747 0.084169 0.766929
Si Si5 0.642701 0.413787 0.586789
Si Si6 0.013923 0.782432 0.845499
O O1 0.500000 0.758902 0.500000
O O2 0.314275 0.783989 0.623681
O O3 0.341179 0.819652 0.817001
O O4 0.341296 0.667754 0.749523
O O5 0.534464 0.128986 0.667765
O O6 0.624572 0.229231 0.677915
O O7 0.758342 0.114680 0.448783
O O8 0.086553 0.728017 0.074783
O O9 0.167666 0.588908 0.978876
O O10 0.808917 0.088364 0.607900
O O11 0.845338 0.000000 0.739900
O O12 0.536934 0.356661 0.737407
O O13 0.108871 0.000000 0.656877
O O14 0.000000 0.800806 0.000000
#
# Coordination Sequence:
#
# PCOD9189674 Si02
#       6
#     8   8   8   8   8   8
#     4  10  19  38  60  81 106 150 193 226 266 337
#     4   9  20  34  61  79 110 146 190 228 267 332
#     4   9  21  35  58  86 107 144 193 221 271 331
#     4  11  22  36  57  85 118 142 179 238 283 327
#     4  11  22  36  55  85 116 147 184 234 288 323
#     4  10  20  35  60  80 109 145 191 232 268 333
#
# _framework density 20.890725
#
# number of rings (size 3 to 8) (size 9 to 14) (size 15 to 20)
#    1.000    1.000    1.667    2.000    2.333    1.333 
#    0.000    3.333    0.000    3.000    0.000    0.000 
#    0.000    0.000    0.000    0.000    0.000    0.000 
#
# Total GULP energy -133703.057470 kJ/mol
# GULP energy per Si atom -5570.960728 kJ/mol
# Density = 2.084318 g / cm^3
# Si number density = 20.890725 Si / 1000 Ang^3
#
#
#
# Elastic Constant Matrix: (Units=GPa)
#
#
# Indices 1 2 3 4 5 6 
#
# 1 45.1485 6.8390 11.7861 0.0000 13.6962 0.0000
# 2 6.8390 94.9054 28.7862 0.0000 9.3334 0.0000
# 3 11.7861 28.7862 82.2800 0.0000 21.2794 0.0000
# 4 0.0000 0.0000 0.0000 17.9237 0.0000 -3.1395
# 5 13.6962 9.3334 21.2794 0.0000 17.1274 0.0000
# 6 0.0000 0.0000 0.0000 -3.1395 0.0000 8.9647
#
#
#
# Elastic Compliance Matrix: (Units=1/GPa)
#
#
# Indices 1 2 3 4 5 6 
#
# 1 0.029678 -0.000346 0.002886 0.000000 -0.027130 0.000000
# 2 -0.000346 0.011835 -0.003676 0.000000 -0.001606 0.000000
# 3 0.002886 -0.003676 0.019309 0.000000 -0.024296 0.000000
# 4 0.000000 0.000000 0.000000 0.059438 0.000000 0.020816
# 5 -0.027130 -0.001606 -0.024296 0.000000 0.111141 0.000000
# 6 0.000000 0.000000 0.000000 0.020816 0.000000 0.118838
#
#
# Mechanical properties :
#
#
# Convention : Reuss Voigt Hill
#
# Bulk Modulus (GPa) = 17.07895 35.23962 26.15928
# Shear Modulus (GPa) = 13.43986 20.46465 16.95226
#
# Velocity S-wave (km/s) = 2.53917 3.13326 2.85173
# Velocity P-wave (km/s) = 4.09751 5.47676 4.83656
#
# Compressibility (1/GPa) = 0.05855162
#
# Stress axis : x y z
#
# Youngs Moduli (GPa) = 33.69471 84.49869 51.78818
#
# Poissons Ratio (x) = 0.02924 -0.14947
# Poissons Ratio (y) = 0.01166 0.19035
# Poissons Ratio (z) = -0.09725 0.31058
#
# Static dielectric constant tensor:
#      x y z
#    x 1.785550 0.000000 -0.035900 
#    y 0.000000 1.735500 0.000000 
#    z -0.035900 0.000000 1.798390 
# 
# From -- ./inp_files/167524.got.cif
#   From: 2010.05.17/outbox.cif.g08.bks.cpg/sg12_84_cif.got.tgz:167524.got - 2010.06.03 13:09:07.
