data_PCOD9189087
_publ_section_title
;
Structure prediction by ZEFSAII (Michael W. Deem and Ramdas Pophale) SiO2 
 PCOD9189087
Probable space group: C 2/M
;
_chemical_formula_sum "Si O2"
_cell_formula_units_Z 48
_cell_length_a 15.432112
_cell_length_b 35.011533
_cell_length_c 9.705127
_cell_angle_alpha 90.000000
_cell_angle_beta 31.042601
_cell_angle_gamma 90.000000
_cell_volume 2704.045611
_symmetry_space_group_name_H-M "C 2/M"
_symmetry_group_IT_number 12
_symmetry_cell_setting 'monoclinic'
loop_
_space_group_symop_operation_xyz
x,y,z
-x,y,-z
-x,-y,-z
x,-y,z
1/2+x,1/2+y,z
1/2-x,1/2+y,-z
1/2-x,1/2-y,-z
1/2+x,1/2-y,z
loop_
_atom_site_type_symbol
_atom_site_label
_atom_site_fract_x
_atom_site_fract_y
_atom_site_fract_z
Si Si1 0.692252 0.100056 0.785239
Si Si2 0.699045 0.239492 0.222847
Si Si3 0.488378 0.415688 0.849019
Si Si4 0.426206 0.668825 0.950882
Si Si5 0.827186 0.042542 0.822727
Si Si6 0.158830 0.182700 0.388750
O O1 0.828887 0.088709 0.477983
O O2 0.722681 0.073641 0.878241
O O3 0.733825 0.144169 0.765971
O O4 0.500000 0.096363 0.000000
O O5 0.500000 0.236512 0.500000
O O6 0.750745 0.277246 0.237583
O O7 0.750000 0.250000 0.000000
O O8 0.778290 0.199153 0.151957
O O9 0.395493 0.374909 0.950279
O O10 0.382097 0.445460 0.902230
O O11 0.500000 0.422644 0.000000
O O12 0.571161 0.684565 0.655228
O O13 0.500000 0.665770 0.000000
O O14 0.000000 0.041166 0.500000
O O15 0.751666 0.000000 0.924161
O O16 0.000000 0.179331 0.500000
#
# Coordination Sequence:
#
# PCOD9189087 Si02
#       6
#     8   8   8   8   8   8
#     4  10  20  35  57  83 110 144 185 227 269 323
#     4  11  21  37  56  78 105 145 187 226 272 320
#     4   9  19  38  58  80 113 144 181 226 273 328
#     4  10  20  36  53  77 109 142 178 225 273 319
#     4   9  18  34  60  86 110 147 184 217 269 336
#     4  10  19  37  56  72 106 147 183 223 273 325
#
# _framework density 17.751180000000002
#
# number of rings (size 3 to 8) (size 9 to 14) (size 15 to 20)
#    0.000    2.167    3.333    2.500    0.000    2.000 
#    9.000    0.833    0.000    1.000    0.000    0.000 
#    0.000    0.000    0.000    0.000    0.000    0.000 
#
# Total GULP energy -133602.981763 kJ/mol
# GULP energy per Si atom -5566.790907 kJ/mol
# Density = 1.771078 g / cm^3
# Si number density = 17.751180 Si / 1000 Ang^3
#
#
#
# Elastic Constant Matrix: (Units=GPa)
#
#
# Indices 1 2 3 4 5 6 
#
# 1 65.1351 44.3892 28.9209 0.0000 -0.3691 0.0000
# 2 44.3892 119.3564 38.3174 0.0000 -6.6430 0.0000
# 3 28.9209 38.3174 61.5756 0.0000 7.1258 0.0000
# 4 0.0000 0.0000 0.0000 14.4971 0.0000 5.3673
# 5 -0.3691 -6.6430 7.1258 0.0000 37.2366 0.0000
# 6 0.0000 0.0000 0.0000 5.3673 0.0000 12.7049
#
#
#
# Elastic Compliance Matrix: (Units=1/GPa)
#
#
# Indices 1 2 3 4 5 6 
#
# 1 0.022601 -0.006196 -0.006808 0.000000 0.000421 0.000000
# 2 -0.006196 0.012552 -0.005269 0.000000 0.003186 0.000000
# 3 -0.006808 -0.005269 0.023350 0.000000 -0.005476 0.000000
# 4 0.000000 0.000000 0.000000 0.081769 0.000000 -0.034544
# 5 0.000421 0.003186 -0.005476 0.000000 0.028476 0.000000
# 6 0.000000 0.000000 0.000000 -0.034544 0.000000 0.093304
#
#
# Mechanical properties :
#
#
# Convention : Reuss Voigt Hill
#
# Bulk Modulus (GPa) = 45.54591 52.14689 48.84640
# Shear Modulus (GPa) = 16.34434 21.85036 19.09735
#
# Velocity S-wave (km/s) = 3.03767 3.51226 3.28355
# Velocity P-wave (km/s) = 6.16579 6.77409 6.47708
#
# Compressibility (1/GPa) = 0.02195587
#
# Stress axis : x y z
#
# Youngs Moduli (GPa) = 44.24650 79.67138 42.82583
#
# Poissons Ratio (x) = 0.49366 0.29156
# Poissons Ratio (y) = 0.27416 0.22565
# Poissons Ratio (z) = 0.30123 0.41980
#
# Static dielectric constant tensor:
#      x y z
#    x 1.611880 0.000000 0.002480 
#    y 0.000000 1.384310 0.000000 
#    z 0.002480 0.000000 1.599620 
# 
# From -- ./inp_files/68032.got.cif
#   From: 2010.05.17/outbox.cif.g08.bks.cpg/sg12_35_cif.got.tgz:68032.got - 2010.06.03 13:09:07.
