data_PCOD9189611
_publ_section_title
;
Structure prediction by ZEFSAII (Michael W. Deem and Ramdas Pophale) SiO2 
 PCOD9189611
Probable space group: C 2/M
;
_chemical_formula_sum "Si O2"
_cell_formula_units_Z 56
_cell_length_a 22.836695
_cell_length_b 26.507615
_cell_length_c 18.958927
_cell_angle_alpha 90.000000
_cell_angle_beta 162.413569
_cell_angle_gamma 90.000000
_cell_volume 3467.622736
_symmetry_space_group_name_H-M "C 2/M"
_symmetry_group_IT_number 12
_symmetry_cell_setting 'monoclinic'
loop_
_space_group_symop_operation_xyz
x,y,z
-x,y,-z
-x,-y,-z
x,-y,z
1/2+x,1/2+y,z
1/2-x,1/2+y,-z
1/2-x,1/2-y,-z
1/2+x,1/2-y,z
loop_
_atom_site_type_symbol
_atom_site_label
_atom_site_fract_x
_atom_site_fract_y
_atom_site_fract_z
Si Si1 0.044917 0.328131 0.171674
Si Si2 0.973310 0.290804 0.688564
Si Si3 0.781221 0.000000 0.393916
Si Si4 0.070046 0.890739 0.394405
Si Si5 0.619872 0.314807 0.915777
Si Si6 0.556522 0.713897 0.143071
Si Si7 0.680619 0.000000 0.113938
Si Si8 0.675664 0.607417 0.755494
O O1 0.042777 0.317760 0.253758
O O2 0.228651 0.361719 0.362764
O O3 0.048187 0.274542 0.137894
O O4 0.850249 0.358005 0.930754
O O5 0.775043 0.299061 0.418500
O O6 0.004906 0.231320 0.744170
O O7 0.160542 0.309099 0.859745
O O8 0.881883 0.949696 0.539880
O O9 0.776579 0.000000 0.302737
O O10 0.552072 0.000000 0.148391
O O11 0.978138 0.867728 0.218068
O O12 0.911690 0.875662 0.270828
O O13 0.588554 0.305485 0.962570
O O14 0.500000 0.696905 0.000000
O O15 0.748455 0.050382 0.153505
O O16 0.500000 0.608990 0.500000
#
# Coordination Sequence:
#
# PCOD9189611 Si02
#       8
#     8   8   4   8   8   8   4   8
#     4  11  22  36  54  79 108 150 187 220 267 324
#     4  10  19  38  56  78 105 144 183 220 272 328
#     4  11  23  34  57  75 105 151 187 225 275 314
#     4  12  21  37  57  76 105 150 187 227 266 320
#     4  10  20  36  59  75 106 147 182 220 274 320
#     4  11  23  35  54  82 115 138 177 233 272 326
#     4  11  22  39  46  73 119 147 181 234 272 304
#     4  12  24  34  52  76 109 153 193 228 266 303
#
# _framework density 16.149393
#
# number of rings (size 3 to 8) (size 9 to 14) (size 15 to 20)
#    0.000    1.000    7.143    1.500    2.000    0.571 
#    0.000    0.000    0.000    0.000    0.000    0.500 
#    0.000    1.143    0.000    0.000    0.000    0.000 
#
# Total GULP energy -156337.688114 kJ/mol
# GULP energy per Si atom -5583.488861 kJ/mol
# Density = 1.611264 g / cm^3
# Si number density = 16.149393 Si / 1000 Ang^3
#
#
#
# Elastic Constant Matrix: (Units=GPa)
#
#
# Indices 1 2 3 4 5 6 
#
# 1 76.3335 -2.9049 15.5169 -0.0037 6.1347 -0.0006
# 2 -2.9049 41.2386 -5.1941 -0.0018 9.9015 -0.0003
# 3 15.5169 -5.1941 58.7298 -0.0066 12.8737 -0.0013
# 4 -0.0037 -0.0018 -0.0066 1.8780 -0.0029 2.3328
# 5 6.1347 9.9015 12.8737 -0.0029 27.3087 -0.0006
# 6 -0.0006 -0.0003 -0.0013 2.3328 -0.0006 17.2447
#
#
#
# Elastic Compliance Matrix: (Units=1/GPa)
#
#
# Indices 1 2 3 4 5 6 
#
# 1 0.013944 0.001077 -0.003141 0.000017 -0.002042 -0.000002
# 2 0.001077 0.028015 0.004988 0.000031 -0.012751 -0.000004
# 3 -0.003141 0.004988 0.020677 0.000064 -0.010850 -0.000007
# 4 0.000017 0.000031 0.000064 0.640019 0.000020 -0.086578
# 5 -0.002042 -0.012751 -0.010850 0.000020 0.046815 -0.000002
# 6 -0.000002 -0.000004 -0.000007 -0.086578 -0.000002 0.069700
#
#
# Mechanical properties :
#
#
# Convention : Reuss Voigt Hill
#
# Bulk Modulus (GPa) = 14.60216 21.23750 17.91983
# Shear Modulus (GPa) = 5.97979 20.54522 13.26251
#
# Velocity S-wave (km/s) = 1.92635 3.57066 2.86884
# Velocity P-wave (km/s) = 3.74290 5.49351 4.70043
#
# Compressibility (1/GPa) = 0.06848302
#
# Stress axis : x y z
#
# Youngs Moduli (GPa) = 71.71513 35.69544 48.36377
#
# Poissons Ratio (x) = -0.03844 0.15192
# Poissons Ratio (y) = -0.07723 -0.24125
# Poissons Ratio (z) = 0.22528 -0.17805
#
# Static dielectric constant tensor:
#      x y z
#    x 1.566340 0.000000 0.012000 
#    y 0.000000 1.533150 0.000000 
#    z 0.012000 0.000000 1.543030 
# 
# From -- ./inp_files/286365.got.cif
#   From: 2010.05.17/outbox.cif.g08.bks.cpg/sg12_144_cif.got.tgz:286365.got - 2010.06.03 13:09:07.
