data_PCOD9189016
_publ_section_title
;
Structure prediction by ZEFSAII (Michael W. Deem and Ramdas Pophale) SiO2 
 PCOD9189016
Probable space group: C 2/M
;
_chemical_formula_sum "Si O2"
_cell_formula_units_Z 32
_cell_length_a 28.954522
_cell_length_b 8.291878
_cell_length_c 5.276512
_cell_angle_alpha 90.000000
_cell_angle_beta 81.848284
_cell_angle_gamma 90.000000
_cell_volume 1254.023964
_symmetry_space_group_name_H-M "C 2/M"
_symmetry_group_IT_number 12
_symmetry_cell_setting 'monoclinic'
loop_
_space_group_symop_operation_xyz
x,y,z
-x,y,-z
-x,-y,-z
x,-y,z
1/2+x,1/2+y,z
1/2-x,1/2+y,-z
1/2-x,1/2-y,-z
1/2+x,1/2-y,z
loop_
_atom_site_type_symbol
_atom_site_label
_atom_site_fract_x
_atom_site_fract_y
_atom_site_fract_z
Si Si1 0.121171 0.500000 0.158773
Si Si2 0.816280 0.500000 0.402002
Si Si3 0.715164 0.685506 0.811251
Si Si4 0.526219 0.306563 0.725751
Si Si5 0.394281 0.678655 0.990545
O O1 0.158775 0.500000 0.350010
O O2 0.146891 0.500000 0.863103
O O3 0.093935 0.332245 0.189101
O O4 0.789463 0.330782 0.386482
O O5 0.726364 0.500000 0.733633
O O6 0.661633 0.673539 0.954056
O O7 0.750000 0.750000 0.000000
O O8 0.500000 0.240866 0.500000
O O9 0.520645 0.500000 0.719867
O O10 0.580850 0.287991 0.758248
O O11 0.500000 0.248548 0.000000
O O12 0.410152 0.500000 0.890600
#
# Coordination Sequence:
#
# PCOD9189016 Si02
#       5
#     4   4   8   8   8
#     4  10  22  40  62  89 124 160 204 251 308 360
#     4  10  22  40  60  89 124 162 202 255 302 360
#     4  10  19  36  65  92 127 163 210 252 308 367
#     4   9  18  34  58  88 120 156 200 251 305 363
#     4   9  20  38  62  91 125 165 207 254 310 369
#
# _framework density 25.517854
#
# number of rings (size 3 to 8) (size 9 to 14) (size 15 to 20)
#    0.000    2.500    1.250    0.000    0.000    5.000 
#    0.000   13.750    0.000    0.000    0.000    0.000 
#    0.000    0.000    0.000    0.000    0.000    0.000 
#
# Total GULP energy -89355.740732 kJ/mol
# GULP energy per Si atom -5584.733796 kJ/mol
# Density = 2.545977 g / cm^3
# Si number density = 25.517854 Si / 1000 Ang^3
#
#
#
# Elastic Constant Matrix: (Units=GPa)
#
#
# Indices 1 2 3 4 5 6 
#
# 1 148.6627 31.1014 61.1739 0.0000 39.8330 0.0000
# 2 31.1014 244.5180 58.2505 0.0000 25.4531 0.0000
# 3 61.1739 58.2505 155.3097 0.0000 49.8886 0.0000
# 4 0.0000 0.0000 0.0000 37.1472 0.0000 18.6630
# 5 39.8330 25.4531 49.8886 0.0000 53.2281 0.0000
# 6 0.0000 0.0000 0.0000 18.6630 0.0000 13.0960
#
#
#
# Elastic Compliance Matrix: (Units=1/GPa)
#
#
# Indices 1 2 3 4 5 6 
#
# 1 0.008808 -0.000179 -0.001878 0.000000 -0.004746 0.000000
# 2 -0.000179 0.004519 -0.001393 0.000000 -0.000722 0.000000
# 3 -0.001878 -0.001393 0.010066 0.000000 -0.007363 0.000000
# 4 0.000000 0.000000 0.000000 0.094781 0.000000 -0.135071
# 5 -0.004746 -0.000722 -0.007363 0.000000 0.029585 0.000000
# 6 0.000000 0.000000 0.000000 -0.135071 0.000000 0.268848
#
#
# Mechanical properties :
#
#
# Convention : Reuss Voigt Hill
#
# Bulk Modulus (GPa) = 60.62491 94.39356 77.50923
# Shear Modulus (GPa) = 11.65489 47.22525 29.44007
#
# Velocity S-wave (km/s) = 2.13945 4.30661 3.40031
# Velocity P-wave (km/s) = 5.46923 7.86134 6.77175
#
# Compressibility (1/GPa) = 0.01649487
#
# Stress axis : x y z
#
# Youngs Moduli (GPa) = 113.52674 221.27060 99.34518
#
# Poissons Ratio (x) = 0.03961 0.18655
# Poissons Ratio (y) = 0.02032 0.13835
# Poissons Ratio (z) = 0.21318 0.30815
#
# Static dielectric constant tensor:
#      x y z
#    x 2.148970 0.000000 -0.115020 
#    y 0.000000 2.046420 0.000000 
#    z -0.115020 0.000000 2.007860 
# 
# From -- ./inp_files/30089.got.cif
#   From: 2010.05.17/outbox.cif.g08.bks.cpg/sg12_16_cif.got.tgz:30089.got - 2010.06.03 13:09:07.
