data_PCOD9189661
_publ_section_title
;
Structure prediction by ZEFSAII (Michael W. Deem and Ramdas Pophale) SiO2 
 PCOD9189661
Probable space group: C 2/M
;
_chemical_formula_sum "Si O2"
_cell_formula_units_Z 58
_cell_length_a 14.516933
_cell_length_b 17.497143
_cell_length_c 12.836581
_cell_angle_alpha 90.000000
_cell_angle_beta 71.783063
_cell_angle_gamma 90.000000
_cell_volume 3097.133868
_symmetry_space_group_name_H-M "C 2/M"
_symmetry_group_IT_number 12
_symmetry_cell_setting 'monoclinic'
loop_
_space_group_symop_operation_xyz
x,y,z
-x,y,-z
-x,-y,-z
x,-y,z
1/2+x,1/2+y,z
1/2-x,1/2+y,-z
1/2-x,1/2-y,-z
1/2+x,1/2-y,z
loop_
_atom_site_type_symbol
_atom_site_label
_atom_site_fract_x
_atom_site_fract_y
_atom_site_fract_z
Si Si1 0.733592 0.680843 0.925266
Si Si2 0.896352 0.129499 0.670365
Si Si3 0.275686 0.185627 0.408869
Si Si4 0.731226 0.087144 0.894778
Si Si5 0.450077 0.086688 0.405109
Si Si6 0.893454 0.277707 0.158914
Si Si7 0.563608 0.787417 0.236942
Si Si8 0.500000 0.500000 0.500000
O O1 0.639069 0.703222 0.893511
O O2 0.825306 0.689607 0.817385
O O3 0.750000 0.750000 0.000000
O O4 0.739364 0.607573 0.997007
O O5 0.821428 0.150890 0.604897
O O6 0.825572 0.099968 0.788239
O O7 0.943038 0.208083 0.697180
O O8 0.967739 0.067173 0.597108
O O9 0.250000 0.250000 0.500000
O O10 0.342274 0.121345 0.439318
O O11 0.336841 0.219855 0.289964
O O12 0.649038 0.147148 0.884653
O O13 0.698451 0.000000 0.896214
O O14 0.500000 0.087465 0.500000
O O15 0.512244 0.143327 0.313045
O O16 0.448753 0.000000 0.366185
O O17 0.006377 0.279124 0.147796
#
# Coordination Sequence:
#
# PCOD9189661 Si02
#       8
#     8   8   8   8   8   8   8   2
#     4  10  19  38  59  88 114 158 205 249 310 360
#     4  11  23  40  60  90 123 160 203 258 306 373
#     4  10  20  36  62  86 117 165 208 245 307 372
#     4  10  20  40  62  86 125 161 199 258 319 366
#     4  10  23  38  56  90 127 163 201 253 316 368
#     4   9  21  35  58  92 116 157 205 254 308 368
#     4  11  21  38  64  87 124 158 210 262 301 384
#     4  12  28  36  64  92 126 158 208 256 322 358
#
# _framework density 18.726991999999999
#
# number of rings (size 3 to 8) (size 9 to 14) (size 15 to 20)
#    0.000    1.793    4.828    0.828    5.793    6.069 
#    0.000    0.690    1.517    0.828    0.000    0.000 
#    0.000    0.000    0.000    0.000    0.000    0.000 
#
# Total GULP energy -161477.823458 kJ/mol
# GULP energy per Si atom -5568.200809 kJ/mol
# Density = 1.868437 g / cm^3
# Si number density = 18.726992 Si / 1000 Ang^3
#
#
#
# Elastic Constant Matrix: (Units=GPa)
#
#
# Indices 1 2 3 4 5 6 
#
# 1 69.3928 43.9869 16.9202 0.0000 18.0396 0.0000
# 2 43.9869 138.3421 49.5859 0.0000 2.1555 0.0000
# 3 16.9202 49.5859 57.0285 0.0000 7.5014 0.0000
# 4 0.0000 0.0000 0.0000 26.8484 0.0000 2.3756
# 5 18.0396 2.1555 7.5014 0.0000 28.4776 0.0000
# 6 0.0000 0.0000 0.0000 2.3756 0.0000 17.9634
#
#
#
# Elastic Compliance Matrix: (Units=1/GPa)
#
#
# Indices 1 2 3 4 5 6 
#
# 1 0.022428 -0.007541 0.001758 0.000000 -0.014099 0.000000
# 2 -0.007541 0.013114 -0.010010 0.000000 0.006421 0.000000
# 3 0.001758 -0.010010 0.026689 0.000000 -0.007386 0.000000
# 4 0.000000 0.000000 0.000000 0.037687 0.000000 -0.004984
# 5 -0.014099 0.006421 -0.007386 0.000000 0.045506 0.000000
# 6 0.000000 0.000000 0.000000 -0.004984 0.000000 0.056328
#
#
# Mechanical properties :
#
#
# Convention : Reuss Voigt Hill
#
# Bulk Modulus (GPa) = 32.63354 53.97215 43.30285
# Shear Modulus (GPa) = 20.52940 24.94259 22.73599
#
# Velocity S-wave (km/s) = 3.31455 3.65349 3.48814
# Velocity P-wave (km/s) = 5.66676 6.83230 6.27664
#
# Compressibility (1/GPa) = 0.03064332
#
# Stress axis : x y z
#
# Youngs Moduli (GPa) = 44.58736 76.25421 37.46927
#
# Poissons Ratio (x) = 0.57506 -0.06585
# Poissons Ratio (y) = 0.33625 0.37506
# Poissons Ratio (z) = -0.07836 0.76328
#
# Static dielectric constant tensor:
#      x y z
#    x 1.644100 0.000000 0.025880 
#    y 0.000000 1.629690 0.000000 
#    z 0.025880 0.000000 1.667890 
# 
# From -- ./inp_files/145544.got.cif
#   From: 2010.05.17/outbox.cif.g08.bks.cpg/sg12_73_cif.got.tgz:145544.got - 2010.06.03 13:09:07.
