data_PCOD9189644
_publ_section_title
;
Structure prediction by ZEFSAII (Michael W. Deem and Ramdas Pophale) SiO2 
 PCOD9189644
Probable space group: C 2/M
;
_chemical_formula_sum "Si O2"
_cell_formula_units_Z 56
_cell_length_a 15.659871
_cell_length_b 18.841983
_cell_length_c 9.903913
_cell_angle_alpha 90.000000
_cell_angle_beta 84.371791
_cell_angle_gamma 90.000000
_cell_volume 2908.190894
_symmetry_space_group_name_H-M "C 2/M"
_symmetry_group_IT_number 12
_symmetry_cell_setting 'monoclinic'
loop_
_space_group_symop_operation_xyz
x,y,z
-x,y,-z
-x,-y,-z
x,-y,z
1/2+x,1/2+y,z
1/2-x,1/2+y,-z
1/2-x,1/2-y,-z
1/2+x,1/2-y,z
loop_
_atom_site_type_symbol
_atom_site_label
_atom_site_fract_x
_atom_site_fract_y
_atom_site_fract_z
Si Si1 0.207896 0.583760 0.174520
Si Si2 0.849421 0.656920 0.322925
Si Si3 0.577134 0.694754 0.589016
Si Si4 0.769365 0.823702 0.920246
Si Si5 0.779770 0.915245 0.456219
Si Si6 0.019317 0.636278 0.150542
Si Si7 0.966648 0.192426 0.859399
O O1 0.214392 0.500000 0.164469
O O2 0.252367 0.605490 0.307764
O O3 0.108172 0.605425 0.189059
O O4 0.250517 0.618305 0.037008
O O5 0.870157 0.733582 0.386045
O O6 0.794014 0.669386 0.196167
O O7 0.796443 0.608100 0.432609
O O8 0.938899 0.622794 0.260074
O O9 0.500000 0.713022 0.500000
O O10 0.638158 0.633297 0.523091
O O11 0.530944 0.668271 0.732934
O O12 0.867546 0.827235 0.857234
O O13 0.750000 0.750000 0.000000
O O14 0.794714 0.000000 0.460988
O O15 0.029216 0.721685 0.143737
O O16 0.000000 0.612091 0.000000
O O17 0.000000 0.168479 0.000000
#
# Coordination Sequence:
#
# PCOD9189644 Si02
#       7
#     8   8   8   8   8   8   8
#     4  11  24  39  61  90 128 171 206 251 312 378
#     4  11  24  38  66  97 123 162 212 265 312 380
#     4  11  24  41  65  94 123 161 212 267 318 368
#     4  12  20  39  67  91 126 161 206 263 315 374
#     4  11  26  45  62  89 130 174 213 256 318 378
#     4  10  19  38  58  90 124 156 201 252 314 370
#     4  10  20  35  62  94 118 156 203 257 313 365
#
# _framework density 19.255959000000001
#
# number of rings (size 3 to 8) (size 9 to 14) (size 15 to 20)
#    0.000    1.143    2.857    4.714    4.000    1.714 
#    0.000    2.143    0.000    2.571    0.000    0.000 
#    0.000    0.000    0.000    0.000    0.000    0.000 
#
# Total GULP energy -156525.016178 kJ/mol
# GULP energy per Si atom -5590.179149 kJ/mol
# Density = 1.921213 g / cm^3
# Si number density = 19.255959 Si / 1000 Ang^3
#
#
#
# Elastic Constant Matrix: (Units=GPa)
#
#
# Indices 1 2 3 4 5 6 
#
# 1 61.7956 10.7845 7.2706 0.0000 -14.0871 0.0000
# 2 10.7845 36.6671 16.8362 0.0000 -8.0600 0.0000
# 3 7.2706 16.8362 73.6983 0.0000 -4.8635 0.0000
# 4 0.0000 0.0000 0.0000 21.8123 0.0000 -6.3926
# 5 -14.0871 -8.0600 -4.8635 0.0000 37.7495 0.0000
# 6 0.0000 0.0000 0.0000 -6.3926 0.0000 8.5086
#
#
#
# Elastic Compliance Matrix: (Units=1/GPa)
#
#
# Indices 1 2 3 4 5 6 
#
# 1 0.018265 -0.003822 -0.000537 0.000000 0.005931 0.000000
# 2 -0.003822 0.032515 -0.006744 0.000000 0.004647 0.000000
# 3 -0.000537 -0.006744 0.015183 0.000000 0.000316 0.000000
# 4 0.000000 0.000000 0.000000 0.058791 0.000000 0.044170
# 5 0.005931 0.004647 0.000316 0.000000 0.029736 0.000000
# 6 0.000000 0.000000 0.000000 0.044170 0.000000 0.150714
#
#
# Mechanical properties :
#
#
# Convention : Reuss Voigt Hill
#
# Bulk Modulus (GPa) = 22.85393 26.88262 24.86828
# Shear Modulus (GPa) = 14.62009 22.76539 18.69274
#
# Velocity S-wave (km/s) = 2.75844 3.44212 3.11907
# Velocity P-wave (km/s) = 4.69463 5.45789 5.09059
#
# Compressibility (1/GPa) = 0.04375616
#
# Stress axis : x y z
#
# Youngs Moduli (GPa) = 54.75102 30.75534 65.86141
#
# Poissons Ratio (x) = 0.11753 0.03540
# Poissons Ratio (y) = 0.20923 0.44418
# Poissons Ratio (z) = 0.02943 0.20742
#
# Static dielectric constant tensor:
#      x y z
#    x 2.125610 0.000000 -0.336900 
#    y 0.000000 1.647600 0.000000 
#    z -0.336900 0.000000 1.959360 
# 
# From -- ./inp_files/64052.got.cif
#   From: 2010.05.17/outbox.cif.g08.bks.cpg/sg12_33_cif.got.tgz:64052.got - 2010.06.03 13:09:07.
