data_PCOD9189215
_publ_section_title
;
Structure prediction by ZEFSAII (Michael W. Deem and Ramdas Pophale) SiO2 
 PCOD9189215
Probable space group: C 2/M
;
_chemical_formula_sum "Si O2"
_cell_formula_units_Z 64
_cell_length_a 31.422131
_cell_length_b 8.281063
_cell_length_c 16.696757
_cell_angle_alpha 90.000000
_cell_angle_beta 134.123797
_cell_angle_gamma 90.000000
_cell_volume 3118.744591
_symmetry_space_group_name_H-M "C 2/M"
_symmetry_group_IT_number 12
_symmetry_cell_setting 'monoclinic'
loop_
_space_group_symop_operation_xyz
x,y,z
-x,y,-z
-x,-y,-z
x,-y,z
1/2+x,1/2+y,z
1/2-x,1/2+y,-z
1/2-x,1/2-y,-z
1/2+x,1/2-y,z
loop_
_atom_site_type_symbol
_atom_site_label
_atom_site_fract_x
_atom_site_fract_y
_atom_site_fract_z
Si Si1 0.626760 0.307788 0.059447
Si Si2 0.063105 0.687993 0.828018
Si Si3 0.564707 0.315159 0.557842
Si Si4 0.155968 0.819650 0.824805
Si Si5 0.066385 0.301351 0.313521
Si Si6 0.652237 0.815285 0.554395
Si Si7 0.437965 0.195142 0.877816
Si Si8 0.740530 0.806244 0.805113
O O1 0.621448 0.500000 0.039434
O O2 0.613401 0.266276 0.133607
O O3 0.692062 0.254348 0.117545
O O4 0.579367 0.217341 0.941819
O O5 0.060171 0.500000 0.805653
O O6 0.118531 0.754473 0.850288
O O7 0.996257 0.754941 0.729281
O O8 0.500000 0.265726 0.500000
O O9 0.562358 0.500000 0.522616
O O10 0.606606 0.319966 0.690067
O O11 0.594209 0.194312 0.534638
O O12 0.211097 0.737094 0.851805
O O13 0.175086 0.000000 0.870334
O O14 0.066271 0.500000 0.316814
O O15 0.125338 0.244205 0.437467
O O16 0.066139 0.255324 0.220053
O O17 0.701925 0.740974 0.678513
O O18 0.669976 0.000000 0.561529
O O19 0.435348 0.000000 0.877141
O O20 0.500000 0.246059 0.000000
O O21 0.738281 0.000000 0.796587
#
# Coordination Sequence:
#
# PCOD9189215 Si02
#       8
#     8   8   8   8   8   8   8   8
#     4  11  23  38  56  80 108 140 181 224 269 319
#     4  11  21  35  55  81 111 143 180 222 272 322
#     4   9  17  29  45  69 106 143 173 212 267 318
#     4  10  20  33  51  78 109 143 183 224 265 314
#     4   9  18  33  56  84 109 136 175 222 268 320
#     4   9  17  32  54  76 100 136 180 220 258 305
#     4  10  19  37  60  82 110 140 174 216 269 326
#     4   9  20  38  56  75 106 147 185 221 261 312
#
# _framework density 20.521077999999999
#
# number of rings (size 3 to 8) (size 9 to 14) (size 15 to 20)
#    0.000    2.250    1.250    1.875    0.000    2.500 
#    0.000    1.875    0.000    0.000    0.000    0.000 
#    0.000    0.000    0.000    0.000    0.000    0.000 
#
# Total GULP energy -178397.332303 kJ/mol
# GULP energy per Si atom -5574.916634 kJ/mol
# Density = 2.047437 g / cm^3
# Si number density = 20.521078 Si / 1000 Ang^3
#
#
#
# Elastic Constant Matrix: (Units=GPa)
#
#
# Indices 1 2 3 4 5 6 
#
# 1 79.0958 0.7383 5.1431 0.0000 -6.1607 0.0000
# 2 0.7383 7.9344 -1.7525 0.0000 -0.5411 0.0000
# 3 5.1431 -1.7525 64.5581 0.0000 -11.9926 0.0000
# 4 0.0000 0.0000 0.0000 14.5782 0.0000 -3.8984
# 5 -6.1607 -0.5411 -11.9926 0.0000 31.1095 0.0000
# 6 0.0000 0.0000 0.0000 -3.8984 0.0000 25.1199
#
#
#
# Elastic Compliance Matrix: (Units=1/GPa)
#
#
# Indices 1 2 3 4 5 6 
#
# 1 0.012873 -0.001182 -0.000633 0.000000 0.002285 0.000000
# 2 -0.001182 0.127322 0.004221 0.000000 0.003608 0.000000
# 3 -0.000633 0.004221 0.016852 0.000000 0.006444 0.000000
# 4 0.000000 0.000000 0.000000 0.071565 0.000000 0.011106
# 5 0.002285 0.003608 0.006444 0.000000 0.035144 0.000000
# 6 0.000000 0.000000 0.000000 0.011106 0.000000 0.041533
#
#
# Mechanical properties :
#
#
# Convention : Reuss Voigt Hill
#
# Bulk Modulus (GPa) = 6.17824 17.76069 11.96947
# Shear Modulus (GPa) = 14.10710 23.99215 19.04963
#
# Velocity S-wave (km/s) = 2.62476 3.42299 3.05010
# Velocity P-wave (km/s) = 3.49328 4.92911 4.27195
#
# Compressibility (1/GPa) = 0.16185838
#
# Stress axis : x y z
#
# Youngs Moduli (GPa) = 77.68163 7.85408 59.33987
#
# Poissons Ratio (x) = 0.00928 0.03758
# Poissons Ratio (y) = 0.09181 -0.25045
# Poissons Ratio (z) = 0.04919 -0.03315
#
# Static dielectric constant tensor:
#      x y z
#    x 1.728950 0.000000 0.003400 
#    y 0.000000 1.742440 0.000000 
#    z 0.003400 0.000000 1.782110 
# 
# From -- ./inp_files/249152.got.cif
#   From: 2010.05.17/outbox.cif.g08.bks.cpg/sg12_125_cif.got.tgz:249152.got - 2010.06.03 13:09:07.
