data_PCOD9189913
_publ_section_title
;
Structure prediction by ZEFSAII (Michael W. Deem and Ramdas Pophale) SiO2 
 PCOD9189913
Probable space group: C 2/M
;
_chemical_formula_sum "Si O2"
_cell_formula_units_Z 42
_cell_length_a 20.859411
_cell_length_b 7.561873
_cell_length_c 14.951917
_cell_angle_alpha 90.000000
_cell_angle_beta 53.133682
_cell_angle_gamma 90.000000
_cell_volume 1886.855463
_symmetry_space_group_name_H-M "C 2/M"
_symmetry_group_IT_number 12
_symmetry_cell_setting 'monoclinic'
loop_
_space_group_symop_operation_xyz
x,y,z
-x,y,-z
-x,-y,-z
x,-y,z
1/2+x,1/2+y,z
1/2-x,1/2+y,-z
1/2-x,1/2-y,-z
1/2+x,1/2-y,z
loop_
_atom_site_type_symbol
_atom_site_label
_atom_site_fract_x
_atom_site_fract_y
_atom_site_fract_z
Si Si1 0.945406 0.297467 0.468431
Si Si2 0.826649 0.710421 0.874501
Si Si3 0.000000 0.000000 0.000000
Si Si4 0.504333 0.215327 0.766474
Si Si5 0.792796 0.204046 0.697564
Si Si6 0.607059 0.786638 0.852943
O O1 0.974752 0.500000 0.434811
O O2 0.856059 0.299189 0.581144
O O3 0.000000 0.212128 0.500000
O O4 0.957428 0.223659 0.359541
O O5 0.832820 0.500000 0.862150
O O6 0.911720 0.773313 0.842811
O O7 0.815535 0.778033 0.782807
O O8 0.750000 0.750000 0.000000
O O9 0.932090 0.841565 0.042113
O O10 0.558857 0.270268 0.803964
O O11 0.505691 0.000000 0.770172
O O12 0.700460 0.255101 0.764606
O O13 0.798856 0.000000 0.666813
O O14 0.598712 0.000000 0.876818
#
# Coordination Sequence:
#
# PCOD9189913 Si02
#       6
#     8   8   2   8   8   8
#     4  10  19  38  67  93 123 168 216 267 318 384
#     4  11  23  39  63  90 124 164 214 267 320 387
#     4  12  26  44  72  98 124 184 218 262 330 386
#     4   9  20  42  64  89 126 170 212 267 330 376
#     4  11  24  41  61  94 132 169 208 267 331 380
#     4  10  25  45  65  96 136 170 217 269 325 392
#
# _framework density 22.259257999999999
#
# number of rings (size 3 to 8) (size 9 to 14) (size 15 to 20)
#    0.000    1.714    1.905    1.429    5.333    1.143 
#    3.429    0.000    0.000    0.000    0.000    0.000 
#    0.000    0.000    0.000    0.000    0.000    0.000 
#
# Total GULP energy -117071.157495 kJ/mol
# GULP energy per Si atom -5574.817024 kJ/mol
# Density = 2.220860 g / cm^3
# Si number density = 22.259258 Si / 1000 Ang^3
#
#
#
# Elastic Constant Matrix: (Units=GPa)
#
#
# Indices 1 2 3 4 5 6 
#
# 1 161.5184 8.7893 51.2037 0.0000 -9.2152 0.0000
# 2 8.7893 65.9390 5.4353 -0.0002 -11.3112 -0.0002
# 3 51.2037 5.4353 110.8285 -0.0002 -8.9634 0.0000
# 4 0.0000 -0.0002 -0.0002 -8.8252 0.0001 -27.8970
# 5 -9.2152 -11.3112 -8.9634 0.0001 40.4552 0.0000
# 6 0.0000 -0.0002 0.0000 -27.8970 0.0000 9.1467
#
#
#
# Elastic Compliance Matrix: (Units=1/GPa)
#
#
# Indices 1 2 3 4 5 6 
#
# 1 0.007308 -0.000570 -0.003286 0.000000 0.000777 0.000000
# 2 -0.000570 0.015994 -0.000173 0.000000 0.004304 0.000000
# 3 -0.003286 -0.000173 0.010676 0.000000 0.001569 0.000000
# 4 0.000000 0.000000 0.000000 -0.010649 0.000000 -0.032477
# 5 0.000777 0.004304 0.001569 0.000000 0.026447 0.000000
# 6 0.000000 0.000000 0.000000 -0.032477 0.000000 0.010274
#
#
# Mechanical properties :
#
#
# Convention : Reuss Voigt Hill
#
# Bulk Modulus (GPa) = 38.57821 52.12694 45.35257
# Shear Modulus (GPa) = 65.14786 26.34585 45.74685
#
# Velocity S-wave (km/s) = 5.41584 3.44407 4.53833
# Velocity P-wave (km/s) = 7.51514 6.26773 6.91960
#
# Compressibility (1/GPa) = 0.02592137
#
# Stress axis : x y z
#
# Youngs Moduli (GPa) = 136.83247 62.52337 93.66546
#
# Poissons Ratio (x) = 0.03564 0.30775
# Poissons Ratio (y) = 0.07799 0.01620
# Poissons Ratio (z) = 0.44958 0.01082
#
# Static dielectric constant tensor:
#      x y z
#    x 1.825720 0.000000 0.018470 
#    y 0.000000 1.882730 0.000000 
#    z 0.018470 0.000000 1.865130 
# 
# From -- ./inp_files/221416.got.cif
#   From: 2010.05.17/outbox.cif.g08.bks.cpg/sg12_111_cif.got.tgz:221416.got - 2010.06.03 13:09:07.
