data_PCOD9189542
_publ_section_title
;
Structure prediction by ZEFSAII (Michael W. Deem and Ramdas Pophale) SiO2 
 PCOD9189542
Probable space group: C 2/M
;
_chemical_formula_sum "Si O2"
_cell_formula_units_Z 64
_cell_length_a 28.155946
_cell_length_b 19.733387
_cell_length_c 12.070136
_cell_angle_alpha 90.000000
_cell_angle_beta 150.266600
_cell_angle_gamma 90.000000
_cell_volume 3326.096927
_symmetry_space_group_name_H-M "C 2/M"
_symmetry_group_IT_number 12
_symmetry_cell_setting 'monoclinic'
loop_
_space_group_symop_operation_xyz
x,y,z
-x,y,-z
-x,-y,-z
x,-y,z
1/2+x,1/2+y,z
1/2-x,1/2+y,-z
1/2-x,1/2-y,-z
1/2+x,1/2-y,z
loop_
_atom_site_type_symbol
_atom_site_label
_atom_site_fract_x
_atom_site_fract_y
_atom_site_fract_z
Si Si1 0.774763 0.081982 0.407358
Si Si2 0.408257 0.076974 0.083116
Si Si3 0.598787 0.420805 0.130946
Si Si4 0.088287 0.081099 0.520269
Si Si5 0.225363 0.426649 0.972645
Si Si6 0.282846 0.799414 0.165107
Si Si7 0.015399 0.297567 0.395964
Si Si8 0.588711 0.332638 0.890762
O O1 0.816945 0.097924 0.612763
O O2 0.852879 0.102480 0.471806
O O3 0.771914 0.000000 0.393116
O O4 0.665705 0.103891 0.160821
O O5 0.486842 0.129958 0.285128
O O6 0.443112 0.000000 0.128905
O O7 0.333537 0.070021 0.033508
O O8 0.610595 0.500000 0.118452
O O9 0.500000 0.418839 0.000000
O O10 0.593333 0.369151 0.018661
O O11 0.165650 0.091403 0.774506
O O12 0.990242 0.121625 0.333468
O O13 0.070152 0.000000 0.476335
O O14 0.223806 0.500000 0.915064
O O15 0.177230 0.368208 0.807231
O O16 0.377168 0.771610 0.413427
O O17 0.250000 0.750000 0.000000
O O18 0.195041 0.825452 0.058545
O O19 0.000000 0.293976 0.500000
O O20 0.948143 0.243619 0.198415
#
# Coordination Sequence:
#
# PCOD9189542 Si02
#       8
#     8   8   8   8   8   8   8   8
#     4   8  15  32  62  93 120 151 190 245 305 361
#     4   9  18  36  62  87 109 150 210 257 295 350
#     4  10  19  37  65  97 127 157 196 245 310 373
#     4   9  17  31  54  87 122 153 188 235 297 369
#     4   9  18  31  53  84 113 145 196 249 290 346
#     4  12  24  40  55  79 118 164 205 244 306 366
#     4  12  24  41  60  81 116 165 210 250 304 364
#     4  12  24  36  59  85 121 160 199 243 303 372
#
# _framework density 19.241772999999998
#
# number of rings (size 3 to 8) (size 9 to 14) (size 15 to 20)
#    0.000    1.875    3.750    2.625    0.000    2.750 
#    0.000    1.875    0.000    0.000    0.000    2.625 
#    0.000    0.000    0.000    0.000    0.000    0.000 
#
# Total GULP energy -178299.906535 kJ/mol
# GULP energy per Si atom -5571.872079 kJ/mol
# Density = 1.919798 g / cm^3
# Si number density = 19.241773 Si / 1000 Ang^3
#
#
#
# Elastic Constant Matrix: (Units=GPa)
#
#
# Indices 1 2 3 4 5 6 
#
# 1 47.6724 24.0493 19.4776 0.0000 2.7001 0.0000
# 2 24.0493 70.5455 31.6289 0.0000 -9.7833 0.0000
# 3 19.4776 31.6289 90.7658 0.0000 3.5310 0.0000
# 4 0.0000 0.0000 0.0000 34.8983 0.0000 1.8124
# 5 2.7001 -9.7833 3.5310 0.0000 28.5105 0.0000
# 6 0.0000 0.0000 0.0000 1.8124 0.0000 10.0675
#
#
#
# Elastic Compliance Matrix: (Units=1/GPa)
#
#
# Indices 1 2 3 4 5 6 
#
# 1 0.026677 -0.008699 -0.002491 0.000000 -0.005203 0.000000
# 2 -0.008699 0.020937 -0.005768 0.000000 0.008723 0.000000
# 3 -0.002491 -0.005768 0.013696 0.000000 -0.003440 0.000000
# 4 0.000000 0.000000 0.000000 0.028925 0.000000 -0.005207
# 5 -0.005203 0.008723 -0.003440 0.000000 0.038987 0.000000
# 6 0.000000 0.000000 0.000000 -0.005207 0.000000 0.100267
#
#
# Mechanical properties :
#
#
# Convention : Reuss Voigt Hill
#
# Bulk Modulus (GPa) = 36.50572 39.92171 38.21372
# Shear Modulus (GPa) = 18.34618 23.61714 20.98166
#
# Velocity S-wave (km/s) = 3.09116 3.50721 3.30574
# Velocity P-wave (km/s) = 5.63504 6.09862 5.87141
#
# Compressibility (1/GPa) = 0.02739296
#
# Stress axis : x y z
#
# Youngs Moduli (GPa) = 37.48487 47.76299 73.01517
#
# Poissons Ratio (x) = 0.41550 0.18188
# Poissons Ratio (y) = 0.32609 0.42117
# Poissons Ratio (z) = 0.09337 0.27551
#
# Static dielectric constant tensor:
#      x y z
#    x 1.674780 0.000000 -0.011700 
#    y 0.000000 1.706050 0.000000 
#    z -0.011700 0.000000 1.739920 
# 
# From -- ./inp_files/184736.got.cif
#   From: 2010.05.17/outbox.cif.g08.bks.cpg/sg12_93_cif.got.tgz:184736.got - 2010.06.03 13:09:07.
