data_PCOD9189809
_publ_section_title
;
Structure prediction by ZEFSAII (Michael W. Deem and Ramdas Pophale) SiO2 
 PCOD9189809
Probable space group: C 2/M
;
_chemical_formula_sum "Si O2"
_cell_formula_units_Z 52
_cell_length_a 10.021047
_cell_length_b 15.643068
_cell_length_c 19.333972
_cell_angle_alpha 90.000000
_cell_angle_beta 128.808815
_cell_angle_gamma 90.000000
_cell_volume 2361.718983
_symmetry_space_group_name_H-M "C 2/M"
_symmetry_group_IT_number 12
_symmetry_cell_setting 'monoclinic'
loop_
_space_group_symop_operation_xyz
x,y,z
-x,y,-z
-x,-y,-z
x,-y,z
1/2+x,1/2+y,z
1/2-x,1/2+y,-z
1/2-x,1/2-y,-z
1/2+x,1/2-y,z
loop_
_atom_site_type_symbol
_atom_site_label
_atom_site_fract_x
_atom_site_fract_y
_atom_site_fract_z
Si Si1 0.819487 0.158133 0.916313
Si Si2 0.923929 0.589362 0.627844
Si Si3 0.275384 0.000000 0.859182
Si Si4 0.810046 0.761653 0.598941
Si Si5 0.328129 0.406956 0.775911
Si Si6 0.000000 0.630085 0.500000
Si Si7 0.320668 0.000000 0.037488
Si Si8 0.898698 0.816692 0.220211
O O1 0.873019 0.097666 0.870279
O O2 0.735339 0.089582 0.942569
O O3 0.705938 0.236787 0.847319
O O4 0.000000 0.196712 0.000000
O O5 0.862165 0.500000 0.635530
O O6 0.820273 0.665250 0.627753
O O7 0.920928 0.587551 0.542666
O O8 0.123874 0.600153 0.708497
O O9 0.198926 0.907827 0.809761
O O10 0.473732 0.000000 0.901638
O O11 0.256781 0.000000 0.937077
O O12 0.750000 0.750000 0.500000
O O13 0.658156 0.816267 0.581126
O O14 0.000384 0.797074 0.675135
O O15 0.368510 0.500000 0.757212
O O16 0.437100 0.334072 0.775467
#
# Coordination Sequence:
#
# PCOD9189809 Si02
#       8
#     8   8   4   8   8   4   4   8
#     4  12  27  43  73 101 139 188 234 284 351 422
#     4  10  20  36  63  94 127 165 224 276 337 404
#     4  11  28  48  74 102 143 187 231 291 355 426
#     4  10  22  41  64  96 137 176 224 285 347 408
#     4  11  22  41  67  98 131 178 230 283 342 407
#     4  10  19  38  63  92 124 178 220 279 344 401
#     4  11  27  52  70 103 148 183 231 294 354 419
#     4  12  25  45  70 103 143 183 239 290 352 423
#
# _framework density 22.017862000000001
#
# number of rings (size 3 to 8) (size 9 to 14) (size 15 to 20)
#    0.000    1.077    4.615    1.385    4.308    1.231 
#    5.538    0.385    0.000    0.000    0.000    0.000 
#    0.000    0.000    0.000    0.000    0.000    0.000 
#
# Total GULP energy -144778.322511 kJ/mol
# GULP energy per Si atom -5568.397020 kJ/mol
# Density = 2.196775 g / cm^3
# Si number density = 22.017862 Si / 1000 Ang^3
#
#
#
# Elastic Constant Matrix: (Units=GPa)
#
#
# Indices 1 2 3 4 5 6 
#
# 1 40.0067 26.2086 25.1873 0.0000 13.3389 0.0000
# 2 26.2086 160.5145 52.1710 0.0000 36.8699 0.0000
# 3 25.1873 52.1710 132.5845 0.0000 28.0241 0.0000
# 4 0.0000 0.0000 0.0000 -9.0739 0.0000 -30.1600
# 5 13.3389 36.8699 28.0241 0.0000 33.9030 0.0000
# 6 0.0000 0.0000 0.0000 -30.1600 0.0000 -16.4270
#
#
#
# Elastic Compliance Matrix: (Units=1/GPa)
#
#
# Indices 1 2 3 4 5 6 
#
# 1 0.031013 -0.002376 -0.003543 0.000000 -0.006690 0.000000
# 2 -0.002376 0.008794 -0.001436 0.000000 -0.007442 0.000000
# 3 -0.003543 -0.001436 0.009882 0.000000 -0.005213 0.000000
# 4 0.000000 0.000000 0.000000 0.021598 0.000000 -0.039655
# 5 -0.006690 -0.007442 -0.005213 0.000000 0.044530 0.000000
# 6 0.000000 0.000000 0.000000 -0.039655 0.000000 0.011930
#
#
# Mechanical properties :
#
#
# Convention : Reuss Voigt Hill
#
# Bulk Modulus (GPa) = 28.58743 60.02661 44.30702
# Shear Modulus (GPa) = 32.44276 16.98301 24.71289
#
# Velocity S-wave (km/s) = 3.84275 2.78029 3.35386
# Velocity P-wave (km/s) = 5.71847 6.13421 5.92999
#
# Compressibility (1/GPa) = 0.03498041
#
# Stress axis : x y z
#
# Youngs Moduli (GPa) = 32.24444 113.71393 101.19051
#
# Poissons Ratio (x) = 0.27014 0.35850
# Poissons Ratio (y) = 0.07660 0.14532
# Poissons Ratio (z) = 0.11423 0.16331
#
# Static dielectric constant tensor:
#      x y z
#    x 1.806520 0.000000 -0.077430 
#    y 0.000000 1.875560 0.000000 
#    z -0.077430 0.000000 2.439850 
# 
# From -- ./inp_files/305549.got.cif
#   From: 2010.05.17/outbox.cif.g08.bks.cpg/sg12_153_cif.got.tgz:305549.got - 2010.06.03 13:09:07.
