data_PCOD9189433
_publ_section_title
;
Structure prediction by ZEFSAII (Michael W. Deem and Ramdas Pophale) SiO2 
 PCOD9189433
Probable space group: C 2/M
;
_chemical_formula_sum "Si O2"
_cell_formula_units_Z 56
_cell_length_a 23.397380
_cell_length_b 17.166930
_cell_length_c 8.361922
_cell_angle_alpha 90.000000
_cell_angle_beta 117.334316
_cell_angle_gamma 90.000000
_cell_volume 2983.639556
_symmetry_space_group_name_H-M "C 2/M"
_symmetry_group_IT_number 12
_symmetry_cell_setting 'monoclinic'
loop_
_space_group_symop_operation_xyz
x,y,z
-x,y,-z
-x,-y,-z
x,-y,z
1/2+x,1/2+y,z
1/2-x,1/2+y,-z
1/2-x,1/2-y,-z
1/2+x,1/2-y,z
loop_
_atom_site_type_symbol
_atom_site_label
_atom_site_fract_x
_atom_site_fract_y
_atom_site_fract_z
Si Si1 0.190651 0.704848 0.134395
Si Si2 0.200022 0.119725 0.053398
Si Si3 0.843887 0.410575 0.185503
Si Si4 0.565158 0.755148 0.172541
Si Si5 0.113191 0.085986 0.254838
Si Si6 0.927945 0.282628 0.462167
Si Si7 0.671346 0.640921 0.660479
O O1 0.199239 0.785975 0.050736
O O2 0.132007 0.722583 0.175745
O O3 0.260255 0.681772 0.291003
O O4 0.169153 0.633185 0.997561
O O5 0.273294 0.093576 0.176727
O O6 0.156662 0.093669 0.148590
O O7 0.179264 0.097846 0.843910
O O8 0.863166 0.500000 0.194385
O O9 0.895983 0.357052 0.339257
O O10 0.566992 0.661045 0.193707
O O11 0.566946 0.795772 0.344047
O O12 0.500000 0.776957 0.000000
O O13 0.151215 0.095068 0.473485
O O14 0.083251 0.000000 0.214252
O O15 0.881728 0.208131 0.378880
O O16 0.000000 0.265480 0.500000
#
# Coordination Sequence:
#
# PCOD9189433 Si02
#       7
#     8   8   8   8   8   8   8
#     4  10  19  38  64  87 115 152 198 241 289 344
#     4  10  19  37  63  85 121 157 194 241 289 348
#     4  11  21  35  58  90 120 148 189 242 301 347
#     4  10  23  39  63  84 109 157 203 242 288 349
#     4  10  23  36  57  91 124 152 192 246 299 347
#     4  11  22  37  61  84 115 153 201 241 284 349
#     4  10  20  37  63  88 117 155 200 241 285 352
#
# _framework density 18.769024000000002
#
# number of rings (size 3 to 8) (size 9 to 14) (size 15 to 20)
#    0.000    1.714    2.857    2.143    4.000    5.143 
#    0.000    0.714    0.000    3.429    0.000    0.000 
#    0.000    0.000    0.000    0.000    0.000    0.000 
#
# Total GULP energy -156078.171708 kJ/mol
# GULP energy per Si atom -5574.220418 kJ/mol
# Density = 1.872631 g / cm^3
# Si number density = 18.769024 Si / 1000 Ang^3
#
#
#
# Elastic Constant Matrix: (Units=GPa)
#
#
# Indices 1 2 3 4 5 6 
#
# 1 84.6455 29.5322 40.9459 0.0000 10.4395 0.0000
# 2 29.5322 90.1654 19.2845 0.0000 5.5239 0.0000
# 3 40.9459 19.2845 87.4941 0.0000 11.9521 0.0000
# 4 0.0000 0.0000 0.0000 9.1208 0.0000 -1.2920
# 5 10.4395 5.5239 11.9521 0.0000 31.7345 0.0000
# 6 0.0000 0.0000 0.0000 -1.2920 0.0000 5.7276
#
#
#
# Elastic Compliance Matrix: (Units=1/GPa)
#
#
# Indices 1 2 3 4 5 6 
#
# 1 0.016663 -0.003900 -0.006623 0.000000 -0.002308 0.000000
# 2 -0.003900 0.012590 -0.000871 0.000000 -0.000581 0.000000
# 3 -0.006623 -0.000871 0.015184 0.000000 -0.003388 0.000000
# 4 0.000000 0.000000 0.000000 0.113258 0.000000 0.025548
# 5 -0.002308 -0.000581 -0.003388 0.000000 0.033648 0.000000
# 6 0.000000 0.000000 0.000000 0.025548 0.000000 0.180356
#
#
# Mechanical properties :
#
#
# Convention : Reuss Voigt Hill
#
# Bulk Modulus (GPa) = 46.19045 49.09224 47.64135
# Shear Modulus (GPa) = 12.44701 20.81939 16.63320
#
# Velocity S-wave (km/s) = 2.57800 3.33414 2.98015
# Velocity P-wave (km/s) = 5.79006 6.40584 6.10572
#
# Compressibility (1/GPa) = 0.02164950
#
# Stress axis : x y z
#
# Youngs Moduli (GPa) = 60.01271 79.42934 65.86032
#
# Poissons Ratio (x) = 0.30975 0.43621
# Poissons Ratio (y) = 0.23403 0.05734
# Poissons Ratio (z) = 0.39748 0.06915
#
# Static dielectric constant tensor:
#      x y z
#    x 1.309530 0.000000 -0.109110 
#    y 0.000000 1.647110 0.000000 
#    z -0.109110 0.000000 1.650200 
# 
# From -- ./inp_files/96956.got.cif
#   From: 2010.05.17/outbox.cif.g08.bks.cpg/sg12_49_cif.got.tgz:96956.got - 2010.06.03 13:09:07.
