data_PCOD9189044
_publ_section_title
;
Structure prediction by ZEFSAII (Michael W. Deem and Ramdas Pophale) SiO2 
 PCOD9189044
Probable space group: C 2/M
;
_chemical_formula_sum "Si O2"
_cell_formula_units_Z 64
_cell_length_a 22.106266
_cell_length_b 23.318203
_cell_length_c 16.337327
_cell_angle_alpha 90.000000
_cell_angle_beta 23.321709
_cell_angle_gamma 90.000000
_cell_volume 3334.032337
_symmetry_space_group_name_H-M "C 2/M"
_symmetry_group_IT_number 12
_symmetry_cell_setting 'monoclinic'
loop_
_space_group_symop_operation_xyz
x,y,z
-x,y,-z
-x,-y,-z
x,-y,z
1/2+x,1/2+y,z
1/2-x,1/2+y,-z
1/2-x,1/2-y,-z
1/2+x,1/2-y,z
loop_
_atom_site_type_symbol
_atom_site_label
_atom_site_fract_x
_atom_site_fract_y
_atom_site_fract_z
Si Si1 0.251614 0.117432 0.657900
Si Si2 0.414288 0.642983 0.524528
Si Si3 0.970105 0.567654 0.787266
Si Si4 0.436069 0.379361 0.952029
Si Si5 0.173095 0.255055 0.469196
Si Si6 0.866329 0.931427 0.862221
Si Si7 0.909496 0.630814 0.027496
Si Si8 0.498578 0.751996 0.850755
O O1 0.392558 0.083854 0.444059
O O2 0.305860 0.183506 0.598887
O O3 0.108396 0.112994 0.772814
O O4 0.181710 0.100054 0.831988
O O5 0.500000 0.660471 0.500000
O O6 0.368810 0.699771 0.531115
O O7 0.519957 0.602384 0.338701
O O8 0.260967 0.610183 0.742378
O O9 0.970552 0.500000 0.801058
O O10 0.807182 0.583242 0.948993
O O11 0.984403 0.598947 0.857237
O O12 0.403965 0.410654 0.907136
O O13 0.426465 0.310440 0.952290
O O14 0.338761 0.244494 0.304433
O O15 0.045235 0.261147 0.698703
O O16 0.884812 0.000000 0.833017
O O17 0.000000 0.626668 0.000000
O O18 0.899830 0.697079 0.010776
#
# Coordination Sequence:
#
# PCOD9189044 Si02
#       8
#     8   8   8   8   8   8   8   8
#     4  10  22  42  67  99 130 164 210 268 322 380
#     4  12  24  42  64  99 133 168 214 260 317 388
#     4  11  26  47  64  89 129 172 219 272 322 374
#     4  10  22  41  69  98 128 167 214 260 321 389
#     4  10  19  37  65  95 131 168 199 254 323 377
#     4  11  26  47  66  88 126 176 222 267 322 379
#     4  12  24  40  67  98 133 168 210 261 325 386
#     4  10  19  36  66  95 131 165 202 254 318 386
#
# _framework density 19.195974
#
# number of rings (size 3 to 8) (size 9 to 14) (size 15 to 20)
#    0.000    1.250    5.000    0.750    3.500    2.500 
#    4.500    4.375    0.000    0.000    0.000    0.000 
#    0.000    0.000    0.000    0.000    0.000    0.000 
#
# Total GULP energy -178757.616034 kJ/mol
# GULP energy per Si atom -5586.175501 kJ/mol
# Density = 1.915228 g / cm^3
# Si number density = 19.195974 Si / 1000 Ang^3
#
#
#
# Elastic Constant Matrix: (Units=GPa)
#
#
# Indices 1 2 3 4 5 6 
#
# 1 85.8268 33.5653 30.2109 0.0076 24.2007 0.0019
# 2 33.5653 62.0492 24.5439 0.0148 4.5955 0.0028
# 3 30.2109 24.5439 117.8393 0.0299 20.4448 0.0101
# 4 0.0076 0.0148 0.0299 13.7034 -0.0152 -15.4381
# 5 24.2007 4.5955 20.4448 -0.0152 17.6063 -0.0062
# 6 0.0019 0.0028 0.0101 -15.4381 -0.0062 2.5019
#
#
#
# Elastic Compliance Matrix: (Units=1/GPa)
#
#
# Indices 1 2 3 4 5 6 
#
# 1 0.025075 -0.011812 0.001849 0.000025 -0.033530 0.000060
# 2 -0.011812 0.023130 -0.004457 -0.000009 0.015374 -0.000015
# 3 0.001849 -0.004457 0.011495 0.000021 -0.014727 0.000052
# 4 0.000025 -0.000009 0.000021 -0.012261 -0.000094 -0.075658
# 5 -0.033530 0.015374 -0.014727 -0.000094 0.115976 -0.000229
# 6 0.000060 -0.000015 0.000052 -0.075658 -0.000229 -0.067157
#
#
# Mechanical properties :
#
#
# Convention : Reuss Voigt Hill
#
# Bulk Modulus (GPa) = 32.40333 49.15062 40.77697
# Shear Modulus (GPa) = 36.93190 18.58866 27.76028
#
# Velocity S-wave (km/s) = 4.39103 3.11523 3.80696
# Velocity P-wave (km/s) = 6.52879 6.21287 6.37279
#
# Compressibility (1/GPa) = 0.03086103
#
# Stress axis : x y z
#
# Youngs Moduli (GPa) = 39.88106 43.23361 86.99125
#
# Poissons Ratio (x) = 0.51068 -0.16086
# Poissons Ratio (y) = 0.47108 0.38769
# Poissons Ratio (z) = -0.07375 0.19268
#
# Static dielectric constant tensor:
#      x y z
#    x 1.665840 -0.000010 0.006850 
#    y -0.000010 1.654670 0.000000 
#    z 0.006850 0.000000 1.683060 
# 
# From -- ./inp_files/290899.got.cif
#   From: 2010.05.17/outbox.cif.g08.bks.cpg/sg12_146_cif.got.tgz:290899.got - 2010.06.03 13:09:07.
