data_PCOD9189610
_publ_section_title
;
Structure prediction by ZEFSAII (Michael W. Deem and Ramdas Pophale) SiO2 
 PCOD9189610
Probable space group: C 2/M
;
_chemical_formula_sum "Si O2"
_cell_formula_units_Z 64
_cell_length_a 13.879894
_cell_length_b 19.359373
_cell_length_c 22.505060
_cell_angle_alpha 90.000000
_cell_angle_beta 146.948907
_cell_angle_gamma 90.000000
_cell_volume 3298.087331
_symmetry_space_group_name_H-M "C 2/M"
_symmetry_group_IT_number 12
_symmetry_cell_setting 'monoclinic'
loop_
_space_group_symop_operation_xyz
x,y,z
-x,y,-z
-x,-y,-z
x,-y,z
1/2+x,1/2+y,z
1/2-x,1/2+y,-z
1/2-x,1/2-y,-z
1/2+x,1/2-y,z
loop_
_atom_site_type_symbol
_atom_site_label
_atom_site_fract_x
_atom_site_fract_y
_atom_site_fract_z
Si Si1 0.153195 0.580703 0.359003
Si Si2 0.061657 0.183149 0.949256
Si Si3 0.385964 0.921324 0.798032
Si Si4 0.174096 0.337137 0.014581
Si Si5 0.651957 0.420000 0.793101
Si Si6 0.889925 0.796306 0.503305
Si Si7 0.704982 0.158362 0.822379
Si Si8 0.533126 0.714163 0.325481
O O1 0.179436 0.500000 0.383815
O O2 0.177204 0.595250 0.300801
O O3 0.293908 0.629829 0.463272
O O4 0.953843 0.605017 0.270499
O O5 0.142343 0.174678 0.925768
O O6 0.859169 0.162014 0.853020
O O7 0.087338 0.262969 0.981686
O O8 0.187206 0.143676 0.061368
O O9 0.236738 0.918226 0.771233
O O10 0.452486 0.000000 0.830236
O O11 0.541069 0.872885 0.900118
O O12 0.209111 0.386870 0.088362
O O13 0.612368 0.500000 0.787162
O O14 0.496993 0.363561 0.711676
O O15 0.728777 0.742184 0.414737
O O16 0.995431 0.780831 0.618050
O O17 0.000000 0.796327 0.500000
O O18 0.606276 0.232621 0.775464
#
# Coordination Sequence:
#
# PCOD9189610 Si02
#       8
#     8   8   8   8   8   8   8   8
#     4  10  21  38  59  82 114 148 187 235 283 340
#     4  10  21  32  56  81 110 153 193 230 266 333
#     4  10  20  33  50  76 111 150 185 223 277 328
#     4  11  20  33  50  80 111 151 190 230 273 320
#     4  11  22  34  53  80 115 151 184 231 284 338
#     4  10  22  38  62  86 107 142 185 237 294 339
#     4  10  19  38  55  82 112 147 192 229 279 328
#     4  10  21  38  58  83 113 140 185 236 281 345
#
# _framework density 19.405187000000002
#
# number of rings (size 3 to 8) (size 9 to 14) (size 15 to 20)
#    0.000    1.750    2.500    2.250    1.750    2.750 
#    0.000    2.500    0.000    0.375    0.000    0.000 
#    0.000    0.000    0.000    0.000    0.000    0.000 
#
# Total GULP energy -178638.242901 kJ/mol
# GULP energy per Si atom -5582.445091 kJ/mol
# Density = 1.936102 g / cm^3
# Si number density = 19.405187 Si / 1000 Ang^3
#
#
#
# Elastic Constant Matrix: (Units=GPa)
#
#
# Indices 1 2 3 4 5 6 
#
# 1 74.0346 11.8918 4.4158 0.0001 8.9504 0.0000
# 2 11.8918 88.8252 17.0528 0.0003 3.3099 0.0000
# 3 4.4158 17.0528 33.5207 0.0011 -4.6455 0.0001
# 4 0.0001 0.0003 0.0011 15.7869 0.0002 -3.5265
# 5 8.9504 3.3099 -4.6455 0.0002 11.1246 0.0000
# 6 0.0000 0.0000 0.0001 -3.5265 0.0000 20.0576
#
#
#
# Elastic Compliance Matrix: (Units=1/GPa)
#
#
# Indices 1 2 3 4 5 6 
#
# 1 0.015511 -0.000899 -0.003480 0.000000 -0.013665 0.000000
# 2 -0.000899 0.013026 -0.007371 0.000000 -0.006230 0.000000
# 3 -0.003480 -0.007371 0.036866 -0.000003 0.020388 -0.000001
# 4 0.000000 0.000000 -0.000003 0.065933 -0.000003 0.011592
# 5 -0.013665 -0.006230 0.020388 -0.000003 0.111252 -0.000001
# 6 0.000000 0.000000 -0.000001 0.011592 -0.000001 0.051895
#
#
# Mechanical properties :
#
#
# Convention : Reuss Voigt Hill
#
# Bulk Modulus (GPa) = 23.86503 29.23347 26.54925
# Shear Modulus (GPa) = 15.06243 20.26182 17.66213
#
# Velocity S-wave (km/s) = 2.78907 3.23483 3.02018
# Velocity P-wave (km/s) = 4.76412 5.38977 5.08657
#
# Compressibility (1/GPa) = 0.04190231
#
# Stress axis : x y z
#
# Youngs Moduli (GPa) = 64.46943 76.77058 27.12510
#
# Poissons Ratio (x) = 0.06905 0.09438
# Poissons Ratio (y) = 0.05798 0.19995
# Poissons Ratio (z) = 0.22433 0.56591
#
# Static dielectric constant tensor:
#      x y z
#    x 1.703970 0.000000 -0.014020 
#    y 0.000000 1.681730 0.000000 
#    z -0.014020 0.000000 1.691890 
# 
# From -- ./inp_files/216357.got.cif
#   From: 2010.05.17/outbox.cif.g08.bks.cpg/sg12_109_cif.got.tgz:216357.got - 2010.06.03 13:09:07.
