data_PCOD9189284
_publ_section_title
;
Structure prediction by ZEFSAII (Michael W. Deem and Ramdas Pophale) SiO2 
 PCOD9189284
Probable space group: C 2/M
;
_chemical_formula_sum "Si O2"
_cell_formula_units_Z 64
_cell_length_a 25.198686
_cell_length_b 17.628246
_cell_length_c 20.882446
_cell_angle_alpha 90.000000
_cell_angle_beta 157.549177
_cell_angle_gamma 90.000000
_cell_volume 3542.476846
_symmetry_space_group_name_H-M "C 2/M"
_symmetry_group_IT_number 12
_symmetry_cell_setting 'monoclinic'
loop_
_space_group_symop_operation_xyz
x,y,z
-x,y,-z
-x,-y,-z
x,-y,z
1/2+x,1/2+y,z
1/2-x,1/2+y,-z
1/2-x,1/2-y,-z
1/2+x,1/2-y,z
loop_
_atom_site_type_symbol
_atom_site_label
_atom_site_fract_x
_atom_site_fract_y
_atom_site_fract_z
Si Si1 0.746464 0.668873 0.460547
Si Si2 0.271023 0.776376 0.348059
Si Si3 0.507488 0.912173 0.808153
Si Si4 0.956014 0.909832 0.145299
Si Si5 0.054676 0.208290 0.630981
Si Si6 0.447711 0.843798 0.874436
Si Si7 0.662988 0.293262 0.090695
Si Si8 0.825380 0.090346 0.138606
O O1 0.750000 0.750000 0.500000
O O2 0.736788 0.679350 0.373881
O O3 0.892253 0.630983 0.639530
O O4 0.612473 0.620533 0.331726
O O5 0.434482 0.764010 0.521996
O O6 0.202863 0.692719 0.281418
O O7 0.203664 0.812825 0.209447
O O8 0.464672 0.899178 0.834197
O O9 0.502808 0.000000 0.786460
O O10 0.665054 0.886197 0.971389
O O11 0.870677 0.897052 0.115808
O O12 0.956657 0.000000 0.132377
O O13 0.889788 0.860405 0.013775
O O14 0.198554 0.253500 0.782398
O O15 0.081795 0.139753 0.709778
O O16 0.000000 0.182236 0.500000
O O17 0.500000 0.876292 0.000000
O O18 0.544294 0.771055 0.964612
O O19 0.837334 0.000000 0.165106
#
# Coordination Sequence:
#
# PCOD9189284 Si02
#       8
#     8   8   8   8   8   8   8   8
#     4  12  22  38  61  88 115 150 193 240 291 342
#     4  10  21  36  60  90 114 143 195 245 289 334
#     4  11  23  39  56  84 120 155 192 234 286 349
#     4  11  24  41  59  85 118 155 194 241 296 347
#     4  10  21  37  61  90 115 148 194 240 287 341
#     4  10  19  37  61  84 115 148 189 238 283 342
#     4  10  20  39  62  85 115 148 195 245 281 343
#     4  10  23  40  58  82 119 158 194 235 287 349
#
# _framework density 18.066455000000001
#
# number of rings (size 3 to 8) (size 9 to 14) (size 15 to 20)
#    0.000    1.500    3.750    1.125    1.750    1.000 
#    0.000    1.875    0.000    3.375    0.000    0.000 
#    0.000    0.000    0.000    0.000    0.000    0.000 
#
# Total GULP energy -178609.431094 kJ/mol
# GULP energy per Si atom -5581.544722 kJ/mol
# Density = 1.802534 g / cm^3
# Si number density = 18.066455 Si / 1000 Ang^3
#
#
#
# Elastic Constant Matrix: (Units=GPa)
#
#
# Indices 1 2 3 4 5 6 
#
# 1 78.0022 25.0062 19.2825 0.0002 -3.0986 0.0001
# 2 25.0062 60.7312 35.6113 -0.0001 -14.8869 -0.0003
# 3 19.2825 35.6113 82.9902 0.0004 -3.7291 -0.0001
# 4 0.0002 -0.0001 0.0004 22.7449 0.0004 -0.3098
# 5 -3.0986 -14.8869 -3.7291 0.0004 25.6497 0.0002
# 6 0.0001 -0.0003 -0.0001 -0.3098 0.0002 26.8581
#
#
#
# Elastic Compliance Matrix: (Units=1/GPa)
#
#
# Indices 1 2 3 4 5 6 
#
# 1 0.014918 -0.006029 -0.000962 0.000000 -0.001837 0.000000
# 2 -0.006029 0.028395 -0.010142 0.000000 0.014278 0.000000
# 3 -0.000962 -0.010142 0.016463 0.000000 -0.003609 0.000000
# 4 0.000000 0.000000 0.000000 0.043973 -0.000001 0.000507
# 5 -0.001837 0.014278 -0.003609 -0.000001 0.046527 0.000000
# 6 0.000000 0.000000 0.000000 0.000507 0.000000 0.037239
#
#
# Mechanical properties :
#
#
# Convention : Reuss Voigt Hill
#
# Bulk Modulus (GPa) = 39.19915 42.39150 40.79532
# Shear Modulus (GPa) = 21.71244 24.50545 23.10895
#
# Velocity S-wave (km/s) = 3.47047 3.68694 3.58034
# Velocity P-wave (km/s) = 6.14843 6.45289 6.30250
#
# Compressibility (1/GPa) = 0.02551076
#
# Stress axis : x y z
#
# Youngs Moduli (GPa) = 67.03479 35.21707 60.74262
#
# Poissons Ratio (x) = 0.21231 0.05841
# Poissons Ratio (y) = 0.40413 0.61606
# Poissons Ratio (z) = 0.06446 0.35718
#
# Static dielectric constant tensor:
#      x y z
#    x 1.624940 0.000000 0.014020 
#    y 0.000000 1.592090 0.000000 
#    z 0.014020 0.000000 1.604350 
# 
# From -- ./inp_files/326142.got.cif
#   From: 2010.05.17/outbox.cif.g08.bks.cpg/sg12_164_cif.got.tgz:326142.got - 2010.06.03 13:09:07.
