data_PCOD9189556
_publ_section_title
;
Structure prediction by ZEFSAII (Michael W. Deem and Ramdas Pophale) SiO2 
 PCOD9189556
Probable space group: C 2/M
;
_chemical_formula_sum "Si O2"
_cell_formula_units_Z 58
_cell_length_a 20.322564
_cell_length_b 16.443390
_cell_length_c 24.178985
_cell_angle_alpha 90.000000
_cell_angle_beta 20.606964
_cell_angle_gamma 90.000000
_cell_volume 2843.777275
_symmetry_space_group_name_H-M "C 2/M"
_symmetry_group_IT_number 12
_symmetry_cell_setting 'monoclinic'
loop_
_space_group_symop_operation_xyz
x,y,z
-x,y,-z
-x,-y,-z
x,-y,z
1/2+x,1/2+y,z
1/2-x,1/2+y,-z
1/2-x,1/2-y,-z
1/2+x,1/2-y,z
loop_
_atom_site_type_symbol
_atom_site_label
_atom_site_fract_x
_atom_site_fract_y
_atom_site_fract_z
Si Si1 0.037906 0.805359 0.757821
Si Si2 0.276886 0.844890 0.787681
Si Si3 0.696721 0.751713 0.958717
Si Si4 0.778733 0.849123 0.562717
Si Si5 0.938978 0.408245 0.161877
Si Si6 0.133769 0.186368 0.341409
Si Si7 0.828375 0.594871 0.475466
Si Si8 0.000000 0.000000 0.000000
O O1 0.201571 0.740150 0.638004
O O2 0.145196 0.885913 0.656251
O O3 0.904999 0.804932 0.915587
O O4 0.907833 0.768907 0.811769
O O5 0.292557 0.777297 0.727326
O O6 0.485980 0.867069 0.643759
O O7 0.185646 0.793797 0.909744
O O8 0.161498 0.926759 0.867347
O O9 0.597251 0.839342 0.039391
O O10 0.676524 0.904238 0.689266
O O11 0.717149 0.870601 0.549585
O O12 0.000999 0.845303 0.396545
O O13 0.004010 0.500000 0.101585
O O14 0.797808 0.376296 0.225897
O O15 0.000000 0.187707 0.500000
O O16 0.860481 0.500000 0.444877
#
# Coordination Sequence:
#
# PCOD9189556 Si02
#       8
#     8   8   8   8   8   8   8   2
#     4  10  20  39  63  95 124 164 211 261 322 380
#     4  12  23  45  65  91 124 173 221 263 316 380
#     4  10  22  40  67  89 127 173 211 257 321 395
#     4  10  19  37  66  92 125 163 207 261 318 382
#     4  10  22  39  60  94 131 166 207 256 318 387
#     4  10  22  40  68  92 123 170 214 258 314 388
#     4  12  23  38  64 100 129 159 214 278 318 368
#     4  12  28  44  62  92 134 172 216 266 322 376
#
# _framework density 20.395409000000001
#
# number of rings (size 3 to 8) (size 9 to 14) (size 15 to 20)
#    0.000    1.379    3.448    2.483    0.000    3.586 
#    1.241    1.724    0.000    0.000    0.000    0.000 
#    0.000    0.000    0.000    0.000    0.000    0.000 
#
# Total GULP energy -161700.001791 kJ/mol
# GULP energy per Si atom -5575.862131 kJ/mol
# Density = 2.034899 g / cm^3
# Si number density = 20.395409 Si / 1000 Ang^3
#
#
#
# Elastic Constant Matrix: (Units=GPa)
#
#
# Indices 1 2 3 4 5 6 
#
# 1 29.8296 6.5425 14.1588 -0.0078 -6.8262 0.0028
# 2 6.5425 88.3127 22.7651 -0.0317 11.5792 0.0047
# 3 14.1588 22.7651 72.4871 -0.0871 -15.5496 0.0022
# 4 -0.0078 -0.0317 -0.0871 28.6798 0.0014 -3.1624
# 5 -6.8262 11.5792 -15.5496 0.0014 24.6878 0.0017
# 6 0.0028 0.0047 0.0022 -3.1624 0.0017 15.0260
#
#
#
# Elastic Compliance Matrix: (Units=1/GPa)
#
#
# Indices 1 2 3 4 5 6 
#
# 1 0.038426 -0.002816 -0.004693 -0.000008 0.008989 -0.000008
# 2 -0.002816 0.014811 -0.006658 -0.000004 -0.011919 -0.000003
# 3 -0.004693 -0.006658 0.019881 0.000052 0.014347 0.000009
# 4 -0.000008 -0.000004 0.000052 0.035696 0.000030 0.007513
# 5 0.008989 -0.011919 0.014347 0.000030 0.057619 0.000000
# 6 -0.000008 -0.000003 0.000009 0.007513 0.000000 0.068132
#
#
# Mechanical properties :
#
#
# Convention : Reuss Voigt Hill
#
# Bulk Modulus (GPa) = 22.32936 30.84027 26.58481
# Shear Modulus (GPa) = 17.99675 23.48959 20.74317
#
# Velocity S-wave (km/s) = 2.97373 3.39737 3.19258
# Velocity P-wave (km/s) = 4.77103 5.52661 5.16267
#
# Compressibility (1/GPa) = 0.04478409
#
# Stress axis : x y z
#
# Youngs Moduli (GPa) = 26.02404 67.51650 50.29875
#
# Poissons Ratio (x) = 0.19010 0.23606
# Poissons Ratio (y) = 0.07327 0.33491
# Poissons Ratio (z) = 0.12213 0.44955
#
# Static dielectric constant tensor:
#      x y z
#    x 1.780460 -0.000010 -0.006960 
#    y -0.000010 1.698620 0.000020 
#    z -0.006960 0.000020 1.748920 
# 
# From -- ./inp_files/366533.got.cif
#   From: 2010.05.17/outbox.cif.g08.bks.cpg/sg12_184_cif.got.tgz:366533.got - 2010.06.03 13:09:07.
