data_PCOD9189930
_publ_section_title
;
Structure prediction by ZEFSAII (Michael W. Deem and Ramdas Pophale) SiO2 
 PCOD9189930
Probable space group: C 2/M
;
_chemical_formula_sum "Si O2"
_cell_formula_units_Z 32
_cell_length_a 17.721141
_cell_length_b 8.111780
_cell_length_c 18.375884
_cell_angle_alpha 90.000000
_cell_angle_beta 145.448260
_cell_angle_gamma 90.000000
_cell_volume 1498.146175
_symmetry_space_group_name_H-M "C 2/M"
_symmetry_group_IT_number 12
_symmetry_cell_setting 'monoclinic'
loop_
_space_group_symop_operation_xyz
x,y,z
-x,y,-z
-x,-y,-z
x,-y,z
1/2+x,1/2+y,z
1/2-x,1/2+y,-z
1/2-x,1/2-y,-z
1/2+x,1/2-y,z
loop_
_atom_site_type_symbol
_atom_site_label
_atom_site_fract_x
_atom_site_fract_y
_atom_site_fract_z
Si Si1 0.839545 0.695911 0.177109
Si Si2 0.442158 0.188096 0.094224
Si Si3 0.648148 0.000000 0.583402
Si Si4 0.581492 0.500000 0.139243
Si Si5 0.444107 0.320550 0.537998
O O1 0.821908 0.500000 0.174075
O O2 0.906024 0.712927 0.150271
O O3 0.934870 0.774507 0.312754
O O4 0.696334 0.782638 0.059070
O O5 0.538518 0.333157 0.145936
O O6 0.488642 0.000000 0.119769
O O7 0.500000 0.000000 0.500000
O O8 0.759284 0.000000 0.733489
O O9 0.655526 0.833906 0.542055
O O10 0.500000 0.500000 0.000000
O O11 0.500000 0.331621 0.500000
O O12 0.388044 0.500000 0.512787
#
# Coordination Sequence:
#
# PCOD9189930 Si02
#       5
#     8   8   4   4   8
#     4  10  19  38  69 100 132 176 220 266 327 398
#     4  10  23  40  65 100 136 172 218 272 331 391
#     4  10  24  44  64  92 130 173 216 270 329 392
#     4  12  28  44  68 100 135 173 220 281 328 387
#     4  10  21  35  62  95 126 168 220 267 319 391
#
# _framework density 21.359732000000001
#
# number of rings (size 3 to 8) (size 9 to 14) (size 15 to 20)
#    0.000    1.750    2.500    0.750   10.500    1.500 
#    0.000    1.250    0.000    0.000    0.000    0.000 
#    0.000    0.000    0.000    0.000    0.000    0.000 
#
# Total GULP energy -89387.502214 kJ/mol
# GULP energy per Si atom -5586.718888 kJ/mol
# Density = 2.131112 g / cm^3
# Si number density = 21.359732 Si / 1000 Ang^3
#
#
#
# Elastic Constant Matrix: (Units=GPa)
#
#
# Indices 1 2 3 4 5 6 
#
# 1 41.0314 32.2731 38.2883 0.0000 0.0075 0.0000
# 2 32.2731 188.8361 37.9850 0.0000 1.0578 0.0000
# 3 38.2883 37.9850 161.7957 0.0000 -17.5251 0.0000
# 4 0.0000 0.0000 0.0000 17.3251 0.0000 -7.9463
# 5 0.0075 1.0578 -17.5251 0.0000 28.7333 0.0000
# 6 0.0000 0.0000 0.0000 -7.9463 0.0000 6.8939
#
#
#
# Elastic Compliance Matrix: (Units=1/GPa)
#
#
# Indices 1 2 3 4 5 6 
#
# 1 0.035085 -0.004409 -0.007764 0.000000 -0.004582 0.000000
# 2 -0.004409 0.006143 -0.000453 0.000000 -0.000501 0.000000
# 3 -0.007764 -0.000453 0.008701 0.000000 0.005326 0.000000
# 4 0.000000 0.000000 0.000000 0.122463 0.000000 0.141158
# 5 -0.004582 -0.000501 0.005326 0.000000 0.038071 0.000000
# 6 0.000000 0.000000 0.000000 0.141158 0.000000 0.307760
#
#
# Mechanical properties :
#
#
# Convention : Reuss Voigt Hill
#
# Bulk Modulus (GPa) = 40.52303 67.63956 54.08129
# Shear Modulus (GPa) = 9.06287 29.46491 19.26389
#
# Velocity S-wave (km/s) = 2.06208 3.71814 3.00639
# Velocity P-wave (km/s) = 4.96814 7.08296 6.11763
#
# Compressibility (1/GPa) = 0.02467733
#
# Stress axis : x y z
#
# Youngs Moduli (GPa) = 28.50215 162.78543 114.92640
#
# Poissons Ratio (x) = 0.71769 0.89229
# Poissons Ratio (y) = 0.12566 0.05208
# Poissons Ratio (z) = 0.22129 0.07377
#
# Static dielectric constant tensor:
#      x y z
#    x 1.681350 0.000000 -0.010330 
#    y 0.000000 1.849100 0.000000 
#    z -0.010330 0.000000 1.745730 
# 
# From -- ./inp_files/150907.got.cif
#   From: 2010.05.17/outbox.cif.g08.bks.cpg/sg12_76_cif.got.tgz:150907.got - 2010.06.03 13:09:07.
