data_PCOD9189235
_publ_section_title
;
Structure prediction by ZEFSAII (Michael W. Deem and Ramdas Pophale) SiO2 
 PCOD9189235
Probable space group: C 2/M
;
_chemical_formula_sum "Si O2"
_cell_formula_units_Z 48
_cell_length_a 15.961856
_cell_length_b 18.807268
_cell_length_c 13.593585
_cell_angle_alpha 90.000000
_cell_angle_beta 146.836608
_cell_angle_gamma 90.000000
_cell_volume 2232.302496
_symmetry_space_group_name_H-M "C 2/M"
_symmetry_group_IT_number 12
_symmetry_cell_setting 'monoclinic'
loop_
_space_group_symop_operation_xyz
x,y,z
-x,y,-z
-x,-y,-z
x,-y,z
1/2+x,1/2+y,z
1/2-x,1/2+y,-z
1/2-x,1/2-y,-z
1/2+x,1/2-y,z
loop_
_atom_site_type_symbol
_atom_site_label
_atom_site_fract_x
_atom_site_fract_y
_atom_site_fract_z
Si Si1 0.111170 0.919385 0.702916
Si Si2 0.333932 0.782784 0.679002
Si Si3 0.679754 0.823496 0.969054
Si Si4 0.667953 0.368524 0.258757
Si Si5 0.304011 0.420598 0.501873
Si Si6 0.185955 0.083093 0.068565
O O1 0.233095 0.860045 0.853037
O O2 0.000000 0.907910 0.500000
O O3 0.987316 0.920076 0.669984
O O4 0.175359 0.000000 0.756784
O O5 0.250000 0.750000 0.500000
O O6 0.320771 0.716816 0.739728
O O7 0.255471 0.857531 0.625560
O O8 0.506882 0.804046 0.825230
O O9 0.750000 0.750000 0.000000
O O10 0.708808 0.877880 0.907529
O O11 0.739267 0.399125 0.429642
O O12 0.738546 0.404687 0.232640
O O13 0.487160 0.385661 0.094868
O O14 0.250708 0.500000 0.425155
O O15 0.177012 0.000000 0.038221
#
# Coordination Sequence:
#
# PCOD9189235 Si02
#       6
#     8   8   8   8   8   8
#     4  10  22  41  64  91 125 170 226 282 335 391
#     4  10  22  40  60  89 132 179 220 266 335 402
#     4  12  22  40  64  93 129 167 220 275 332 399
#     4  10  19  37  60  92 131 168 212 267 334 406
#     4  10  19  37  60  85 124 170 215 270 335 399
#     4  11  21  35  64  99 126 163 216 274 332 395
#
# _framework density 21.502461
#
# number of rings (size 3 to 8) (size 9 to 14) (size 15 to 20)
#    0.000    1.500    3.333    3.500    0.000    2.667 
#    0.000    3.333    0.000    8.000    0.000    0.000 
#    0.000    0.000    0.000    0.000    0.000    0.000 
#
# Total GULP energy -133935.414417 kJ/mol
# GULP energy per Si atom -5580.642267 kJ/mol
# Density = 2.145352 g / cm^3
# Si number density = 21.502461 Si / 1000 Ang^3
#
#
#
# Elastic Constant Matrix: (Units=GPa)
#
#
# Indices 1 2 3 4 5 6 
#
# 1 38.7471 11.2259 17.1754 0.0000 -19.0011 0.0000
# 2 11.2259 192.6489 50.6796 0.0000 7.1490 0.0000
# 3 17.1754 50.6796 75.9795 0.0000 -1.7362 0.0000
# 4 0.0000 0.0000 0.0000 43.2935 0.0000 -1.9852
# 5 -19.0011 7.1490 -1.7362 0.0000 36.7576 0.0000
# 6 0.0000 0.0000 0.0000 -1.9852 0.0000 25.4508
#
#
#
# Elastic Compliance Matrix: (Units=1/GPa)
#
#
# Indices 1 2 3 4 5 6 
#
# 1 0.039474 -0.001001 -0.007793 0.000000 0.020232 0.000000
# 2 -0.001001 0.006396 -0.004085 0.000000 -0.001954 0.000000
# 3 -0.007793 -0.004085 0.017593 0.000000 -0.002403 0.000000
# 4 0.000000 0.000000 0.000000 0.023181 0.000000 0.001808
# 5 0.020232 -0.001954 -0.002403 0.000000 0.037930 0.000000
# 6 0.000000 0.000000 0.000000 0.001808 0.000000 0.039433
#
#
# Mechanical properties :
#
#
# Convention : Reuss Voigt Hill
#
# Bulk Modulus (GPa) = 26.52136 51.72637 39.12386
# Shear Modulus (GPa) = 24.71160 36.32002 30.51581
#
# Velocity S-wave (km/s) = 3.39373 4.11434 3.77128
# Velocity P-wave (km/s) = 5.26473 6.83217 6.09902
#
# Compressibility (1/GPa) = 0.03770546
#
# Stress axis : x y z
#
# Youngs Moduli (GPa) = 25.33285 156.34260 56.84115
#
# Poissons Ratio (x) = 0.15647 0.44299
# Poissons Ratio (y) = 0.02535 0.23218
# Poissons Ratio (z) = 0.19743 0.63863
#
# Static dielectric constant tensor:
#      x y z
#    x 1.843760 0.000000 -0.058880 
#    y 0.000000 1.781010 0.000000 
#    z -0.058880 0.000000 1.846010 
# 
# From -- ./inp_files/226927.got.cif
#   From: 2010.05.17/outbox.cif.g08.bks.cpg/sg12_114_cif.got.tgz:226927.got - 2010.06.03 13:09:07.
