data_PCOD9189720
_publ_section_title
;
Structure prediction by ZEFSAII (Michael W. Deem and Ramdas Pophale) SiO2 
 PCOD9189720
Probable space group: C 2/M
;
_chemical_formula_sum "Si O2"
_cell_formula_units_Z 56
_cell_length_a 21.139626
_cell_length_b 19.006936
_cell_length_c 19.212417
_cell_angle_alpha 90.000000
_cell_angle_beta 20.889419
_cell_angle_gamma 90.000000
_cell_volume 2752.521377
_symmetry_space_group_name_H-M "C 2/M"
_symmetry_group_IT_number 12
_symmetry_cell_setting 'monoclinic'
loop_
_space_group_symop_operation_xyz
x,y,z
-x,y,-z
-x,-y,-z
x,-y,z
1/2+x,1/2+y,z
1/2-x,1/2+y,-z
1/2-x,1/2-y,-z
1/2+x,1/2-y,z
loop_
_atom_site_type_symbol
_atom_site_label
_atom_site_fract_x
_atom_site_fract_y
_atom_site_fract_z
Si Si1 0.156120 0.076049 0.590165
Si Si2 0.563354 0.284093 0.602630
Si Si3 0.697905 0.232606 0.327259
Si Si4 0.837757 0.119695 0.001887
Si Si5 0.985787 0.356027 0.767654
Si Si6 0.163633 0.721456 0.955776
Si Si7 0.788699 0.076864 0.206074
O O1 0.108703 0.143322 0.592487
O O2 0.359330 0.088017 0.401828
O O3 0.015752 0.080172 0.797218
O O4 0.134979 0.000000 0.577367
O O5 0.699663 0.267512 0.400581
O O6 0.553395 0.217096 0.663764
O O7 0.366024 0.289140 0.773747
O O8 0.500000 0.240621 0.500000
O O9 0.825032 0.268129 0.138990
O O10 0.724613 0.148692 0.307404
O O11 0.691510 0.121001 0.091152
O O12 0.888253 0.200927 0.963849
O O13 0.757851 0.089387 0.155323
O O14 0.944335 0.337158 0.890792
O O15 0.718243 0.000000 0.300066
O O16 0.000000 0.075861 0.000000
#
# Coordination Sequence:
#
# PCOD9189720 Si02
#       7
#     8   8   8   8   8   8   8
#     4  12  25  36  58  92 123 155 197 245 309 361
#     4  10  19  38  61  89 118 153 200 259 291 343
#     4   9  20  35  61  88 113 151 205 243 293 351
#     4  10  20  40  61  86 121 158 196 248 290 343
#     4  11  21  38  65  87 117 159 206 248 291 352
#     4   9  17  37  63  89 112 154 205 247 294 346
#     4  10  22  37  54  82 124 163 194 228 292 364
#
# _framework density 20.344984
#
# number of rings (size 3 to 8) (size 9 to 14) (size 15 to 20)
#    0.000    1.857    2.857    2.571    2.000    2.571 
#    0.000    0.000    0.000    5.571    0.000    0.000 
#    0.000    0.000    0.000    0.000    0.000    0.000 
#
# Total GULP energy -156377.725677 kJ/mol
# GULP energy per Si atom -5584.918774 kJ/mol
# Density = 2.029868 g / cm^3
# Si number density = 20.344984 Si / 1000 Ang^3
#
#
#
# Elastic Constant Matrix: (Units=GPa)
#
#
# Indices 1 2 3 4 5 6 
#
# 1 33.8920 10.3831 23.3790 -0.0111 4.4851 -0.0029
# 2 10.3831 64.7321 20.6220 -0.1852 1.0076 0.0709
# 3 23.3790 20.6220 73.7691 0.0143 4.5513 -0.0059
# 4 -0.0111 -0.1852 0.0143 -40.4515 -0.0252 24.2034
# 5 4.4851 1.0076 4.5513 -0.0252 23.7583 0.0154
# 6 -0.0029 0.0709 -0.0059 24.2034 0.0154 -11.9934
#
#
#
# Elastic Compliance Matrix: (Units=1/GPa)
#
#
# Indices 1 2 3 4 5 6 
#
# 1 0.038711 -0.002548 -0.011244 0.000072 -0.005046 0.000120
# 2 -0.002548 0.017127 -0.004013 0.000082 0.000523 0.000269
# 3 -0.011244 -0.004013 0.018316 -0.000047 -0.001216 -0.000127
# 4 0.000072 0.000082 -0.000047 0.119159 -0.000037 0.240469
# 5 -0.005046 0.000523 -0.001216 -0.000037 0.043254 -0.000015
# 6 0.000120 0.000269 -0.000127 0.240469 -0.000015 0.401903
#
#
# Mechanical properties :
#
#
# Convention : Reuss Voigt Hill
#
# Bulk Modulus (GPa) = 25.94502 31.24014 28.59258
# Shear Modulus (GPa) = 7.27879 2.12995 4.70437
#
# Velocity S-wave (km/s) = 1.89353 1.02430 1.52227
# Velocity P-wave (km/s) = 4.19056 4.09725 4.14417
#
# Compressibility (1/GPa) = 0.03854304
#
# Stress axis : x y z
#
# Youngs Moduli (GPa) = 25.83278 58.38688 54.59672
#
# Poissons Ratio (x) = 0.14879 0.61391
# Poissons Ratio (y) = 0.06583 0.21907
# Poissons Ratio (z) = 0.29048 0.23428
#
# Static dielectric constant tensor:
#      x y z
#    x 1.746710 -0.000010 -0.001990 
#    y -0.000010 1.691870 0.000020 
#    z -0.001990 0.000020 1.779490 
# 
# From -- ./inp_files/325969.got.cif
#   From: 2010.05.17/outbox.cif.g08.bks.cpg/sg12_163_cif.got.tgz:325969.got - 2010.06.03 13:09:07.
