data_PCOD9189509
_publ_section_title
;
Structure prediction by ZEFSAII (Michael W. Deem and Ramdas Pophale) SiO2 
 PCOD9189509
Probable space group: C 2/M
;
_chemical_formula_sum "Si O2"
_cell_formula_units_Z 48
_cell_length_a 23.443321
_cell_length_b 20.109087
_cell_length_c 11.606537
_cell_angle_alpha 90.000000
_cell_angle_beta 155.105325
_cell_angle_gamma 90.000000
_cell_volume 2303.277267
_symmetry_space_group_name_H-M "C 2/M"
_symmetry_group_IT_number 12
_symmetry_cell_setting 'monoclinic'
loop_
_space_group_symop_operation_xyz
x,y,z
-x,y,-z
-x,-y,-z
x,-y,z
1/2+x,1/2+y,z
1/2-x,1/2+y,-z
1/2-x,1/2-y,-z
1/2+x,1/2-y,z
loop_
_atom_site_type_symbol
_atom_site_label
_atom_site_fract_x
_atom_site_fract_y
_atom_site_fract_z
Si Si1 0.161409 0.079266 0.801446
Si Si2 0.252681 0.293938 0.682880
Si Si3 0.915263 0.072822 0.963720
Si Si4 0.186260 0.924958 0.582257
Si Si5 0.161744 0.305044 0.768925
Si Si6 0.139455 0.322599 0.234485
O O1 0.214624 0.088658 0.767641
O O2 0.000000 0.096858 0.500000
O O3 0.169704 0.000000 0.844923
O O4 0.255878 0.126216 0.053297
O O5 0.316608 0.366529 0.796290
O O6 0.175350 0.285760 0.659718
O O7 0.166381 0.290639 0.408339
O O8 0.364090 0.236888 0.865079
O O9 0.849578 0.000000 0.843712
O O10 0.000000 0.078190 0.000000
O O11 0.025257 0.075967 0.266853
O O12 0.250016 0.872456 0.612274
O O13 0.231491 0.000000 0.637099
O O14 0.000000 0.308058 0.500000
O O15 0.250000 0.250000 0.000000
O O16 0.000000 0.360175 0.000000
#
# Coordination Sequence:
#
# PCOD9189509 Si02
#       6
#     8   8   8   8   8   8
#     4  10  22  44  71  99 133 177 222 267 322 387
#     4  11  25  41  65  93 125 166 209 264 323 383
#     4  10  19  37  64  97 128 158 207 261 313 376
#     4  10  21  39  66  95 128 166 209 260 315 381
#     4  12  28  46  68  96 132 174 225 275 326 386
#     4  11  25  40  63  92 130 164 205 257 325 390
#
# _framework density 20.839870999999999
#
# number of rings (size 3 to 8) (size 9 to 14) (size 15 to 20)
#    0.000    1.333    1.667    3.000    7.000    2.667 
#    0.000    0.000    0.000    0.000    0.000    0.000 
#    0.000    0.000    0.000    0.000    0.000    0.000 
#
# Total GULP energy -133920.464565 kJ/mol
# GULP energy per Si atom -5580.019357 kJ/mol
# Density = 2.079244 g / cm^3
# Si number density = 20.839871 Si / 1000 Ang^3
#
#
#
# Elastic Constant Matrix: (Units=GPa)
#
#
# Indices 1 2 3 4 5 6 
#
# 1 135.0774 40.3464 37.9621 0.0000 -1.8312 0.0000
# 2 40.3464 89.1867 37.2999 0.0000 18.0035 0.0000
# 3 37.9621 37.2999 84.1924 0.0000 19.0700 0.0000
# 4 0.0000 0.0000 0.0000 -42.4252 0.0000 -26.2023
# 5 -1.8312 18.0035 19.0700 0.0000 30.1968 0.0000
# 6 0.0000 0.0000 0.0000 -26.2023 0.0000 13.1464
#
#
#
# Elastic Compliance Matrix: (Units=1/GPa)
#
#
# Indices 1 2 3 4 5 6 
#
# 1 0.009717 -0.003848 -0.003885 0.000000 0.005337 0.000000
# 2 -0.003848 0.015989 -0.003660 0.000000 -0.007455 0.000000
# 3 -0.003885 -0.003660 0.017282 0.000000 -0.008968 0.000000
# 4 0.000000 0.000000 0.000000 -0.010565 0.000000 -0.021058
# 5 0.005337 -0.007455 -0.008968 0.000000 0.043547 0.000000
# 6 0.000000 0.000000 0.000000 -0.021058 0.000000 0.034096
#
#
# Mechanical properties :
#
#
# Convention : Reuss Voigt Hill
#
# Bulk Modulus (GPa) = 49.50279 59.96371 54.73325
# Shear Modulus (GPa) = 35.82021 13.04015 24.43018
#
# Velocity S-wave (km/s) = 4.15038 2.50417 3.42757
# Velocity P-wave (km/s) = 6.83908 6.09895 6.47959
#
# Compressibility (1/GPa) = 0.02020088
#
# Stress axis : x y z
#
# Youngs Moduli (GPa) = 102.91370 62.54408 57.86333
#
# Poissons Ratio (x) = 0.24068 0.22482
# Poissons Ratio (y) = 0.39603 0.21177
# Poissons Ratio (z) = 0.39986 0.22890
#
# Static dielectric constant tensor:
#      x y z
#    x 1.778690 0.000000 -0.012160 
#    y 0.000000 1.755680 0.000000 
#    z -0.012160 0.000000 1.806790 
# 
# From -- ./inp_files/169730.got.cif
#   From: 2010.05.17/outbox.cif.g08.bks.cpg/sg12_85_cif.got.tgz:169730.got - 2010.06.03 13:09:07.
