data_PCOD9189427
_publ_section_title
;
Structure prediction by ZEFSAII (Michael W. Deem and Ramdas Pophale) SiO2 
 PCOD9189427
Probable space group: C 2/M
;
_chemical_formula_sum "Si O2"
_cell_formula_units_Z 64
_cell_length_a 31.269904
_cell_length_b 9.001360
_cell_length_c 12.051469
_cell_angle_alpha 90.000000
_cell_angle_beta 93.456914
_cell_angle_gamma 90.000000
_cell_volume 3385.974753
_symmetry_space_group_name_H-M "C 2/M"
_symmetry_group_IT_number 12
_symmetry_cell_setting 'monoclinic'
loop_
_space_group_symop_operation_xyz
x,y,z
-x,y,-z
-x,-y,-z
x,-y,z
1/2+x,1/2+y,z
1/2-x,1/2+y,-z
1/2-x,1/2-y,-z
1/2+x,1/2-y,z
loop_
_atom_site_type_symbol
_atom_site_label
_atom_site_fract_x
_atom_site_fract_y
_atom_site_fract_z
Si Si1 0.271073 0.822792 0.836989
Si Si2 0.428929 0.176144 0.803724
Si Si3 0.286293 0.179651 0.582366
Si Si4 0.042117 0.676552 0.583316
Si Si5 0.183787 0.824077 0.947053
Si Si6 0.596721 0.825627 0.954692
Si Si7 0.617002 0.180406 0.429642
Si Si8 0.521130 0.676319 0.812032
O O1 0.279977 0.781387 0.711336
O O2 0.221785 0.795751 0.864866
O O3 0.279450 0.000000 0.850224
O O4 0.299226 0.737568 0.932389
O O5 0.402903 0.226684 0.691661
O O6 0.473546 0.260818 0.821522
O O7 0.438489 0.000000 0.791521
O O8 0.402292 0.193011 0.912116
O O9 0.250000 0.250000 0.500000
O O10 0.333911 0.228371 0.552591
O O11 0.283887 0.000000 0.574714
O O12 0.045356 0.500000 0.610017
O O13 0.084030 0.723541 0.520853
O O14 0.036036 0.768983 0.693297
O O15 0.000000 0.694137 0.500000
O O16 0.139578 0.744129 0.911416
O O17 0.177068 0.000000 0.953246
O O18 0.554455 0.746303 0.903347
O O19 0.594228 0.000000 0.929352
O O20 0.617387 0.000000 0.428407
O O21 0.521249 0.500000 0.820465
#
# Coordination Sequence:
#
# PCOD9189427 Si02
#       8
#     8   8   8   8   8   8   8   8
#     4   9  19  37  59  82 114 155 193 233 287 351
#     4  10  20  39  63  84 108 146 196 240 284 345
#     4  10  21  38  58  83 116 150 192 239 289 340
#     4  10  19  37  63  84 110 147 195 243 283 338
#     4  10  20  35  58  87 117 148 188 239 293 343
#     4  11  23  38  59  84 115 154 196 236 285 348
#     4   9  18  35  62  88 108 143 192 242 286 337
#     4  12  25  38  55  83 121 154 187 236 293 346
#
# _framework density 18.901501
#
# number of rings (size 3 to 8) (size 9 to 14) (size 15 to 20)
#    0.000    1.875    1.250    3.000    0.000    6.750 
#    0.000    3.750    0.000    0.000    0.000    0.000 
#    0.000    0.000    0.000    0.000    0.000    0.000 
#
# Total GULP energy -178774.051450 kJ/mol
# GULP energy per Si atom -5586.689108 kJ/mol
# Density = 1.885848 g / cm^3
# Si number density = 18.901501 Si / 1000 Ang^3
#
#
#
# Elastic Constant Matrix: (Units=GPa)
#
#
# Indices 1 2 3 4 5 6 
#
# 1 131.8788 40.2373 17.4800 0.0000 -9.7324 0.0000
# 2 40.2373 47.1245 15.5298 0.0000 -9.3632 0.0000
# 3 17.4800 15.5298 34.6119 0.0000 -16.6852 0.0000
# 4 0.0000 0.0000 0.0000 19.0619 0.0000 8.7889
# 5 -9.7324 -9.3632 -16.6852 0.0000 23.0998 0.0000
# 6 0.0000 0.0000 0.0000 8.7889 0.0000 29.9681
#
#
#
# Elastic Compliance Matrix: (Units=1/GPa)
#
#
# Indices 1 2 3 4 5 6 
#
# 1 0.010318 -0.008330 -0.001542 0.000000 -0.000143 0.000000
# 2 -0.008330 0.031774 -0.008488 0.000000 0.003238 0.000000
# 3 -0.001542 -0.008488 0.048339 0.000000 0.030825 0.000000
# 4 0.000000 0.000000 0.000000 0.060664 0.000000 -0.017791
# 5 -0.000143 0.003238 0.030825 0.000000 0.066808 0.000000
# 6 0.000000 0.000000 0.000000 -0.017791 0.000000 0.038587
#
#
# Mechanical properties :
#
#
# Convention : Reuss Voigt Hill
#
# Bulk Modulus (GPa) = 18.61886 40.01216 29.31551
# Shear Modulus (GPa) = 16.07122 23.78383 19.92753
#
# Velocity S-wave (km/s) = 2.91909 3.55111 3.25049
# Velocity P-wave (km/s) = 4.60796 6.16673 5.44343
#
# Compressibility (1/GPa) = 0.05370899
#
# Stress axis : x y z
#
# Youngs Moduli (GPa) = 96.91538 31.47217 20.68718
#
# Poissons Ratio (x) = 0.26218 0.03191
# Poissons Ratio (y) = 0.80735 0.17560
# Poissons Ratio (z) = 0.14949 0.26715
#
# Static dielectric constant tensor:
#      x y z
#    x 1.649370 0.000000 -0.014750 
#    y 0.000000 1.632610 0.000000 
#    z -0.014750 0.000000 1.644440 
# 
# From -- ./inp_files/187497.got.cif
#   From: 2010.05.17/outbox.cif.g08.bks.cpg/sg12_94_cif.got.tgz:187497.got - 2010.06.03 13:09:07.
