data_PCOD9189043
_publ_section_title
;
Structure prediction by ZEFSAII (Michael W. Deem and Ramdas Pophale) SiO2 
 PCOD9189043
Probable space group: C 2/M
;
_chemical_formula_sum "Si O2"
_cell_formula_units_Z 40
_cell_length_a 8.971670
_cell_length_b 26.500150
_cell_length_c 8.932494
_cell_angle_alpha 90.000000
_cell_angle_beta 87.367014
_cell_angle_gamma 90.000000
_cell_volume 2121.463793
_symmetry_space_group_name_H-M "C 2/M"
_symmetry_group_IT_number 12
_symmetry_cell_setting 'monoclinic'
loop_
_space_group_symop_operation_xyz
x,y,z
-x,y,-z
-x,-y,-z
x,-y,z
1/2+x,1/2+y,z
1/2-x,1/2+y,-z
1/2-x,1/2-y,-z
1/2+x,1/2-y,z
loop_
_atom_site_type_symbol
_atom_site_label
_atom_site_fract_x
_atom_site_fract_y
_atom_site_fract_z
Si Si1 0.500000 0.905946 0.000000
Si Si2 0.500000 0.094542 0.500000
Si Si3 0.471720 0.638064 0.176942
Si Si4 0.625103 0.248492 0.881013
Si Si5 0.781272 0.443797 0.759333
Si Si6 0.694045 0.149132 0.736445
O O1 0.615896 0.936315 0.098236
O O2 0.396225 0.874267 0.118344
O O3 0.604523 0.063127 0.383542
O O4 0.612573 0.127748 0.594845
O O5 0.414654 0.696202 0.178966
O O6 0.345787 0.599356 0.238814
O O7 0.631019 0.636040 0.253804
O O8 0.500000 0.626394 0.000000
O O9 0.670064 0.209063 0.752630
O O10 0.500000 0.228786 0.000000
O O11 0.750000 0.250000 0.000000
O O12 0.715755 0.500000 0.761447
#
# Coordination Sequence:
#
# PCOD9189043 Si02
#       6
#     4   4   8   8   8   8
#     4  10  19  36  66  94 120 154 211 264 300 358
#     4  10  27  42  64  88 128 170 203 246 308 386
#     4  11  22  38  63  99 124 154 209 264 307 360
#     4  11  19  33  64  96 125 158 199 251 312 358
#     4  11  23  43  64  90 123 164 210 259 313 361
#     4  11  21  40  61  95 128 163 203 249 309 371
#
# _framework density 18.854906
#
# number of rings (size 3 to 8) (size 9 to 14) (size 15 to 20)
#    0.000    1.200    7.000    0.600    2.800    1.200 
#    0.000    7.000    0.000    0.000    0.000    0.000 
#    0.000    0.000    0.000    0.000    0.000    0.000 
#
# Total GULP energy -111519.451728 kJ/mol
# GULP energy per Si atom -5575.972586 kJ/mol
# Density = 1.881199 g / cm^3
# Si number density = 18.854906 Si / 1000 Ang^3
#
#
#
# Elastic Constant Matrix: (Units=GPa)
#
#
# Indices 1 2 3 4 5 6 
#
# 1 135.0023 40.3406 35.1194 0.0000 19.5988 0.0000
# 2 40.3406 109.8958 38.2546 0.0000 3.7336 0.0000
# 3 35.1194 38.2546 82.3006 0.0000 13.9011 0.0000
# 4 0.0000 0.0000 0.0000 4.2728 0.0000 -1.7218
# 5 19.5988 3.7336 13.9011 0.0000 34.8023 0.0000
# 6 0.0000 0.0000 0.0000 -1.7218 0.0000 22.2314
#
#
#
# Elastic Compliance Matrix: (Units=1/GPa)
#
#
# Indices 1 2 3 4 5 6 
#
# 1 0.009314 -0.002551 -0.002090 0.000000 -0.004137 0.000000
# 2 -0.002551 0.011582 -0.004641 0.000000 0.002048 0.000000
# 3 -0.002090 -0.004641 0.015996 0.000000 -0.004714 0.000000
# 4 0.000000 0.000000 0.000000 0.241579 0.000000 0.018710
# 5 -0.004137 0.002048 -0.004714 0.000000 0.032727 0.000000
# 6 0.000000 0.000000 0.000000 0.018710 0.000000 0.046431
#
#
# Mechanical properties :
#
#
# Convention : Reuss Voigt Hill
#
# Bulk Modulus (GPa) = 54.56098 61.62531 58.09315
# Shear Modulus (GPa) = 13.07875 26.49357 19.78616
#
# Velocity S-wave (km/s) = 2.63659 3.75257 3.24294
# Velocity P-wave (km/s) = 6.18618 7.17848 6.70073
#
# Compressibility (1/GPa) = 0.01832812
#
# Stress axis : x y z
#
# Youngs Moduli (GPa) = 107.36868 86.34276 62.51638
#
# Poissons Ratio (x) = 0.22024 0.13066
# Poissons Ratio (y) = 0.27388 0.29012
# Poissons Ratio (z) = 0.22440 0.40069
#
# Static dielectric constant tensor:
#      x y z
#    x 1.625830 0.000000 -0.004770 
#    y 0.000000 1.664350 0.000000 
#    z -0.004770 0.000000 1.623690 
# 
# From -- ./inp_files/40475.got.cif
#   From: 2010.05.17/outbox.cif.g08.bks.cpg/sg12_21_cif.got.tgz:40475.got - 2010.06.03 13:09:07.
