data_PCOD9189205
_publ_section_title
;
Structure prediction by ZEFSAII (Michael W. Deem and Ramdas Pophale) SiO2 
 PCOD9189205
Probable space group: C 2/M
;
_chemical_formula_sum "Si O2"
_cell_formula_units_Z 56
_cell_length_a 19.462842
_cell_length_b 7.375853
_cell_length_c 27.912501
_cell_angle_alpha 90.000000
_cell_angle_beta 34.134449
_cell_angle_gamma 90.000000
_cell_volume 2248.464236
_symmetry_space_group_name_H-M "C 2/M"
_symmetry_group_IT_number 12
_symmetry_cell_setting 'monoclinic'
loop_
_space_group_symop_operation_xyz
x,y,z
-x,y,-z
-x,-y,-z
x,-y,z
1/2+x,1/2+y,z
1/2-x,1/2+y,-z
1/2-x,1/2-y,-z
1/2+x,1/2-y,z
loop_
_atom_site_type_symbol
_atom_site_label
_atom_site_fract_x
_atom_site_fract_y
_atom_site_fract_z
Si Si1 0.620636 0.294069 0.954853
Si Si2 0.712978 0.794338 0.718553
Si Si3 0.626549 0.220742 0.162389
Si Si4 0.556005 0.792324 0.361881
Si Si5 0.944560 0.279472 0.900022
Si Si6 0.591222 0.220240 0.644100
Si Si7 0.833482 0.780088 0.551911
O O1 0.628224 0.500000 0.931265
O O2 0.598364 0.295924 0.024722
O O3 0.500000 0.210200 0.000000
O O4 0.757475 0.214329 0.873467
O O5 0.815284 0.796066 0.700402
O O6 0.584689 0.718700 0.809996
O O7 0.779855 0.714535 0.633478
O O8 0.681726 0.000000 0.721910
O O9 0.628252 0.276254 0.105820
O O10 0.497735 0.271095 0.260627
O O11 0.631554 0.000000 0.159848
O O12 0.475629 0.714400 0.365041
O O13 0.465796 0.784655 0.459475
O O14 0.584073 0.000000 0.333748
O O15 0.939890 0.500000 0.906515
O O16 0.729957 0.277540 0.573324
O O17 0.595059 0.000000 0.640251
O O18 0.842156 0.000000 0.548410
#
# Coordination Sequence:
#
# PCOD9189205 Si02
#       7
#     8   8   8   8   8   8   8
#     4  10  22  36  57  88 118 146 175 216 275 338
#     4  10  21  37  57  80 105 145 193 229 268 323
#     4   9  17  35  59  81 108 145 189 225 261 323
#     4  11  23  34  53  84 116 146 177 227 288 329
#     4  10  20  37  61  82 106 144 190 233 267 311
#     4   9  18  34  57  81 106 145 190 227 267 323
#     4  10  19  37  60  78 103 145 195 232 265 322
#
# _framework density 24.905888999999998
#
# number of rings (size 3 to 8) (size 9 to 14) (size 15 to 20)
#    0.000    2.143    1.429    1.714    2.000    3.143 
#    0.000    0.714    0.000    2.571    0.000    0.000 
#    0.000    0.000    0.000    0.000    0.000    0.000 
#
# Total GULP energy -156565.662323 kJ/mol
# GULP energy per Si atom -5591.630797 kJ/mol
# Density = 2.484920 g / cm^3
# Si number density = 24.905889 Si / 1000 Ang^3
#
#
#
# Elastic Constant Matrix: (Units=GPa)
#
#
# Indices 1 2 3 4 5 6 
#
# 1 97.8804 -5.9184 12.9068 -0.0026 -33.1304 -0.0014
# 2 -5.9184 92.2133 -13.4084 0.0022 -2.3249 0.0064
# 3 12.9068 -13.4084 65.0243 -0.0019 -25.5960 0.0013
# 4 -0.0026 0.0022 -0.0019 -4.3339 0.0009 15.5695
# 5 -33.1304 -2.3249 -25.5960 0.0009 52.5560 0.0001
# 6 -0.0014 0.0064 0.0013 15.5695 0.0001 -4.5751
#
#
#
# Elastic Compliance Matrix: (Units=1/GPa)
#
#
# Indices 1 2 3 4 5 6 
#
# 1 0.013155 0.001236 0.001150 0.000001 0.008907 0.000002
# 2 0.001236 0.011468 0.003249 -0.000006 0.002869 -0.000003
# 3 0.001150 0.003249 0.019996 -0.000003 0.010607 0.000001
# 4 0.000001 -0.000006 -0.000003 0.020555 -0.000001 0.069950
# 5 0.008907 0.002869 0.010607 -0.000001 0.029935 0.000000
# 6 0.000002 -0.000003 0.000001 0.069950 0.000000 0.019471
#
#
# Mechanical properties :
#
#
# Convention : Reuss Voigt Hill
#
# Bulk Modulus (GPa) = 17.89280 26.91979 22.40630
# Shear Modulus (GPa) = 41.00387 26.16527 33.58457
#
# Velocity S-wave (km/s) = 4.06193 3.24476 3.67612
# Velocity P-wave (km/s) = 5.40359 4.98699 5.19946
#
# Compressibility (1/GPa) = 0.05588840
#
# Stress axis : x y z
#
# Youngs Moduli (GPa) = 76.01958 87.19564 50.01038
#
# Poissons Ratio (x) = -0.10778 -0.05751
# Poissons Ratio (y) = -0.09396 -0.16247
# Poissons Ratio (z) = -0.08742 -0.28328
#
# Static dielectric constant tensor:
#      x y z
#    x 1.968870 0.000000 0.012440 
#    y 0.000000 1.751370 0.000010 
#    z 0.012440 0.000010 1.926290 
# 
# From -- ./inp_files/363137.got.cif
#   From: 2010.05.17/outbox.cif.g08.bks.cpg/sg12_182_cif.got.tgz:363137.got - 2010.06.03 13:09:07.
