data_PCOD9189260
_publ_section_title
;
Structure prediction by ZEFSAII (Michael W. Deem and Ramdas Pophale) SiO2 
 PCOD9189260
Probable space group: C 2/M
;
_chemical_formula_sum "Si O2"
_cell_formula_units_Z 52
_cell_length_a 18.858690
_cell_length_b 11.564618
_cell_length_c 22.003319
_cell_angle_alpha 90.000000
_cell_angle_beta 144.964816
_cell_angle_gamma 90.000000
_cell_volume 2754.881573
_symmetry_space_group_name_H-M "C 2/M"
_symmetry_group_IT_number 12
_symmetry_cell_setting 'monoclinic'
loop_
_space_group_symop_operation_xyz
x,y,z
-x,y,-z
-x,-y,-z
x,-y,z
1/2+x,1/2+y,z
1/2-x,1/2+y,-z
1/2-x,1/2-y,-z
1/2+x,1/2-y,z
loop_
_atom_site_type_symbol
_atom_site_label
_atom_site_fract_x
_atom_site_fract_y
_atom_site_fract_z
Si Si1 0.971705 0.139288 0.294518
Si Si2 0.124834 0.638192 0.240072
Si Si3 0.000000 0.792250 0.500000
Si Si4 0.182655 0.130957 0.527713
Si Si5 0.105238 0.776422 0.892106
Si Si6 0.198594 0.739059 0.729510
Si Si7 0.305649 0.500000 0.841229
Si Si8 0.957739 0.000000 0.072410
O O1 0.934528 0.193729 0.204485
O O2 0.864940 0.175025 0.267140
O O3 0.103634 0.181640 0.415988
O O4 0.978216 0.000000 0.294268
O O5 0.141736 0.500000 0.246892
O O6 0.198627 0.679387 0.353084
O O7 0.188200 0.701278 0.226980
O O8 0.982757 0.673060 0.146818
O O9 0.919411 0.867611 0.489766
O O10 0.905239 0.718019 0.394484
O O11 0.214915 0.000000 0.532931
O O12 0.071766 0.887336 0.909236
O O13 0.250000 0.750000 0.000000
O O14 0.232007 0.619035 0.784089
O O15 0.402154 0.500000 0.852995
O O16 0.376790 0.500000 0.954680
#
# Coordination Sequence:
#
# PCOD9189260 Si02
#       8
#     8   8   4   8   8   8   4   4
#     4  10  20  37  62  88 119 153 194 237 288 349
#     4  10  21  38  61  89 120 149 193 243 291 343
#     4   8  15  27  54  86 124 144 185 229 286 342
#     4   8  15  30  55  86 116 151 185 231 288 345
#     4  12  25  41  61  84 116 156 198 245 297 345
#     4  10  19  37  60  92 116 155 189 239 287 346
#     4  11  22  39  64  80 114 153 204 239 284 348
#     4  11  24  44  60  82 109 155 202 243 291 349
#
# _framework density 18.875585000000001
#
# number of rings (size 3 to 8) (size 9 to 14) (size 15 to 20)
#    0.000    2.000    2.308    1.615    1.077    4.615 
#    1.385    0.000    0.000    2.769    0.000    0.000 
#    0.000    0.000    0.000    0.000    0.000    0.000 
#
# Total GULP energy -144912.038161 kJ/mol
# GULP energy per Si atom -5573.539929 kJ/mol
# Density = 1.883262 g / cm^3
# Si number density = 18.875585 Si / 1000 Ang^3
#
#
#
# Elastic Constant Matrix: (Units=GPa)
#
#
# Indices 1 2 3 4 5 6 
#
# 1 59.8386 -2.0654 22.8841 0.0000 -0.7139 0.0000
# 2 -2.0654 44.9581 9.9676 0.0000 0.3411 0.0000
# 3 22.8841 9.9676 67.2487 0.0000 7.3177 0.0000
# 4 0.0000 0.0000 0.0000 29.2877 0.0000 15.8202
# 5 -0.7139 0.3411 7.3177 0.0000 34.2097 0.0000
# 6 0.0000 0.0000 0.0000 15.8202 0.0000 32.5067
#
#
#
# Elastic Compliance Matrix: (Units=1/GPa)
#
#
# Indices 1 2 3 4 5 6 
#
# 1 0.019592 0.002492 -0.007247 0.000000 0.001934 0.000000
# 2 0.002492 0.023324 -0.004388 0.000000 0.000758 0.000000
# 3 -0.007247 -0.004388 0.018427 0.000000 -0.004049 0.000000
# 4 0.000000 0.000000 0.000000 0.046321 0.000000 -0.022543
# 5 0.001934 0.000758 -0.004049 0.000000 0.030130 0.000000
# 6 0.000000 0.000000 0.000000 -0.022543 0.000000 0.041734
#
#
# Mechanical properties :
#
#
# Convention : Reuss Voigt Hill
#
# Bulk Modulus (GPa) = 23.22400 25.95756 24.59078
# Shear Modulus (GPa) = 23.56626 28.61807 26.09217
#
# Velocity S-wave (km/s) = 3.53725 3.89799 3.72199
# Velocity P-wave (km/s) = 5.38640 5.83446 5.61490
#
# Compressibility (1/GPa) = 0.04305891
#
# Stress axis : x y z
#
# Youngs Moduli (GPa) = 51.04085 42.87342 54.26764
#
# Poissons Ratio (x) = -0.10685 0.39327
# Poissons Ratio (y) = -0.12720 0.23811
# Poissons Ratio (z) = 0.36989 0.18811
#
# Static dielectric constant tensor:
#      x y z
#    x 1.654580 0.000000 0.000140 
#    y 0.000000 1.639190 0.000000 
#    z 0.000140 0.000000 1.684160 
# 
# From -- ./inp_files/315826.got.cif
#   From: 2010.05.17/outbox.cif.g08.bks.cpg/sg12_158_cif.got.tgz:315826.got - 2010.06.03 13:09:07.
