data_PCOD9189857
_publ_section_title
;
Structure prediction by ZEFSAII (Michael W. Deem and Ramdas Pophale) SiO2 
 PCOD9189857
Probable space group: C 2/M
;
_chemical_formula_sum "Si O2"
_cell_formula_units_Z 64
_cell_length_a 24.369452
_cell_length_b 18.299569
_cell_length_c 17.303572
_cell_angle_alpha 90.000000
_cell_angle_beta 25.192131
_cell_angle_gamma 90.000000
_cell_volume 3284.582291
_symmetry_space_group_name_H-M "C 2/M"
_symmetry_group_IT_number 12
_symmetry_cell_setting 'monoclinic'
loop_
_space_group_symop_operation_xyz
x,y,z
-x,y,-z
-x,-y,-z
x,-y,z
1/2+x,1/2+y,z
1/2-x,1/2+y,-z
1/2-x,1/2-y,-z
1/2+x,1/2-y,z
loop_
_atom_site_type_symbol
_atom_site_label
_atom_site_fract_x
_atom_site_fract_y
_atom_site_fract_z
Si Si1 0.883813 0.330519 0.797280
Si Si2 0.866984 0.830569 0.785335
Si Si3 0.586020 0.414341 0.584837
Si Si4 0.991832 0.584745 0.102041
Si Si5 0.708534 0.584064 0.262292
Si Si6 0.650443 0.912117 0.478295
Si Si7 0.761949 0.663056 0.481525
Si Si8 0.156929 0.582768 0.296517
O O1 0.928340 0.249389 0.717039
O O2 0.813827 0.364192 0.811069
O O3 0.004699 0.380448 0.666305
O O4 0.779099 0.325414 0.997928
O O5 0.861472 0.861232 0.706130
O O6 0.946904 0.885948 0.736465
O O7 0.585728 0.500000 0.602821
O O8 0.673324 0.403069 0.396492
O O9 0.646147 0.369937 0.578580
O O10 0.948002 0.500000 0.168044
O O11 0.892669 0.636883 0.271650
O O12 0.000000 0.598779 0.000000
O O13 0.138161 0.590258 0.944658
O O14 0.670845 0.500000 0.292428
O O15 0.729820 0.872826 0.444153
O O16 0.699888 0.896596 0.328054
O O17 0.647594 0.000000 0.491707
O O18 0.750000 0.750000 0.500000
O O19 0.199298 0.500000 0.225642
O O20 0.000000 0.581839 0.500000
#
# Coordination Sequence:
#
# PCOD9189857 Si02
#       8
#     8   8   8   8   8   8   8   8
#     4  10  21  37  55  83 118 148 191 245 297 348
#     4  11  23  35  53  83 120 160 189 232 296 366
#     4  11  23  39  56  80 119 160 194 234 295 362
#     4  10  19  38  65  89 114 153 204 251 292 339
#     4  10  21  37  60  87 114 150 200 246 288 348
#     4  10  20  37  63  87 108 144 202 254 290 338
#     4  12  24  37  59  88 123 156 190 240 305 360
#     4   8  16  32  56  82 104 133 178 239 297 334
#
# _framework density 19.484974000000001
#
# number of rings (size 3 to 8) (size 9 to 14) (size 15 to 20)
#    0.000    1.750    1.250    4.500    0.000    9.000 
#    0.000    0.000    0.000    0.000    0.000    2.625 
#    0.000    0.000    0.000    0.000    0.000    0.000 
#
# Total GULP energy -178746.423477 kJ/mol
# GULP energy per Si atom -5585.825734 kJ/mol
# Density = 1.944063 g / cm^3
# Si number density = 19.484974 Si / 1000 Ang^3
#
#
#
# Elastic Constant Matrix: (Units=GPa)
#
#
# Indices 1 2 3 4 5 6 
#
# 1 127.1463 64.3932 -8.3109 0.0000 3.7084 -0.0001
# 2 64.3932 111.4660 9.1351 0.0001 8.9024 -0.0001
# 3 -8.3109 9.1351 17.0356 0.0003 1.2128 -0.0002
# 4 0.0000 0.0001 0.0003 42.1480 -0.0001 25.1536
# 5 3.7084 8.9024 1.2128 -0.0001 23.3306 0.0001
# 6 -0.0001 -0.0001 -0.0002 25.1536 0.0001 58.0649
#
#
#
# Elastic Compliance Matrix: (Units=1/GPa)
#
#
# Indices 1 2 3 4 5 6 
#
# 1 0.012729 -0.008269 0.010602 0.000000 0.000581 0.000000
# 2 -0.008269 0.015020 -0.011817 0.000000 -0.003803 0.000000
# 3 0.010602 -0.011817 0.070269 -0.000001 -0.000829 0.000001
# 4 0.000000 0.000000 -0.000001 0.031998 0.000000 -0.013862
# 5 0.000581 -0.003803 -0.000829 0.000000 0.044264 0.000000
# 6 0.000000 0.000000 0.000001 -0.013862 0.000000 0.023227
#
#
# Mechanical properties :
#
#
# Convention : Reuss Voigt Hill
#
# Bulk Modulus (GPa) = 12.65018 42.89807 27.77412
# Shear Modulus (GPa) = 20.59100 37.40408 28.99754
#
# Velocity S-wave (km/s) = 3.25432 4.38612 3.86190
# Velocity P-wave (km/s) = 4.54171 6.90757 5.84558
#
# Compressibility (1/GPa) = 0.07905028
#
# Stress axis : x y z
#
# Youngs Moduli (GPa) = 78.56298 66.57686 14.23105
#
# Poissons Ratio (x) = 0.55049 -0.15088
# Poissons Ratio (y) = 0.64960 0.16818
# Poissons Ratio (z) = -0.83295 0.78677
#
# Static dielectric constant tensor:
#      x y z
#    x 1.691020 0.000000 0.005650 
#    y 0.000000 1.667770 0.000000 
#    z 0.005650 0.000000 1.692810 
# 
# From -- ./inp_files/290110.got.cif
#   From: 2010.05.17/outbox.cif.g08.bks.cpg/sg12_146_cif.got.tgz:290110.got - 2010.06.03 13:09:07.
