data_PCOD9189617
_publ_section_title
;
Structure prediction by ZEFSAII (Michael W. Deem and Ramdas Pophale) SiO2 
 PCOD9189617
Probable space group: C 2/M
;
_chemical_formula_sum "Si O2"
_cell_formula_units_Z 60
_cell_length_a 14.482584
_cell_length_b 18.852111
_cell_length_c 28.456943
_cell_angle_alpha 90.000000
_cell_angle_beta 25.126038
_cell_angle_gamma 90.000000
_cell_volume 3299.023740
_symmetry_space_group_name_H-M "C 2/M"
_symmetry_group_IT_number 12
_symmetry_cell_setting 'monoclinic'
loop_
_space_group_symop_operation_xyz
x,y,z
-x,y,-z
-x,-y,-z
x,-y,z
1/2+x,1/2+y,z
1/2-x,1/2+y,-z
1/2-x,1/2-y,-z
1/2+x,1/2-y,z
loop_
_atom_site_type_symbol
_atom_site_label
_atom_site_fract_x
_atom_site_fract_y
_atom_site_fract_z
Si Si1 0.961363 0.418972 0.858163
Si Si2 0.609953 0.082477 0.277850
Si Si3 0.000000 0.830269 0.500000
Si Si4 0.080983 0.083808 0.101698
Si Si5 0.134629 0.083120 0.530327
Si Si6 0.360865 0.582263 0.744088
Si Si7 0.238799 0.171881 0.118523
Si Si8 0.524876 0.185814 0.743860
O O1 0.963521 0.500000 0.839132
O O2 0.130559 0.415650 0.823193
O O3 0.032486 0.365000 0.785586
O O4 0.726371 0.402826 0.988371
O O5 0.394671 0.088455 0.408954
O O6 0.574788 0.137476 0.251831
O O7 0.830277 0.096557 0.204496
O O8 0.618445 0.000000 0.257074
O O9 0.954087 0.877817 0.474970
O O10 0.770856 0.791800 0.615961
O O11 0.164963 0.132086 0.105220
O O12 0.109870 0.000000 0.100013
O O13 0.032193 0.109434 0.626208
O O14 0.072810 0.000000 0.555060
O O15 0.410912 0.500000 0.731936
O O16 0.343273 0.626654 0.799163
O O17 0.126160 0.248046 0.174840
O O18 0.500000 0.176898 0.000000
#
# Coordination Sequence:
#
# PCOD9189617 Si02
#       8
#     8   8   4   8   8   8   8   8
#     4  10  20  36  63  91 115 146 193 246 292 342
#     4   9  20  39  61  88 120 151 188 236 294 349
#     4  10  19  38  56  86 121 154 190 230 288 350
#     4  10  22  41  63  86 114 153 196 243 293 338
#     4   9  17  33  62  92 116 145 189 243 290 338
#     4  10  20  38  63  90 112 144 198 249 289 333
#     4  12  26  41  58  82 118 158 199 241 284 344
#     4  11  24  38  58  89 122 155 190 230 296 352
#
# _framework density 18.187200000000001
#
# number of rings (size 3 to 8) (size 9 to 14) (size 15 to 20)
#    0.000    1.867    2.667    1.000    1.867    3.200 
#    2.400    3.333    0.000    3.200    0.000    0.000 
#    0.000    0.000    0.000    0.000    0.000    0.000 
#
# Total GULP energy -167428.321266 kJ/mol
# GULP energy per Si atom -5580.944042 kJ/mol
# Density = 1.814580 g / cm^3
# Si number density = 18.187200 Si / 1000 Ang^3
#
#
#
# Elastic Constant Matrix: (Units=GPa)
#
#
# Indices 1 2 3 4 5 6 
#
# 1 59.8702 35.5385 43.0894 0.2342 -4.7288 0.1482
# 2 35.5385 60.2745 38.9470 0.1072 3.9479 0.1354
# 3 43.0894 38.9470 111.6684 0.7719 -8.2648 0.6431
# 4 0.2342 0.1072 0.7719 -27.6880 -0.3151 -58.0972
# 5 -4.7288 3.9479 -8.2648 -0.3151 34.6957 -0.2403
# 6 0.1482 0.1354 0.6431 -58.0972 -0.2403 -51.2978
#
#
#
# Elastic Compliance Matrix: (Units=1/GPa)
#
#
# Indices 1 2 3 4 5 6 
#
# 1 0.029752 -0.013667 -0.006411 -0.000056 0.004083 0.000014
# 2 -0.013667 0.028342 -0.005078 0.000057 -0.006297 -0.000063
# 3 -0.006411 -0.005078 0.013414 -0.000007 0.002900 0.000131
# 4 -0.000056 0.000057 -0.000007 0.026240 0.000017 -0.029718
# 5 0.004083 -0.006297 0.002900 0.000017 0.030785 -0.000132
# 6 0.000014 -0.000063 0.000131 -0.029718 -0.000132 0.014166
#
#
# Mechanical properties :
#
#
# Convention : Reuss Voigt Hill
#
# Bulk Modulus (GPa) = 47.17654 51.88475 49.53065
# Shear Modulus (GPa) = 24.99045 -1.24214 11.87415
#
# Velocity S-wave (km/s) = 3.71086 -0.82732 2.55793
# Velocity P-wave (km/s) = 6.66006 5.26094 6.00141
#
# Compressibility (1/GPa) = 0.02119697
#
# Stress axis : x y z
#
# Youngs Moduli (GPa) = 33.61082 35.28301 74.54951
#
# Poissons Ratio (x) = 0.48221 0.47797
# Poissons Ratio (y) = 0.45935 0.37853
# Poissons Ratio (z) = 0.21549 0.17915
#
# Static dielectric constant tensor:
#      x y z
#    x 1.587060 0.000000 -0.005940 
#    y 0.000000 1.614310 0.000010 
#    z -0.005940 0.000010 1.648030 
# 
# From -- ./inp_files/336865.got.cif
#   From: 2010.05.17/outbox.cif.g08.bks.cpg/sg12_169_cif.got.tgz:336865.got - 2010.06.03 13:09:07.
