data_PCOD9189966
_publ_section_title
;
Structure prediction by ZEFSAII (Michael W. Deem and Ramdas Pophale) SiO2 
 PCOD9189966
Probable space group: C 2/M
;
_chemical_formula_sum "Si O2"
_cell_formula_units_Z 64
_cell_length_a 21.576121
_cell_length_b 23.399265
_cell_length_c 9.472456
_cell_angle_alpha 90.000000
_cell_angle_beta 134.172229
_cell_angle_gamma 90.000000
_cell_volume 3430.107977
_symmetry_space_group_name_H-M "C 2/M"
_symmetry_group_IT_number 12
_symmetry_cell_setting 'monoclinic'
loop_
_space_group_symop_operation_xyz
x,y,z
-x,y,-z
-x,-y,-z
x,-y,z
1/2+x,1/2+y,z
1/2-x,1/2+y,-z
1/2-x,1/2-y,-z
1/2+x,1/2-y,z
loop_
_atom_site_type_symbol
_atom_site_label
_atom_site_fract_x
_atom_site_fract_y
_atom_site_fract_z
Si Si1 0.776176 0.113271 0.434875
Si Si2 0.733464 0.733644 0.731441
Si Si3 0.963564 0.932921 0.785374
Si Si4 0.269627 0.141351 0.339693
Si Si5 0.387340 0.750327 0.202291
Si Si6 0.614899 0.625083 0.873912
Si Si7 0.755751 0.565694 0.907311
Si Si8 0.091084 0.624592 0.682847
O O1 0.762820 0.176305 0.350177
O O2 0.877149 0.102286 0.621649
O O3 0.729930 0.108621 0.512440
O O4 0.745263 0.071436 0.262519
O O5 0.734585 0.790704 0.640665
O O6 0.651075 0.737275 0.703836
O O7 0.811524 0.738052 0.968102
O O8 0.037452 0.916355 0.791369
O O9 0.943189 0.000000 0.743983
O O10 0.000000 0.921135 0.000000
O O11 0.350522 0.131031 0.365195
O O12 0.183661 0.127135 0.112399
O O13 0.423608 0.688797 0.212568
O O14 0.430492 0.812396 0.286161
O O15 0.675346 0.602814 0.841851
O O16 0.745574 0.500000 0.935903
O O17 0.844461 0.591621 0.109766
O O18 0.000000 0.596542 0.500000
#
# Coordination Sequence:
#
# PCOD9189966 Si02
#       8
#     8   8   8   8   8   8   8   8
#     4  12  20  37  58  85 117 156 193 242 291 339
#     4   9  16  32  57  84 117 148 190 238 290 353
#     4  11  24  39  55  82 125 164 200 241 277 339
#     4   9  20  34  60  88 113 152 193 233 301 363
#     4   9  16  34  60  87 113 152 190 237 302 349
#     4  10  19  39  60  85 119 158 198 236 285 356
#     4  11  23  39  61  86 115 156 202 244 287 346
#     4  10  21  40  64  87 115 149 193 248 299 361
#
# _framework density 18.658304000000001
#
# number of rings (size 3 to 8) (size 9 to 14) (size 15 to 20)
#    0.000    1.875    3.750    2.625    0.000    2.750 
#    0.000    2.500    0.000    0.750    0.000    0.000 
#    0.000    0.000    0.000    0.000    0.000    0.000 
#
# Total GULP energy -178414.316639 kJ/mol
# GULP energy per Si atom -5575.447395 kJ/mol
# Density = 1.861584 g / cm^3
# Si number density = 18.658304 Si / 1000 Ang^3
#
#
#
# Elastic Constant Matrix: (Units=GPa)
#
#
# Indices 1 2 3 4 5 6 
#
# 1 50.9633 6.8990 34.2491 0.0000 -6.7165 0.0000
# 2 6.8990 64.9627 22.7573 0.0000 -3.4841 0.0000
# 3 34.2491 22.7573 62.0874 0.0000 -9.4588 0.0000
# 4 0.0000 0.0000 0.0000 2.7210 0.0000 -10.2705
# 5 -6.7165 -3.4841 -9.4588 0.0000 28.9247 0.0000
# 6 0.0000 0.0000 0.0000 -10.2705 0.0000 17.5135
#
#
#
# Elastic Compliance Matrix: (Units=1/GPa)
#
#
# Indices 1 2 3 4 5 6 
#
# 1 0.031823 0.003179 -0.018455 0.000000 0.001737 0.000000
# 2 0.003179 0.017979 -0.008315 0.000000 0.000185 0.000000
# 3 -0.018455 -0.008315 0.030025 0.000000 0.004532 0.000000
# 4 0.000000 0.000000 0.000000 -0.302855 0.000000 -0.177603
# 5 0.001737 0.000185 0.004532 0.000000 0.036480 0.000000
# 6 0.000000 0.000000 0.000000 -0.177603 0.000000 -0.047053
#
#
# Mechanical properties :
#
#
# Convention : Reuss Voigt Hill
#
# Bulk Modulus (GPa) = 30.63389 33.98046 32.30718
# Shear Modulus (GPa) = -28.48386 17.43904 -5.52241
#
# Velocity S-wave (km/s) = -3.91142 3.06053 -1.72226
# Velocity P-wave (km/s) = 1.98618 5.54442 3.66031
#
# Compressibility (1/GPa) = 0.03264359
#
# Stress axis : x y z
#
# Youngs Moduli (GPa) = 31.42400 55.62146 33.30606
#
# Poissons Ratio (x) = -0.17679 0.61465
# Poissons Ratio (y) = -0.09988 0.27694
# Poissons Ratio (z) = 0.57992 0.46250
#
# Static dielectric constant tensor:
#      x y z
#    x 1.632130 0.000000 -0.008280 
#    y 0.000000 1.664760 0.000000 
#    z -0.008280 0.000000 1.650810 
# 
# From -- ./inp_files/90669.got.cif
#   From: 2010.05.17/outbox.cif.g08.bks.cpg/sg12_46_cif.got.tgz:90669.got - 2010.06.03 13:09:07.
