data_PCOD9189563
_publ_section_title
;
Structure prediction by ZEFSAII (Michael W. Deem and Ramdas Pophale) SiO2 
 PCOD9189563
Probable space group: C 2/M
;
_chemical_formula_sum "Si O2"
_cell_formula_units_Z 44
_cell_length_a 11.768799
_cell_length_b 22.655678
_cell_length_c 7.944567
_cell_angle_alpha 90.000000
_cell_angle_beta 81.009148
_cell_angle_gamma 90.000000
_cell_volume 2092.234432
_symmetry_space_group_name_H-M "C 2/M"
_symmetry_group_IT_number 12
_symmetry_cell_setting 'monoclinic'
loop_
_space_group_symop_operation_xyz
x,y,z
-x,y,-z
-x,-y,-z
x,-y,z
1/2+x,1/2+y,z
1/2-x,1/2+y,-z
1/2-x,1/2-y,-z
1/2+x,1/2-y,z
loop_
_atom_site_type_symbol
_atom_site_label
_atom_site_fract_x
_atom_site_fract_y
_atom_site_fract_z
Si Si1 0.460767 0.932890 0.705515
Si Si2 0.730047 0.568067 0.600602
Si Si3 0.306135 0.657393 0.678109
Si Si4 0.937275 0.315925 0.180186
Si Si5 0.500000 0.743839 0.500000
Si Si6 0.975948 0.933428 0.808060
O O1 0.500000 0.928490 0.500000
O O2 0.322907 0.922960 0.726783
O O3 0.520974 0.883221 0.800717
O O4 0.483999 0.000000 0.755442
O O5 0.746598 0.500000 0.540194
O O6 0.749645 0.615310 0.451041
O O7 0.598451 0.574713 0.688280
O O8 0.200473 0.685870 0.801681
O O9 0.389493 0.703968 0.569150
O O10 0.386193 0.615098 0.770579
O O11 0.973316 0.282078 0.341285
O O12 0.000000 0.291911 0.000000
O O13 0.934773 0.000000 0.776659
O O14 0.000000 0.930214 0.000000
#
# Coordination Sequence:
#
# PCOD9189563 Si02
#       6
#     8   8   8   8   4   8
#     4  10  20  39  67  97 134 171 205 259 325 394
#     4  10  19  37  66  97 132 173 213 263 329 390
#     4  12  23  43  70  94 126 174 225 271 324 398
#     4  12  28  46  68  99 133 172 220 274 331 394
#     4  12  26  50  68  94 128 172 230 286 326 372
#     4  10  22  38  61 101 140 168 211 274 332 389
#
# _framework density 21.030149999999999
#
# number of rings (size 3 to 8) (size 9 to 14) (size 15 to 20)
#    0.000    1.091    4.545    1.091    2.545    4.000 
#    0.000    0.000    0.000    0.000    0.000    0.000 
#    0.000    0.000    0.000    0.000    0.000    0.000 
#
# Total GULP energy -123052.738295 kJ/mol
# GULP energy per Si atom -5593.306286 kJ/mol
# Density = 2.098228 g / cm^3
# Si number density = 21.030150 Si / 1000 Ang^3
#
#
#
# Elastic Constant Matrix: (Units=GPa)
#
#
# Indices 1 2 3 4 5 6 
#
# 1 119.8287 46.4009 40.0622 0.0000 -19.8112 0.0000
# 2 46.4009 77.3068 39.4349 0.0000 -3.6203 0.0000
# 3 40.0622 39.4349 94.0020 0.0000 -16.6926 0.0000
# 4 0.0000 0.0000 0.0000 13.2192 0.0000 -13.2069
# 5 -19.8112 -3.6203 -16.6926 0.0000 25.5790 0.0000
# 6 0.0000 0.0000 0.0000 -13.2069 0.0000 16.8881
#
#
#
# Elastic Compliance Matrix: (Units=1/GPa)
#
#
# Indices 1 2 3 4 5 6 
#
# 1 0.012632 -0.006602 -0.001179 0.000000 0.008079 0.000000
# 2 -0.006602 0.020046 -0.006786 0.000000 -0.006705 0.000000
# 3 -0.001179 -0.006786 0.015445 0.000000 0.008205 0.000000
# 4 0.000000 0.000000 0.000000 0.345897 0.000000 0.270501
# 5 0.008079 -0.006705 0.008205 0.000000 0.049758 0.000000
# 6 0.000000 0.000000 0.000000 0.270501 0.000000 0.270752
#
#
# Mechanical properties :
#
#
# Convention : Reuss Voigt Hill
#
# Bulk Modulus (GPa) = 52.66695 60.32593 56.49644
# Shear Modulus (GPa) = 6.66673 22.15321 14.40997
#
# Velocity S-wave (km/s) = 1.78240 3.24914 2.62048
# Velocity P-wave (km/s) = 5.41607 6.54397 6.00656
#
# Compressibility (1/GPa) = 0.01898724
#
# Stress axis : x y z
#
# Youngs Moduli (GPa) = 79.16611 49.88552 64.74726
#
# Poissons Ratio (x) = 0.32934 0.07634
# Poissons Ratio (y) = 0.52265 0.43941
# Poissons Ratio (z) = 0.09335 0.33855
#
# Static dielectric constant tensor:
#      x y z
#    x 1.776170 0.000000 -0.027830 
#    y 0.000000 1.747050 0.000000 
#    z -0.027830 0.000000 1.754910 
# 
# From -- ./inp_files/49299.got.cif
#   From: 2010.05.17/outbox.cif.g08.bks.cpg/sg12_25_cif.got.tgz:49299.got - 2010.06.03 13:09:07.
