data_PCOD9189075
_publ_section_title
;
Structure prediction by ZEFSAII (Michael W. Deem and Ramdas Pophale) SiO2 
 PCOD9189075
Probable space group: C 2/M
;
_chemical_formula_sum "Si O2"
_cell_formula_units_Z 32
_cell_length_a 17.551499
_cell_length_b 9.486867
_cell_length_c 20.863875
_cell_angle_alpha 90.000000
_cell_angle_beta 158.629404
_cell_angle_gamma 90.000000
_cell_volume 1265.928219
_symmetry_space_group_name_H-M "C 2/M"
_symmetry_group_IT_number 12
_symmetry_cell_setting 'monoclinic'
loop_
_space_group_symop_operation_xyz
x,y,z
-x,y,-z
-x,-y,-z
x,-y,z
1/2+x,1/2+y,z
1/2-x,1/2+y,-z
1/2-x,1/2-y,-z
1/2+x,1/2-y,z
loop_
_atom_site_type_symbol
_atom_site_label
_atom_site_fract_x
_atom_site_fract_y
_atom_site_fract_z
Si Si1 0.323907 0.234994 0.130083
Si Si2 0.327083 0.000000 0.923654
Si Si3 0.732192 0.000000 0.307661
Si Si4 0.681636 0.000000 0.412336
Si Si5 0.112146 0.500000 0.492983
Si Si6 0.500000 0.754876 0.500000
Si Si7 0.161350 0.000000 0.072628
O O1 0.536362 0.142074 0.296379
O O2 0.142696 0.135635 0.015735
O O3 0.250000 0.250000 0.000000
O O4 0.317290 0.364256 0.174927
O O5 0.484757 0.000000 0.108283
O O6 0.500000 0.000000 0.000000
O O7 0.820802 0.859725 0.342807
O O8 0.796274 0.000000 0.433245
O O9 0.767000 0.000000 0.552954
O O10 0.105038 0.639983 0.530732
O O11 0.884850 0.500000 0.281954
O O12 0.000000 0.000000 0.000000
#
# Coordination Sequence:
#
# PCOD9189075 Si02
#       7
#     8   4   4   4   4   4   4
#     4  10  19  37  54  89 121 152 187 235 303 363
#     4  12  24  34  62  95 127 155 190 244 311 361
#     4  11  24  41  62  88 120 162 203 249 299 349
#     4  10  22  40  63  86 124 156 197 251 298 364
#     4   9  22  43  62  84 119 154 205 255 290 355
#     4  10  24  44  62  84 118 162 212 252 284 350
#     4  10  22  34  61  89 116 153 191 240 302 361
#
# _framework density 25.277895000000001
#
# number of rings (size 3 to 8) (size 9 to 14) (size 15 to 20)
#    0.000    2.000    2.500    1.500   10.500    1.000 
#    0.000    2.500    0.000    0.000    0.000    0.000 
#    0.000    0.000    0.000    0.000    0.000    0.000 
#
# Total GULP energy -89241.795103 kJ/mol
# GULP energy per Si atom -5577.612194 kJ/mol
# Density = 2.522036 g / cm^3
# Si number density = 25.277895 Si / 1000 Ang^3
#
#
#
# Elastic Constant Matrix: (Units=GPa)
#
#
# Indices 1 2 3 4 5 6 
#
# 1 184.5495 75.9401 0.1106 0.0046 -5.6307 0.0058
# 2 75.9401 181.8035 -0.4591 0.0024 -6.0131 0.0053
# 3 0.1106 -0.4591 30.0976 0.0044 -2.8096 0.0057
# 4 0.0046 0.0024 0.0044 18.4043 -0.0017 9.9108
# 5 -5.6307 -6.0131 -2.8096 -0.0017 36.5613 0.0006
# 6 0.0058 0.0053 0.0057 9.9108 0.0006 47.6414
#
#
#
# Elastic Compliance Matrix: (Units=1/GPa)
#
#
# Indices 1 2 3 4 5 6 
#
# 1 0.006555 -0.002719 -0.000013 -0.000001 0.000561 0.000000
# 2 -0.002719 0.006660 0.000176 0.000000 0.000690 0.000000
# 3 -0.000013 0.000176 0.033471 -0.000006 0.002599 -0.000003
# 4 -0.000001 0.000000 -0.000006 0.061190 0.000002 -0.012729
# 5 0.000561 0.000690 0.002599 0.000002 0.027751 -0.000001
# 6 0.000000 0.000000 -0.000003 -0.012729 -0.000001 0.023638
#
#
# Mechanical properties :
#
#
# Convention : Reuss Voigt Hill
#
# Bulk Modulus (GPa) = 24.05479 60.84820 42.45149
# Shear Modulus (GPa) = 28.05293 41.91200 34.98247
#
# Velocity S-wave (km/s) = 3.33495 4.07633 3.72414
# Velocity P-wave (km/s) = 4.93619 6.80289 5.94329
#
# Compressibility (1/GPa) = 0.04157176
#
# Stress axis : x y z
#
# Youngs Moduli (GPa) = 152.56133 150.15869 29.87696
#
# Poissons Ratio (x) = 0.40834 0.00039
# Poissons Ratio (y) = 0.41488 -0.00526
# Poissons Ratio (z) = 0.00201 -0.02642
#
# Static dielectric constant tensor:
#      x y z
#    x 2.083790 0.000500 -0.016250 
#    y 0.000500 2.155540 0.000090 
#    z -0.016250 0.000090 1.968160 
# 
# From -- ./inp_files/314601.got.cif
#   From: 2010.05.17/outbox.cif.g08.bks.cpg/sg12_158_cif.got.tgz:314601.got - 2010.06.03 13:09:07.
