data_PCOD9189020
_publ_section_title
;
Structure prediction by ZEFSAII (Michael W. Deem and Ramdas Pophale) SiO2 
 PCOD9189020
Probable space group: C 2/M
;
_chemical_formula_sum "Si O2"
_cell_formula_units_Z 48
_cell_length_a 14.876428
_cell_length_b 28.872921
_cell_length_c 8.198516
_cell_angle_alpha 90.000000
_cell_angle_beta 143.152882
_cell_angle_gamma 90.000000
_cell_volume 2111.764907
_symmetry_space_group_name_H-M "C 2/M"
_symmetry_group_IT_number 12
_symmetry_cell_setting 'monoclinic'
loop_
_space_group_symop_operation_xyz
x,y,z
-x,y,-z
-x,-y,-z
x,-y,z
1/2+x,1/2+y,z
1/2-x,1/2+y,-z
1/2-x,1/2-y,-z
1/2+x,1/2-y,z
loop_
_atom_site_type_symbol
_atom_site_label
_atom_site_fract_x
_atom_site_fract_y
_atom_site_fract_z
Si Si1 0.173678 0.794795 0.803984
Si Si2 0.333415 0.792653 0.699198
Si Si3 0.594430 0.886688 0.307356
Si Si4 0.102191 0.946720 0.005757
Si Si5 0.799901 0.947141 0.392576
Si Si6 0.203092 0.609249 0.933574
O O1 0.251762 0.805900 0.746155
O O2 0.217113 0.840746 0.968404
O O3 0.000000 0.787890 0.500000
O O4 0.250000 0.750000 0.000000
O O5 0.250000 0.750000 0.500000
O O6 0.331451 0.836205 0.575045
O O7 0.500000 0.779860 0.000000
O O8 0.711422 0.926308 0.422302
O O9 0.500000 0.882789 0.000000
O O10 0.472684 0.890131 0.274307
O O11 0.245063 0.919902 0.147620
O O12 0.976965 0.947825 0.681791
O O13 0.138856 0.000000 0.103090
O O14 0.000000 0.925393 0.000000
O O15 0.767823 0.916452 0.188400
O O16 0.748231 0.000000 0.291797
#
# Coordination Sequence:
#
# PCOD9189020 Si02
#       6
#     8   8   8   8   8   8
#     4  12  25  42  63  97 132 172 222 272 323 391
#     4  11  21  43  67  91 131 173 215 272 328 384
#     4   9  19  37  60  90 125 157 203 266 317 375
#     4  10  22  40  60  90 129 165 207 262 323 391
#     4  10  19  36  65  94 120 159 210 261 320 386
#     4  11  21  40  64  90 126 163 214 266 319 382
#
# _framework density 22.729803
#
# number of rings (size 3 to 8) (size 9 to 14) (size 15 to 20)
#    0.000    1.500    5.000    3.000    0.000    5.000 
#    3.000    0.833    0.000    3.000    0.000    0.000 
#    0.000    0.000    0.000    0.000    0.000    0.000 
#
# Total GULP energy -134041.000364 kJ/mol
# GULP energy per Si atom -5585.041682 kJ/mol
# Density = 2.267807 g / cm^3
# Si number density = 22.729803 Si / 1000 Ang^3
#
#
#
# Elastic Constant Matrix: (Units=GPa)
#
#
# Indices 1 2 3 4 5 6 
#
# 1 163.8042 43.9976 23.0519 0.0000 18.8338 0.0000
# 2 43.9976 150.6355 38.5687 0.0000 18.6978 0.0000
# 3 23.0519 38.5687 80.5535 0.0000 28.0134 0.0000
# 4 0.0000 0.0000 0.0000 20.5683 0.0000 -2.4355
# 5 18.8338 18.6978 28.0134 0.0000 40.7463 0.0000
# 6 0.0000 0.0000 0.0000 -2.4355 0.0000 42.5242
#
#
#
# Elastic Compliance Matrix: (Units=1/GPa)
#
#
# Indices 1 2 3 4 5 6 
#
# 1 0.006847 -0.001623 -0.000448 0.000000 -0.002112 0.000000
# 2 -0.001623 0.008003 -0.003090 0.000000 -0.000798 0.000000
# 3 -0.000448 -0.003090 0.017685 0.000000 -0.010534 0.000000
# 4 0.000000 0.000000 0.000000 0.048950 0.000000 0.002803
# 5 -0.002112 -0.000798 -0.010534 0.000000 0.033126 0.000000
# 6 0.000000 0.000000 0.000000 0.002803 0.000000 0.023677
#
#
# Mechanical properties :
#
#
# Convention : Reuss Voigt Hill
#
# Bulk Modulus (GPa) = 45.01814 67.35885 56.18849
# Shear Modulus (GPa) = 32.04865 40.05944 36.05405
#
# Velocity S-wave (km/s) = 3.75905 4.20267 3.98704
# Velocity P-wave (km/s) = 6.22008 7.29718 6.78005
#
# Compressibility (1/GPa) = 0.02221327
#
# Stress axis : x y z
#
# Youngs Moduli (GPa) = 146.05735 124.95761 56.54583
#
# Poissons Ratio (x) = 0.20280 0.02532
# Poissons Ratio (y) = 0.23705 0.17471
# Poissons Ratio (z) = 0.06539 0.38609
#
# Static dielectric constant tensor:
#      x y z
#    x 1.590660 0.000000 -0.178080 
#    y 0.000000 1.914260 0.000000 
#    z -0.178080 0.000000 1.833260 
# 
# From -- ./inp_files/67405.got.cif
#   From: 2010.05.17/outbox.cif.g08.bks.cpg/sg12_34_cif.got.tgz:67405.got - 2010.06.03 13:09:07.
