data_PCOD9189534
_publ_section_title
;
Structure prediction by ZEFSAII (Michael W. Deem and Ramdas Pophale) SiO2 
 PCOD9189534
Probable space group: C 2/M
;
_chemical_formula_sum "Si O2"
_cell_formula_units_Z 60
_cell_length_a 10.020530
_cell_length_b 17.019079
_cell_length_c 22.948831
_cell_angle_alpha 90.000000
_cell_angle_beta 53.646835
_cell_angle_gamma 90.000000
_cell_volume 3152.008661
_symmetry_space_group_name_H-M "C 2/M"
_symmetry_group_IT_number 12
_symmetry_cell_setting 'monoclinic'
loop_
_space_group_symop_operation_xyz
x,y,z
-x,y,-z
-x,-y,-z
x,-y,z
1/2+x,1/2+y,z
1/2-x,1/2+y,-z
1/2-x,1/2-y,-z
1/2+x,1/2-y,z
loop_
_atom_site_type_symbol
_atom_site_label
_atom_site_fract_x
_atom_site_fract_y
_atom_site_fract_z
Si Si1 0.509805 0.765592 0.261527
Si Si2 0.615464 0.679573 0.027837
Si Si3 0.535411 0.910745 0.339509
Si Si4 0.000000 0.216700 0.500000
Si Si5 0.285222 0.412874 0.494012
Si Si6 0.386787 0.230747 0.165132
Si Si7 0.938081 0.409793 0.949621
Si Si8 0.750066 0.341160 0.618873
O O1 0.511399 0.847881 0.295033
O O2 0.405768 0.772452 0.229397
O O3 0.696201 0.741148 0.197881
O O4 0.424495 0.700642 0.324602
O O5 0.490112 0.695130 0.113278
O O6 0.500000 0.684034 0.000000
O O7 0.750000 0.750000 0.000000
O O8 0.740011 0.606120 0.996777
O O9 0.379366 0.907698 0.424141
O O10 0.690109 0.884157 0.338566
O O11 0.552041 0.000000 0.314219
O O12 0.899165 0.159012 0.484089
O O13 0.878307 0.272055 0.568310
O O14 0.357847 0.500000 0.483935
O O15 0.247253 0.399782 0.436168
O O16 0.466682 0.153098 0.115352
O O17 0.974251 0.500000 0.924682
O O18 0.000000 0.396484 0.000000
#
# Coordination Sequence:
#
# PCOD9189534 Si02
#       8
#     8   8   8   4   8   8   8   8
#     4  12  24  39  62  90 126 170 208 245 308 385
#     4  10  19  37  65  95 120 153 206 256 294 349
#     4  11  23  41  59  86 120 157 207 267 321 368
#     4  12  21  36  61  90 114 146 210 272 311 360
#     4  11  23  38  61  86 115 153 202 272 328 362
#     4  11  22  39  63  91 125 166 205 242 301 379
#     4  10  21  40  66  95 127 162 203 259 309 351
#     4  12  22  39  62  87 114 160 215 260 308 375
#
# _framework density 19.035481000000001
#
# number of rings (size 3 to 8) (size 9 to 14) (size 15 to 20)
#    0.000    0.933    4.000    5.800    0.000    1.867 
#    0.000    2.000    0.000    0.000    0.000    0.000 
#    0.000    0.000    0.000    0.000    0.000    0.000 
#
# Total GULP energy -167562.953549 kJ/mol
# GULP energy per Si atom -5585.431785 kJ/mol
# Density = 1.899216 g / cm^3
# Si number density = 19.035481 Si / 1000 Ang^3
#
#
#
# Elastic Constant Matrix: (Units=GPa)
#
#
# Indices 1 2 3 4 5 6 
#
# 1 68.8678 5.9629 -5.9431 0.0000 5.1872 0.0001
# 2 5.9629 79.9254 25.3834 -0.0005 1.5378 0.0000
# 3 -5.9431 25.3834 54.5607 -0.0008 -8.7888 0.0000
# 4 0.0000 -0.0005 -0.0008-1181.6888 0.0007 -103.7086
# 5 5.1872 1.5378 -8.7888 0.0007 43.7495 0.0000
# 6 0.0001 0.0000 0.0000 -103.7086 0.0000 45.0599
#
#
#
# Elastic Compliance Matrix: (Units=1/GPa)
#
#
# Indices 1 2 3 4 5 6 
#
# 1 0.014968 -0.001814 0.002272 0.000000 -0.001254 0.000000
# 2 -0.001814 0.015064 -0.007499 0.000000 -0.001821 0.000000
# 3 0.002272 -0.007499 0.022801 0.000000 0.004575 0.000000
# 4 0.000000 0.000000 0.000000 -0.000704 0.000000 -0.001620
# 5 -0.001254 -0.001821 0.004575 0.000000 0.023989 0.000000
# 6 0.000000 0.000000 0.000000 -0.001620 0.000000 0.018463
#
#
# Mechanical properties :
#
#
# Convention : Reuss Voigt Hill
#
# Bulk Modulus (GPa) = 25.80541 28.24005 27.02273
# Shear Modulus (GPa) = 41.12495 -206.71251 -82.79378
#
# Velocity S-wave (km/s) = 4.65309 -10.43211 -6.60219
# Velocity P-wave (km/s) = 6.51569 11.41217 6.62508
#
# Compressibility (1/GPa) = 0.03875157
#
# Stress axis : x y z
#
# Youngs Moduli (GPa) = 66.80810 66.38492 43.85689
#
# Poissons Ratio (x) = 0.12044 -0.09966
# Poissons Ratio (y) = 0.12121 0.32888
# Poissons Ratio (z) = -0.15182 0.49782
#
# Static dielectric constant tensor:
#      x y z
#    x 1.678260 0.000000 -0.004490 
#    y 0.000000 1.653420 0.000000 
#    z -0.004490 0.000000 1.655200 
# 
# From -- ./inp_files/333344.got.cif
#   From: 2010.05.17/outbox.cif.g08.bks.cpg/sg12_167_cif.got.tgz:333344.got - 2010.06.03 13:09:07.
