data_PCOD9189422
_publ_section_title
;
Structure prediction by ZEFSAII (Michael W. Deem and Ramdas Pophale) SiO2 
 PCOD9189422
Probable space group: C 2/M
;
_chemical_formula_sum "Si O2"
_cell_formula_units_Z 50
_cell_length_a 8.401639
_cell_length_b 21.535039
_cell_length_c 17.256060
_cell_angle_alpha 90.000000
_cell_angle_beta 137.112310
_cell_angle_gamma 90.000000
_cell_volume 2124.809275
_symmetry_space_group_name_H-M "C 2/M"
_symmetry_group_IT_number 12
_symmetry_cell_setting 'monoclinic'
loop_
_space_group_symop_operation_xyz
x,y,z
-x,y,-z
-x,-y,-z
x,-y,z
1/2+x,1/2+y,z
1/2-x,1/2+y,-z
1/2-x,1/2-y,-z
1/2+x,1/2-y,z
loop_
_atom_site_type_symbol
_atom_site_label
_atom_site_fract_x
_atom_site_fract_y
_atom_site_fract_z
Si Si1 0.978068 0.335520 0.204912
Si Si2 0.935127 0.574975 0.562375
Si Si3 0.179080 0.269340 0.129455
Si Si4 0.204726 0.069935 0.172743
Si Si5 0.418215 0.572753 0.363255
Si Si6 0.158339 0.095314 0.834448
Si Si7 0.000000 0.500000 0.000000
O O1 0.868658 0.282210 0.221216
O O2 0.767467 0.384809 0.125888
O O3 0.030898 0.295357 0.148009
O O4 0.210248 0.377546 0.300897
O O5 0.944369 0.500000 0.561039
O O6 0.118483 0.591265 0.694884
O O7 0.000000 0.599812 0.500000
O O8 0.667547 0.589465 0.489984
O O9 0.305003 0.331856 0.144548
O O10 0.000000 0.246260 0.000000
O O11 0.958884 0.071146 0.128810
O O12 0.255584 0.000000 0.167489
O O13 0.359110 0.500000 0.359459
O O14 0.479199 0.578167 0.292694
O O15 0.390619 0.055146 0.906133
#
# Coordination Sequence:
#
# PCOD9189422 Si02
#       7
#     8   8   8   8   8   8   2
#     4  11  25  40  64  92 125 167 216 279 324 375
#     4   9  17  32  64  99 132 171 215 259 330 404
#     4  11  24  46  67  87 119 174 233 267 315 393
#     4  11  21  38  63 102 138 168 210 271 329 394
#     4  10  19  37  62  98 132 168 209 268 332 396
#     4  11  21  37  67  95 136 168 206 264 328 393
#     4  12  20  36  64 108 136 172 204 264 348 390
#
# _framework density 23.531524999999998
#
# number of rings (size 3 to 8) (size 9 to 14) (size 15 to 20)
#    0.000    1.440    4.000    1.920    0.000    0.640 
#    0.000    2.400    0.000   23.040    0.000    0.000 
#    0.000    0.000    0.000    0.000    0.000    0.000 
#
# Total GULP energy -139322.048626 kJ/mol
# GULP energy per Si atom -5572.881945 kJ/mol
# Density = 2.347797 g / cm^3
# Si number density = 23.531525 Si / 1000 Ang^3
#
#
#
# Elastic Constant Matrix: (Units=GPa)
#
#
# Indices 1 2 3 4 5 6 
#
# 1 93.2222 48.9085 15.4239 -0.0003 -17.9362 -0.0002
# 2 48.9085 168.4936 10.9292 0.0000 1.8633 0.0000
# 3 15.4239 10.9292 56.9609 -0.0002 4.9565 -0.0002
# 4 -0.0003 0.0000 -0.0002 29.0407 -0.0002 2.1077
# 5 -17.9362 1.8633 4.9565 -0.0002 35.5037 -0.0002
# 6 -0.0002 0.0000 -0.0002 2.1077 -0.0002 40.4016
#
#
#
# Elastic Compliance Matrix: (Units=1/GPa)
#
#
# Indices 1 2 3 4 5 6 
#
# 1 0.015272 -0.004264 -0.004057 0.000000 0.008505 0.000000
# 2 -0.004264 0.007201 -0.000007 0.000000 -0.002531 0.000000
# 3 -0.004057 -0.000007 0.019066 0.000000 -0.004711 0.000000
# 4 0.000000 0.000000 0.000000 0.034565 0.000000 -0.001803
# 5 0.008505 -0.002531 -0.004711 0.000000 0.033253 0.000000
# 6 0.000000 0.000000 0.000000 -0.001803 0.000000 0.024846
#
#
# Mechanical properties :
#
#
# Convention : Reuss Voigt Hill
#
# Bulk Modulus (GPa) = 40.18867 52.13332 46.16100
# Shear Modulus (GPa) = 31.41628 37.21687 34.31657
#
# Velocity S-wave (km/s) = 3.65783 3.98122 3.82294
# Velocity P-wave (km/s) = 5.91230 6.58302 6.25666
#
# Compressibility (1/GPa) = 0.02488264
#
# Stress axis : x y z
#
# Youngs Moduli (GPa) = 65.48020 138.86891 52.44991
#
# Poissons Ratio (x) = 0.59211 0.21281
# Poissons Ratio (y) = 0.27920 0.00036
# Poissons Ratio (z) = 0.26567 0.00095
#
# Static dielectric constant tensor:
#      x y z
#    x 2.058520 0.000000 -0.000330 
#    y 0.000000 1.823010 0.000000 
#    z -0.000330 0.000000 2.040250 
# 
# From -- ./inp_files/197140.got.cif
#   From: 2010.05.17/outbox.cif.g08.bks.cpg/sg12_99_cif.got.tgz:197140.got - 2010.06.03 13:09:07.
