data_PCOD9189886
_publ_section_title
;
Structure prediction by ZEFSAII (Michael W. Deem and Ramdas Pophale) SiO2 
 PCOD9189886
Probable space group: C 2/M
;
_chemical_formula_sum "Si O2"
_cell_formula_units_Z 60
_cell_length_a 20.010524
_cell_length_b 9.338147
_cell_length_c 20.334299
_cell_angle_alpha 90.000000
_cell_angle_beta 50.865239
_cell_angle_gamma 90.000000
_cell_volume 2947.282770
_symmetry_space_group_name_H-M "C 2/M"
_symmetry_group_IT_number 12
_symmetry_cell_setting 'monoclinic'
loop_
_space_group_symop_operation_xyz
x,y,z
-x,y,-z
-x,-y,-z
x,-y,z
1/2+x,1/2+y,z
1/2-x,1/2+y,-z
1/2-x,1/2-y,-z
1/2+x,1/2-y,z
loop_
_atom_site_type_symbol
_atom_site_label
_atom_site_fract_x
_atom_site_fract_y
_atom_site_fract_z
Si Si1 0.440888 0.172947 0.158212
Si Si2 0.236630 0.500000 0.037114
Si Si3 0.851387 0.669837 0.712633
Si Si4 0.334837 0.172699 0.353590
Si Si5 0.145327 0.827293 0.429668
Si Si6 0.803840 0.338106 0.133296
Si Si7 0.365454 0.765237 0.952053
Si Si8 0.047020 0.671017 0.599407
O O1 0.382679 0.213944 0.256673
O O2 0.385373 0.203761 0.127586
O O3 0.532518 0.248810 0.105322
O O4 0.455948 0.000000 0.149911
O O5 0.162122 0.374306 0.087424
O O6 0.311160 0.622683 0.981199
O O7 0.838766 0.500000 0.710226
O O8 0.849319 0.755108 0.645010
O O9 0.774748 0.732269 0.804342
O O10 0.947536 0.691140 0.680764
O O11 0.235003 0.212702 0.410765
O O12 0.388851 0.221431 0.382891
O O13 0.336850 0.000000 0.354218
O O14 0.069708 0.759027 0.519988
O O15 0.138779 0.000000 0.428932
O O16 0.778435 0.500000 0.168903
O O17 0.832481 0.339011 0.040224
O O18 0.059362 0.500000 0.579849
#
# Coordination Sequence:
#
# PCOD9189886 Si02
#       8
#     8   4   8   8   8   8   8   8
#     4  10  19  38  66  89 120 163 210 255 306 367
#     4  10  24  40  60  88 130 160 204 248 312 358
#     4  11  24  40  60  91 126 163 204 256 309 365
#     4   9  19  37  60  90 120 159 206 254 301 365
#     4  11  21  39  65  89 123 158 203 256 311 367
#     4  11  22  40  65  91 121 160 213 260 304 366
#     4  11  22  42  63  95 123 169 206 251 303 372
#     4  10  22  39  61  90 118 162 208 248 308 379
#
# _framework density 20.357734000000001
#
# number of rings (size 3 to 8) (size 9 to 14) (size 15 to 20)
#    0.000    1.600    2.667    2.000    0.933    5.867 
#    3.600    1.333    1.467    0.000    0.000    0.000 
#    0.000    0.000    0.000    0.000    0.000    0.000 
#
# Total GULP energy -167084.968720 kJ/mol
# GULP energy per Si atom -5569.498957 kJ/mol
# Density = 2.031140 g / cm^3
# Si number density = 20.357734 Si / 1000 Ang^3
#
#
#
# Elastic Constant Matrix: (Units=GPa)
#
#
# Indices 1 2 3 4 5 6 
#
# 1 84.6128 28.6670 14.1745 0.0000 -18.6916 0.0000
# 2 28.6670 72.5012 1.9442 0.0000 -12.8914 0.0001
# 3 14.1745 1.9442 41.0980 0.0000 -22.5442 0.0000
# 4 0.0000 0.0000 0.0000 14.7315 0.0000 -2.3446
# 5 -18.6916 -12.8914 -22.5442 0.0000 34.9692 0.0000
# 6 0.0000 0.0001 0.0000 -2.3446 0.0000 28.5409
#
#
#
# Elastic Compliance Matrix: (Units=1/GPa)
#
#
# Indices 1 2 3 4 5 6 
#
# 1 0.014936 -0.005026 -0.002399 0.000000 0.004584 0.000000
# 2 -0.005026 0.016792 0.004427 0.000000 0.006358 0.000000
# 3 -0.002399 0.004427 0.038898 0.000000 0.025426 0.000000
# 4 0.000000 0.000000 0.000000 0.068781 0.000000 0.005650
# 5 0.004584 0.006358 0.025426 0.000000 0.049783 0.000000
# 6 0.000000 0.000000 0.000000 0.005650 0.000000 0.035502
#
#
# Mechanical properties :
#
#
# Convention : Reuss Voigt Hill
#
# Bulk Modulus (GPa) = 15.47313 31.97593 23.72453
# Shear Modulus (GPa) = 19.82307 25.87674 22.84991
#
# Velocity S-wave (km/s) = 3.12386 3.56912 3.35389
# Velocity P-wave (km/s) = 4.54186 5.72066 5.16500
#
# Compressibility (1/GPa) = 0.06462818
#
# Stress axis : x y z
#
# Youngs Moduli (GPa) = 66.95239 59.55221 25.70840
#
# Poissons Ratio (x) = 0.29933 0.06168
# Poissons Ratio (y) = 0.33652 -0.11380
# Poissons Ratio (z) = 0.16062 -0.26361
#
# Static dielectric constant tensor:
#      x y z
#    x 1.770960 0.000000 0.030010 
#    y 0.000000 1.688890 0.000000 
#    z 0.030010 0.000000 1.702530 
# 
# From -- ./inp_files/320481.got.cif
#   From: 2010.05.17/outbox.cif.g08.bks.cpg/sg12_161_cif.got.tgz:320481.got - 2010.06.03 13:09:07.
