data_PCOD9189091
_publ_section_title
;
Structure prediction by ZEFSAII (Michael W. Deem and Ramdas Pophale) SiO2 
 PCOD9189091
Probable space group: C 2/M
;
_chemical_formula_sum "Si O2"
_cell_formula_units_Z 64
_cell_length_a 12.917723
_cell_length_b 16.170435
_cell_length_c 31.426456
_cell_angle_alpha 90.000000
_cell_angle_beta 148.153807
_cell_angle_gamma 90.000000
_cell_volume 3463.709564
_symmetry_space_group_name_H-M "C 2/M"
_symmetry_group_IT_number 12
_symmetry_cell_setting 'monoclinic'
loop_
_space_group_symop_operation_xyz
x,y,z
-x,y,-z
-x,-y,-z
x,-y,z
1/2+x,1/2+y,z
1/2-x,1/2+y,-z
1/2-x,1/2-y,-z
1/2+x,1/2-y,z
loop_
_atom_site_type_symbol
_atom_site_label
_atom_site_fract_x
_atom_site_fract_y
_atom_site_fract_z
Si Si1 0.149072 0.204647 0.787836
Si Si2 0.304462 0.595400 0.403726
Si Si3 0.491835 0.411308 0.863850
Si Si4 0.224713 0.273193 0.302995
Si Si5 0.097012 0.656148 0.699803
Si Si6 0.636876 0.622925 0.008670
Si Si7 0.697614 0.797847 0.068312
Si Si8 0.904291 0.404157 0.815283
O O1 0.146429 0.279605 0.754509
O O2 0.266943 0.227575 0.871068
O O3 0.257082 0.129104 0.801234
O O4 0.925937 0.208312 0.727377
O O5 0.500000 0.601936 0.500000
O O6 0.287871 0.500000 0.382481
O O7 0.305068 0.663090 0.366270
O O8 0.113565 0.616541 0.365606
O O9 0.579526 0.500000 0.883887
O O10 0.272729 0.407685 0.769097
O O11 0.612642 0.342066 0.882196
O O12 0.528075 0.398094 0.926782
O O13 0.379477 0.213713 0.333441
O O14 0.123643 0.335877 0.232625
O O15 0.657808 0.720752 0.024038
O O16 0.865570 0.595425 0.090480
O O17 0.500000 0.592963 0.000000
O O18 0.500000 0.851689 0.000000
O O19 0.856241 0.500000 0.786888
#
# Coordination Sequence:
#
# PCOD9189091 Si02
#       8
#     8   8   8   8   8   8   8   8
#     4  10  19  37  56  80 106 146 191 235 279 339
#     4  10  22  39  62  93 122 147 181 234 294 343
#     4  12  24  35  51  81 114 148 194 245 294 336
#     4  10  20  39  62  85 115 152 197 226 279 350
#     4  10  20  38  61  83 114 151 191 231 278 348
#     4  11  23  38  53  75 109 155 203 245 286 338
#     4  11  20  35  56  73 103 154 197 240 287 336
#     4  11  22  36  56  83 115 151 196 248 290 327
#
# _framework density 18.477301000000001
#
# number of rings (size 3 to 8) (size 9 to 14) (size 15 to 20)
#    0.000    1.375    2.500    4.500    1.750    2.250 
#    0.000    0.000    0.000    0.000    0.000    0.000 
#    0.000   13.000    0.000    0.000    0.000    0.000 
#
# Total GULP energy -178205.562093 kJ/mol
# GULP energy per Si atom -5568.923815 kJ/mol
# Density = 1.843525 g / cm^3
# Si number density = 18.477301 Si / 1000 Ang^3
#
#
#
# Elastic Constant Matrix: (Units=GPa)
#
#
# Indices 1 2 3 4 5 6 
#
# 1 89.5500 41.9945 37.8051 0.0000 5.4993 0.0000
# 2 41.9945 81.2296 35.8244 0.0000 7.7568 0.0000
# 3 37.8051 35.8244 95.0378 0.0003 11.6438 0.0001
# 4 0.0000 0.0000 0.0003 15.2314 0.0000 2.9624
# 5 5.4993 7.7568 11.6438 0.0000 18.8886 0.0000
# 6 0.0000 0.0000 0.0001 2.9624 0.0000 37.2517
#
#
#
# Elastic Compliance Matrix: (Units=1/GPa)
#
#
# Indices 1 2 3 4 5 6 
#
# 1 0.015840 -0.006512 -0.003904 0.000000 0.000469 0.000000
# 2 -0.006512 0.017586 -0.003663 0.000000 -0.003068 0.000000
# 3 -0.003904 -0.003663 0.014205 0.000000 -0.006116 0.000000
# 4 0.000000 0.000000 0.000000 0.066685 0.000000 -0.005303
# 5 0.000469 -0.003068 -0.006116 0.000000 0.057836 0.000000
# 6 0.000000 0.000000 0.000000 -0.005303 0.000000 0.027266
#
#
# Mechanical properties :
#
#
# Convention : Reuss Voigt Hill
#
# Bulk Modulus (GPa) = 51.35118 55.22949 53.29034
# Shear Modulus (GPa) = 21.36148 24.28723 22.82435
#
# Velocity S-wave (km/s) = 3.40383 3.62945 3.51845
# Velocity P-wave (km/s) = 6.58026 6.89342 6.73866
#
# Compressibility (1/GPa) = 0.01947375
#
# Stress axis : x y z
#
# Youngs Moduli (GPa) = 63.13100 56.86418 70.39826
#
# Poissons Ratio (x) = 0.37031 0.27481
# Poissons Ratio (y) = 0.41112 0.25784
# Poissons Ratio (z) = 0.24645 0.20827
#
# Static dielectric constant tensor:
#      x y z
#    x 1.700810 0.000000 0.034190 
#    y 0.000000 1.656920 0.000000 
#    z 0.034190 0.000000 1.647460 
# 
# From -- ./inp_files/306208.got.cif
#   From: 2010.05.17/outbox.cif.g08.bks.cpg/sg12_154_cif.got.tgz:306208.got - 2010.06.03 13:09:07.
