data_PCOD9189813
_publ_section_title
;
Structure prediction by ZEFSAII (Michael W. Deem and Ramdas Pophale) SiO2 
 PCOD9189813
Probable space group: C 2/M
;
_chemical_formula_sum "Si O2"
_cell_formula_units_Z 40
_cell_length_a 16.189122
_cell_length_b 26.819007
_cell_length_c 8.295139
_cell_angle_alpha 90.000000
_cell_angle_beta 147.885610
_cell_angle_gamma 90.000000
_cell_volume 1914.625670
_symmetry_space_group_name_H-M "C 2/M"
_symmetry_group_IT_number 12
_symmetry_cell_setting 'monoclinic'
loop_
_space_group_symop_operation_xyz
x,y,z
-x,y,-z
-x,-y,-z
x,-y,z
1/2+x,1/2+y,z
1/2-x,1/2+y,-z
1/2-x,1/2-y,-z
1/2+x,1/2-y,z
loop_
_atom_site_type_symbol
_atom_site_label
_atom_site_fract_x
_atom_site_fract_y
_atom_site_fract_z
Si Si1 0.364735 0.444498 0.443977
Si Si2 0.181989 0.302889 0.840578
Si Si3 0.910492 0.871840 0.017111
Si Si4 0.177107 0.556434 0.464505
Si Si5 0.101602 0.401968 0.833156
O O1 0.437420 0.500000 0.562032
O O2 0.475373 0.397131 0.662413
O O3 0.251047 0.444299 0.410894
O O4 0.250262 0.436954 0.103334
O O5 0.169544 0.346305 0.953470
O O6 0.000000 0.295220 0.500000
O O7 0.250000 0.250000 0.000000
O O8 0.295074 0.329495 0.895534
O O9 0.805666 0.918329 0.788468
O O10 0.000000 0.855866 0.000000
O O11 0.140494 0.500000 0.452534
O O12 0.022522 0.587855 0.233527
O O13 0.000000 0.407662 0.500000
#
# Coordination Sequence:
#
# PCOD9189813 Si02
#       5
#     8   8   8   8   8
#     4  10  22  37  62  97 134 176 216 253 312 384
#     4  11  25  46  68  91 125 166 213 275 338 376
#     4  10  21  43  67  95 130 169 216 261 314 389
#     4  10  19  38  63  92 134 177 210 255 313 385
#     4  11  22  40  60  91 130 169 217 263 326 375
#
# _framework density 20.891812000000002
#
# number of rings (size 3 to 8) (size 9 to 14) (size 15 to 20)
#    0.000    1.600    4.000    1.800    2.800    5.600 
#    0.000    4.000    0.000    0.000    0.000    0.000 
#    0.000    0.000    0.000    0.000    0.000    0.000 
#
# Total GULP energy -111514.354407 kJ/mol
# GULP energy per Si atom -5575.717720 kJ/mol
# Density = 2.084426 g / cm^3
# Si number density = 20.891812 Si / 1000 Ang^3
#
#
#
# Elastic Constant Matrix: (Units=GPa)
#
#
# Indices 1 2 3 4 5 6 
#
# 1 143.5840 60.2483 28.0345 0.0000 28.7627 0.0000
# 2 60.2483 145.7596 46.5705 0.0000 10.6934 0.0000
# 3 28.0345 46.5705 120.7536 0.0000 1.5941 0.0000
# 4 0.0000 0.0000 0.0000 30.7906 0.0000 13.1353
# 5 28.7627 10.6934 1.5941 0.0000 31.7583 0.0000
# 6 0.0000 0.0000 0.0000 13.1353 0.0000 11.5067
#
#
#
# Elastic Compliance Matrix: (Units=1/GPa)
#
#
# Indices 1 2 3 4 5 6 
#
# 1 0.010146 -0.003291 -0.000980 0.000000 -0.008031 0.000000
# 2 -0.003291 0.009093 -0.002744 0.000000 0.000057 0.000000
# 3 -0.000980 -0.002744 0.009549 0.000000 0.001332 0.000000
# 4 0.000000 0.000000 0.000000 0.063307 0.000000 -0.072267
# 5 -0.008031 0.000057 0.001332 0.000000 0.038676 0.000000
# 6 0.000000 0.000000 0.000000 -0.072267 0.000000 0.169402
#
#
# Mechanical properties :
#
#
# Convention : Reuss Voigt Hill
#
# Bulk Modulus (GPa) = 67.75743 75.53375 71.64559
# Shear Modulus (GPa) = 15.66797 33.16073 24.41435
#
# Velocity S-wave (km/s) = 2.74151 3.98836 3.42220
# Velocity P-wave (km/s) = 6.52105 7.57909 7.06989
#
# Compressibility (1/GPa) = 0.01475853
#
# Stress axis : x y z
#
# Youngs Moduli (GPa) = 98.56284 109.96869 104.71837
#
# Poissons Ratio (x) = 0.36194 0.10264
# Poissons Ratio (y) = 0.32440 0.28731
# Poissons Ratio (z) = 0.09660 0.30172
#
# Static dielectric constant tensor:
#      x y z
#    x 1.811700 0.000000 -0.003510 
#    y 0.000000 1.711710 0.000000 
#    z -0.003510 0.000000 1.856750 
# 
# From -- ./inp_files/79949.got.cif
#   From: 2010.05.17/outbox.cif.g08.bks.cpg/sg12_40_cif.got.tgz:79949.got - 2010.06.03 13:09:07.
