data_PCOD9189567
_publ_section_title
;
Structure prediction by ZEFSAII (Michael W. Deem and Ramdas Pophale) SiO2 
 PCOD9189567
Probable space group: C 2/M
;
_chemical_formula_sum "Si O2"
_cell_formula_units_Z 48
_cell_length_a 11.146248
_cell_length_b 26.875174
_cell_length_c 13.174112
_cell_angle_alpha 90.000000
_cell_angle_beta 35.029986
_cell_angle_gamma 90.000000
_cell_volume 2265.254814
_symmetry_space_group_name_H-M "C 2/M"
_symmetry_group_IT_number 12
_symmetry_cell_setting 'monoclinic'
loop_
_space_group_symop_operation_xyz
x,y,z
-x,y,-z
-x,-y,-z
x,-y,z
1/2+x,1/2+y,z
1/2-x,1/2+y,-z
1/2-x,1/2-y,-z
1/2+x,1/2-y,z
loop_
_atom_site_type_symbol
_atom_site_label
_atom_site_fract_x
_atom_site_fract_y
_atom_site_fract_z
Si Si1 0.668720 0.303265 0.024942
Si Si2 0.383084 0.367157 0.483897
Si Si3 0.982659 0.556770 0.240775
Si Si4 0.784285 0.392908 0.089148
Si Si5 0.279506 0.177088 0.607306
Si Si6 0.270617 0.387833 0.182874
O O1 0.743886 0.341687 0.058141
O O2 0.419869 0.295656 0.207547
O O3 0.750000 0.250000 0.000000
O O4 0.733463 0.334973 0.879135
O O5 0.500000 0.342229 0.500000
O O6 0.207936 0.405290 0.644282
O O7 0.570083 0.397837 0.299656
O O8 0.268379 0.331617 0.479196
O O9 0.916046 0.500000 0.289746
O O10 0.093694 0.576239 0.265329
O O11 0.160098 0.565344 0.032072
O O12 0.000000 0.388313 0.000000
O O13 0.500000 0.196243 0.500000
O O14 0.744703 0.123986 0.318662
O O15 0.500000 0.407996 0.000000
#
# Coordination Sequence:
#
# PCOD9189567 Si02
#       6
#     8   8   8   8   8   8
#     4   9  20  37  64  95 123 162 213 259 319 385
#     4  11  22  40  64  90 124 170 220 265 319 382
#     4  11  23  39  63  93 128 166 214 271 324 387
#     4  10  21  39  62  87 123 169 210 261 324 381
#     4  10  19  37  67  90 123 168 207 262 322 377
#     4   9  19  39  64  88 127 166 205 264 321 381
#
# _framework density 21.189668999999999
#
# number of rings (size 3 to 8) (size 9 to 14) (size 15 to 20)
#    0.000    2.000    3.333    1.000    0.000    3.667 
#    0.000    2.500    7.333    0.000    0.000    0.000 
#    0.000    0.000    0.000    0.000    0.000    0.000 
#
# Total GULP energy -133606.524006 kJ/mol
# GULP energy per Si atom -5566.938500 kJ/mol
# Density = 2.114144 g / cm^3
# Si number density = 21.189669 Si / 1000 Ang^3
#
#
#
# Elastic Constant Matrix: (Units=GPa)
#
#
# Indices 1 2 3 4 5 6 
#
# 1 121.9320 10.4439 5.7708 0.0000 -11.2939 0.0000
# 2 10.4439 47.7656 -1.0667 0.0000 -5.8632 0.0000
# 3 5.7708 -1.0667 76.2645 0.0000 -12.2114 0.0000
# 4 0.0000 0.0000 0.0000 5.8896 0.0000 -8.3952
# 5 -11.2939 -5.8632 -12.2114 0.0000 40.6521 0.0000
# 6 0.0000 0.0000 0.0000 -8.3952 0.0000 5.8872
#
#
#
# Elastic Compliance Matrix: (Units=1/GPa)
#
#
# Indices 1 2 3 4 5 6 
#
# 1 0.008545 -0.001626 -0.000343 0.000000 0.002036 0.000000
# 2 -0.001626 0.021673 0.000898 0.000000 0.002944 0.000000
# 3 -0.000343 0.000898 0.013821 0.000000 0.004186 0.000000
# 4 0.000000 0.000000 0.000000 -0.164417 0.000000 -0.234460
# 5 0.002036 0.002944 0.004186 0.000000 0.026847 0.000000
# 6 0.000000 0.000000 0.000000 -0.234460 0.000000 -0.164483
#
#
# Mechanical properties :
#
#
# Convention : Reuss Voigt Hill
#
# Bulk Modulus (GPa) = 23.86915 30.69534 27.28225
# Shear Modulus (GPa) = -20.66927 25.87337 2.60205
#
# Velocity S-wave (km/s) = -3.12659 3.49812 1.10935
# Velocity P-wave (km/s) = 1.32104 5.55277 3.81367
#
# Compressibility (1/GPa) = 0.04189508
#
# Stress axis : x y z
#
# Youngs Moduli (GPa) = 117.02135 46.14141 72.35365
#
# Poissons Ratio (x) = 0.07503 0.02484
# Poissons Ratio (y) = 0.19030 -0.06494
# Poissons Ratio (z) = 0.04017 -0.04141
#
# Static dielectric constant tensor:
#      x y z
#    x 1.907930 0.000000 0.040650 
#    y 0.000000 1.859000 0.000000 
#    z 0.040650 0.000000 1.852270 
# 
# From -- ./inp_files/209295.got.cif
#   From: 2010.05.17/outbox.cif.g08.bks.cpg/sg12_105_cif.got.tgz:209295.got - 2010.06.03 13:09:07.
