data_PCOD9189971
_publ_section_title
;
Structure prediction by ZEFSAII (Michael W. Deem and Ramdas Pophale) SiO2 
 PCOD9189971
Probable space group: C 2/M
;
_chemical_formula_sum "Si O2"
_cell_formula_units_Z 40
_cell_length_a 9.163666
_cell_length_b 21.589590
_cell_length_c 16.626407
_cell_angle_alpha 90.000000
_cell_angle_beta 137.171752
_cell_angle_gamma 90.000000
_cell_volume 2236.120014
_symmetry_space_group_name_H-M "C 2/M"
_symmetry_group_IT_number 12
_symmetry_cell_setting 'monoclinic'
loop_
_space_group_symop_operation_xyz
x,y,z
-x,y,-z
-x,-y,-z
x,-y,z
1/2+x,1/2+y,z
1/2-x,1/2+y,-z
1/2-x,1/2-y,-z
1/2+x,1/2-y,z
loop_
_atom_site_type_symbol
_atom_site_label
_atom_site_fract_x
_atom_site_fract_y
_atom_site_fract_z
Si Si1 0.823359 0.668469 0.842451
Si Si2 0.839544 0.103902 0.366063
Si Si3 0.434895 0.500000 0.827466
Si Si4 0.708607 0.622089 0.959720
Si Si5 0.106863 0.000000 0.382795
Si Si6 0.500000 0.714300 0.000000
Si Si7 0.436611 0.000000 0.658606
O O1 0.738424 0.660141 0.719293
O O2 0.670832 0.646993 0.853680
O O3 0.032351 0.622841 0.929123
O O4 0.886917 0.737687 0.893245
O O5 0.000000 0.124434 0.500000
O O6 0.659101 0.060315 0.334277
O O7 0.972925 0.058735 0.360928
O O8 0.575124 0.559219 0.911337
O O9 0.396740 0.500000 0.715008
O O10 0.193114 0.500000 0.763879
O O11 0.640950 0.670354 0.000925
O O12 0.328685 0.000000 0.524976
#
# Coordination Sequence:
#
# PCOD9189971 Si02
#       7
#     8   8   4   8   4   4   4
#     4  10  19  39  61  77 111 152 186 228 268 338
#     4   9  18  35  59  84 107 149 194 222 268 337
#     4  12  21  34  54  89 120 140 180 244 274 330
#     4  10  23  35  57  86 109 150 184 225 286 334
#     4   9  17  36  54  77 119 151 186 216 280 342
#     4  10  22  41  56  79 112 150 188 226 288 326
#     4   9  21  32  52  83 122 156 169 227 284 331
#
# _framework density 17.888126
#
# number of rings (size 3 to 8) (size 9 to 14) (size 15 to 20)
#    0.000    2.400    2.000    3.900    2.800    3.600 
#    0.000    0.000    0.000    7.200    0.000    0.000 
#    0.000    0.000    0.000    0.000    0.000    0.000 
#
# Total GULP energy -111355.094521 kJ/mol
# GULP energy per Si atom -5567.754726 kJ/mol
# Density = 1.784741 g / cm^3
# Si number density = 17.888126 Si / 1000 Ang^3
#
#
#
# Elastic Constant Matrix: (Units=GPa)
#
#
# Indices 1 2 3 4 5 6 
#
# 1 93.5112 38.7621 56.8383 0.0000 0.7895 0.0000
# 2 38.7621 90.0482 49.4795 0.0000 -1.2209 0.0000
# 3 56.8383 49.4795 76.4534 -0.0001 -17.0404 -0.0001
# 4 0.0000 0.0000 -0.0001 61.3501 0.0000 -8.3908
# 5 0.7895 -1.2209 -17.0404 0.0000 35.1709 0.0000
# 6 0.0000 0.0000 -0.0001 -8.3908 0.0000 18.9786
#
#
#
# Elastic Compliance Matrix: (Units=1/GPa)
#
#
# Indices 1 2 3 4 5 6 
#
# 1 0.022030 0.000894 -0.019125 0.000000 -0.009730 0.000000
# 2 0.000894 0.018231 -0.013819 0.000000 -0.006083 0.000000
# 3 -0.019125 -0.013819 0.040617 0.000000 0.019629 0.000000
# 4 0.000000 0.000000 0.000000 0.017349 0.000000 0.007670
# 5 -0.009730 -0.006083 0.019629 0.000000 0.037950 0.000000
# 6 0.000000 0.000000 0.000000 0.007670 0.000000 0.056082
#
#
# Mechanical properties :
#
#
# Convention : Reuss Voigt Hill
#
# Bulk Modulus (GPa) = 59.60511 61.13027 60.36769
# Shear Modulus (GPa) = 19.08732 30.76211 24.92472
#
# Velocity S-wave (km/s) = 3.27010 4.15142 3.73683
# Velocity P-wave (km/s) = 6.90300 7.56484 7.24149
#
# Compressibility (1/GPa) = 0.01677708
#
# Stress axis : x y z
#
# Youngs Moduli (GPa) = 45.39189 54.85060 24.62022
#
# Poissons Ratio (x) = -0.04903 0.47087
# Poissons Ratio (y) = -0.04057 0.34024
# Poissons Ratio (z) = 0.86814 0.75800
#
# Static dielectric constant tensor:
#      x y z
#    x 1.637120 0.000000 -0.003880 
#    y 0.000000 1.593470 0.000000 
#    z -0.003880 0.000000 1.652230 
# 
# From -- ./inp_files/120368.got.cif
#   From: 2010.05.17/outbox.cif.g08.bks.cpg/sg12_61_cif.got.tgz:120368.got - 2010.06.03 13:09:07.
