data_PCOD9189737
_publ_section_title
;
Structure prediction by ZEFSAII (Michael W. Deem and Ramdas Pophale) SiO2 
 PCOD9189737
Probable space group: C 2/M
;
_chemical_formula_sum "Si O2"
_cell_formula_units_Z 52
_cell_length_a 21.818078
_cell_length_b 27.249239
_cell_length_c 6.644990
_cell_angle_alpha 90.000000
_cell_angle_beta 43.862004
_cell_angle_gamma 90.000000
_cell_volume 2737.478408
_symmetry_space_group_name_H-M "C 2/M"
_symmetry_group_IT_number 12
_symmetry_cell_setting 'monoclinic'
loop_
_space_group_symop_operation_xyz
x,y,z
-x,y,-z
-x,-y,-z
x,-y,z
1/2+x,1/2+y,z
1/2-x,1/2+y,-z
1/2-x,1/2-y,-z
1/2+x,1/2-y,z
loop_
_atom_site_type_symbol
_atom_site_label
_atom_site_fract_x
_atom_site_fract_y
_atom_site_fract_z
Si Si1 0.093981 0.123048 0.870270
Si Si2 0.222604 0.057592 0.298203
Si Si3 0.000000 0.365022 0.000000
Si Si4 0.305822 0.298274 0.589470
Si Si5 0.679147 0.367711 0.065992
Si Si6 0.319459 0.185520 0.466739
Si Si7 0.933752 0.555118 0.846515
O O1 0.169033 0.086818 0.599089
O O2 0.119376 0.177328 0.729342
O O3 0.098887 0.125614 0.099713
O O4 0.000000 0.108777 0.000000
O O5 0.202166 0.000000 0.355489
O O6 0.193061 0.083329 0.161238
O O7 0.329204 0.062876 0.053995
O O8 0.081112 0.331212 0.747846
O O9 0.965985 0.401334 0.909281
O O10 0.308086 0.239861 0.584411
O O11 0.215823 0.312434 0.681006
O O12 0.321028 0.324377 0.766980
O O13 0.759660 0.353098 0.729115
O O14 0.940675 0.500000 0.919968
O O15 0.000000 0.555381 0.500000
#
# Coordination Sequence:
#
# PCOD9189737 Si02
#       7
#     8   8   4   8   8   8   8
#     4  10  22  38  60  84 118 151 195 246 297 350
#     4  10  22  39  59  85 117 153 196 242 298 359
#     4  12  21  32  56  86 116 146 187 238 290 342
#     4   9  20  38  57  79 114 154 196 237 294 350
#     4  10  19  38  62  80 109 156 195 239 295 350
#     4  10  21  35  56  84 117 150 192 246 291 350
#     4  10  21  37  56  81 116 154 193 239 289 348
#
# _framework density 18.995584999999998
#
# number of rings (size 3 to 8) (size 9 to 14) (size 15 to 20)
#    0.000    2.000    0.000    4.385    1.077    3.385 
#    0.000    4.615    6.769    0.000    0.000    0.000 
#    0.000    0.000    0.000    0.000    0.000    0.000 
#
# Total GULP energy -144969.479633 kJ/mol
# GULP energy per Si atom -5575.749217 kJ/mol
# Density = 1.895235 g / cm^3
# Si number density = 18.995585 Si / 1000 Ang^3
#
#
#
# Elastic Constant Matrix: (Units=GPa)
#
#
# Indices 1 2 3 4 5 6 
#
# 1 127.9442 30.6500 36.2064 0.0000 12.1507 0.0000
# 2 30.6500 73.0934 5.1483 0.0000 2.6737 0.0000
# 3 36.2064 5.1483 38.1184 0.0000 4.4011 0.0000
# 4 0.0000 0.0000 0.0000 12.7968 0.0000 -13.1357
# 5 12.1507 2.6737 4.4011 0.0000 30.5114 0.0000
# 6 0.0000 0.0000 0.0000 -13.1357 0.0000 17.4858
#
#
#
# Elastic Compliance Matrix: (Units=1/GPa)
#
#
# Indices 1 2 3 4 5 6 
#
# 1 0.012100 -0.004221 -0.010586 0.000000 -0.002922 0.000000
# 2 -0.004221 0.015313 0.001935 0.000000 0.000060 0.000000
# 3 -0.010586 0.001935 0.036163 0.000000 -0.001170 0.000000
# 4 0.000000 0.000000 0.000000 0.341417 0.000000 0.256480
# 5 -0.002922 0.000060 -0.001170 0.000000 0.034102 0.000000
# 6 0.000000 0.000000 0.000000 0.256480 0.000000 0.249863
#
#
# Mechanical properties :
#
#
# Convention : Reuss Voigt Hill
#
# Bulk Modulus (GPa) = 26.43372 42.57393 34.50382
# Shear Modulus (GPa) = 6.87462 23.30223 15.08842
#
# Velocity S-wave (km/s) = 1.90445 3.50625 2.82141
# Velocity P-wave (km/s) = 4.33380 6.23321 5.36818
#
# Compressibility (1/GPa) = 0.03783047
#
# Stress axis : x y z
#
# Youngs Moduli (GPa) = 82.64239 65.30468 27.65274
#
# Poissons Ratio (x) = 0.27568 0.29273
# Poissons Ratio (y) = 0.34887 -0.05350
# Poissons Ratio (z) = 0.87484 -0.12634
#
# Static dielectric constant tensor:
#      x y z
#    x 1.692220 0.000000 -0.001480 
#    y 0.000000 1.653160 0.000000 
#    z -0.001480 0.000000 1.692920 
# 
# From -- ./inp_files/22418.got.cif
#   From: 2010.05.17/outbox.cif.g08.bks.cpg/sg12_12_cif.got.tgz:22418.got - 2010.06.03 13:09:07.
