data_PCOD9189009
_publ_section_title
;
Structure prediction by ZEFSAII (Michael W. Deem and Ramdas Pophale) SiO2 
 PCOD9189009
Probable space group: C 2/M
;
_chemical_formula_sum "Si O2"
_cell_formula_units_Z 64
_cell_length_a 19.040883
_cell_length_b 15.005321
_cell_length_c 17.047225
_cell_angle_alpha 90.000000
_cell_angle_beta 148.685981
_cell_angle_gamma 90.000000
_cell_volume 2531.408998
_symmetry_space_group_name_H-M "C 2/M"
_symmetry_group_IT_number 12
_symmetry_cell_setting 'monoclinic'
loop_
_space_group_symop_operation_xyz
x,y,z
-x,y,-z
-x,-y,-z
x,-y,z
1/2+x,1/2+y,z
1/2-x,1/2+y,-z
1/2-x,1/2-y,-z
1/2+x,1/2-y,z
loop_
_atom_site_type_symbol
_atom_site_label
_atom_site_fract_x
_atom_site_fract_y
_atom_site_fract_z
Si Si1 0.646781 0.142709 0.109759
Si Si2 0.175920 0.156310 0.115673
Si Si3 0.584977 0.108928 0.336117
Si Si4 0.997570 0.890058 0.272184
Si Si5 0.975072 0.392174 0.388537
Si Si6 0.801484 0.108145 0.412443
Si Si7 0.795697 0.400126 0.004848
Si Si8 0.603507 0.399856 0.214320
O O1 0.631136 0.242628 0.063251
O O2 0.752100 0.141706 0.281645
O O3 0.698777 0.091751 0.083931
O O4 0.500000 0.110961 0.000000
O O5 0.322140 0.135565 0.220943
O O6 0.178976 0.142017 0.212737
O O7 0.054105 0.098950 0.963855
O O8 0.582887 0.136030 0.425339
O O9 0.693841 0.136899 0.376165
O O10 0.590783 0.000000 0.340042
O O11 0.437969 0.139085 0.165859
O O12 0.055983 0.865419 0.412888
O O13 0.094457 0.861401 0.293140
O O14 0.847106 0.855859 0.113364
O O15 0.995318 0.000000 0.267629
O O16 0.977034 0.500000 0.392867
O O17 0.000000 0.358251 0.500000
O O18 0.799206 0.000000 0.404784
O O19 0.792453 0.500000 0.036502
O O20 0.656874 0.500000 0.272176
#
# Coordination Sequence:
#
# PCOD9189009 Si02
#       8
#     8   8   8   8   8   8   8   8
#     4  12  23  40  59  82 120 160 199 243 289 349
#     4  11  22  38  56  84 121 155 194 241 286 348
#     4   9  18  33  58  90 117 146 189 244 293 342
#     4   9  20  37  60  92 117 142 193 257 298 347
#     4  10  21  37  60  87 118 153 194 241 293 351
#     4  10  21  38  63  90 118 154 199 245 297 352
#     4  10  20  37  63  88 114 150 199 248 294 344
#     4  10  19  36  65  87 110 147 192 241 299 348
#
# _framework density 25.282363
#
# number of rings (size 3 to 8) (size 9 to 14) (size 15 to 20)
#    0.000    1.875    2.500    2.625    1.750    3.000 
#    2.250    6.250    0.000    0.000    0.000    0.000 
#    0.000    0.000    0.000    0.000    0.000    0.000 
#
# Total GULP energy -178983.881699 kJ/mol
# GULP energy per Si atom -5593.246303 kJ/mol
# Density = 2.522482 g / cm^3
# Si number density = 25.282363 Si / 1000 Ang^3
#
#
#
# Elastic Constant Matrix: (Units=GPa)
#
#
# Indices 1 2 3 4 5 6 
#
# 1 83.8268 -4.7729 -3.6798 0.0002 -11.1545 0.0000
# 2 -4.7729 57.7754 -10.9338 0.0002 1.1417 0.0000
# 3 -3.6798 -10.9338 90.8109 0.0003 -14.3264 0.0000
# 4 0.0002 0.0002 0.0003 -31.7528 0.0002 23.6664
# 5 -11.1545 1.1417 -14.3264 0.0002 50.8154 0.0000
# 6 0.0000 0.0000 0.0000 23.6664 0.0000 -8.5251
#
#
#
# Elastic Compliance Matrix: (Units=1/GPa)
#
#
# Indices 1 2 3 4 5 6 
#
# 1 0.012448 0.001181 0.001124 0.000000 0.003023 0.000000
# 2 0.001181 0.017826 0.002273 0.000000 0.000500 0.000000
# 3 0.001124 0.002273 0.011891 0.000000 0.003548 0.000000
# 4 0.000000 0.000000 0.000000 0.029458 0.000000 0.081777
# 5 0.003023 0.000500 0.003548 0.000000 0.021332 0.000000
# 6 0.000000 0.000000 0.000000 0.081777 0.000000 0.109719
#
#
# Mechanical properties :
#
#
# Convention : Reuss Voigt Hill
#
# Bulk Modulus (GPa) = 19.48530 21.51557 20.50043
# Shear Modulus (GPa) = 23.73890 18.89416 21.31653
#
# Velocity S-wave (km/s) = 3.06756 2.73669 2.90683
# Velocity P-wave (km/s) = 4.50226 4.30285 4.40369
#
# Compressibility (1/GPa) = 0.05132074
#
# Stress axis : x y z
#
# Youngs Moduli (GPa) = 80.33322 56.09701 84.09849
#
# Poissons Ratio (x) = -0.06626 -0.09449
# Poissons Ratio (y) = -0.09489 -0.19116
# Poissons Ratio (z) = -0.09026 -0.12751
#
# Static dielectric constant tensor:
#      x y z
#    x 1.979140 0.000000 -0.011640 
#    y 0.000000 2.009190 0.000000 
#    z -0.011640 0.000000 2.009410 
# 
# From -- ./inp_files/285242.got.cif
#   From: 2010.05.17/outbox.cif.g08.bks.cpg/sg12_143_cif.got.tgz:285242.got - 2010.06.03 13:09:07.
