data_PCOD9189733
_publ_section_title
;
Structure prediction by ZEFSAII (Michael W. Deem and Ramdas Pophale) SiO2 
 PCOD9189733
Probable space group: C 2/M
;
_chemical_formula_sum "Si O2"
_cell_formula_units_Z 48
_cell_length_a 8.853910
_cell_length_b 27.106211
_cell_length_c 9.665010
_cell_angle_alpha 90.000000
_cell_angle_beta 86.499552
_cell_angle_gamma 90.000000
_cell_volume 2315.235722
_symmetry_space_group_name_H-M "C 2/M"
_symmetry_group_IT_number 12
_symmetry_cell_setting 'monoclinic'
loop_
_space_group_symop_operation_xyz
x,y,z
-x,y,-z
-x,-y,-z
x,-y,z
1/2+x,1/2+y,z
1/2-x,1/2+y,-z
1/2-x,1/2-y,-z
1/2+x,1/2-y,z
loop_
_atom_site_type_symbol
_atom_site_label
_atom_site_fract_x
_atom_site_fract_y
_atom_site_fract_z
Si Si1 0.844057 0.886571 0.780485
Si Si2 0.822420 0.556959 0.978529
Si Si3 0.646187 0.818388 0.420156
Si Si4 0.160868 0.554075 0.569949
Si Si5 0.815088 0.087211 0.299013
Si Si6 0.378381 0.288346 0.628907
O O1 0.778799 0.904416 0.929865
O O2 0.718159 0.906336 0.678279
O O3 0.875478 0.828685 0.749742
O O4 0.007700 0.910999 0.744328
O O5 0.786718 0.500000 0.017746
O O6 0.781393 0.564921 0.820785
O O7 0.000000 0.564995 0.000000
O O8 0.500000 0.841583 0.500000
O O9 0.747383 0.858173 0.336259
O O10 0.609184 0.769260 0.333671
O O11 0.726706 0.797082 0.551833
O O12 0.161542 0.500000 0.637476
O O13 0.283020 0.557784 0.440650
O O14 0.000000 0.558302 0.500000
O O15 0.500000 0.299351 0.500000
#
# Coordination Sequence:
#
# PCOD9189733 Si02
#       6
#     8   8   8   8   8   8
#     4  12  23  40  64  92 125 160 207 259 313 369
#     4  11  27  47  64  85 122 169 213 259 316 380
#     4  10  21  35  64  96 130 166 203 248 309 371
#     4  11  23  38  60  90 122 156 204 259 310 371
#     4  12  23  40  62  94 124 161 210 257 312 368
#     4  10  19  38  61  97 132 162 200 252 312 371
#
# _framework density 20.732229
#
# number of rings (size 3 to 8) (size 9 to 14) (size 15 to 20)
#    0.000    1.000    3.333    3.500    2.333    6.667 
#    0.000    0.833    0.000    0.000    0.000    0.000 
#    0.000    0.000    0.000    0.000    0.000    0.000 
#
# Total GULP energy -133918.910266 kJ/mol
# GULP energy per Si atom -5579.954594 kJ/mol
# Density = 2.068504 g / cm^3
# Si number density = 20.732229 Si / 1000 Ang^3
#
#
#
# Elastic Constant Matrix: (Units=GPa)
#
#
# Indices 1 2 3 4 5 6 
#
# 1 73.7712 0.8036 -16.9904 0.0000 -3.3336 0.0000
# 2 0.8036 129.7661 1.3665 0.0000 -11.8528 0.0000
# 3 -16.9904 1.3665 48.7195 0.0000 -0.4051 0.0000
# 4 0.0000 0.0000 0.0000 11.8078 0.0000 12.0275
# 5 -3.3336 -11.8528 -0.4051 0.0000 33.7289 0.0000
# 6 0.0000 0.0000 0.0000 12.0275 0.0000 -8.7655
#
#
#
# Elastic Compliance Matrix: (Units=1/GPa)
#
#
# Indices 1 2 3 4 5 6 
#
# 1 0.014817 -0.000007 0.005180 0.000000 0.001524 0.000000
# 2 -0.000007 0.007964 -0.000203 0.000000 0.002795 0.000000
# 3 0.005180 -0.000203 0.022344 0.000000 0.000709 0.000000
# 4 0.000000 0.000000 0.000000 0.035321 0.000000 0.048466
# 5 0.001524 0.002795 0.000709 0.000000 0.030790 0.000000
# 6 0.000000 0.000000 0.000000 0.048466 0.000000 -0.047581
#
#
# Mechanical properties :
#
#
# Convention : Reuss Voigt Hill
#
# Bulk Modulus (GPa) = 18.15998 24.73515 21.44756
# Shear Modulus (GPa) = 69.37754 25.15939 47.26846
#
# Velocity S-wave (km/s) = 5.79105 3.48737 4.78006
# Velocity P-wave (km/s) = 7.31391 5.30776 6.39006
#
# Compressibility (1/GPa) = 0.05506615
#
# Stress axis : x y z
#
# Youngs Moduli (GPa) = 67.48794 125.57004 44.75515
#
# Poissons Ratio (x) = 0.00089 -0.23185
# Poissons Ratio (y) = 0.00048 0.00907
# Poissons Ratio (z) = -0.34961 0.02544
#
# Static dielectric constant tensor:
#      x y z
#    x 1.818250 0.000000 0.009570 
#    y 0.000000 1.837080 0.000000 
#    z 0.009570 0.000000 1.704340 
# 
# From -- ./inp_files/42137.got.cif
#   From: 2010.05.17/outbox.cif.g08.bks.cpg/sg12_22_cif.got.tgz:42137.got - 2010.06.03 13:09:07.
