data_PCOD9189320
_publ_section_title
;
Structure prediction by ZEFSAII (Michael W. Deem and Ramdas Pophale) SiO2 
 PCOD9189320
Probable space group: C 2/M
;
_chemical_formula_sum "Si O2"
_cell_formula_units_Z 60
_cell_length_a 22.072329
_cell_length_b 27.477769
_cell_length_c 5.442781
_cell_angle_alpha 90.000000
_cell_angle_beta 113.370591
_cell_angle_gamma 90.000000
_cell_volume 3030.215169
_symmetry_space_group_name_H-M "C 2/M"
_symmetry_group_IT_number 12
_symmetry_cell_setting 'monoclinic'
loop_
_space_group_symop_operation_xyz
x,y,z
-x,y,-z
-x,-y,-z
x,-y,z
1/2+x,1/2+y,z
1/2-x,1/2+y,-z
1/2-x,1/2-y,-z
1/2+x,1/2-y,z
loop_
_atom_site_type_symbol
_atom_site_label
_atom_site_fract_x
_atom_site_fract_y
_atom_site_fract_z
Si Si1 0.792627 0.823054 0.971802
Si Si2 0.824622 0.637074 0.554079
Si Si3 0.324528 0.216433 0.919159
Si Si4 0.075911 0.352280 0.668255
Si Si5 0.341944 0.575858 0.025915
Si Si6 0.043058 0.552426 0.822887
Si Si7 0.457757 0.500000 0.184260
Si Si8 0.238998 0.945435 0.607714
O O1 0.735861 0.849320 0.722888
O O2 0.822098 0.774169 0.903663
O O3 0.749592 0.802735 0.131925
O O4 0.845409 0.866027 0.080898
O O5 0.842088 0.688406 0.702492
O O6 0.887928 0.621872 0.501937
O O7 0.794598 0.595964 0.681270
O O8 0.378620 0.193824 0.191282
O O9 0.077674 0.394990 0.873690
O O10 0.000000 0.338849 0.500000
O O11 0.410110 0.547007 0.121512
O O12 0.299813 0.558301 0.196223
O O13 0.306972 0.563816 0.707323
O O14 0.079964 0.500000 0.874090
O O15 0.000000 0.553346 0.500000
O O16 0.000000 0.551335 0.000000
O O17 0.500000 0.500000 0.500000
O O18 0.500000 0.500000 0.000000
O O19 0.265658 0.000000 0.626884
#
# Coordination Sequence:
#
# PCOD9189320 Si02
#       8
#     8   8   8   8   8   8   4   8
#     4   9  20  37  61  90 119 151 206 265 316 366
#     4  10  21  35  59  90 120 157 209 258 315 377
#     4  10  19  37  61  88 116 155 207 260 320 366
#     4  10  23  37  56  82 120 164 205 248 308 377
#     4  11  21  40  64  92 125 169 202 252 316 371
#     4   9  19  36  57  78 106 155 207 242 284 349
#     4  12  24  40  66  96 134 174 213 247 309 395
#     4  11  20  37  62  95 124 158 203 261 316 361
#
# _framework density 19.800571999999999
#
# number of rings (size 3 to 8) (size 9 to 14) (size 15 to 20)
#    0.000    1.867    2.667    1.200    3.733    0.533 
#    0.000    1.333    2.933    0.000    0.000    0.000 
#    0.000    0.000    0.000    0.000    0.000    0.000 
#
# Total GULP energy -167136.292764 kJ/mol
# GULP energy per Si atom -5571.209759 kJ/mol
# Density = 1.975551 g / cm^3
# Si number density = 19.800572 Si / 1000 Ang^3
#
#
#
# Elastic Constant Matrix: (Units=GPa)
#
#
# Indices 1 2 3 4 5 6 
#
# 1 114.9910 45.8521 37.4550 0.0000 -7.5898 0.0000
# 2 45.8521 140.1126 -8.7003 0.0000 -9.5973 0.0000
# 3 37.4550 -8.7003 82.2422 0.0000 -12.0294 0.0000
# 4 0.0000 0.0000 0.0000 137.8721 0.0000 30.6423
# 5 -7.5898 -9.5973 -12.0294 0.0000 35.9366 0.0000
# 6 0.0000 0.0000 0.0000 30.6423 0.0000 8.1647
#
#
#
# Elastic Compliance Matrix: (Units=1/GPa)
#
#
# Indices 1 2 3 4 5 6 
#
# 1 0.012498 -0.004525 -0.006268 0.000000 -0.000667 0.000000
# 2 -0.004525 0.009006 0.003392 0.000000 0.002585 0.000000
# 3 -0.006268 0.003392 0.016100 0.000000 0.004971 0.000000
# 4 0.000000 0.000000 0.000000 0.043723 0.000000 -0.164094
# 5 -0.000667 0.002585 0.004971 0.000000 0.030040 0.000000
# 6 0.000000 0.000000 0.000000 -0.164094 0.000000 0.738324
#
#
# Mechanical properties :
#
#
# Convention : Reuss Voigt Hill
#
# Bulk Modulus (GPa) = 43.85931 54.06217 48.96074
# Shear Modulus (GPa) = 5.73332 53.91060 29.82196
#
# Velocity S-wave (km/s) = 1.70347 5.22359 3.88508
# Velocity P-wave (km/s) = 5.10565 7.98397 6.70118
#
# Compressibility (1/GPa) = 0.02280018
#
# Stress axis : x y z
#
# Youngs Moduli (GPa) = 80.01047 111.04219 62.11241
#
# Poissons Ratio (x) = 0.50247 0.38934
# Poissons Ratio (y) = 0.36205 -0.21066
# Poissons Ratio (z) = 0.50153 -0.37660
#
# Static dielectric constant tensor:
#      x y z
#    x 1.724270 0.000000 0.020050 
#    y 0.000000 1.759030 0.000000 
#    z 0.020050 0.000000 1.789460 
# 
# From -- ./inp_files/22346.got.cif
#   From: 2010.05.17/outbox.cif.g08.bks.cpg/sg12_12_cif.got.tgz:22346.got - 2010.06.03 13:09:07.
