data_PCOD9189675
_publ_section_title
;
Structure prediction by ZEFSAII (Michael W. Deem and Ramdas Pophale) SiO2 
 PCOD9189675
Probable space group: C 2/M
;
_chemical_formula_sum "Si O2"
_cell_formula_units_Z 40
_cell_length_a 8.123608
_cell_length_b 21.494569
_cell_length_c 16.979827
_cell_angle_alpha 90.000000
_cell_angle_beta 136.625130
_cell_angle_gamma 90.000000
_cell_volume 2036.204991
_symmetry_space_group_name_H-M "C 2/M"
_symmetry_group_IT_number 12
_symmetry_cell_setting 'monoclinic'
loop_
_space_group_symop_operation_xyz
x,y,z
-x,y,-z
-x,-y,-z
x,-y,z
1/2+x,1/2+y,z
1/2-x,1/2+y,-z
1/2-x,1/2-y,-z
1/2+x,1/2-y,z
loop_
_atom_site_type_symbol
_atom_site_label
_atom_site_fract_x
_atom_site_fract_y
_atom_site_fract_z
Si Si1 0.143348 0.337806 0.128136
Si Si2 0.969453 0.427849 0.774936
Si Si3 0.593415 0.177181 0.367701
Si Si4 0.500000 0.226690 0.500000
Si Si5 0.461321 0.293146 0.844834
Si Si6 0.000000 0.884609 0.000000
O O1 0.154368 0.392278 0.195133
O O2 0.396967 0.313200 0.183632
O O3 0.010523 0.278553 0.121315
O O4 0.000000 0.357086 0.000000
O O5 0.909082 0.500000 0.748715
O O6 0.891656 0.389160 0.670159
O O7 0.256895 0.421042 0.892614
O O8 0.607974 0.184962 0.467340
O O9 0.788353 0.225453 0.400926
O O10 0.321500 0.196967 0.257778
O O11 0.548012 0.339358 0.943398
#
# Coordination Sequence:
#
# PCOD9189675 Si02
#       6
#     8   8   8   4   8   4
#     4  12  21  33  54  86 125 160 196 234 284 341
#     4  11  24  40  56  84 123 167 198 229 281 357
#     4  10  22  38  66  90 119 147 191 248 306 358
#     4  10  20  42  66  96 112 140 190 264 322 336
#     4  11  20  35  59  92 118 152 192 247 301 342
#     4  10  19  38  60  82 121 154 196 240 282 344
#
# _framework density 19.644386999999998
#
# number of rings (size 3 to 8) (size 9 to 14) (size 15 to 20)
#    0.000    1.200    3.000    5.700    0.000    2.000 
#    0.000    2.000    0.000    0.000    0.000    0.000 
#    0.000    0.000    0.000    0.000    0.000    0.000 
#
# Total GULP energy -111665.498940 kJ/mol
# GULP energy per Si atom -5583.274947 kJ/mol
# Density = 1.959968 g / cm^3
# Si number density = 19.644387 Si / 1000 Ang^3
#
#
#
# Elastic Constant Matrix: (Units=GPa)
#
#
# Indices 1 2 3 4 5 6 
#
# 1 129.0750 77.9492 22.9590 0.0000 -0.9011 0.0000
# 2 77.9492 169.8810 44.8180 0.0000 -30.9878 0.0000
# 3 22.9590 44.8180 42.1898 0.0000 -1.7540 0.0000
# 4 0.0000 0.0000 0.0000 12.7776 0.0000 12.1213
# 5 -0.9011 -30.9878 -1.7540 0.0000 36.0487 0.0000
# 6 0.0000 0.0000 0.0000 12.1213 0.0000 3.4844
#
#
#
# Elastic Compliance Matrix: (Units=1/GPa)
#
#
# Indices 1 2 3 4 5 6 
#
# 1 0.011433 -0.006210 0.000165 0.000000 -0.005044 0.000000
# 2 -0.006210 0.013505 -0.010512 0.000000 0.010942 0.000000
# 3 0.000165 -0.010512 0.034474 0.000000 -0.007355 0.000000
# 4 0.000000 0.000000 0.000000 -0.034026 0.000000 0.118368
# 5 -0.005044 0.010942 -0.007355 0.000000 0.036662 0.000000
# 6 0.000000 0.000000 0.000000 0.118368 0.000000 -0.124777
#
#
# Mechanical properties :
#
#
# Convention : Reuss Voigt Hill
#
# Bulk Modulus (GPa) = 38.02515 70.28869 54.15692
# Shear Modulus (GPa) = -239.80857 23.49013 -108.15922
#
# Velocity S-wave (km/s) = -11.06074 3.46174 -7.42820
# Velocity P-wave (km/s) = 11.98837 7.19975 6.77808
#
# Compressibility (1/GPa) = 0.02629838
#
# Stress axis : x y z
#
# Youngs Moduli (GPa) = 87.46748 74.04657 29.00740
#
# Poissons Ratio (x) = 0.45979 -0.00479
# Poissons Ratio (y) = 0.54313 0.30493
# Poissons Ratio (z) = -0.01444 0.77840
#
# Static dielectric constant tensor:
#      x y z
#    x 1.731790 0.000000 -0.007030 
#    y 0.000000 1.640970 0.000000 
#    z -0.007030 0.000000 1.770500 
# 
# From -- ./inp_files/257872.got.cif
#   From: 2010.05.17/outbox.cif.g08.bks.cpg/sg12_129_cif.got.tgz:257872.got - 2010.06.03 13:09:07.
