data_PCOD9189703
_publ_section_title
;
Structure prediction by ZEFSAII (Michael W. Deem and Ramdas Pophale) SiO2 
 PCOD9189703
Probable space group: C 2/M
;
_chemical_formula_sum "Si O2"
_cell_formula_units_Z 48
_cell_length_a 9.809634
_cell_length_b 28.776677
_cell_length_c 7.562825
_cell_angle_alpha 90.000000
_cell_angle_beta 104.924804
_cell_angle_gamma 90.000000
_cell_volume 2062.878261
_symmetry_space_group_name_H-M "C 2/M"
_symmetry_group_IT_number 12
_symmetry_cell_setting 'monoclinic'
loop_
_space_group_symop_operation_xyz
x,y,z
-x,y,-z
-x,-y,-z
x,-y,z
1/2+x,1/2+y,z
1/2-x,1/2+y,-z
1/2-x,1/2-y,-z
1/2+x,1/2-y,z
loop_
_atom_site_type_symbol
_atom_site_label
_atom_site_fract_x
_atom_site_fract_y
_atom_site_fract_z
Si Si1 0.450738 0.550521 0.687344
Si Si2 0.871306 0.446789 0.318180
Si Si3 0.173501 0.689632 0.334306
Si Si4 0.566613 0.644412 0.720681
Si Si5 0.594704 0.148383 0.857000
Si Si6 0.672046 0.293389 0.238666
O O1 0.500000 0.548351 0.500000
O O2 0.482825 0.500000 0.777951
O O3 0.282252 0.558037 0.640768
O O4 0.530293 0.594844 0.792822
O O5 0.879640 0.500000 0.251753
O O6 0.879179 0.405352 0.180088
O O7 0.000000 0.441341 0.500000
O O8 0.270602 0.653763 0.258441
O O9 0.251759 0.697811 0.546257
O O10 0.167159 0.738010 0.224569
O O11 0.019476 0.670183 0.315430
O O12 0.500000 0.643841 0.500000
O O13 0.483523 0.685123 0.792370
O O14 0.735452 0.178443 0.871902
O O15 0.500000 0.153295 0.000000
#
# Coordination Sequence:
#
# PCOD9189703 Si02
#       6
#     8   8   8   8   8   8
#     4   9  17  30  53  86 114 134 171 236 298 337
#     4  10  21  38  63  88 111 149 200 248 291 340
#     4  10  21  36  61  86 110 146 195 247 283 335
#     4   9  17  30  53  83 107 137 178 239 296 327
#     4  12  25  38  55  84 124 163 190 229 291 356
#     4  10  19  38  61  84 111 145 196 245 286 330
#
# _framework density 23.268459
#
# number of rings (size 3 to 8) (size 9 to 14) (size 15 to 20)
#    0.000    2.000    1.667    2.500    4.667    3.667 
#    0.000    0.833    0.000    0.000    0.000    2.333 
#    0.000    0.000    0.000    0.000    0.000    0.000 
#
# Total GULP energy -134130.515163 kJ/mol
# GULP energy per Si atom -5588.771465 kJ/mol
# Density = 2.321550 g / cm^3
# Si number density = 23.268459 Si / 1000 Ang^3
#
#
#
# Elastic Constant Matrix: (Units=GPa)
#
#
# Indices 1 2 3 4 5 6 
#
# 1 130.6633 40.9483 5.3311 0.0000 -15.7050 0.0000
# 2 40.9483 143.2381 15.7951 0.0000 -18.3595 0.0000
# 3 5.3311 15.7951 67.6100 0.0000 -25.0357 0.0000
# 4 0.0000 0.0000 0.0000 7.1815 0.0000 -8.8916
# 5 -15.7050 -18.3595 -25.0357 0.0000 31.3723 0.0000
# 6 0.0000 0.0000 0.0000 -8.8916 0.0000 39.8659
#
#
#
# Elastic Compliance Matrix: (Units=1/GPa)
#
#
# Indices 1 2 3 4 5 6 
#
# 1 0.008771 -0.002114 0.001377 0.000000 0.004252 0.000000
# 2 -0.002114 0.008059 -0.000513 0.000000 0.003248 0.000000
# 3 0.001377 -0.000513 0.021215 0.000000 0.017319 0.000000
# 4 0.000000 0.000000 0.000000 0.192369 0.000000 0.042905
# 5 0.004252 0.003248 0.017319 0.000000 0.049726 0.000000
# 6 0.000000 0.000000 0.000000 0.042905 0.000000 0.034654
#
#
# Mechanical properties :
#
#
# Convention : Reuss Voigt Hill
#
# Bulk Modulus (GPa) = 28.13437 51.74006 39.93721
# Shear Modulus (GPa) = 15.19103 34.31307 24.75205
#
# Velocity S-wave (km/s) = 2.55788 3.84430 3.26507
# Velocity P-wave (km/s) = 4.56521 6.47991 5.60492
#
# Compressibility (1/GPa) = 0.03554372
#
# Stress axis : x y z
#
# Youngs Moduli (GPa) = 114.01585 124.08964 47.13598
#
# Poissons Ratio (x) = 0.26234 -0.06490
# Poissons Ratio (y) = 0.24105 0.02419
# Poissons Ratio (z) = -0.15699 0.06368
#
# Static dielectric constant tensor:
#      x y z
#    x 1.957020 0.000000 0.193010 
#    y 0.000000 1.881560 0.000000 
#    z 0.193010 0.000000 2.113540 
# 
# From -- ./inp_files/42252.got.cif
#   From: 2010.05.17/outbox.cif.g08.bks.cpg/sg12_22_cif.got.tgz:42252.got - 2010.06.03 13:09:07.
