data_PCOD9189559
_publ_section_title
;
Structure prediction by ZEFSAII (Michael W. Deem and Ramdas Pophale) SiO2 
 PCOD9189559
Probable space group: C 2/M
;
_chemical_formula_sum "Si O2"
_cell_formula_units_Z 64
_cell_length_a 11.998363
_cell_length_b 24.186802
_cell_length_c 11.230705
_cell_angle_alpha 90.000000
_cell_angle_beta 74.796103
_cell_angle_gamma 90.000000
_cell_volume 3145.097953
_symmetry_space_group_name_H-M "C 2/M"
_symmetry_group_IT_number 12
_symmetry_cell_setting 'monoclinic'
loop_
_space_group_symop_operation_xyz
x,y,z
-x,y,-z
-x,-y,-z
x,-y,z
1/2+x,1/2+y,z
1/2-x,1/2+y,-z
1/2-x,1/2-y,-z
1/2+x,1/2-y,z
loop_
_atom_site_type_symbol
_atom_site_label
_atom_site_fract_x
_atom_site_fract_y
_atom_site_fract_z
Si Si1 0.978286 0.390883 0.700420
Si Si2 0.866735 0.700608 0.854292
Si Si3 0.682853 0.861125 0.466737
Si Si4 0.122363 0.807689 0.012108
Si Si5 0.878513 0.756724 0.603917
Si Si6 0.089415 0.440870 0.867294
Si Si7 0.637085 0.436225 0.450437
Si Si8 0.212850 0.859225 0.231179
O O1 0.934876 0.355253 0.824827
O O2 0.874346 0.389974 0.634250
O O3 0.085627 0.366477 0.596206
O O4 0.027648 0.442756 0.755430
O O5 0.885973 0.742199 0.956635
O O6 0.910238 0.731634 0.723749
O O7 0.729962 0.687722 0.892307
O O8 0.689951 0.795198 0.436592
O O9 0.793932 0.895583 0.478337
O O10 0.154703 0.837314 0.126861
O O11 0.000000 0.827666 0.000000
O O12 0.801881 0.809561 0.666563
O O13 0.000000 0.768885 0.500000
O O14 0.154140 0.500000 0.863631
O O15 0.165785 0.385249 0.841879
O O16 0.000000 0.438968 0.000000
O O17 0.500000 0.433835 0.500000
O O18 0.675413 0.500000 0.453529
O O19 0.659418 0.411471 0.313700
#
# Coordination Sequence:
#
# PCOD9189559 Si02
#       8
#     8   8   8   8   8   8   8   8
#     4  10  19  37  66  96 127 161 211 273 336 388
#     4   9  19  36  58  88 128 163 206 265 322 395
#     4  10  20  39  66  99 131 168 211 270 331 404
#     4  10  22  38  58  88 125 176 225 261 320 390
#     4  10  19  38  62  95 133 162 206 263 337 398
#     4  11  24  42  64  93 128 169 223 282 339 393
#     4  11  25  45  64  90 131 179 225 269 330 401
#     4  11  23  39  64  92 126 173 218 270 329 402
#
# _framework density 20.349129000000001
#
# number of rings (size 3 to 8) (size 9 to 14) (size 15 to 20)
#    0.000    1.750    3.750    1.500    0.000    6.500 
#    0.000    1.250    0.000    3.000    0.000    0.000 
#    0.000    0.000    0.000    0.000    0.000    0.000 
#
# Total GULP energy -178174.745947 kJ/mol
# GULP energy per Si atom -5567.960811 kJ/mol
# Density = 2.030281 g / cm^3
# Si number density = 20.349129 Si / 1000 Ang^3
#
#
#
# Elastic Constant Matrix: (Units=GPa)
#
#
# Indices 1 2 3 4 5 6 
#
# 1 116.7164 61.9880 44.0109 0.0000 -0.1533 0.0000
# 2 61.9880 129.7262 37.1697 0.0000 -3.1348 0.0000
# 3 44.0109 37.1697 96.3595 0.0000 -12.9564 0.0000
# 4 0.0000 0.0000 0.0000 497.4186 0.0000 -246.1497
# 5 -0.1533 -3.1348 -12.9564 0.0000 28.3273 0.0000
# 6 0.0000 0.0000 0.0000 -246.1497 0.0000 144.9146
#
#
#
# Elastic Compliance Matrix: (Units=1/GPa)
#
#
# Indices 1 2 3 4 5 6 
#
# 1 0.012804 -0.004955 -0.004263 0.000000 -0.002429 0.000000
# 2 -0.004955 0.010594 -0.001779 0.000000 0.000332 0.000000
# 3 -0.004263 -0.001779 0.013832 0.000000 0.006107 0.000000
# 4 0.000000 0.000000 0.000000 0.012608 0.000000 0.021416
# 5 -0.002429 0.000332 0.006107 0.000000 0.038118 0.000000
# 6 0.000000 0.000000 0.000000 0.021416 0.000000 0.043278
#
#
# Mechanical properties :
#
#
# Convention : Reuss Voigt Hill
#
# Bulk Modulus (GPa) = 65.63468 69.90439 67.76954
# Shear Modulus (GPa) = 31.58410 147.44100 89.51255
#
# Velocity S-wave (km/s) = 3.94396 8.52132 6.63957
# Velocity P-wave (km/s) = 7.28451 11.45619 9.59970
#
# Compressibility (1/GPa) = 0.01523585
#
# Stress axis : x y z
#
# Youngs Moduli (GPa) = 78.10113 94.39258 72.29564
#
# Poissons Ratio (x) = 0.46775 0.30820
# Poissons Ratio (y) = 0.38702 0.12858
# Poissons Ratio (z) = 0.33295 0.16789
#
# Static dielectric constant tensor:
#      x y z
#    x 1.803700 0.000000 0.024640 
#    y 0.000000 1.778260 0.000000 
#    z 0.024640 0.000000 1.753760 
# 
# From -- ./inp_files/135921.got.cif
#   From: 2010.05.17/outbox.cif.g08.bks.cpg/sg12_68_cif.got.tgz:135921.got - 2010.06.03 13:09:07.
