data_PCOD9189399
_publ_section_title
;
Structure prediction by ZEFSAII (Michael W. Deem and Ramdas Pophale) SiO2 
 PCOD9189399
Probable space group: C 2/M
;
_chemical_formula_sum "Si O2"
_cell_formula_units_Z 64
_cell_length_a 32.889454
_cell_length_b 7.787346
_cell_length_c 24.949428
_cell_angle_alpha 90.000000
_cell_angle_beta 27.149799
_cell_angle_gamma 90.000000
_cell_volume 2915.914432
_symmetry_space_group_name_H-M "C 2/M"
_symmetry_group_IT_number 12
_symmetry_cell_setting 'monoclinic'
loop_
_space_group_symop_operation_xyz
x,y,z
-x,y,-z
-x,-y,-z
x,-y,z
1/2+x,1/2+y,z
1/2-x,1/2+y,-z
1/2-x,1/2-y,-z
1/2+x,1/2-y,z
loop_
_atom_site_type_symbol
_atom_site_label
_atom_site_fract_x
_atom_site_fract_y
_atom_site_fract_z
Si Si1 0.961560 0.802797 0.685665
Si Si2 0.825457 0.291078 0.755866
Si Si3 0.626343 0.792802 0.416183
Si Si4 0.971580 0.790556 0.093673
Si Si5 0.327132 0.206213 0.450677
Si Si6 0.769391 0.790226 0.330041
Si Si7 0.976786 0.698010 0.787523
Si Si8 0.624402 0.699403 0.994105
O O1 0.875804 0.769046 0.749646
O O2 0.960597 0.703621 0.742906
O O3 0.046025 0.761314 0.548827
O O4 0.966193 0.000000 0.695865
O O5 0.826018 0.500000 0.756362
O O6 0.876653 0.235072 0.641755
O O7 0.723589 0.228539 0.872073
O O8 0.720393 0.740193 0.332702
O O9 0.624217 0.000000 0.418039
O O10 0.870108 0.730175 0.220897
O O11 0.045201 0.728039 0.049735
O O12 0.968964 0.000000 0.100424
O O13 0.000000 0.747104 0.000000
O O14 0.250000 0.250000 0.500000
O O15 0.294494 0.267558 0.546881
O O16 0.423819 0.272812 0.320736
O O17 0.335842 0.000000 0.443990
O O18 0.771795 0.000000 0.327871
O O19 0.975421 0.500000 0.806527
O O20 0.907034 0.790380 0.907579
O O21 0.632404 0.500000 0.968419
#
# Coordination Sequence:
#
# PCOD9189399 Si02
#       8
#     8   8   8   8   8   8   8   8
#     4  12  25  40  61  88 118 153 197 255 308 353
#     4  10  22  39  62  88 117 158 200 244 299 362
#     4  10  19  37  62  88 121 157 197 241 294 362
#     4   9  16  28  52  87 122 154 191 236 284 339
#     4  10  20  34  54  81 112 149 192 236 284 341
#     4   9  16  29  51  79 113 150 186 227 278 336
#     4  11  23  41  62  84 117 160 201 244 298 361
#     4  10  21  38  60  90 123 156 201 250 294 347
#
# _framework density 21.948519000000001
#
# number of rings (size 3 to 8) (size 9 to 14) (size 15 to 20)
#    0.000    1.875    1.250    3.375    0.000    8.000 
#    0.000    0.000    0.000    0.375    0.000    0.000 
#    0.000    0.000    0.000    0.000    0.000    0.000 
#
# Total GULP energy -178805.189946 kJ/mol
# GULP energy per Si atom -5587.662186 kJ/mol
# Density = 2.189856 g / cm^3
# Si number density = 21.948519 Si / 1000 Ang^3
#
#
#
# Elastic Constant Matrix: (Units=GPa)
#
#
# Indices 1 2 3 4 5 6 
#
# 1 96.6327 -5.2569 18.0594 0.0041 -7.9148 -0.0047
# 2 -5.2569 34.3402 1.0351 -0.0409 -4.2184 0.0218
# 3 18.0594 1.0351 92.3243 -0.0670 -6.2857 0.0265
# 4 0.0041 -0.0409 -0.0670 8.6280 0.0174 4.7171
# 5 -7.9148 -4.2184 -6.2857 0.0174 35.9965 0.0000
# 6 -0.0047 0.0218 0.0265 4.7171 0.0000 11.1443
#
#
#
# Elastic Compliance Matrix: (Units=1/GPa)
#
#
# Indices 1 2 3 4 5 6 
#
# 1 0.011026 0.002033 -0.002022 -0.000025 0.002309 0.000016
# 2 0.002033 0.029922 -0.000469 0.000209 0.003871 -0.000145
# 3 -0.002022 -0.000469 0.011333 0.000128 0.001479 -0.000081
# 4 -0.000025 0.000209 0.000128 0.150802 -0.000031 -0.063832
# 5 0.002309 0.003871 0.001479 -0.000031 0.029000 0.000003
# 6 0.000016 -0.000145 -0.000081 -0.063832 0.000003 0.116751
#
#
# Mechanical properties :
#
#
# Convention : Reuss Voigt Hill
#
# Bulk Modulus (GPa) = 19.46945 27.88583 23.67764
# Shear Modulus (GPa) = 13.62871 25.11775 19.37323
#
# Velocity S-wave (km/s) = 2.49457 3.38656 2.97419
# Velocity P-wave (km/s) = 4.14571 5.29381 4.75454
#
# Compressibility (1/GPa) = 0.05136251
#
# Stress axis : x y z
#
# Youngs Moduli (GPa) = 90.69350 33.42072 88.23737
#
# Poissons Ratio (x) = -0.06793 0.17845
# Poissons Ratio (y) = -0.18434 0.04141
# Poissons Ratio (z) = 0.18342 0.01568
#
# Static dielectric constant tensor:
#      x y z
#    x 1.794150 -0.000020 -0.011100 
#    y -0.000020 1.833710 0.000020 
#    z -0.011100 0.000020 1.799990 
# 
# From -- ./inp_files/353274.got.cif
#   From: 2010.05.17/outbox.cif.g08.bks.cpg/sg12_177_cif.got.tgz:353274.got - 2010.06.03 13:09:07.
