data_PCOD9189573
_publ_section_title
;
Structure prediction by ZEFSAII (Michael W. Deem and Ramdas Pophale) SiO2 
 PCOD9189573
Probable space group: C 2/M
;
_chemical_formula_sum "Si O2"
_cell_formula_units_Z 56
_cell_length_a 12.126740
_cell_length_b 14.038637
_cell_length_c 17.356629
_cell_angle_alpha 90.000000
_cell_angle_beta 115.724647
_cell_angle_gamma 90.000000
_cell_volume 2661.989546
_symmetry_space_group_name_H-M "C 2/M"
_symmetry_group_IT_number 12
_symmetry_cell_setting 'monoclinic'
loop_
_space_group_symop_operation_xyz
x,y,z
-x,y,-z
-x,-y,-z
x,-y,z
1/2+x,1/2+y,z
1/2-x,1/2+y,-z
1/2-x,1/2-y,-z
1/2+x,1/2-y,z
loop_
_atom_site_type_symbol
_atom_site_label
_atom_site_fract_x
_atom_site_fract_y
_atom_site_fract_z
Si Si1 0.635257 0.611393 0.022286
Si Si2 0.667932 0.610453 0.291400
Si Si3 0.320322 0.195479 0.199783
Si Si4 0.158943 0.887295 0.602038
Si Si5 0.616558 0.394333 0.835752
Si Si6 0.083470 0.203616 0.419418
Si Si7 0.434273 0.111440 0.672847
O O1 0.634122 0.500000 0.045025
O O2 0.739425 0.659416 0.104151
O O3 0.500000 0.650774 0.000000
O O4 0.653391 0.616074 0.936309
O O5 0.702408 0.500000 0.311485
O O6 0.758218 0.660578 0.259545
O O7 0.530909 0.612838 0.214378
O O8 0.658476 0.661866 0.370425
O O9 0.327486 0.308273 0.194088
O O10 0.456335 0.150584 0.241059
O O11 0.143303 0.829450 0.517179
O O12 0.299695 0.878729 0.669571
O O13 0.050157 0.846308 0.620985
O O14 0.136361 0.000000 0.581875
O O15 0.650706 0.500000 0.818227
O O16 0.066861 0.316036 0.400207
O O17 0.452506 0.000000 0.659482
#
# Coordination Sequence:
#
# PCOD9189573 Si02
#       7
#     8   8   8   8   8   8   8
#     4  10  19  37  67  96 126 170 225 272 310 376
#     4  11  22  39  66  97 125 166 221 266 313 383
#     4  12  23  41  65  95 137 174 209 266 334 382
#     4  10  23  46  70  95 126 167 220 270 327 388
#     4  10  22  40  64  96 127 167 224 270 314 383
#     4  11  22  42  72  92 123 171 222 267 314 383
#     4  11  25  41  61  96 136 169 208 264 335 394
#
# _framework density 21.036897
#
# number of rings (size 3 to 8) (size 9 to 14) (size 15 to 20)
#    0.000    1.286    2.857    3.857    2.000    0.000 
#    0.000    2.143    0.000    0.429    0.000    0.000 
#    0.000    0.000    0.000    0.000    0.000    0.000 
#
# Total GULP energy -156619.289659 kJ/mol
# GULP energy per Si atom -5593.546059 kJ/mol
# Density = 2.098902 g / cm^3
# Si number density = 21.036897 Si / 1000 Ang^3
#
#
#
# Elastic Constant Matrix: (Units=GPa)
#
#
# Indices 1 2 3 4 5 6 
#
# 1 70.2656 56.6978 36.0383 0.0000 16.4990 0.0000
# 2 56.6978 185.9370 39.1620 0.0000 -1.0226 0.0000
# 3 36.0383 39.1620 79.9984 0.0000 20.0262 0.0000
# 4 0.0000 0.0000 0.0000 31.0443 0.0000 -0.1041
# 5 16.4990 -1.0226 20.0262 0.0000 30.5797 0.0000
# 6 0.0000 0.0000 0.0000 -0.1041 0.0000 28.9191
#
#
#
# Elastic Compliance Matrix: (Units=1/GPa)
#
#
# Indices 1 2 3 4 5 6 
#
# 1 0.024479 -0.006373 -0.005440 0.000000 -0.009858 0.000000
# 2 -0.006373 0.007825 -0.002256 0.000000 0.005177 0.000000
# 3 -0.005440 -0.002256 0.018347 0.000000 -0.009156 0.000000
# 4 0.000000 0.000000 0.000000 0.032212 0.000000 0.000116
# 5 -0.009858 0.005177 -0.009156 0.000000 0.044189 0.000000
# 6 0.000000 0.000000 0.000000 0.000116 0.000000 0.034580
#
#
# Mechanical properties :
#
#
# Convention : Reuss Voigt Hill
#
# Bulk Modulus (GPa) = 44.41710 66.66634 55.54172
# Shear Modulus (GPa) = 25.34549 31.72882 28.53716
#
# Velocity S-wave (km/s) = 3.47480 3.88783 3.68710
# Velocity P-wave (km/s) = 6.10400 7.20504 6.67725
#
# Compressibility (1/GPa) = 0.02251385
#
# Stress axis : x y z
#
# Youngs Moduli (GPa) = 40.85179 127.79537 54.50441
#
# Poissons Ratio (x) = 0.81441 0.29650
# Poissons Ratio (y) = 0.26034 0.12295
# Poissons Ratio (z) = 0.22223 0.28828
#
# Static dielectric constant tensor:
#      x y z
#    x 1.756400 0.000000 0.017300 
#    y 0.000000 1.761850 0.000000 
#    z 0.017300 0.000000 1.763510 
# 
# From -- ./inp_files/263426.got.cif
#   From: 2010.05.17/outbox.cif.g08.bks.cpg/sg12_132_cif.got.tgz:263426.got - 2010.06.03 13:09:07.
