data_PCOD9189097
_publ_section_title
;
Structure prediction by ZEFSAII (Michael W. Deem and Ramdas Pophale) SiO2 
 PCOD9189097
Probable space group: C 2/M
;
_chemical_formula_sum "Si O2"
_cell_formula_units_Z 44
_cell_length_a 17.975995
_cell_length_b 17.718895
_cell_length_c 7.385555
_cell_angle_alpha 90.000000
_cell_angle_beta 118.933740
_cell_angle_gamma 90.000000
_cell_volume 2058.780217
_symmetry_space_group_name_H-M "C 2/M"
_symmetry_group_IT_number 12
_symmetry_cell_setting 'monoclinic'
loop_
_space_group_symop_operation_xyz
x,y,z
-x,y,-z
-x,-y,-z
x,-y,z
1/2+x,1/2+y,z
1/2-x,1/2+y,-z
1/2-x,1/2-y,-z
1/2+x,1/2-y,z
loop_
_atom_site_type_symbol
_atom_site_label
_atom_site_fract_x
_atom_site_fract_y
_atom_site_fract_z
Si Si1 0.381414 0.626670 0.273388
Si Si2 0.698926 0.088476 0.945831
Si Si3 0.335346 0.216057 0.371229
Si Si4 0.500000 0.288866 0.000000
Si Si5 0.441725 0.418363 0.702958
Si Si6 0.154295 0.700313 0.189183
O O1 0.299933 0.606147 0.061338
O O2 0.386555 0.714437 0.339245
O O3 0.465189 0.595038 0.275624
O O4 0.375976 0.586623 0.462157
O O5 0.670727 0.121475 0.107969
O O6 0.683147 0.000000 0.906418
O O7 0.659421 0.141602 0.744296
O O8 0.238431 0.248989 0.254596
O O9 0.358377 0.199428 0.608007
O O10 0.437185 0.346630 0.824214
O O11 0.429733 0.235029 0.003208
O O12 0.434735 0.500000 0.782111
#
# Coordination Sequence:
#
# PCOD9189097 Si02
#       6
#     8   8   8   4   8   8
#     4  10  19  37  56  82 116 152 187 224 281 352
#     4  11  22  38  61  85 113 151 195 248 293 325
#     4  10  20  40  60  85 111 154 199 236 276 348
#     4  12  21  38  55  84 116 158 190 230 283 346
#     4  11  21  32  54  88 123 150 179 226 284 349
#     4  10  22  38  61  84 115 151 200 233 281 345
#
# _framework density 21.371877999999999
#
# number of rings (size 3 to 8) (size 9 to 14) (size 15 to 20)
#    0.000    1.455    1.818    6.818    0.000    0.727 
#    0.000    1.364    0.000    1.091    0.000    0.000 
#    0.000    0.000    0.000    0.000    0.000    0.000 
#
# Total GULP energy -122749.227801 kJ/mol
# GULP energy per Si atom -5579.510355 kJ/mol
# Density = 2.132324 g / cm^3
# Si number density = 21.371878 Si / 1000 Ang^3
#
#
#
# Elastic Constant Matrix: (Units=GPa)
#
#
# Indices 1 2 3 4 5 6 
#
# 1 31.5632 14.9998 2.6796 0.0000 0.7722 0.0000
# 2 14.9998 177.5887 45.1914 0.0000 -13.5352 0.0000
# 3 2.6796 45.1914 68.0896 0.0000 -13.0822 0.0000
# 4 0.0000 0.0000 0.0000 39.0970 0.0000 -3.9086
# 5 0.7722 -13.5352 -13.0822 0.0000 20.2673 0.0000
# 6 0.0000 0.0000 0.0000 -3.9086 0.0000 9.6302
#
#
#
# Elastic Compliance Matrix: (Units=1/GPa)
#
#
# Indices 1 2 3 4 5 6 
#
# 1 0.033217 -0.003082 0.000114 0.000000 -0.003251 0.000000
# 2 -0.003082 0.007123 -0.004189 0.000000 0.002170 0.000000
# 3 0.000114 -0.004189 0.019320 0.000000 0.009669 0.000000
# 4 0.000000 0.000000 0.000000 0.026659 0.000000 0.010820
# 5 -0.003251 0.002170 0.009669 0.000000 0.057155 0.000000
# 6 0.000000 0.000000 0.000000 0.010820 0.000000 0.108232
#
#
# Mechanical properties :
#
#
# Convention : Reuss Voigt Hill
#
# Bulk Modulus (GPa) = 22.05313 44.77589 33.41451
# Shear Modulus (GPa) = 17.78503 28.09029 22.93766
#
# Velocity S-wave (km/s) = 2.88786 3.62934 3.27962
# Velocity P-wave (km/s) = 4.63259 6.20960 5.47814
#
# Compressibility (1/GPa) = 0.04534503
#
# Stress axis : x y z
#
# Youngs Moduli (GPa) = 30.10488 140.39487 51.75972
#
# Poissons Ratio (x) = 0.43276 -0.00590
# Poissons Ratio (y) = 0.09280 0.21683
# Poissons Ratio (z) = -0.00343 0.58813
#
# Static dielectric constant tensor:
#      x y z
#    x 1.778290 0.000000 -0.042420 
#    y 0.000000 1.762980 0.000000 
#    z -0.042420 0.000000 1.859040 
# 
# From -- ./inp_files/86031.got.cif
#   From: 2010.05.17/outbox.cif.g08.bks.cpg/sg12_44_cif.got.tgz:86031.got - 2010.06.03 13:09:07.
