data_PCOD9189797
_publ_section_title
;
Structure prediction by ZEFSAII (Michael W. Deem and Ramdas Pophale) SiO2 
 PCOD9189797
Probable space group: C 2/M
;
_chemical_formula_sum "Si O2"
_cell_formula_units_Z 64
_cell_length_a 25.482563
_cell_length_b 8.606425
_cell_length_c 14.715845
_cell_angle_alpha 90.000000
_cell_angle_beta 90.836434
_cell_angle_gamma 90.000000
_cell_volume 3227.043506
_symmetry_space_group_name_H-M "C 2/M"
_symmetry_group_IT_number 12
_symmetry_cell_setting 'monoclinic'
loop_
_space_group_symop_operation_xyz
x,y,z
-x,y,-z
-x,-y,-z
x,-y,z
1/2+x,1/2+y,z
1/2-x,1/2+y,-z
1/2-x,1/2-y,-z
1/2+x,1/2-y,z
loop_
_atom_site_type_symbol
_atom_site_label
_atom_site_fract_x
_atom_site_fract_y
_atom_site_fract_z
Si Si1 0.192784 0.684897 0.819679
Si Si2 0.586859 0.314390 0.730008
Si Si3 0.307732 0.310637 0.787154
Si Si4 0.975569 0.182248 0.793449
Si Si5 0.608434 0.682450 0.360759
Si Si6 0.333720 0.683076 0.993196
Si Si7 0.941410 0.681543 0.969922
Si Si8 0.441505 0.815214 0.467579
O O1 0.189006 0.500000 0.815579
O O2 0.141005 0.754538 0.772888
O O3 0.247001 0.732584 0.772625
O O4 0.195980 0.733822 0.925531
O O5 0.586654 0.500000 0.732532
O O6 0.535295 0.262822 0.785244
O O7 0.576832 0.259712 0.627019
O O8 0.312089 0.500000 0.789058
O O9 0.346352 0.260076 0.707379
O O10 0.322539 0.260066 0.890259
O O11 0.945838 0.191292 0.697164
O O12 0.943217 0.284614 0.862921
O O13 0.973655 0.000000 0.822018
O O14 0.618292 0.500000 0.380642
O O15 0.598870 0.772777 0.453233
O O16 0.323135 0.500000 0.997054
O O17 0.395302 0.717449 0.011004
O O18 0.932954 0.500000 0.990065
O O19 0.000000 0.727249 0.000000
O O20 0.500000 0.761588 0.500000
O O21 0.444025 0.000000 0.455094
#
# Coordination Sequence:
#
# PCOD9189797 Si02
#       8
#     8   8   8   8   8   8   8   8
#     4  11  23  40  60  87 121 157 196 248 303 346
#     4  11  23  40  62  89 119 159 201 240 290 356
#     4   9  20  39  63  87 117 156 201 248 294 345
#     4  10  20  35  58  83 113 151 192 239 290 347
#     4  10  19  38  63  88 115 151 195 241 292 350
#     4  11  21  38  61  86 116 156 206 248 288 350
#     4  11  23  35  50  79 119 159 195 239 297 352
#     4  11  23  38  60  93 126 155 189 240 300 356
#
# _framework density 19.832394000000001
#
# number of rings (size 3 to 8) (size 9 to 14) (size 15 to 20)
#    0.000    1.500    2.500    3.000    0.000    5.000 
#    0.000    3.750    0.000    0.000    0.000    0.000 
#    0.000    0.000    0.000    0.000    0.000    0.000 
#
# Total GULP energy -178759.982591 kJ/mol
# GULP energy per Si atom -5586.249456 kJ/mol
# Density = 1.978725 g / cm^3
# Si number density = 19.832394 Si / 1000 Ang^3
#
#
#
# Elastic Constant Matrix: (Units=GPa)
#
#
# Indices 1 2 3 4 5 6 
#
# 1 122.5814 17.1681 38.6077 0.0000 -17.3188 0.0000
# 2 17.1681 20.3147 6.0968 0.0000 0.5108 0.0000
# 3 38.6077 6.0968 77.3139 0.0000 -14.1977 0.0000
# 4 0.0000 0.0000 0.0000 25.4404 0.0000 -4.6405
# 5 -17.3188 0.5108 -14.1977 0.0000 27.7508 0.0000
# 6 0.0000 0.0000 0.0000 -4.6405 0.0000 16.8956
#
#
#
# Elastic Compliance Matrix: (Units=1/GPa)
#
#
# Indices 1 2 3 4 5 6 
#
# 1 0.011356 -0.008512 -0.004050 0.000000 0.005172 0.000000
# 2 -0.008512 0.057069 -0.001565 0.000000 -0.007163 0.000000
# 3 -0.004050 -0.001565 0.016137 0.000000 0.005757 0.000000
# 4 0.000000 0.000000 0.000000 0.041381 0.000000 0.011365
# 5 0.005172 -0.007163 0.005757 0.000000 0.042340 0.000000
# 6 0.000000 0.000000 0.000000 0.011365 0.000000 0.062309
#
#
# Mechanical properties :
#
#
# Convention : Reuss Voigt Hill
#
# Bulk Modulus (GPa) = 17.75937 38.21723 27.98830
# Shear Modulus (GPa) = 18.01055 24.57318 21.29187
#
# Velocity S-wave (km/s) = 3.01680 3.52382 3.28012
# Velocity P-wave (km/s) = 4.59445 5.98902 5.33748
#
# Compressibility (1/GPa) = 0.05630831
#
# Stress axis : x y z
#
# Youngs Moduli (GPa) = 88.05768 17.52276 61.96799
#
# Poissons Ratio (x) = 0.14915 0.25096
# Poissons Ratio (y) = 0.74953 0.09700
# Poissons Ratio (z) = 0.35662 0.02743
#
# Static dielectric constant tensor:
#      x y z
#    x 1.734830 0.000000 0.001600 
#    y 0.000000 1.673450 0.000000 
#    z 0.001600 0.000000 1.707230 
# 
# From -- ./inp_files/238676.got.cif
#   From: 2010.05.17/outbox.cif.g08.bks.cpg/sg12_120_cif.got.tgz:238676.got - 2010.06.03 13:09:07.
