data_PCOD9189377
_publ_section_title
;
Structure prediction by ZEFSAII (Michael W. Deem and Ramdas Pophale) SiO2 
 PCOD9189377
Probable space group: C 2/M
;
_chemical_formula_sum "Si O2"
_cell_formula_units_Z 64
_cell_length_a 22.384550
_cell_length_b 15.946436
_cell_length_c 16.360739
_cell_angle_alpha 90.000000
_cell_angle_beta 34.995708
_cell_angle_gamma 90.000000
_cell_volume 3349.344000
_symmetry_space_group_name_H-M "C 2/M"
_symmetry_group_IT_number 12
_symmetry_cell_setting 'monoclinic'
loop_
_space_group_symop_operation_xyz
x,y,z
-x,y,-z
-x,-y,-z
x,-y,z
1/2+x,1/2+y,z
1/2-x,1/2+y,-z
1/2-x,1/2-y,-z
1/2+x,1/2-y,z
loop_
_atom_site_type_symbol
_atom_site_label
_atom_site_fract_x
_atom_site_fract_y
_atom_site_fract_z
Si Si1 0.222522 0.314727 0.401071
Si Si2 0.873851 0.600887 0.651509
Si Si3 0.321853 0.243773 0.837927
Si Si4 0.629861 0.408051 0.643924
Si Si5 0.242576 0.408433 0.831159
Si Si6 0.522286 0.750815 0.719798
Si Si7 0.007576 0.649263 0.082559
Si Si8 0.278353 0.122408 0.326681
O O1 0.177160 0.363435 0.374430
O O2 0.309172 0.369204 0.348450
O O3 0.128695 0.293767 0.569199
O O4 0.271353 0.223715 0.328063
O O5 0.857027 0.500000 0.681456
O O6 0.822952 0.659894 0.779757
O O7 0.000000 0.613006 0.500000
O O8 0.292488 0.327015 0.818529
O O9 0.437622 0.242021 0.744625
O O10 0.250000 0.250000 0.000000
O O11 0.592137 0.500000 0.703900
O O12 0.540539 0.346158 0.716198
O O13 0.711513 0.406812 0.477775
O O14 0.269902 0.500000 0.836225
O O15 0.268962 0.407867 0.705474
O O16 0.116552 0.398812 0.969775
O O17 0.492741 0.790748 0.839226
O O18 0.898901 0.598758 0.205456
O O19 0.000000 0.689238 0.000000
#
# Coordination Sequence:
#
# PCOD9189377 Si02
#       8
#     8   8   8   8   8   8   8   8
#     4  11  19  38  66  91 121 164 205 259 325 384
#     4  11  24  43  68  98 128 166 220 277 324 376
#     4  12  25  43  66  88 129 177 214 263 323 382
#     4  11  22  35  60  94 123 156 204 256 314 382
#     4  11  24  39  61  91 121 162 212 253 304 378
#     4  11  21  40  61  89 122 166 210 255 323 376
#     4  10  20  37  61  87 118 160 199 255 315 376
#     4  10  19  37  62  86 126 158 197 253 320 376
#
# _framework density 19.108218999999998
#
# number of rings (size 3 to 8) (size 9 to 14) (size 15 to 20)
#    0.000    1.125    6.250    1.500    0.000    3.750 
#    0.000    0.000    0.000    3.000    0.000    0.000 
#    0.000    0.000    0.000    0.000    0.000    0.000 
#
# Total GULP energy -178426.299957 kJ/mol
# GULP energy per Si atom -5575.821874 kJ/mol
# Density = 1.906473 g / cm^3
# Si number density = 19.108219 Si / 1000 Ang^3
#
#
#
# Elastic Constant Matrix: (Units=GPa)
#
#
# Indices 1 2 3 4 5 6 
#
# 1 84.6533 49.8777 0.2770 0.0000 14.7613 0.0000
# 2 49.8777 151.4187 19.2098 0.0000 22.3513 0.0000
# 3 0.2770 19.2098 37.0740 0.0000 16.6643 0.0000
# 4 0.0000 0.0000 0.0000 200.4498 0.0000 -67.1327
# 5 14.7613 22.3513 16.6643 0.0000 23.1853 0.0000
# 6 0.0000 0.0000 0.0000 -67.1327 0.0000 37.5315
#
#
#
# Elastic Compliance Matrix: (Units=1/GPa)
#
#
# Indices 1 2 3 4 5 6 
#
# 1 0.016540 -0.004719 0.007401 0.000000 -0.011300 0.000000
# 2 -0.004719 0.009070 -0.003079 0.000000 -0.003526 0.000000
# 3 0.007401 -0.003079 0.043279 0.000000 -0.032850 0.000000
# 4 0.000000 0.000000 0.000000 0.012443 0.000000 0.022256
# 5 -0.011300 -0.003526 -0.032850 0.000000 0.077335 0.000000
# 6 0.000000 0.000000 0.000000 0.022256 0.000000 0.066454
#
#
# Mechanical properties :
#
#
# Convention : Reuss Voigt Hill
#
# Bulk Modulus (GPa) = 14.68572 45.76389 30.22480
# Shear Modulus (GPa) = 20.11162 65.81875 42.96518
#
# Velocity S-wave (km/s) = 3.24776 5.87538 4.74700
# Velocity P-wave (km/s) = 4.66542 8.36831 6.77476
#
# Compressibility (1/GPa) = 0.06809335
#
# Stress axis : x y z
#
# Youngs Moduli (GPa) = 60.46098 110.25619 23.10587
#
# Poissons Ratio (x) = 0.52030 -0.17101
# Poissons Ratio (y) = 0.28532 0.07115
# Poissons Ratio (z) = -0.44747 0.33953
#
# Static dielectric constant tensor:
#      x y z
#    x 1.389240 0.000000 0.004080 
#    y 0.000000 1.683340 0.000000 
#    z 0.004080 0.000000 1.696560 
# 
# From -- ./inp_files/290072.got.cif
#   From: 2010.05.17/outbox.cif.g08.bks.cpg/sg12_146_cif.got.tgz:290072.got - 2010.06.03 13:09:07.
