data_PCOD9189232
_publ_section_title
;
Structure prediction by ZEFSAII (Michael W. Deem and Ramdas Pophale) SiO2 
 PCOD9189232
Probable space group: C 2/M
;
_chemical_formula_sum "Si O2"
_cell_formula_units_Z 50
_cell_length_a 14.290020
_cell_length_b 7.759899
_cell_length_c 17.537260
_cell_angle_alpha 90.000000
_cell_angle_beta 79.709260
_cell_angle_gamma 90.000000
_cell_volume 1913.408734
_symmetry_space_group_name_H-M "C 2/M"
_symmetry_group_IT_number 12
_symmetry_cell_setting 'monoclinic'
loop_
_space_group_symop_operation_xyz
x,y,z
-x,y,-z
-x,-y,-z
x,-y,z
1/2+x,1/2+y,z
1/2-x,1/2+y,-z
1/2-x,1/2-y,-z
1/2+x,1/2-y,z
loop_
_atom_site_type_symbol
_atom_site_label
_atom_site_fract_x
_atom_site_fract_y
_atom_site_fract_z
Si Si1 0.500000 0.500000 0.000000
Si Si2 0.673906 0.191934 0.238250
Si Si3 0.020707 0.304612 0.885173
Si Si4 0.408953 0.792043 0.594386
Si Si5 0.626088 0.694777 0.561172
Si Si6 0.225460 0.208243 0.917700
Si Si7 0.364990 0.803732 0.269568
O O1 0.525011 0.652616 0.059754
O O2 0.629118 0.275450 0.319353
O O3 0.687758 0.259286 0.151152
O O4 0.784129 0.182396 0.248582
O O5 0.633168 0.000000 0.238510
O O6 0.983062 0.500000 0.901091
O O7 0.129304 0.298273 0.903035
O O8 0.037867 0.267215 0.791757
O O9 0.511628 0.707833 0.572374
O O10 0.345657 0.755198 0.528311
O O11 0.419942 0.000000 0.595101
O O12 0.658378 0.500000 0.567114
O O13 0.640336 0.791738 0.638672
O O14 0.208093 0.000000 0.914375
O O15 0.250000 0.250000 0.000000
O O16 0.341487 0.000000 0.252265
#
# Coordination Sequence:
#
# PCOD9189232 Si02
#       7
#     2   8   8   8   8   8   8
#     4  12  22  40  64  86 124 158 198 248 304 346
#     4   9  20  37  60  84 113 149 193 242 290 349
#     4  10  22  40  61  88 120 157 201 246 299 356
#     4  10  20  38  58  83 115 150 192 241 292 346
#     4  11  22  36  58  82 117 155 190 236 293 351
#     4  10  19  37  60  85 118 156 197 246 303 354
#     4  10  21  38  61  85 113 155 194 237 290 347
#
# _framework density 26.131374000000001
#
# number of rings (size 3 to 8) (size 9 to 14) (size 15 to 20)
#    0.000    1.920    0.800    4.080    2.240    2.560 
#    2.880    0.000    0.000    0.000    0.000    0.000 
#    0.000    0.000    0.000    0.000    0.000    0.000 
#
# Total GULP energy -139439.109157 kJ/mol
# GULP energy per Si atom -5577.564366 kJ/mol
# Density = 2.607190 g / cm^3
# Si number density = 26.131374 Si / 1000 Ang^3
#
#
#
# Elastic Constant Matrix: (Units=GPa)
#
#
# Indices 1 2 3 4 5 6 
#
# 1 28.5859 6.1672 24.8423 0.0000 7.1371 0.0000
# 2 6.1672 144.7425 42.5127 0.0000 -3.2449 0.0000
# 3 24.8423 42.5127 250.4301 0.0000 4.3155 0.0000
# 4 0.0000 0.0000 0.0000 37.7323 0.0000 4.4402
# 5 7.1371 -3.2449 4.3155 0.0000 40.8613 0.0000
# 6 0.0000 0.0000 0.0000 4.4402 0.0000 24.5468
#
#
#
# Elastic Compliance Matrix: (Units=1/GPa)
#
#
# Indices 1 2 3 4 5 6 
#
# 1 0.040050 -0.000761 -0.003729 0.000000 -0.006662 0.000000
# 2 -0.000761 0.007306 -0.001179 0.000000 0.000838 0.000000
# 3 -0.003729 -0.001179 0.004562 0.000000 0.000076 0.000000
# 4 0.000000 0.000000 0.000000 0.027079 0.000000 -0.004898
# 5 -0.006662 0.000838 0.000076 0.000000 0.025695 0.000000
# 6 0.000000 0.000000 0.000000 -0.004898 0.000000 0.041624
#
#
# Mechanical properties :
#
#
# Convention : Reuss Voigt Hill
#
# Bulk Modulus (GPa) = 24.64214 63.42253 44.03234
# Shear Modulus (GPa) = 29.20868 43.97716 36.59292
#
# Velocity S-wave (km/s) = 3.34692 4.10680 3.74618
# Velocity P-wave (km/s) = 4.93826 6.84186 5.96647
#
# Compressibility (1/GPa) = 0.04058089
#
# Stress axis : x y z
#
# Youngs Moduli (GPa) = 24.96857 136.86663 219.20533
#
# Poissons Ratio (x) = 0.10410 0.81742
# Poissons Ratio (y) = 0.01899 0.25851
# Poissons Ratio (z) = 0.09311 0.16141
#
# Static dielectric constant tensor:
#      x y z
#    x 2.149800 0.000000 -0.072480 
#    y 0.000000 2.022380 0.000000 
#    z -0.072480 0.000000 2.201610 
# 
# From -- ./inp_files/230054.got.cif
#   From: 2010.05.17/outbox.cif.g08.bks.cpg/sg12_116_cif.got.tgz:230054.got - 2010.06.03 13:09:07.
