data_PCOD9189900
_publ_section_title
;
Structure prediction by ZEFSAII (Michael W. Deem and Ramdas Pophale) SiO2 
 PCOD9189900
Probable space group: C 2/M
;
_chemical_formula_sum "Si O2"
_cell_formula_units_Z 42
_cell_length_a 15.973151
_cell_length_b 7.469923
_cell_length_c 27.352430
_cell_angle_alpha 90.000000
_cell_angle_beta 32.829258
_cell_angle_gamma 90.000000
_cell_volume 1769.342808
_symmetry_space_group_name_H-M "C 2/M"
_symmetry_group_IT_number 12
_symmetry_cell_setting 'monoclinic'
loop_
_space_group_symop_operation_xyz
x,y,z
-x,y,-z
-x,-y,-z
x,-y,z
1/2+x,1/2+y,z
1/2-x,1/2+y,-z
1/2-x,1/2-y,-z
1/2+x,1/2-y,z
loop_
_atom_site_type_symbol
_atom_site_label
_atom_site_fract_x
_atom_site_fract_y
_atom_site_fract_z
Si Si1 0.571518 0.787366 0.596393
Si Si2 0.000000 0.500000 0.000000
Si Si3 0.455709 0.217675 0.206043
Si Si4 0.120462 0.796808 0.402492
Si Si5 0.875476 0.716622 0.782759
Si Si6 0.539303 0.706949 0.909732
O O1 0.750000 0.750000 0.500000
O O2 0.468723 0.699938 0.604949
O O3 0.511336 0.729567 0.678913
O O4 0.545695 0.000000 0.605321
O O5 0.942523 0.342240 0.989577
O O6 0.288723 0.280393 0.308520
O O7 0.581775 0.275169 0.183923
O O8 0.480905 0.278231 0.138375
O O9 0.451508 0.000000 0.206595
O O10 0.000000 0.712311 0.500000
O O11 0.149562 0.000000 0.406662
O O12 0.870769 0.500000 0.785980
O O13 0.713826 0.772248 0.838093
O O14 0.518133 0.500000 0.933810
#
# Coordination Sequence:
#
# PCOD9189900 Si02
#       6
#     8   2   8   8   8   8
#     4  11  21  35  54  85 127 172 223 274 319 373
#     4  12  26  48  76 102 134 170 216 276 350 414
#     4  10  19  38  66  94 130 176 219 270 332 399
#     4  10  20  34  56  87 127 176 225 270 324 380
#     4   9  20  39  66  92 129 175 217 266 328 394
#     4  11  23  45  73 101 133 173 218 275 339 405
#
# _framework density 23.737628000000001
#
# number of rings (size 3 to 8) (size 9 to 14) (size 15 to 20)
#    0.000    1.714    2.857    2.000    0.000    3.429 
#    3.429    2.857    0.000    0.000    0.000    0.000 
#    0.000    0.000    0.000    0.000    0.000    0.000 
#
# Total GULP energy -117181.590785 kJ/mol
# GULP energy per Si atom -5580.075752 kJ/mol
# Density = 2.368360 g / cm^3
# Si number density = 23.737628 Si / 1000 Ang^3
#
#
#
# Elastic Constant Matrix: (Units=GPa)
#
#
# Indices 1 2 3 4 5 6 
#
# 1 164.7322 6.5202 44.1122 0.0007 26.2567 -0.0005
# 2 6.5202 118.5589 15.8978 0.0060 10.7279 0.0030
# 3 44.1122 15.8978 80.7758 0.0002 20.5101 0.0000
# 4 0.0007 0.0060 0.0002 3.8275 -0.0006 18.7119
# 5 26.2567 10.7279 20.5101 -0.0006 48.2151 0.0000
# 6 -0.0005 0.0030 0.0000 18.7119 0.0000 31.5993
#
#
#
# Elastic Compliance Matrix: (Units=1/GPa)
#
#
# Indices 1 2 3 4 5 6 
#
# 1 0.007397 0.000291 -0.003428 0.000001 -0.002635 -0.000001
# 2 0.000291 0.008754 -0.001510 0.000005 -0.001464 -0.000004
# 3 -0.003428 -0.001510 0.015684 0.000000 -0.004469 0.000000
# 4 0.000001 0.000005 0.000000 -0.137875 -0.000004 0.081644
# 5 -0.002635 -0.001464 -0.004469 -0.000004 0.024402 0.000002
# 6 -0.000001 -0.000004 0.000000 0.081644 0.000002 -0.016700
#
#
# Mechanical properties :
#
#
# Convention : Reuss Voigt Hill
#
# Bulk Modulus (GPa) = 44.36393 55.23638 49.80015
# Shear Modulus (GPa) = -61.32529 36.56415 -12.38057
#
# Velocity S-wave (km/s) = -5.08829 3.92898 -2.28624
# Velocity P-wave (km/s) = 3.97380 6.62590 3.74910
#
# Compressibility (1/GPa) = 0.02254084
#
# Stress axis : x y z
#
# Youngs Moduli (GPa) = 135.19401 114.23904 63.75990
#
# Poissons Ratio (x) = -0.03327 0.21855
# Poissons Ratio (y) = -0.03938 0.09629
# Poissons Ratio (z) = 0.46341 0.17252
#
# Static dielectric constant tensor:
#      x y z
#    x 1.854820 0.000000 -0.020940 
#    y 0.000000 1.868000 0.000000 
#    z -0.020940 0.000000 1.979600 
# 
# From -- ./inp_files/267533.got.cif
#   From: 2010.05.17/outbox.cif.g08.bks.cpg/sg12_134_cif.got.tgz:267533.got - 2010.06.03 13:09:07.
