data_PCOD9189503
_publ_section_title
;
Structure prediction by ZEFSAII (Michael W. Deem and Ramdas Pophale) SiO2 
 PCOD9189503
Probable space group: C 2/M
;
_chemical_formula_sum "Si O2"
_cell_formula_units_Z 56
_cell_length_a 12.155771
_cell_length_b 22.955377
_cell_length_c 14.745828
_cell_angle_alpha 90.000000
_cell_angle_beta 35.942168
_cell_angle_gamma 90.000000
_cell_volume 2415.187200
_symmetry_space_group_name_H-M "C 2/M"
_symmetry_group_IT_number 12
_symmetry_cell_setting 'monoclinic'
loop_
_space_group_symop_operation_xyz
x,y,z
-x,y,-z
-x,-y,-z
x,-y,z
1/2+x,1/2+y,z
1/2-x,1/2+y,-z
1/2-x,1/2-y,-z
1/2+x,1/2-y,z
loop_
_atom_site_type_symbol
_atom_site_label
_atom_site_fract_x
_atom_site_fract_y
_atom_site_fract_z
Si Si1 0.077419 0.744008 0.182004
Si Si2 0.236121 0.432939 0.621919
Si Si3 0.393419 0.364749 0.361756
Si Si4 0.472231 0.823549 0.611591
Si Si5 0.347879 0.064001 0.758521
Si Si6 0.979847 0.647329 0.117022
Si Si7 0.333098 0.567910 0.937246
O O1 0.948006 0.700831 0.208066
O O2 0.005413 0.805807 0.264458
O O3 0.122232 0.709792 0.243718
O O4 0.250000 0.750000 0.000000
O O5 0.286901 0.500000 0.602447
O O6 0.388169 0.397456 0.462010
O O7 0.041104 0.434134 0.690836
O O8 0.179756 0.399377 0.751124
O O9 0.182220 0.341757 0.495150
O O10 0.474399 0.411284 0.236038
O O11 0.500000 0.789733 0.500000
O O12 0.360564 0.884138 0.678755
O O13 0.333371 0.000000 0.727124
O O14 0.185634 0.072403 0.941468
O O15 0.172053 0.611736 0.008970
O O16 0.000000 0.666751 0.000000
O O17 0.293669 0.500000 0.941422
#
# Coordination Sequence:
#
# PCOD9189503 Si02
#       7
#     8   8   8   8   8   8   8
#     4  12  23  44  64  86 128 168 208 259 314 376
#     4   9  18  35  61  88 121 159 200 252 318 373
#     4  11  21  39  64  88 128 162 203 259 318 371
#     4  11  23  39  63  92 119 157 209 257 312 366
#     4   8  15  33  57  82 118 158 193 237 296 362
#     4  11  22  39  65  94 124 170 217 257 308 378
#     4  10  19  37  64  92 124 165 207 253 313 376
#
# _framework density 23.186609000000001
#
# number of rings (size 3 to 8) (size 9 to 14) (size 15 to 20)
#    0.000    1.714    5.714    2.143    0.000    3.143 
#    0.000    2.857    0.000    3.429    0.000    0.000 
#    0.000    0.000    0.000    0.000    0.000    0.000 
#
# Total GULP energy -156242.312518 kJ/mol
# GULP energy per Si atom -5580.082590 kJ/mol
# Density = 2.313384 g / cm^3
# Si number density = 23.186609 Si / 1000 Ang^3
#
#
#
# Elastic Constant Matrix: (Units=GPa)
#
#
# Indices 1 2 3 4 5 6 
#
# 1 28.4788 4.7329 16.9006 0.0053 12.7596 -0.0009
# 2 4.7329 132.1967 64.2666 0.0004 22.9342 0.0009
# 3 16.9006 64.2666 154.7388 -0.0007 23.3900 0.0009
# 4 0.0053 0.0004 -0.0007 45.4226 -0.0008 2.5474
# 5 12.7596 22.9342 23.3900 -0.0008 37.5524 0.0003
# 6 -0.0009 0.0009 0.0009 2.5474 0.0003 -1.7914
#
#
#
# Elastic Compliance Matrix: (Units=1/GPa)
#
#
# Indices 1 2 3 4 5 6 
#
# 1 0.043137 0.002687 -0.003713 -0.000004 -0.013985 -0.000029
# 2 0.002687 0.010131 -0.003784 -0.000001 -0.004743 0.000000
# 3 -0.003713 -0.003784 0.008721 0.000000 -0.001859 0.000004
# 4 -0.000004 -0.000001 0.000000 0.020389 0.000002 0.028994
# 5 -0.013985 -0.004743 -0.001859 0.000002 0.035436 0.000012
# 6 -0.000029 0.000000 0.000004 0.028994 0.000012 -0.516981
#
#
# Mechanical properties :
#
#
# Convention : Reuss Voigt Hill
#
# Bulk Modulus (GPa) = 19.09577 54.13494 36.61536
# Shear Modulus (GPa) = -13.43761 31.53766 9.05003
#
# Velocity S-wave (km/s) = -2.40998 3.69205 1.97778
# Velocity P-wave (km/s) = 0.71384 6.44772 4.58708
#
# Compressibility (1/GPa) = 0.05236761
#
# Stress axis : x y z
#
# Youngs Moduli (GPa) = 23.18199 98.70930 114.66978
#
# Poissons Ratio (x) = -0.26525 0.42582
# Poissons Ratio (y) = -0.06229 0.43392
# Poissons Ratio (z) = 0.08609 0.37352
#
# Static dielectric constant tensor:
#      x y z
#    x 1.968670 0.000000 -0.025950 
#    y 0.000000 1.907630 0.000000 
#    z -0.025950 0.000000 1.889820 
# 
# From -- ./inp_files/218669.got.cif
#   From: 2010.05.17/outbox.cif.g08.bks.cpg/sg12_110_cif.got.tgz:218669.got - 2010.06.03 13:09:07.
