data_PCOD9189569
_publ_section_title
;
Structure prediction by ZEFSAII (Michael W. Deem and Ramdas Pophale) SiO2 
 PCOD9189569
Probable space group: C 2/M
;
_chemical_formula_sum "Si O2"
_cell_formula_units_Z 42
_cell_length_a 23.070763
_cell_length_b 11.468898
_cell_length_c 7.658350
_cell_angle_alpha 90.000000
_cell_angle_beta 112.531594
_cell_angle_gamma 90.000000
_cell_volume 1871.694361
_symmetry_space_group_name_H-M "C 2/M"
_symmetry_group_IT_number 12
_symmetry_cell_setting 'monoclinic'
loop_
_space_group_symop_operation_xyz
x,y,z
-x,y,-z
-x,-y,-z
x,-y,z
1/2+x,1/2+y,z
1/2-x,1/2+y,-z
1/2-x,1/2-y,-z
1/2+x,1/2-y,z
loop_
_atom_site_type_symbol
_atom_site_label
_atom_site_fract_x
_atom_site_fract_y
_atom_site_fract_z
Si Si1 0.583155 0.314322 0.383570
Si Si2 0.842743 0.630327 0.010783
Si Si3 0.319895 0.372502 0.787599
Si Si4 0.317567 0.127845 0.371719
Si Si5 0.500000 0.500000 0.500000
Si Si6 0.010868 0.372149 0.722946
O O1 0.622853 0.376053 0.280529
O O2 0.634340 0.228426 0.528322
O O3 0.547798 0.398876 0.475693
O O4 0.529871 0.230153 0.243047
O O5 0.832586 0.500000 0.918265
O O6 0.805437 0.632453 0.150183
O O7 0.916007 0.637153 0.149249
O O8 0.827053 0.748212 0.891289
O O9 0.321419 0.500000 0.884922
O O10 0.250782 0.366763 0.620946
O O11 0.345830 0.000000 0.441204
O O12 0.989538 0.500000 0.757152
O O13 0.000000 0.365815 0.500000
#
# Coordination Sequence:
#
# PCOD9189569 Si02
#       6
#     8   8   8   8   2   8
#     4  12  22  42  64  95 126 174 221 268 332 384
#     4  10  21  41  66  98 128 168 222 265 332 396
#     4  11  25  43  61  96 139 174 213 273 331 391
#     4  10  21  42  71  95 126 169 225 274 321 391
#     4  12  24  40  62  90 140 176 218 274 314 410
#     4  10  19  37  67  92 116 160 218 278 319 384
#
# _framework density 22.439561999999999
#
# number of rings (size 3 to 8) (size 9 to 14) (size 15 to 20)
#    0.000    1.333    3.810    1.714    0.000    2.286 
#    8.571    2.857    0.000    0.000    0.000    0.000 
#    0.000    0.000    0.000    0.000    0.000    0.000 
#
# Total GULP energy -116961.654577 kJ/mol
# GULP energy per Si atom -5569.602599 kJ/mol
# Density = 2.238849 g / cm^3
# Si number density = 22.439562 Si / 1000 Ang^3
#
#
#
# Elastic Constant Matrix: (Units=GPa)
#
#
# Indices 1 2 3 4 5 6 
#
# 1 124.5236 38.5136 -3.6242 0.0000 8.6385 0.0000
# 2 38.5136 219.3690 36.8215 0.0000 15.2642 0.0000
# 3 -3.6242 36.8215 22.3086 0.0000 7.4858 0.0000
# 4 0.0000 0.0000 0.0000 87.3571 0.0000 179.6643
# 5 8.6385 15.2642 7.4858 0.0000 21.0525 0.0000
# 6 0.0000 0.0000 0.0000 179.6643 0.0000 490.5410
#
#
#
# Elastic Compliance Matrix: (Units=1/GPa)
#
#
# Indices 1 2 3 4 5 6 
#
# 1 0.009343 -0.002538 0.007239 0.000000 -0.004568 0.000000
# 2 -0.002538 0.007013 -0.012071 0.000000 0.000249 0.000000
# 3 0.007239 -0.012071 0.072654 0.000000 -0.020053 0.000000
# 4 0.000000 0.000000 0.000000 0.046396 0.000000 -0.016993
# 5 -0.004568 0.000249 -0.020053 0.000000 0.056325 0.000000
# 6 0.000000 0.000000 0.000000 -0.016993 0.000000 0.008262
#
#
# Mechanical properties :
#
#
# Convention : Reuss Voigt Hill
#
# Bulk Modulus (GPa) = 13.46415 56.62477 35.04446
# Shear Modulus (GPa) = 20.87787 139.42281 80.15034
#
# Velocity S-wave (km/s) = 3.05356 7.89097 5.98296
# Velocity P-wave (km/s) = 4.29483 10.40733 7.96109
#
# Compressibility (1/GPa) = 0.07427131
#
# Stress axis : x y z
#
# Youngs Moduli (GPa) = 107.03188 142.59585 13.76386
#
# Poissons Ratio (x) = 0.36184 -0.09964
# Poissons Ratio (y) = 0.27160 0.16614
# Poissons Ratio (z) = -0.77480 1.72124
#
# Static dielectric constant tensor:
#      x y z
#    x 1.855270 0.000000 -0.047950 
#    y 0.000000 1.856390 0.000000 
#    z -0.047950 0.000000 1.848720 
# 
# From -- ./inp_files/84271.got.cif
#   From: 2010.05.17/outbox.cif.g08.bks.cpg/sg12_43_cif.got.tgz:84271.got - 2010.06.03 13:09:07.
