data_PCOD9189233
_publ_section_title
;
Structure prediction by ZEFSAII (Michael W. Deem and Ramdas Pophale) SiO2 
 PCOD9189233
Probable space group: C 2/M
;
_chemical_formula_sum "Si O2"
_cell_formula_units_Z 64
_cell_length_a 30.815448
_cell_length_b 8.208240
_cell_length_c 18.164377
_cell_angle_alpha 90.000000
_cell_angle_beta 43.873949
_cell_angle_gamma 90.000000
_cell_volume 3184.334878
_symmetry_space_group_name_H-M "C 2/M"
_symmetry_group_IT_number 12
_symmetry_cell_setting 'monoclinic'
loop_
_space_group_symop_operation_xyz
x,y,z
-x,y,-z
-x,-y,-z
x,-y,z
1/2+x,1/2+y,z
1/2-x,1/2+y,-z
1/2-x,1/2-y,-z
1/2+x,1/2-y,z
loop_
_atom_site_type_symbol
_atom_site_label
_atom_site_fract_x
_atom_site_fract_y
_atom_site_fract_z
Si Si1 0.199997 0.694288 0.273615
Si Si2 0.842398 0.806517 0.104477
Si Si3 0.392547 0.188073 0.191024
Si Si4 0.750502 0.812685 0.581814
Si Si5 0.548094 0.199323 0.729436
Si Si6 0.808630 0.189235 0.880152
Si Si7 0.404515 0.807709 0.878751
Si Si8 0.368709 0.186441 0.508917
O O1 0.200541 0.500000 0.285541
O O2 0.270806 0.755152 0.204852
O O3 0.188514 0.724210 0.201901
O O4 0.144408 0.761581 0.394268
O O5 0.888654 0.772450 0.116391
O O6 0.838634 0.000000 0.097433
O O7 0.868136 0.726450 0.998994
O O8 0.320262 0.190941 0.304377
O O9 0.429872 0.255955 0.216228
O O10 0.412280 0.000000 0.155340
O O11 0.750000 0.750000 0.500000
O O12 0.797806 0.695336 0.565773
O O13 0.772880 0.000000 0.559850
O O14 0.476390 0.241442 0.802249
O O15 0.589785 0.257065 0.608737
O O16 0.554682 0.000000 0.724082
O O17 0.869623 0.218743 0.855093
O O18 0.799498 0.000000 0.876704
O O19 0.750000 0.250000 0.000000
O O20 0.402813 0.000000 0.865342
O O21 0.390946 0.000000 0.490589
#
# Coordination Sequence:
#
# PCOD9189233 Si02
#       8
#     8   8   8   8   8   8   8   8
#     4  10  21  36  60  92 123 151 187 240 299 350
#     4  11  22  36  57  88 123 154 192 242 299 351
#     4  10  20  35  56  83 119 158 202 245 288 342
#     4  11  20  30  51  81 115 152 195 243 290 339
#     4   9  20  39  61  84 114 161 207 242 281 342
#     4  12  24  40  65  92 120 149 188 240 299 355
#     4  11  23  41  64  86 114 154 201 243 291 350
#     4  10  19  37  60  85 119 154 195 245 289 339
#
# _framework density 20.098388
#
# number of rings (size 3 to 8) (size 9 to 14) (size 15 to 20)
#    0.000    1.500    3.750    2.250    0.000    2.000 
#    0.000    5.625    0.000    3.750    0.000    0.000 
#    0.000    0.000    0.000    0.000    0.000    0.000 
#
# Total GULP energy -178525.389350 kJ/mol
# GULP energy per Si atom -5578.918417 kJ/mol
# Density = 2.005264 g / cm^3
# Si number density = 20.098388 Si / 1000 Ang^3
#
#
#
# Elastic Constant Matrix: (Units=GPa)
#
#
# Indices 1 2 3 4 5 6 
#
# 1 104.5845 -6.3995 41.7627 -0.0014 14.5089 0.0019
# 2 -6.3995 24.9238 -4.0396 0.0082 -4.5845 -0.0169
# 3 41.7627 -4.0396 56.0039 0.0101 12.6233 -0.0083
# 4 -0.0014 0.0082 0.0101 15.2259 -0.0024 -0.5637
# 5 14.5089 -4.5845 12.6233 -0.0024 35.8703 0.0004
# 6 0.0019 -0.0169 -0.0083 -0.5637 0.0004 22.6948
#
#
#
# Elastic Compliance Matrix: (Units=1/GPa)
#
#
# Indices 1 2 3 4 5 6 
#
# 1 0.013826 0.001610 -0.009754 0.000006 -0.001954 -0.000003
# 2 0.001610 0.041469 0.000807 -0.000021 0.004365 0.000031
# 3 -0.009754 0.000807 0.026366 -0.000019 -0.005230 0.000011
# 4 0.000006 -0.000021 -0.000019 0.065738 0.000006 0.001633
# 5 -0.001954 0.004365 -0.005230 0.000006 0.031067 0.000001
# 6 -0.000003 0.000031 0.000011 0.001633 0.000001 0.044104
#
#
# Mechanical properties :
#
#
# Convention : Reuss Voigt Hill
#
# Bulk Modulus (GPa) = 14.92807 27.57326 21.25066
# Shear Modulus (GPa) = 19.26233 25.03745 22.14989
#
# Velocity S-wave (km/s) = 3.09917 3.53334 3.32335
# Velocity P-wave (km/s) = 4.50001 5.51316 5.03214
#
# Compressibility (1/GPa) = 0.06698789
#
# Stress axis : x y z
#
# Youngs Moduli (GPa) = 72.32710 24.11422 37.92697
#
# Poissons Ratio (x) = -0.03882 0.36993
# Poissons Ratio (y) = -0.11642 -0.03061
# Poissons Ratio (z) = 0.70545 -0.01946
#
# Static dielectric constant tensor:
#      x y z
#    x 1.664970 0.000000 -0.028630 
#    y 0.000000 1.734570 0.000000 
#    z -0.028630 0.000000 1.645480 
# 
# From -- ./inp_files/295511.got.cif
#   From: 2010.05.17/outbox.cif.g08.bks.cpg/sg12_148_cif.got.tgz:295511.got - 2010.06.03 13:09:07.
