data_PCOD9189017
_publ_section_title
;
Structure prediction by ZEFSAII (Michael W. Deem and Ramdas Pophale) SiO2 
 PCOD9189017
Probable space group: C 2/M
;
_chemical_formula_sum "Si O2"
_cell_formula_units_Z 32
_cell_length_a 5.435689
_cell_length_b 36.132070
_cell_length_c 6.967913
_cell_angle_alpha 90.000000
_cell_angle_beta 102.295373
_cell_angle_gamma 90.000000
_cell_volume 1337.126915
_symmetry_space_group_name_H-M "C 2/M"
_symmetry_group_IT_number 12
_symmetry_cell_setting 'monoclinic'
loop_
_space_group_symop_operation_xyz
x,y,z
-x,y,-z
-x,-y,-z
x,-y,z
1/2+x,1/2+y,z
1/2-x,1/2+y,-z
1/2-x,1/2-y,-z
1/2+x,1/2-y,z
loop_
_atom_site_type_symbol
_atom_site_label
_atom_site_fract_x
_atom_site_fract_y
_atom_site_fract_z
Si Si1 0.287246 0.351818 0.122892
Si Si2 0.429986 0.730759 0.263897
Si Si3 0.788284 0.043225 0.733347
Si Si4 0.217553 0.572517 0.285560
O O1 0.362258 0.311502 0.210382
O O2 0.285141 0.384454 0.279195
O O3 0.500000 0.361566 0.000000
O O4 0.000000 0.349841 0.000000
O O5 0.500000 0.733675 0.500000
O O6 0.680909 0.744139 0.195785
O O7 0.752641 0.056147 0.504982
O O8 0.575499 0.066287 0.807279
O O9 0.082624 0.050901 0.812977
O O10 0.732873 0.000000 0.743010
#
# Coordination Sequence:
#
# PCOD9189017 Si02
#       4
#     8   8   8   8
#     4  12  26  42  62  93 134 174 205 248 315 391
#     4  10  23  44  68  96 124 160 213 268 306 357
#     4  10  19  36  65  93 115 157 217 268 310 363
#     4  10  20  35  58  90 122 156 202 265 303 362
#
# _framework density 23.931913000000002
#
# number of rings (size 3 to 8) (size 9 to 14) (size 15 to 20)
#    0.000    1.500    0.000    6.750    3.500    3.000 
#    9.000    0.000    0.000   25.500    0.000    0.000 
#    0.000    0.000    0.000    0.000    0.000    0.000 
#
# Total GULP energy -89558.130352 kJ/mol
# GULP energy per Si atom -5597.383147 kJ/mol
# Density = 2.387744 g / cm^3
# Si number density = 23.931913 Si / 1000 Ang^3
#
#
#
# Elastic Constant Matrix: (Units=GPa)
#
#
# Indices 1 2 3 4 5 6 
#
# 1 231.9926 55.3417 43.4818 0.0000 -21.7014 0.0000
# 2 55.3417 191.0532 2.7923 0.0000 -9.7285 0.0000
# 3 43.4818 2.7923 56.0023 0.0000 -4.6536 0.0000
# 4 0.0000 0.0000 0.0000 14.4008 0.0000 -5.5963
# 5 -21.7014 -9.7285 -4.6536 0.0000 44.1332 0.0000
# 6 0.0000 0.0000 0.0000 -5.5963 0.0000 47.8605
#
#
#
# Elastic Compliance Matrix: (Units=1/GPa)
#
#
# Indices 1 2 3 4 5 6 
#
# 1 0.005621 -0.001466 -0.004124 0.000000 0.002006 0.000000
# 2 -0.001466 0.005677 0.000907 0.000000 0.000626 0.000000
# 3 -0.004124 0.000907 0.021046 0.000000 0.000391 0.000000
# 4 0.000000 0.000000 0.000000 0.072746 0.000000 0.008506
# 5 0.002006 0.000626 0.000391 0.000000 0.023824 0.000000
# 6 0.000000 0.000000 0.000000 0.008506 0.000000 0.021889
#
#
# Mechanical properties :
#
#
# Convention : Reuss Voigt Hill
#
# Bulk Modulus (GPa) = 43.52009 75.80888 59.66448
# Shear Modulus (GPa) = 29.79228 46.44106 38.11667
#
# Velocity S-wave (km/s) = 3.53211 4.40995 3.99521
# Velocity P-wave (km/s) = 5.90414 7.59446 6.80201
#
# Compressibility (1/GPa) = 0.02297790
#
# Stress axis : x y z
#
# Youngs Moduli (GPa) = 177.91075 176.13831 47.51506
#
# Poissons Ratio (x) = 0.25817 0.19597
# Poissons Ratio (y) = 0.26077 -0.04310
# Poissons Ratio (z) = 0.73377 -0.15976
#
# Static dielectric constant tensor:
#      x y z
#    x 1.906140 0.000000 -0.051540 
#    y 0.000000 1.809990 0.000000 
#    z -0.051540 0.000000 1.845750 
# 
# From -- ./inp_files/34317.got.cif
#   From: 2010.05.17/outbox.cif.g08.bks.cpg/sg12_18_cif.got.tgz:34317.got - 2010.06.03 13:09:07.
