data_PCOD9189528
_publ_section_title
;
Structure prediction by ZEFSAII (Michael W. Deem and Ramdas Pophale) SiO2 
 PCOD9189528
Probable space group: C 2/M
;
_chemical_formula_sum "Si O2"
_cell_formula_units_Z 32
_cell_length_a 14.475317
_cell_length_b 16.279960
_cell_length_c 18.860521
_cell_angle_alpha 90.000000
_cell_angle_beta 161.692263
_cell_angle_gamma 90.000000
_cell_volume 1396.148465
_symmetry_space_group_name_H-M "C 2/M"
_symmetry_group_IT_number 12
_symmetry_cell_setting 'monoclinic'
loop_
_space_group_symop_operation_xyz
x,y,z
-x,y,-z
-x,-y,-z
x,-y,z
1/2+x,1/2+y,z
1/2-x,1/2+y,-z
1/2-x,1/2-y,-z
1/2+x,1/2-y,z
loop_
_atom_site_type_symbol
_atom_site_label
_atom_site_fract_x
_atom_site_fract_y
_atom_site_fract_z
Si Si1 0.830448 0.801191 0.488479
Si Si2 0.442971 0.234147 0.856764
Si Si3 0.353355 0.591270 0.757881
Si Si4 0.611945 0.410011 0.788672
O O1 0.750000 0.750000 0.500000
O O2 0.600346 0.788114 0.257902
O O3 0.134122 0.774766 0.672369
O O4 0.887481 0.891780 0.560958
O O5 0.508454 0.331364 0.908471
O O6 0.662692 0.165756 0.045840
O O7 0.417850 0.500000 0.833775
O O8 0.449529 0.592259 0.745832
O O9 0.000000 0.603343 0.500000
O O10 0.749635 0.500000 0.881627
#
# Coordination Sequence:
#
# PCOD9189528 Si02
#       4
#     8   8   8   8
#     4  11  22  39  64  91 125 167 211 255 313 376
#     4  11  22  40  65  94 126 168 207 261 317 373
#     4  10  19  37  65  92 121 163 211 259 315 368
#     4  11  24  41  64  93 130 169 210 261 313 375
#
# _framework density 22.920197999999999
#
# number of rings (size 3 to 8) (size 9 to 14) (size 15 to 20)
#    0.000    1.250    5.000    1.500    0.000    3.000 
#    0.000    2.500    0.000    4.500    0.000    0.000 
#    0.000    0.000    0.000    0.000    0.000    0.000 
#
# Total GULP energy -89377.578032 kJ/mol
# GULP energy per Si atom -5586.098627 kJ/mol
# Density = 2.286803 g / cm^3
# Si number density = 22.920198 Si / 1000 Ang^3
#
#
#
# Elastic Constant Matrix: (Units=GPa)
#
#
# Indices 1 2 3 4 5 6 
#
# 1 112.9037 23.0866 24.7638 0.0147 1.5032 -0.0205
# 2 23.0866 216.2121 50.1819 -0.0797 -10.1405 -0.0963
# 3 24.7638 50.1819 60.2426 -0.0630 6.9194 -0.0134
# 4 0.0147 -0.0797 -0.0630 32.7724 -0.0503 -2.4099
# 5 1.5032 -10.1405 6.9194 -0.0503 49.2665 0.0005
# 6 -0.0205 -0.0963 -0.0134 -2.4099 0.0005 21.1162
#
#
#
# Elastic Compliance Matrix: (Units=1/GPa)
#
#
# Indices 1 2 3 4 5 6 
#
# 1 0.009741 -0.000116 -0.003934 -0.000011 0.000231 0.000005
# 2 -0.000116 0.005912 -0.005099 0.000009 0.001937 0.000025
# 3 -0.003934 -0.005099 0.022941 0.000026 -0.004152 -0.000009
# 4 -0.000011 0.000009 0.000026 0.030772 0.000030 0.003512
# 5 0.000231 0.001937 -0.004152 0.000030 0.021272 0.000009
# 6 0.000005 0.000025 -0.000009 0.003512 0.000009 0.047758
#
#
# Mechanical properties :
#
#
# Convention : Reuss Voigt Hill
#
# Bulk Modulus (GPa) = 49.27300 65.04699 57.15999
# Shear Modulus (GPa) = 30.58867 40.05276 35.32071
#
# Velocity S-wave (km/s) = 3.65714 4.18483 3.92985
# Velocity P-wave (km/s) = 6.27513 7.19665 6.75163
#
# Compressibility (1/GPa) = 0.02029509
#
# Stress axis : x y z
#
# Youngs Moduli (GPa) = 102.66289 169.15220 43.58986
#
# Poissons Ratio (x) = 0.01966 0.17148
# Poissons Ratio (y) = 0.01193 0.22227
# Poissons Ratio (z) = 0.40386 0.86254
#
# Static dielectric constant tensor:
#      x y z
#    x 1.847760 0.000070 -0.012990 
#    y 0.000070 1.889830 -0.000340 
#    z -0.012990 -0.000340 1.931060 
# 
# From -- ./inp_files/45394.got.cif
#   From: 2010.05.17/outbox.cif.g08.bks.cpg/sg12_23_cif.got.tgz:45394.got - 2010.06.03 13:09:07.
