data_PCOD9189125
_publ_section_title
;
Structure prediction by ZEFSAII (Michael W. Deem and Ramdas Pophale) SiO2 
 PCOD9189125
Probable space group: C 2/M
;
_chemical_formula_sum "Si O2"
_cell_formula_units_Z 64
_cell_length_a 30.815334
_cell_length_b 19.818091
_cell_length_c 10.024719
_cell_angle_alpha 90.000000
_cell_angle_beta 143.230697
_cell_angle_gamma 90.000000
_cell_volume 3664.659551
_symmetry_space_group_name_H-M "C 2/M"
_symmetry_group_IT_number 12
_symmetry_cell_setting 'monoclinic'
loop_
_space_group_symop_operation_xyz
x,y,z
-x,y,-z
-x,-y,-z
x,-y,z
1/2+x,1/2+y,z
1/2-x,1/2+y,-z
1/2-x,1/2-y,-z
1/2+x,1/2-y,z
loop_
_atom_site_type_symbol
_atom_site_label
_atom_site_fract_x
_atom_site_fract_y
_atom_site_fract_z
Si Si1 0.665602 0.682854 0.885687
Si Si2 0.675585 0.839716 0.837048
Si Si3 0.403286 0.174768 0.900975
Si Si4 0.609838 0.671380 0.040184
Si Si5 0.145670 0.920829 0.378515
Si Si6 0.938289 0.839362 0.609548
Si Si7 0.812874 0.420932 0.869944
Si Si8 0.574262 0.183509 0.347772
O O1 0.663698 0.764493 0.868058
O O2 0.651021 0.663685 0.001967
O O3 0.604392 0.654759 0.634711
O O4 0.743786 0.659713 0.025604
O O5 0.618461 0.848671 0.577450
O O6 0.668665 0.892660 0.938538
O O7 0.383041 0.251392 0.891485
O O8 0.489018 0.166903 0.142686
O O9 0.356573 0.122646 0.870020
O O10 0.395273 0.165729 0.722562
O O11 0.524431 0.658147 0.805875
O O12 0.636381 0.621620 0.220803
O O13 0.090552 0.892208 0.353395
O O14 0.227061 0.911160 0.634050
O O15 0.133646 0.000000 0.325703
O O16 0.919909 0.764629 0.620862
O O17 0.829120 0.500000 0.898182
#
# Coordination Sequence:
#
# PCOD9189125 Si02
#       8
#     8   8   8   8   8   8   8   8
#     4  10  20  34  58  90 116 146 197 250 291 336
#     4  10  20  37  58  85 117 153 194 243 292 349
#     4  10  20  38  59  91 122 149 189 247 294 350
#     4  11  21  34  61  90 118 155 196 244 293 346
#     4  11  24  40  58  86 121 159 201 242 291 356
#     4  10  19  37  57  86 123 154 189 240 299 348
#     4  11  24  42  60  83 120 162 197 241 298 351
#     4   9  20  35  61  91 118 145 192 245 297 344
#
# _framework density 17.464103999999999
#
# number of rings (size 3 to 8) (size 9 to 14) (size 15 to 20)
#    0.000    1.750    3.750    0.750    1.750    2.000 
#    0.000    4.375    0.000    1.500    0.000    0.000 
#    0.000    0.000    0.000    0.000    0.000    0.000 
#
# Total GULP energy -178716.135190 kJ/mol
# GULP energy per Si atom -5584.879225 kJ/mol
# Density = 1.742436 g / cm^3
# Si number density = 17.464104 Si / 1000 Ang^3
#
#
#
# Elastic Constant Matrix: (Units=GPa)
#
#
# Indices 1 2 3 4 5 6 
#
# 1 81.8194 38.9296 6.3238 0.0000 -17.8739 0.0000
# 2 38.9296 65.5528 26.8898 0.0000 -1.6355 0.0000
# 3 6.3238 26.8898 66.8988 0.0000 -16.6160 0.0000
# 4 0.0000 0.0000 0.0000 22.7101 0.0000 -0.2493
# 5 -17.8739 -1.6355 -16.6160 0.0000 19.3151 0.0000
# 6 0.0000 0.0000 0.0000 -0.2493 0.0000 25.2963
#
#
#
# Elastic Compliance Matrix: (Units=1/GPa)
#
#
# Indices 1 2 3 4 5 6 
#
# 1 0.032472 -0.025577 0.017978 0.000000 0.043349 0.000000
# 2 -0.025577 0.038989 -0.023289 0.000000 -0.040401 0.000000
# 3 0.017978 -0.023289 0.033385 0.000000 0.043384 0.000000
# 4 0.000000 0.000000 0.000000 0.044038 0.000000 0.000434
# 5 0.043349 -0.040401 0.043384 0.000000 0.125788 0.000000
# 6 0.000000 0.000000 0.000000 0.000434 0.000000 0.039536
#
#
# Mechanical properties :
#
#
# Convention : Reuss Voigt Hill
#
# Bulk Modulus (GPa) = 23.21768 39.83974 31.52871
# Shear Modulus (GPa) = 12.80937 22.93950 17.87443
#
# Velocity S-wave (km/s) = 2.71120 3.62819 3.20268
# Velocity P-wave (km/s) = 4.80876 6.35716 5.63639
#
# Compressibility (1/GPa) = 0.04307062
#
# Stress axis : x y z
#
# Youngs Moduli (GPa) = 30.79596 25.64820 29.95372
#
# Poissons Ratio (x) = 0.65600 -0.53850
# Poissons Ratio (y) = 0.78766 0.69758
# Poissons Ratio (z) = -0.55365 0.59731
#
# Static dielectric constant tensor:
#      x y z
#    x 1.567460 0.000000 0.006280 
#    y 0.000000 1.565980 0.000000 
#    z 0.006280 0.000000 1.593100 
# 
# From -- ./inp_files/99109.got.cif
#   From: 2010.05.17/outbox.cif.g08.bks.cpg/sg12_50_cif.got.tgz:99109.got - 2010.06.03 13:09:07.
