data_PCOD9189586
_publ_section_title
;
Structure prediction by ZEFSAII (Michael W. Deem and Ramdas Pophale) SiO2 
 PCOD9189586
Probable space group: C 2/M
;
_chemical_formula_sum "Si O2"
_cell_formula_units_Z 40
_cell_length_a 8.113652
_cell_length_b 22.340225
_cell_length_c 9.523136
_cell_angle_alpha 90.000000
_cell_angle_beta 99.830792
_cell_angle_gamma 90.000000
_cell_volume 1700.824743
_symmetry_space_group_name_H-M "C 2/M"
_symmetry_group_IT_number 12
_symmetry_cell_setting 'monoclinic'
loop_
_space_group_symop_operation_xyz
x,y,z
-x,y,-z
-x,-y,-z
x,-y,z
1/2+x,1/2+y,z
1/2-x,1/2+y,-z
1/2-x,1/2-y,-z
1/2+x,1/2-y,z
loop_
_atom_site_type_symbol
_atom_site_label
_atom_site_fract_x
_atom_site_fract_y
_atom_site_fract_z
Si Si1 0.387023 0.102859 0.278768
Si Si2 0.806630 0.933346 0.021439
Si Si3 0.657213 0.338664 0.739415
Si Si4 0.255022 0.568707 0.449215
Si Si5 0.524109 0.772010 0.334428
O O1 0.571044 0.078605 0.349468
O O2 0.271442 0.088977 0.395321
O O3 0.404634 0.174246 0.265877
O O4 0.313483 0.073611 0.129505
O O5 0.781461 0.876199 0.118107
O O6 0.779288 0.000000 0.081731
O O7 0.000000 0.931278 0.000000
O O8 0.622894 0.390630 0.623399
O O9 0.509697 0.291868 0.740488
O O10 0.795915 0.296821 0.684868
O O11 0.299552 0.500000 0.450832
O O12 0.500000 0.768039 0.500000
#
# Coordination Sequence:
#
# PCOD9189586 Si02
#       5
#     8   8   8   8   8
#     4  10  20  40  67  99 133 170 219 282 335 387
#     4  11  26  46  66  97 141 181 220 273 338 404
#     4  11  25  42  68  98 136 180 223 273 336 402
#     4  10  19  37  69 102 126 169 226 279 333 392
#     4  11  23  43  69 103 136 172 226 285 337 391
#
# _framework density 23.518001999999999
#
# number of rings (size 3 to 8) (size 9 to 14) (size 15 to 20)
#    0.000    1.400    4.000    3.600    2.800    4.000 
#    0.000    5.000    0.000    4.800    0.000    0.000 
#    0.000    0.000    0.000    0.000    0.000    0.000 
#
# Total GULP energy -111932.580393 kJ/mol
# GULP energy per Si atom -5596.629020 kJ/mol
# Density = 2.346447 g / cm^3
# Si number density = 23.518002 Si / 1000 Ang^3
#
#
#
# Elastic Constant Matrix: (Units=GPa)
#
#
# Indices 1 2 3 4 5 6 
#
# 1 64.2594 13.1133 17.6533 0.0000 6.5554 0.0000
# 2 13.1133 142.4001 4.9976 0.0000 4.6238 0.0000
# 3 17.6533 4.9976 90.3854 0.0000 10.2427 0.0000
# 4 0.0000 0.0000 0.0000 25.7925 0.0000 11.4317
# 5 6.5554 4.6238 10.2427 0.0000 19.7939 0.0000
# 6 0.0000 0.0000 0.0000 11.4317 0.0000 -35.8596
#
#
#
# Elastic Compliance Matrix: (Units=1/GPa)
#
#
# Indices 1 2 3 4 5 6 
#
# 1 0.017001 -0.001342 -0.002809 0.000000 -0.003864 0.000000
# 2 -0.001342 0.007186 0.000005 0.000000 -0.001237 0.000000
# 3 -0.002809 0.000005 0.012224 0.000000 -0.005396 0.000000
# 4 0.000000 0.000000 0.000000 0.033971 0.000000 0.010830
# 5 -0.003864 -0.001237 -0.005396 0.000000 0.054881 0.000000
# 6 0.000000 0.000000 0.000000 0.010830 0.000000 -0.024434
#
#
# Mechanical properties :
#
#
# Convention : Reuss Voigt Hill
#
# Bulk Modulus (GPa) = 35.56134 40.95259 38.25697
# Shear Modulus (GPa) = 42.19646 19.36408 30.78027
#
# Velocity S-wave (km/s) = 4.24042 2.87256 3.62165
# Velocity P-wave (km/s) = 6.25528 5.33416 5.81299
#
# Compressibility (1/GPa) = 0.02812042
#
# Stress axis : x y z
#
# Youngs Moduli (GPa) = 58.81861 139.15944 81.80951
#
# Poissons Ratio (x) = 0.18669 0.22976
# Poissons Ratio (y) = 0.07891 -0.00040
# Poissons Ratio (z) = 0.16519 -0.00068
#
# Static dielectric constant tensor:
#      x y z
#    x 1.993820 0.000000 0.014800 
#    y 0.000000 1.865040 0.000000 
#    z 0.014800 0.000000 1.867910 
# 
# From -- ./inp_files/39231.got.cif
#   From: 2010.05.17/outbox.cif.g08.bks.cpg/sg12_20_cif.got.tgz:39231.got - 2010.06.03 13:09:07.
