data_PCOD9189977
_publ_section_title
;
Structure prediction by ZEFSAII (Michael W. Deem and Ramdas Pophale) SiO2 
 PCOD9189977
Probable space group: C 2/M
;
_chemical_formula_sum "Si O2"
_cell_formula_units_Z 64
_cell_length_a 9.260841
_cell_length_b 26.366611
_cell_length_c 11.988935
_cell_angle_alpha 90.000000
_cell_angle_beta 102.352239
_cell_angle_gamma 90.000000
_cell_volume 2859.655017
_symmetry_space_group_name_H-M "C 2/M"
_symmetry_group_IT_number 12
_symmetry_cell_setting 'monoclinic'
loop_
_space_group_symop_operation_xyz
x,y,z
-x,y,-z
-x,-y,-z
x,-y,z
1/2+x,1/2+y,z
1/2-x,1/2+y,-z
1/2-x,1/2-y,-z
1/2+x,1/2-y,z
loop_
_atom_site_type_symbol
_atom_site_label
_atom_site_fract_x
_atom_site_fract_y
_atom_site_fract_z
Si Si1 0.885450 0.840567 0.783378
Si Si2 0.106671 0.917416 0.918401
Si Si3 0.149511 0.555439 0.453711
Si Si4 0.353966 0.856437 0.092800
Si Si5 0.654435 0.346884 0.475031
Si Si6 0.773117 0.302258 0.705595
Si Si7 0.152769 0.412249 0.203267
Si Si8 0.557370 0.754451 0.835700
O O1 0.722013 0.852373 0.798889
O O2 0.875454 0.826571 0.652823
O O3 0.987445 0.889129 0.821757
O O4 0.965362 0.794340 0.861339
O O5 0.231066 0.941889 0.857196
O O6 0.219603 0.878513 0.998457
O O7 0.000000 0.940137 0.000000
O O8 0.221263 0.500000 0.483839
O O9 0.241518 0.604060 0.508186
O O10 0.120931 0.561347 0.316054
O O11 0.000000 0.556038 0.500000
O O12 0.498869 0.892146 0.122073
O O13 0.386499 0.797478 0.069622
O O14 0.500000 0.364456 0.500000
O O15 0.715847 0.305118 0.570725
O O16 0.765975 0.359637 0.750228
O O17 0.682451 0.267609 0.775695
O O18 0.941704 0.285854 0.741745
#
# Coordination Sequence:
#
# PCOD9189977 Si02
#       8
#     8   8   8   8   8   8   8   8
#     4  11  20  35  50  76 115 155 204 249 300 349
#     4  10  21  37  58  83 111 160 208 255 303 347
#     4  10  22  41  68 100 126 151 189 239 303 383
#     4  10  22  34  55  78 111 157 209 254 294 344
#     4  11  21  37  58  84 121 162 194 245 308 371
#     4  10  21  35  52  80 115 160 204 254 299 360
#     4  10  19  39  61  86 121 153 196 246 310 365
#     4  11  19  35  50  76 114 155 213 257 297 344
#
# _framework density 22.380320999999999
#
# number of rings (size 3 to 8) (size 9 to 14) (size 15 to 20)
#    0.000    1.625    3.750    1.875    0.000    1.250 
#    2.250    1.250    0.000    1.875    0.000    1.750 
#    0.000    0.000    0.000    0.000    0.000    0.000 
#
# Total GULP energy -178515.585418 kJ/mol
# GULP energy per Si atom -5578.612044 kJ/mol
# Density = 2.232938 g / cm^3
# Si number density = 22.380321 Si / 1000 Ang^3
#
#
#
# Elastic Constant Matrix: (Units=GPa)
#
#
# Indices 1 2 3 4 5 6 
#
# 1 132.7863 20.6560 31.0185 0.0000 -28.5614 0.0000
# 2 20.6560 78.3734 7.7163 0.0000 -5.8106 0.0000
# 3 31.0185 7.7163 96.4398 0.0000 -21.2855 0.0000
# 4 0.0000 0.0000 0.0000 -24.6181 0.0000 7.7663
# 5 -28.5614 -5.8106 -21.2855 0.0000 40.7574 0.0000
# 6 0.0000 0.0000 0.0000 7.7663 0.0000 -15.7507
#
#
#
# Elastic Compliance Matrix: (Units=1/GPa)
#
#
# Indices 1 2 3 4 5 6 
#
# 1 0.009386 -0.001907 -0.001667 0.000000 0.005435 0.000000
# 2 -0.001907 0.013326 -0.000371 0.000000 0.000370 0.000000
# 3 -0.001667 -0.000371 0.012055 0.000000 0.005075 0.000000
# 4 0.000000 0.000000 0.000000 -0.048103 0.000000 -0.023718
# 5 0.005435 0.000370 0.005075 0.000000 0.031047 0.000000
# 6 0.000000 0.000000 0.000000 -0.023718 0.000000 -0.075184
#
#
# Mechanical properties :
#
#
# Convention : Reuss Voigt Hill
#
# Bulk Modulus (GPa) = 37.20601 47.37567 42.29084
# Shear Modulus (GPa) = -123.07887 16.62496 -53.22695
#
# Velocity S-wave (km/s) = -7.42386 2.72846 -4.88206
# Velocity P-wave (km/s) = 7.53819 5.58036 3.58357
#
# Compressibility (1/GPa) = 0.02687738
#
# Stress axis : x y z
#
# Youngs Moduli (GPa) = 106.54316 75.04167 82.95290
#
# Poissons Ratio (x) = 0.14308 0.13826
# Poissons Ratio (y) = 0.20314 0.03081
# Poissons Ratio (z) = 0.17757 0.02787
#
# Static dielectric constant tensor:
#      x y z
#    x 1.847970 0.000000 -0.038020 
#    y 0.000000 1.846650 0.000000 
#    z -0.038020 0.000000 1.896660 
# 
# From -- ./inp_files/125759.got.cif
#   From: 2010.05.17/outbox.cif.g08.bks.cpg/sg12_63_cif.got.tgz:125759.got - 2010.06.03 13:09:07.
