data_PCOD9189304
_publ_section_title
;
Structure prediction by ZEFSAII (Michael W. Deem and Ramdas Pophale) SiO2 
 PCOD9189304
Probable space group: C 2/M
;
_chemical_formula_sum "Si O2"
_cell_formula_units_Z 48
_cell_length_a 17.909768
_cell_length_b 17.007479
_cell_length_c 15.620279
_cell_angle_alpha 90.000000
_cell_angle_beta 32.234867
_cell_angle_gamma 90.000000
_cell_volume 2537.841378
_symmetry_space_group_name_H-M "C 2/M"
_symmetry_group_IT_number 12
_symmetry_cell_setting 'monoclinic'
loop_
_space_group_symop_operation_xyz
x,y,z
-x,y,-z
-x,-y,-z
x,-y,z
1/2+x,1/2+y,z
1/2-x,1/2+y,-z
1/2-x,1/2-y,-z
1/2+x,1/2-y,z
loop_
_atom_site_type_symbol
_atom_site_label
_atom_site_fract_x
_atom_site_fract_y
_atom_site_fract_z
Si Si1 0.553550 0.829238 0.697279
Si Si2 0.764695 0.000000 0.207874
Si Si3 0.110196 0.338821 0.319310
Si Si4 0.335750 0.751815 0.182562
Si Si5 0.361933 0.661067 0.329580
Si Si6 0.464998 0.500000 0.175208
Si Si7 0.599612 0.912216 0.820619
O O1 0.462104 0.844179 0.702517
O O2 0.554046 0.736037 0.716241
O O3 0.716260 0.849379 0.520327
O O4 0.517874 0.880064 0.816046
O O5 0.672350 0.076738 0.283577
O O6 0.838051 0.000000 0.229334
O O7 0.891745 0.000000 0.016715
O O8 0.237747 0.276974 0.201395
O O9 0.000000 0.315410 0.500000
O O10 0.320533 0.689305 0.274036
O O11 0.300240 0.838699 0.252454
O O12 0.500000 0.750532 0.000000
O O13 0.447086 0.580588 0.244217
O O14 0.656890 0.000000 0.749036
O O15 0.500000 0.918082 0.000000
#
# Coordination Sequence:
#
# PCOD9189304 Si02
#       7
#     8   4   8   8   8   4   8
#     4  10  22  37  61  91 117 153 200 251 297 350
#     4  11  23  34  58  88 126 156 195 233 308 361
#     4  12  22  37  60  92 126 153 192 246 300 356
#     4  10  19  37  61  86 119 162 196 234 297 360
#     4  10  20  37  58  89 119 157 200 235 298 360
#     4  11  20  38  58  84 121 167 192 237 292 377
#     4   9  20  39  62  84 112 155 207 250 289 342
#
# _framework density 18.913710999999999
#
# number of rings (size 3 to 8) (size 9 to 14) (size 15 to 20)
#    0.000    1.667    3.333    1.250    2.333    0.000 
#    0.000   13.333    1.833    0.500    0.000    0.000 
#    0.000    0.000    0.000    0.000    0.000    0.000 
#
# Total GULP energy -133883.412619 kJ/mol
# GULP energy per Si atom -5578.475526 kJ/mol
# Density = 1.887066 g / cm^3
# Si number density = 18.913711 Si / 1000 Ang^3
#
#
#
# Elastic Constant Matrix: (Units=GPa)
#
#
# Indices 1 2 3 4 5 6 
#
# 1 90.7871 18.3965 26.5631 0.0001 5.9343 -0.0001
# 2 18.3965 119.6525 22.1456 0.0000 -5.0687 -0.0001
# 3 26.5631 22.1456 56.3757 -0.0001 7.5747 -0.0001
# 4 0.0001 0.0000 -0.0001 15.2082 0.0000 4.8056
# 5 5.9343 -5.0687 7.5747 0.0000 26.0102 0.0001
# 6 -0.0001 -0.0001 -0.0001 4.8056 0.0001 12.0481
#
#
#
# Elastic Compliance Matrix: (Units=1/GPa)
#
#
# Indices 1 2 3 4 5 6 
#
# 1 0.012929 -0.001041 -0.005474 0.000000 -0.001559 0.000000
# 2 -0.001041 0.009312 -0.003583 0.000000 0.003096 0.000000
# 3 -0.005474 -0.003583 0.022533 0.000000 -0.006011 0.000000
# 4 0.000000 0.000000 0.000000 0.075237 0.000000 -0.030009
# 5 -0.001559 0.003096 -0.006011 0.000000 0.041156 0.000000
# 6 0.000000 0.000000 0.000000 -0.030009 0.000000 0.094970
#
#
# Mechanical properties :
#
#
# Convention : Reuss Voigt Hill
#
# Bulk Modulus (GPa) = 40.68719 44.55839 42.62279
# Shear Modulus (GPa) = 17.57315 23.96731 20.77023
#
# Velocity S-wave (km/s) = 3.05146 3.56363 3.31744
# Velocity P-wave (km/s) = 5.82871 6.36730 6.10395
#
# Compressibility (1/GPa) = 0.02457776
#
# Stress axis : x y z
#
# Youngs Moduli (GPa) = 77.34502 107.38915 44.38019
#
# Poissons Ratio (x) = 0.11177 0.24292
# Poissons Ratio (y) = 0.08050 0.15903
# Poissons Ratio (z) = 0.42336 0.38483
#
# Static dielectric constant tensor:
#      x y z
#    x 1.652090 0.000000 0.020600 
#    y 0.000000 1.684160 0.000000 
#    z 0.020600 0.000000 1.708240 
# 
# From -- ./inp_files/112775.got.cif
#   From: 2010.05.17/outbox.cif.g08.bks.cpg/sg12_57_cif.got.tgz:112775.got - 2010.06.03 13:09:07.
