data_PCOD9189263
_publ_section_title
;
Structure prediction by ZEFSAII (Michael W. Deem and Ramdas Pophale) SiO2 
 PCOD9189263
Probable space group: C 2/M
;
_chemical_formula_sum "Si O2"
_cell_formula_units_Z 44
_cell_length_a 18.823624
_cell_length_b 21.585137
_cell_length_c 14.857988
_cell_angle_alpha 90.000000
_cell_angle_beta 160.746630
_cell_angle_gamma 90.000000
_cell_volume 1990.663332
_symmetry_space_group_name_H-M "C 2/M"
_symmetry_group_IT_number 12
_symmetry_cell_setting 'monoclinic'
loop_
_space_group_symop_operation_xyz
x,y,z
-x,y,-z
-x,-y,-z
x,-y,z
1/2+x,1/2+y,z
1/2-x,1/2+y,-z
1/2-x,1/2-y,-z
1/2+x,1/2-y,z
loop_
_atom_site_type_symbol
_atom_site_label
_atom_site_fract_x
_atom_site_fract_y
_atom_site_fract_z
Si Si1 0.566870 0.141530 0.183120
Si Si2 0.146695 0.000000 0.829678
Si Si3 0.020970 0.500000 0.918276
Si Si4 0.894045 0.310199 0.154602
Si Si5 0.497291 0.616172 0.254827
Si Si6 0.447525 0.000000 0.543526
Si Si7 0.813288 0.877612 0.710972
O O1 0.417573 0.176866 0.075753
O O2 0.814703 0.162690 0.488802
O O3 0.500000 0.145583 0.000000
O O4 0.563913 0.068537 0.210954
O O5 0.001327 0.058749 0.676070
O O6 0.245753 0.000000 0.849456
O O7 0.343940 0.000000 0.139463
O O8 0.000000 0.500000 0.000000
O O9 0.135064 0.324551 0.478181
O O10 0.750000 0.250000 0.000000
O O11 0.743471 0.360233 0.023565
O O12 0.561787 0.602493 0.230326
O O13 0.500000 0.000000 0.500000
O O14 0.308792 0.061523 0.398918
O O15 0.000000 0.855105 0.000000
#
# Coordination Sequence:
#
# PCOD9189263 Si02
#       7
#     8   4   4   8   8   4   8
#     4  10  22  42  65  97 137 172 225 287 344 402
#     4  12  18  37  66  97 138 185 209 279 360 416
#     4  10  19  37  61 100 138 167 220 282 341 419
#     4  11  25  46  68  94 132 182 237 278 334 414
#     4  11  22  40  67  94 135 177 223 278 353 410
#     4  12  22  38  70 104 144 175 222 279 350 433
#     4  11  24  42  67 103 141 178 222 287 349 412
#
# _framework density 22.103185
#
# number of rings (size 3 to 8) (size 9 to 14) (size 15 to 20)
#    0.000    1.091    3.636    3.545    0.000    3.636 
#    0.000    7.273    0.000    0.000    0.000    0.000 
#    0.000    0.000    0.000    0.000    0.000    0.000 
#
# Total GULP energy -122757.158670 kJ/mol
# GULP energy per Si atom -5579.870849 kJ/mol
# Density = 2.205288 g / cm^3
# Si number density = 22.103185 Si / 1000 Ang^3
#
#
#
# Elastic Constant Matrix: (Units=GPa)
#
#
# Indices 1 2 3 4 5 6 
#
# 1 194.0745 32.5043 65.7847 0.0000 24.5571 -0.0003
# 2 32.5043 87.6042 24.3319 -0.0001 12.5199 -0.0008
# 3 65.7847 24.3319 102.9048 -0.0004 21.3754 -0.0027
# 4 0.0000 -0.0001 -0.0004 17.3947 0.0001 28.6141
# 5 24.5571 12.5199 21.3754 0.0001 41.1418 -0.0001
# 6 -0.0003 -0.0008 -0.0027 28.6141 -0.0001 237.0280
#
#
#
# Elastic Compliance Matrix: (Units=1/GPa)
#
#
# Indices 1 2 3 4 5 6 
#
# 1 0.006845 -0.001256 -0.003710 0.000000 -0.001776 0.000000
# 2 -0.001256 0.012679 -0.001737 0.000000 -0.002206 0.000000
# 3 -0.003710 -0.001737 0.013374 0.000000 -0.004205 0.000000
# 4 0.000000 0.000000 0.000000 0.071734 0.000000 -0.008660
# 5 -0.001776 -0.002206 -0.004205 0.000000 0.028223 0.000000
# 6 0.000000 0.000000 0.000000 -0.008660 0.000000 0.005264
#
#
# Mechanical properties :
#
#
# Convention : Reuss Voigt Hill
#
# Bulk Modulus (GPa) = 51.30221 69.98060 60.64140
# Shear Modulus (GPa) = 31.64125 76.57707 54.10916
#
# Velocity S-wave (km/s) = 3.78765 5.89241 4.95312
# Velocity P-wave (km/s) = 6.51069 8.83309 7.75928
#
# Compressibility (1/GPa) = 0.01949234
#
# Stress axis : x y z
#
# Youngs Moduli (GPa) = 146.08481 78.87325 74.77302
#
# Poissons Ratio (x) = 0.09903 0.27743
# Poissons Ratio (y) = 0.18341 0.12987
# Poissons Ratio (z) = 0.54201 0.13700
#
# Static dielectric constant tensor:
#      x y z
#    x 1.766500 0.000000 -0.031920 
#    y 0.000000 1.851910 0.000000 
#    z -0.031920 0.000000 1.872100 
# 
# From -- ./inp_files/17570.got.cif
#   From: 2010.05.17/outbox.cif.g08.bks.cpg/sg12_9_cif.got.tgz:17570.got - 2010.06.03 13:09:07.
