data_PCOD9189253
_publ_section_title
;
Structure prediction by ZEFSAII (Michael W. Deem and Ramdas Pophale) SiO2 
 PCOD9189253
Probable space group: C 2/M
;
_chemical_formula_sum "Si O2"
_cell_formula_units_Z 64
_cell_length_a 27.303063
_cell_length_b 18.333079
_cell_length_c 10.500565
_cell_angle_alpha 90.000000
_cell_angle_beta 146.089560
_cell_angle_gamma 90.000000
_cell_volume 2932.330784
_symmetry_space_group_name_H-M "C 2/M"
_symmetry_group_IT_number 12
_symmetry_cell_setting 'monoclinic'
loop_
_space_group_symop_operation_xyz
x,y,z
-x,y,-z
-x,-y,-z
x,-y,z
1/2+x,1/2+y,z
1/2-x,1/2+y,-z
1/2-x,1/2-y,-z
1/2+x,1/2-y,z
loop_
_atom_site_type_symbol
_atom_site_label
_atom_site_fract_x
_atom_site_fract_y
_atom_site_fract_z
Si Si1 0.946762 0.276834 0.217880
Si Si2 0.691420 0.628031 0.664962
Si Si3 0.850045 0.764903 0.757208
Si Si4 0.630131 0.220148 0.469764
Si Si5 0.595920 0.374032 0.729087
Si Si6 0.104877 0.080356 0.216027
Si Si7 0.868010 0.580849 0.159758
Si Si8 0.225028 0.580960 0.764192
O O1 0.922393 0.206525 0.251240
O O2 0.046648 0.275659 0.382849
O O3 0.886587 0.272767 0.961406
O O4 0.927894 0.351269 0.251786
O O5 0.695974 0.714814 0.651494
O O6 0.637480 0.623171 0.678642
O O7 0.642969 0.594018 0.439417
O O8 0.783702 0.589989 0.886298
O O9 0.750000 0.750000 0.500000
O O10 0.900655 0.738516 0.739346
O O11 0.863819 0.851641 0.799557
O O12 0.682417 0.144913 0.589934
O O13 0.500000 0.408575 0.500000
O O14 0.671982 0.408290 0.981340
O O15 0.130692 0.000000 0.225555
O O16 0.000000 0.083316 0.000000
O O17 0.906859 0.500000 0.227531
O O18 0.827413 0.586668 0.213826
O O19 0.210585 0.500000 0.681325
#
# Coordination Sequence:
#
# PCOD9189253 Si02
#       8
#     8   8   8   8   8   8   8   8
#     4  12  23  39  64  96 125 161 214 263 316 375
#     4  10  19  37  60  89 120 157 207 255 307 371
#     4  11  23  41  65  91 124 165 216 261 308 374
#     4  11  22  40  63  89 123 165 206 266 311 369
#     4  11  22  38  63  95 125 162 207 258 319 381
#     4  10  21  38  62  89 121 160 202 255 313 370
#     4  10  22  38  62  89 121 165 209 258 310 374
#     4  10  23  42  62  90 130 170 210 258 321 383
#
# _framework density 21.825641000000001
#
# number of rings (size 3 to 8) (size 9 to 14) (size 15 to 20)
#    0.000    1.375    1.250    6.000    0.000    3.250 
#    0.000    4.375    0.000    1.500    0.000    0.000 
#    0.000    0.000    0.000    0.000    0.000    0.000 
#
# Total GULP energy -178940.898375 kJ/mol
# GULP energy per Si atom -5591.903074 kJ/mol
# Density = 2.177596 g / cm^3
# Si number density = 21.825641 Si / 1000 Ang^3
#
#
#
# Elastic Constant Matrix: (Units=GPa)
#
#
# Indices 1 2 3 4 5 6 
#
# 1 71.1784 21.7916 14.2694 0.0000 5.0487 0.0000
# 2 21.7916 169.4852 33.2460 0.0000 10.9273 0.0000
# 3 14.2694 33.2460 93.2227 0.0000 -0.3767 0.0000
# 4 0.0000 0.0000 0.0000 3.0871 0.0000 8.5185
# 5 5.0487 10.9273 -0.3767 0.0000 35.3210 0.0000
# 6 0.0000 0.0000 0.0000 8.5185 0.0000 -6.1313
#
#
#
# Elastic Compliance Matrix: (Units=1/GPa)
#
#
# Indices 1 2 3 4 5 6 
#
# 1 0.014975 -0.001467 -0.001776 0.000000 -0.001706 0.000000
# 2 -0.001467 0.006630 -0.002148 0.000000 -0.001864 0.000000
# 3 -0.001776 -0.002148 0.011769 0.000000 0.001044 0.000000
# 4 0.000000 0.000000 0.000000 0.067015 0.000000 0.093106
# 5 -0.001706 -0.001864 0.001044 0.000000 0.029144 0.000000
# 6 0.000000 0.000000 0.000000 0.093106 0.000000 -0.033742
#
#
# Mechanical properties :
#
#
# Convention : Reuss Voigt Hill
#
# Bulk Modulus (GPa) = 44.26058 52.50002 48.38030
# Shear Modulus (GPa) = 43.81987 24.09397 33.95692
#
# Velocity S-wave (km/s) = 4.48562 3.32615 3.94868
# Velocity P-wave (km/s) = 6.86666 6.23358 6.55776
#
# Compressibility (1/GPa) = 0.02259347
#
# Stress axis : x y z
#
# Youngs Moduli (GPa) = 66.77624 150.82225 84.96956
#
# Poissons Ratio (x) = 0.22128 0.15090
# Poissons Ratio (y) = 0.09797 0.18247
# Poissons Ratio (z) = 0.11859 0.32390
#
# Static dielectric constant tensor:
#      x y z
#    x 1.847310 0.000000 0.019970 
#    y 0.000000 1.792630 0.000000 
#    z 0.019970 0.000000 1.779050 
# 
# From -- ./inp_files/190085.got.cif
#   From: 2010.05.17/outbox.cif.g08.bks.cpg/sg12_96_cif.got.tgz:190085.got - 2010.06.03 13:09:07.
