data_PCOD9189010
_publ_section_title
;
Structure prediction by ZEFSAII (Michael W. Deem and Ramdas Pophale) SiO2 
 PCOD9189010
Probable space group: C 2/M
;
_chemical_formula_sum "Si O2"
_cell_formula_units_Z 64
_cell_length_a 17.318126
_cell_length_b 30.674465
_cell_length_c 8.918346
_cell_angle_alpha 90.000000
_cell_angle_beta 137.841795
_cell_angle_gamma 90.000000
_cell_volume 3179.810441
_symmetry_space_group_name_H-M "C 2/M"
_symmetry_group_IT_number 12
_symmetry_cell_setting 'monoclinic'
loop_
_space_group_symop_operation_xyz
x,y,z
-x,y,-z
-x,-y,-z
x,-y,z
1/2+x,1/2+y,z
1/2-x,1/2+y,-z
1/2-x,1/2-y,-z
1/2+x,1/2-y,z
loop_
_atom_site_type_symbol
_atom_site_label
_atom_site_fract_x
_atom_site_fract_y
_atom_site_fract_z
Si Si1 0.940591 0.951756 0.579655
Si Si2 0.334857 0.588153 0.002030
Si Si3 0.928577 0.296039 0.549169
Si Si4 0.598546 0.950964 0.767408
Si Si5 0.323582 0.632434 0.308463
Si Si6 0.060286 0.369478 0.928655
Si Si7 0.055470 0.800913 0.313712
Si Si8 0.173778 0.171817 0.179220
O O1 0.851053 0.912175 0.439868
O O2 0.000000 0.953520 0.500000
O O3 0.894111 0.000000 0.545207
O O4 0.047489 0.938733 0.838338
O O5 0.222303 0.559474 0.871126
O O6 0.321316 0.620178 0.843086
O O7 0.343137 0.618812 0.163547
O O8 0.929352 0.249887 0.633538
O O9 0.798221 0.309051 0.324895
O O10 0.000000 0.291789 0.500000
O O11 0.987455 0.333834 0.732462
O O12 0.500000 0.948558 0.500000
O O13 0.572524 0.913892 0.851358
O O14 0.601293 0.000000 0.833859
O O15 0.405815 0.669849 0.490046
O O16 0.191694 0.646340 0.138354
O O17 0.000000 0.376979 0.000000
O O18 0.135802 0.816457 0.292062
O O19 0.925949 0.809762 0.072246
#
# Coordination Sequence:
#
# PCOD9189010 Si02
#       8
#     8   8   8   8   8   8   8   8
#     4   9  17  31  55  88 118 149 192 254 317 367
#     4  10  19  36  65  89 125 157 211 262 320 374
#     4  12  27  43  66  93 130 173 223 273 317 388
#     4  10  21  39  65  96 129 169 217 263 318 391
#     4  10  21  38  60  89 121 159 209 266 310 383
#     4  11  24  41  64  92 130 171 213 266 327 382
#     4  11  26  41  64  92 127 174 216 265 330 383
#     4  11  24  43  64  90 128 171 207 271 321 391
#
# _framework density 20.126985000000001
#
# number of rings (size 3 to 8) (size 9 to 14) (size 15 to 20)
#    0.000    1.500    1.250    4.125    5.250    3.750 
#    0.000    0.000    0.000    2.250    0.000    0.000 
#    0.000    0.000    0.000    0.000    0.000    0.000 
#
# Total GULP energy -178882.115806 kJ/mol
# GULP energy per Si atom -5590.066119 kJ/mol
# Density = 2.008118 g / cm^3
# Si number density = 20.126985 Si / 1000 Ang^3
#
#
#
# Elastic Constant Matrix: (Units=GPa)
#
#
# Indices 1 2 3 4 5 6 
#
# 1 76.6232 31.8243 37.0764 0.0000 4.6838 0.0000
# 2 31.8243 126.3790 24.0252 0.0000 -10.9001 0.0000
# 3 37.0764 24.0252 72.0648 0.0000 10.7781 0.0000
# 4 0.0000 0.0000 0.0000 20.0703 0.0000 -7.9484
# 5 4.6838 -10.9001 10.7781 0.0000 24.3174 0.0000
# 6 0.0000 0.0000 0.0000 -7.9484 0.0000 14.1736
#
#
#
# Elastic Compliance Matrix: (Units=1/GPa)
#
#
# Indices 1 2 3 4 5 6 
#
# 1 0.018438 -0.003196 -0.008220 0.000000 -0.001341 0.000000
# 2 -0.003196 0.009718 -0.002505 0.000000 0.006082 0.000000
# 3 -0.008220 -0.002505 0.020212 0.000000 -0.008498 0.000000
# 4 0.000000 0.000000 0.000000 0.064050 0.000000 0.035919
# 5 -0.001341 0.006082 -0.008498 0.000000 0.047874 0.000000
# 6 0.000000 0.000000 0.000000 0.035919 0.000000 0.090697
#
#
# Mechanical properties :
#
#
# Convention : Reuss Voigt Hill
#
# Bulk Modulus (GPa) = 48.72042 51.21319 49.96680
# Shear Modulus (GPa) = 17.50258 23.85499 20.67879
#
# Velocity S-wave (km/s) = 2.95211 3.44644 3.20881
# Velocity P-wave (km/s) = 5.98991 6.42943 6.21356
#
# Compressibility (1/GPa) = 0.02052527
#
# Stress axis : x y z
#
# Youngs Moduli (GPa) = 54.23681 102.89812 49.47634
#
# Poissons Ratio (x) = 0.32885 0.40669
# Poissons Ratio (y) = 0.17333 0.12396
# Poissons Ratio (z) = 0.44583 0.25780
#
# Static dielectric constant tensor:
#      x y z
#    x 1.688540 0.000000 0.008700 
#    y 0.000000 1.711510 0.000000 
#    z 0.008700 0.000000 1.710120 
# 
# From -- ./inp_files/80761.got.cif
#   From: 2010.05.17/outbox.cif.g08.bks.cpg/sg12_41_cif.got.tgz:80761.got - 2010.06.03 13:09:07.
