data_PCOD9189397
_publ_section_title
;
Structure prediction by ZEFSAII (Michael W. Deem and Ramdas Pophale) SiO2 
 PCOD9189397
Probable space group: C 2/M
;
_chemical_formula_sum "Si O2"
_cell_formula_units_Z 56
_cell_length_a 26.443199
_cell_length_b 17.290548
_cell_length_c 20.872271
_cell_angle_alpha 90.000000
_cell_angle_beta 160.754861
_cell_angle_gamma 90.000000
_cell_volume 3145.528006
_symmetry_space_group_name_H-M "C 2/M"
_symmetry_group_IT_number 12
_symmetry_cell_setting 'monoclinic'
loop_
_space_group_symop_operation_xyz
x,y,z
-x,y,-z
-x,-y,-z
x,-y,z
1/2+x,1/2+y,z
1/2-x,1/2+y,-z
1/2-x,1/2-y,-z
1/2+x,1/2-y,z
loop_
_atom_site_type_symbol
_atom_site_label
_atom_site_fract_x
_atom_site_fract_y
_atom_site_fract_z
Si Si1 0.172052 0.322420 0.200347
Si Si2 0.585938 0.408179 0.422814
Si Si3 0.668207 0.087207 0.669222
Si Si4 0.389936 0.268610 0.213224
Si Si5 0.634199 0.679980 0.347749
Si Si6 0.799501 0.326681 0.421083
Si Si7 0.807502 0.231146 0.903682
O O1 0.288552 0.380646 0.374411
O O2 0.192379 0.241675 0.263767
O O3 0.196387 0.296889 0.155837
O O4 0.000000 0.351847 0.000000
O O5 0.567429 0.500000 0.400221
O O6 0.436889 0.358050 0.263566
O O7 0.626344 0.375522 0.400068
O O8 0.500000 0.093204 0.500000
O O9 0.666136 0.110920 0.592372
O O10 0.774012 0.149712 0.829890
O O11 0.723000 0.000000 0.743195
O O12 0.539444 0.217843 0.373763
O O13 0.330314 0.248137 0.212289
O O14 0.250000 0.250000 0.000000
O O15 0.750000 0.750000 0.500000
O O16 0.710933 0.641527 0.376754
O O17 0.469389 0.718021 0.133255
#
# Coordination Sequence:
#
# PCOD9189397 Si02
#       7
#     8   8   8   8   8   8   8
#     4  10  19  37  62  88 120 159 206 246 296 370
#     4  11  25  39  60  94 130 159 197 260 318 354
#     4  10  21  36  55  87 127 157 193 251 315 360
#     4  11  20  39  62  88 116 160 211 246 295 369
#     4  12  20  39  63  89 120 158 213 250 297 361
#     4  10  20  34  59  88 117 155 206 252 290 361
#     4  11  21  36  65  91 109 163 216 248 291 367
#
# _framework density 17.803052000000001
#
# number of rings (size 3 to 8) (size 9 to 14) (size 15 to 20)
#    0.000    1.286    7.143    0.000    0.000    1.429 
#    0.000    2.857    0.000    4.286    0.000    0.000 
#    0.000    0.000    0.000    0.000    0.000    0.000 
#
# Total GULP energy -156156.068502 kJ/mol
# GULP energy per Si atom -5577.002446 kJ/mol
# Density = 1.776253 g / cm^3
# Si number density = 17.803052 Si / 1000 Ang^3
#
#
#
# Elastic Constant Matrix: (Units=GPa)
#
#
# Indices 1 2 3 4 5 6 
#
# 1 113.5563 43.9380 27.5818 -0.0023 2.4587 -0.0017
# 2 43.9380 119.0206 41.1475 -0.0033 -4.1212 -0.0031
# 3 27.5818 41.1475 104.6879 -0.0031 -4.7045 -0.0038
# 4 -0.0023 -0.0033 -0.0031 9.5376 -0.0024 -0.9298
# 5 2.4587 -4.1212 -4.7045 -0.0024 24.7034 -0.0026
# 6 -0.0017 -0.0031 -0.0038 -0.9298 -0.0026 21.4579
#
#
#
# Elastic Compliance Matrix: (Units=1/GPa)
#
#
# Indices 1 2 3 4 5 6 
#
# 1 0.010545 -0.003436 -0.001514 0.000000 -0.001911 0.000000
# 2 -0.003436 0.010862 -0.003296 0.000002 0.001526 0.000001
# 3 -0.001514 -0.003296 0.011325 0.000003 0.001758 0.000002
# 4 0.000000 0.000002 0.000003 0.105293 0.000012 0.004563
# 5 -0.001911 0.001526 0.001758 0.000012 0.041260 0.000006
# 6 0.000000 0.000001 0.000002 0.004563 0.000006 0.046801
#
#
# Mechanical properties :
#
#
# Convention : Reuss Voigt Hill
#
# Bulk Modulus (GPa) = 61.56694 62.51104 62.03899
# Shear Modulus (GPa) = 20.16210 26.11295 23.13752
#
# Velocity S-wave (km/s) = 3.36893 3.83400 3.60896
# Velocity P-wave (km/s) = 7.05622 7.40190 7.23112
#
# Compressibility (1/GPa) = 0.01624248
#
# Stress axis : x y z
#
# Youngs Moduli (GPa) = 94.83586 92.06054 88.29732
#
# Poissons Ratio (x) = 0.31627 0.13365
# Poissons Ratio (y) = 0.32581 0.29100
# Poissons Ratio (z) = 0.14355 0.30341
#
# Static dielectric constant tensor:
#      x y z
#    x 1.667260 0.000000 -0.022230 
#    y 0.000000 1.571810 0.000000 
#    z -0.022230 0.000000 1.627230 
# 
# From -- ./inp_files/328576.got.cif
#   From: 2010.05.17/outbox.cif.g08.bks.cpg/sg12_165_cif.got.tgz:328576.got - 2010.06.03 13:09:07.
