data_PCOD9189373
_publ_section_title
;
Structure prediction by ZEFSAII (Michael W. Deem and Ramdas Pophale) SiO2 
 PCOD9189373
Probable space group: C 2/M
;
_chemical_formula_sum "Si O2"
_cell_formula_units_Z 64
_cell_length_a 13.707638
_cell_length_b 24.207443
_cell_length_c 10.032438
_cell_angle_alpha 90.000000
_cell_angle_beta 97.836920
_cell_angle_gamma 90.000000
_cell_volume 3297.939901
_symmetry_space_group_name_H-M "C 2/M"
_symmetry_group_IT_number 12
_symmetry_cell_setting 'monoclinic'
loop_
_space_group_symop_operation_xyz
x,y,z
-x,y,-z
-x,-y,-z
x,-y,z
1/2+x,1/2+y,z
1/2-x,1/2+y,-z
1/2-x,1/2-y,-z
1/2+x,1/2-y,z
loop_
_atom_site_type_symbol
_atom_site_label
_atom_site_fract_x
_atom_site_fract_y
_atom_site_fract_z
Si Si1 0.106323 0.062367 0.464991
Si Si2 0.888668 0.720847 0.931215
Si Si3 0.884086 0.936381 0.992041
Si Si4 0.276810 0.129832 0.384889
Si Si5 0.273517 0.559100 0.240443
Si Si6 0.043423 0.438982 0.656943
Si Si7 0.264028 0.329415 0.892922
Si Si8 0.376964 0.854835 0.690985
O O1 0.167230 0.106051 0.389895
O O2 0.173968 0.057238 0.607914
O O3 0.000000 0.080002 0.500000
O O4 0.096143 0.000000 0.404145
O O5 0.844346 0.782057 0.932648
O O6 0.885670 0.700517 0.777351
O O7 0.821928 0.682598 0.016381
O O8 0.000000 0.718769 0.000000
O O9 0.814870 0.889399 0.916689
O O10 0.866670 0.000000 0.942513
O O11 0.854319 0.934540 0.141955
O O12 0.000000 0.924651 0.000000
O O13 0.344825 0.080071 0.342005
O O14 0.274728 0.174108 0.266158
O O15 0.329519 0.148992 0.533229
O O16 0.222381 0.500000 0.208594
O O17 0.196701 0.607557 0.236494
O O18 0.035065 0.500000 0.718185
O O19 0.000000 0.443632 0.500000
O O20 0.978661 0.389559 0.706067
#
# Coordination Sequence:
#
# PCOD9189373 Si02
#       8
#     8   8   8   8   8   8   8   8
#     4   9  18  31  50  79 118 159 194 233 288 349
#     4  11  24  44  65  84 113 160 201 245 298 360
#     4  10  21  36  58  87 120 158 200 246 294 350
#     4  10  21  35  57  88 118 153 194 247 294 349
#     4   9  17  32  53  81 116 155 192 236 292 347
#     4   9  17  31  56  89 123 157 190 232 292 355
#     4  11  24  42  62  88 121 154 199 248 302 356
#     4  10  19  37  62  86 117 152 198 244 291 349
#
# _framework density 19.406054999999999
#
# number of rings (size 3 to 8) (size 9 to 14) (size 15 to 20)
#    0.000    2.125    1.250    1.875    1.750    4.500 
#    0.000    0.000    0.000    4.125    0.000    0.000 
#    0.000    0.000    0.000    0.000    0.000    0.000 
#
# Total GULP energy -178343.892269 kJ/mol
# GULP energy per Si atom -5573.246633 kJ/mol
# Density = 1.936189 g / cm^3
# Si number density = 19.406055 Si / 1000 Ang^3
#
#
#
# Elastic Constant Matrix: (Units=GPa)
#
#
# Indices 1 2 3 4 5 6 
#
# 1 96.8788 39.7472 13.5980 0.0000 -10.6566 0.0000
# 2 39.7472 63.2125 32.5535 0.0000 1.9980 0.0000
# 3 13.5980 32.5535 85.1458 0.0000 -12.1066 0.0000
# 4 0.0000 0.0000 0.0000 19.5430 0.0000 0.7165
# 5 -10.6566 1.9980 -12.1066 0.0000 19.9079 0.0000
# 6 0.0000 0.0000 0.0000 0.7165 0.0000 12.7474
#
#
#
# Elastic Compliance Matrix: (Units=1/GPa)
#
#
# Indices 1 2 3 4 5 6 
#
# 1 0.016370 -0.012773 0.004047 0.000000 0.012506 0.000000
# 2 -0.012773 0.030648 -0.012137 0.000000 -0.017294 0.000000
# 3 0.004047 -0.012137 0.017755 0.000000 0.014182 0.000000
# 4 0.000000 0.000000 0.000000 0.051275 0.000000 -0.002882
# 5 0.012506 -0.017294 0.014182 0.000000 0.067286 0.000000
# 6 0.000000 0.000000 0.000000 -0.002882 0.000000 0.078609
#
#
# Mechanical properties :
#
#
# Convention : Reuss Voigt Hill
#
# Bulk Modulus (GPa) = 43.38697 46.33715 44.86206
# Shear Modulus (GPa) = 16.05909 21.06222 18.56065
#
# Velocity S-wave (km/s) = 2.87980 3.29803 3.09599
# Velocity P-wave (km/s) = 5.78478 6.19937 5.99566
#
# Compressibility (1/GPa) = 0.02304840
#
# Stress axis : x y z
#
# Youngs Moduli (GPa) = 61.08658 32.62864 56.32275
#
# Poissons Ratio (x) = 0.41676 -0.22795
# Poissons Ratio (y) = 0.78026 0.68357
# Poissons Ratio (z) = -0.24723 0.39600
#
# Static dielectric constant tensor:
#      x y z
#    x 1.691460 0.000000 -0.008640 
#    y 0.000000 1.698460 0.000000 
#    z -0.008640 0.000000 1.714060 
# 
# From -- ./inp_files/65856.got.cif
#   From: 2010.05.17/outbox.cif.g08.bks.cpg/sg12_33_cif.got.tgz:65856.got - 2010.06.03 13:09:07.
