data_PCOD9189104
_publ_section_title
;
Structure prediction by ZEFSAII (Michael W. Deem and Ramdas Pophale) SiO2 
 PCOD9189104
Probable space group: C 2/M
;
_chemical_formula_sum "Si O2"
_cell_formula_units_Z 50
_cell_length_a 16.822658
_cell_length_b 13.529656
_cell_length_c 28.840456
_cell_angle_alpha 90.000000
_cell_angle_beta 20.977454
_cell_angle_gamma 90.000000
_cell_volume 2349.996387
_symmetry_space_group_name_H-M "C 2/M"
_symmetry_group_IT_number 12
_symmetry_cell_setting 'monoclinic'
loop_
_space_group_symop_operation_xyz
x,y,z
-x,y,-z
-x,-y,-z
x,-y,z
1/2+x,1/2+y,z
1/2-x,1/2+y,-z
1/2-x,1/2-y,-z
1/2+x,1/2-y,z
loop_
_atom_site_type_symbol
_atom_site_label
_atom_site_fract_x
_atom_site_fract_y
_atom_site_fract_z
Si Si1 0.092572 0.889095 0.396879
Si Si2 0.451015 0.777436 0.711719
Si Si3 0.000000 0.000000 0.000000
Si Si4 0.891168 0.683742 0.469977
Si Si5 0.482382 0.800771 0.797961
Si Si6 0.985655 0.828241 0.086196
Si Si7 0.196693 0.108898 0.713455
O O1 0.356588 0.870238 0.259659
O O2 0.000000 0.883856 0.500000
O O3 0.983010 0.796422 0.429921
O O4 0.048799 0.000000 0.402861
O O5 0.628122 0.688849 0.617569
O O6 0.543044 0.841785 0.618601
O O7 0.460885 0.831983 0.755816
O O8 0.200612 0.753481 0.832708
O O9 0.014051 0.915078 0.951546
O O10 0.038524 0.618670 0.423627
O O11 0.607343 0.696169 0.730441
O O12 0.236373 0.790190 0.951681
O O13 0.906296 0.865828 0.179617
O O14 0.133098 0.000000 0.733483
#
# Coordination Sequence:
#
# PCOD9189104 Si02
#       7
#     8   8   2   8   8   8   8
#     4  10  20  34  55  81 111 146 184 230 288 340
#     4  10  19  37  57  77 114 151 186 231 286 334
#     4  12  20  32  60  92 116 142 190 236 290 350
#     4   9  20  38  56  80 111 151 188 238 282 336
#     4  11  21  36  60  85 116 151 189 236 287 343
#     4  11  22  37  57  90 120 147 185 242 293 345
#     4  10  22  39  60  83 116 152 198 237 283 336
#
# _framework density 21.276627999999999
#
# number of rings (size 3 to 8) (size 9 to 14) (size 15 to 20)
#    0.000    1.760    4.000    0.480    1.120    0.000 
#    1.440    4.800    0.000    2.880    0.000    0.000 
#    0.000    0.000    0.000    0.000    0.000    0.000 
#
# Total GULP energy -139174.009854 kJ/mol
# GULP energy per Si atom -5566.960394 kJ/mol
# Density = 2.122820 g / cm^3
# Si number density = 21.276628 Si / 1000 Ang^3
#
#
#
# Elastic Constant Matrix: (Units=GPa)
#
#
# Indices 1 2 3 4 5 6 
#
# 1 78.0579 12.6039 11.8147 0.0019 3.7419 0.0020
# 2 12.6039 84.7977 -4.1136 -0.0021 -7.7656 -0.0014
# 3 11.8147 -4.1136 102.2561 -0.0334 -34.3873 0.0067
# 4 0.0019 -0.0021 -0.0334 5.1472 0.0052 10.2046
# 5 3.7419 -7.7656 -34.3873 0.0052 43.4791 -0.0003
# 6 0.0020 -0.0014 0.0067 10.2046 -0.0003 5.2534
#
#
#
# Elastic Compliance Matrix: (Units=1/GPa)
#
#
# Indices 1 2 3 4 5 6 
#
# 1 0.013893 -0.002590 -0.003089 0.000006 -0.004101 -0.000014
# 2 -0.002590 0.012677 0.002242 -0.000005 0.004260 0.000011
# 3 -0.003089 0.002242 0.014237 -0.000040 0.011926 0.000062
# 4 0.000006 -0.000005 -0.000040 -0.068143 -0.000024 0.132366
# 5 -0.004101 0.004260 0.011926 -0.000024 0.033546 0.000035
# 6 -0.000014 0.000011 0.000062 0.132366 0.000035 -0.066765
#
#
# Mechanical properties :
#
#
# Convention : Reuss Voigt Hill
#
# Bulk Modulus (GPa) = 29.47004 33.96908 31.71956
# Shear Modulus (GPa) = -118.00925 27.09638 -45.45643
#
# Velocity S-wave (km/s) = -7.45551 3.57252 -4.62719
# Velocity P-wave (km/s) = 7.76092 5.74607 3.68881
#
# Compressibility (1/GPa) = 0.03393277
#
# Stress axis : x y z
#
# Youngs Moduli (GPa) = 71.97688 78.88489 70.23956
#
# Poissons Ratio (x) = 0.20435 0.21694
# Poissons Ratio (y) = 0.18645 -0.15747
# Poissons Ratio (z) = 0.22231 -0.17685
#
# Static dielectric constant tensor:
#      x y z
#    x 1.788590 0.000000 -0.007030 
#    y 0.000000 1.718070 0.000010 
#    z -0.007030 0.000010 1.852910 
# 
# From -- ./inp_files/379439.got.cif
#   From: 2010.05.17/outbox.cif.g08.bks.cpg/sg12_190_cif.got.tgz:379439.got - 2010.06.03 13:09:07.
