data_PCOD9189725
_publ_section_title
;
Structure prediction by ZEFSAII (Michael W. Deem and Ramdas Pophale) SiO2 
 PCOD9189725
Probable space group: C 2/M
;
_chemical_formula_sum "Si O2"
_cell_formula_units_Z 56
_cell_length_a 13.994402
_cell_length_b 26.627027
_cell_length_c 10.157029
_cell_angle_alpha 90.000000
_cell_angle_beta 138.451475
_cell_angle_gamma 90.000000
_cell_volume 2510.288697
_symmetry_space_group_name_H-M "C 2/M"
_symmetry_group_IT_number 12
_symmetry_cell_setting 'monoclinic'
loop_
_space_group_symop_operation_xyz
x,y,z
-x,y,-z
-x,-y,-z
x,-y,z
1/2+x,1/2+y,z
1/2-x,1/2+y,-z
1/2-x,1/2-y,-z
1/2+x,1/2-y,z
loop_
_atom_site_type_symbol
_atom_site_label
_atom_site_fract_x
_atom_site_fract_y
_atom_site_fract_z
Si Si1 0.659894 0.184970 0.208161
Si Si2 0.441353 0.365321 0.158902
Si Si3 0.046329 0.331403 0.365500
Si Si4 0.370651 0.265415 0.229932
Si Si5 0.826716 0.400435 0.980236
Si Si6 0.715581 0.000000 0.683483
Si Si7 0.798934 0.111663 0.743969
Si Si8 0.459659 0.000000 0.221811
O O1 0.653421 0.183426 0.357084
O O2 0.783288 0.218137 0.269423
O O3 0.500000 0.203735 0.000000
O O4 0.673328 0.128766 0.159036
O O5 0.445292 0.314742 0.247139
O O6 0.599086 0.381876 0.277535
O O7 0.336410 0.402390 0.132931
O O8 0.362176 0.359519 0.935693
O O9 0.139843 0.366908 0.555454
O O10 0.977126 0.280912 0.346773
O O11 0.915708 0.362417 0.165835
O O12 0.250000 0.250000 0.000000
O O13 0.911931 0.451968 0.087174
O O14 0.798491 0.052483 0.772247
O O15 0.620285 0.000000 0.449670
O O16 0.627045 0.000000 0.729025
#
# Coordination Sequence:
#
# PCOD9189725 Si02
#       8
#     8   8   8   8   8   4   8   4
#     4   9  19  36  63  92 128 167 211 260 317 386
#     4  10  23  40  60  92 131 167 212 272 320 390
#     4  11  22  41  67  92 130 169 214 269 322 391
#     4  11  20  40  66  90 124 173 214 263 328 377
#     4  10  19  38  61  91 123 168 209 262 323 379
#     4  11  22  36  64  96 131 171 207 278 332 381
#     4  11  24  41  62  96 135 165 218 268 330 390
#     4  11  20  35  64  94 129 161 221 269 329 386
#
# _framework density 22.30819
#
# number of rings (size 3 to 8) (size 9 to 14) (size 15 to 20)
#    0.000    1.571    7.143    0.000    0.000    5.143 
#    0.000    8.214    0.000    0.000    0.000    5.000 
#    0.000    0.000    0.000    0.000    0.000    0.000 
#
# Total GULP energy -156524.669374 kJ/mol
# GULP energy per Si atom -5590.166763 kJ/mol
# Density = 2.225742 g / cm^3
# Si number density = 22.308190 Si / 1000 Ang^3
#
#
#
# Elastic Constant Matrix: (Units=GPa)
#
#
# Indices 1 2 3 4 5 6 
#
# 1 130.2146 44.2099 18.3717 0.0000 11.5737 0.0000
# 2 44.2099 126.5327 25.6613 0.0000 2.6220 0.0000
# 3 18.3717 25.6613 55.1273 0.0000 -0.3311 0.0000
# 4 0.0000 0.0000 0.0000 6.4207 0.0000 5.3423
# 5 11.5737 2.6220 -0.3311 0.0000 27.1187 0.0000
# 6 0.0000 0.0000 0.0000 5.3423 0.0000 6.6016
#
#
#
# Elastic Compliance Matrix: (Units=1/GPa)
#
#
# Indices 1 2 3 4 5 6 
#
# 1 0.009202 -0.002774 -0.001797 0.000000 -0.003681 0.000000
# 2 -0.002774 0.009585 -0.003536 0.000000 0.000214 0.000000
# 3 -0.001797 -0.003536 0.020393 0.000000 0.001358 0.000000
# 4 0.000000 0.000000 0.000000 0.476775 0.000000 -0.385831
# 5 -0.003681 0.000214 0.001358 0.000000 0.038442 0.000000
# 6 0.000000 0.000000 0.000000 -0.385831 0.000000 0.463713
#
#
# Mechanical properties :
#
#
# Convention : Reuss Voigt Hill
#
# Bulk Modulus (GPa) = 43.54470 54.26226 48.90348
# Shear Modulus (GPa) = 4.79856 22.93698 13.86777
#
# Velocity S-wave (km/s) = 1.46823 3.21001 2.49599
# Velocity P-wave (km/s) = 4.73669 6.17379 5.50236
#
# Compressibility (1/GPa) = 0.02296491
#
# Stress axis : x y z
#
# Youngs Moduli (GPa) = 108.66765 104.32827 49.03666
#
# Poissons Ratio (x) = 0.28945 0.08814
# Poissons Ratio (y) = 0.30149 0.17339
# Poissons Ratio (z) = 0.19532 0.36889
#
# Static dielectric constant tensor:
#      x y z
#    x 1.858660 0.000000 0.010060 
#    y 0.000000 1.800570 0.000000 
#    z 0.010060 0.000000 1.841350 
# 
# From -- ./inp_files/149538.got.cif
#   From: 2010.05.17/outbox.cif.g08.bks.cpg/sg12_75_cif.got.tgz:149538.got - 2010.06.03 13:09:07.
