data_PCOD9189967
_publ_section_title
;
Structure prediction by ZEFSAII (Michael W. Deem and Ramdas Pophale) SiO2 
 PCOD9189967
Probable space group: C 2/M
;
_chemical_formula_sum "Si O2"
_cell_formula_units_Z 64
_cell_length_a 14.104435
_cell_length_b 13.092794
_cell_length_c 22.391002
_cell_angle_alpha 90.000000
_cell_angle_beta 137.043239
_cell_angle_gamma 90.000000
_cell_volume 2817.689653
_symmetry_space_group_name_H-M "C 2/M"
_symmetry_group_IT_number 12
_symmetry_cell_setting 'monoclinic'
loop_
_space_group_symop_operation_xyz
x,y,z
-x,y,-z
-x,-y,-z
x,-y,z
1/2+x,1/2+y,z
1/2-x,1/2+y,-z
1/2-x,1/2-y,-z
1/2+x,1/2-y,z
loop_
_atom_site_type_symbol
_atom_site_label
_atom_site_fract_x
_atom_site_fract_y
_atom_site_fract_z
Si Si1 0.266604 0.631801 0.019413
Si Si2 0.853293 0.169648 0.187703
Si Si3 0.345505 0.113450 0.566286
Si Si4 0.298792 0.205334 0.771776
Si Si5 0.053951 0.886286 0.089036
Si Si6 0.445183 0.886799 0.179153
Si Si7 0.160616 0.171626 0.372459
Si Si8 0.410668 0.807653 0.403675
O O1 0.288751 0.619275 0.099417
O O2 0.410506 0.600458 0.057123
O O3 0.250000 0.750000 0.000000
O O4 0.138995 0.596899 0.921088
O O5 0.747722 0.144345 0.191822
O O6 0.870874 0.293854 0.181729
O O7 0.009853 0.139856 0.278924
O O8 0.216657 0.125943 0.460622
O O9 0.342731 0.206344 0.612423
O O10 0.483550 0.126829 0.588060
O O11 0.341842 0.000000 0.590271
O O12 0.359005 0.309999 0.829154
O O13 0.408354 0.156856 0.777098
O O14 0.156916 0.226888 0.671386
O O15 0.117598 0.000000 0.108456
O O16 0.000000 0.844095 0.000000
O O17 0.451759 0.000000 0.210998
O O18 0.276116 0.145052 0.375300
O O19 0.500000 0.764909 0.500000
#
# Coordination Sequence:
#
# PCOD9189967 Si02
#       8
#     8   8   8   8   8   8   8   8
#     4  10  19  39  60  86 124 168 205 256 324 374
#     4  11  22  40  69  89 125 175 214 260 322 382
#     4  10  22  40  67  98 126 164 214 264 326 391
#     4  12  23  40  65  95 132 170 209 271 333 379
#     4  11  22  37  63  98 128 162 214 268 320 383
#     4  11  24  43  67  94 128 171 221 265 315 392
#     4  10  20  40  65  92 132 165 206 267 323 377
#     4  10  21  40  65  90 126 166 211 264 326 380
#
# _framework density 22.713643000000001
#
# number of rings (size 3 to 8) (size 9 to 14) (size 15 to 20)
#    0.000    1.375    5.000    1.875    0.000    4.750 
#    0.000    6.250    0.000    9.750    0.000    0.000 
#    0.000    0.000    0.000    0.000    0.000    0.000 
#
# Total GULP energy -178447.987301 kJ/mol
# GULP energy per Si atom -5576.499603 kJ/mol
# Density = 2.266195 g / cm^3
# Si number density = 22.713643 Si / 1000 Ang^3
#
#
#
# Elastic Constant Matrix: (Units=GPa)
#
#
# Indices 1 2 3 4 5 6 
#
# 1 72.3952 -2.0747 2.1779 0.0000 -4.0602 0.0000
# 2 -2.0747 97.0552 0.9761 0.0000 10.9454 0.0000
# 3 2.1779 0.9761 118.8419 0.0000 -4.1101 0.0000
# 4 0.0000 0.0000 0.0000 5.4178 0.0000 8.0693
# 5 -4.0602 10.9454 -4.1101 0.0000 34.9909 0.0000
# 6 0.0000 0.0000 0.0000 8.0693 0.0000 26.1532
#
#
#
# Elastic Compliance Matrix: (Units=1/GPa)
#
#
# Indices 1 2 3 4 5 6 
#
# 1 0.013910 0.000124 -0.000202 0.000000 0.001551 0.000000
# 2 0.000124 0.010686 -0.000206 0.000000 -0.003352 0.000000
# 3 -0.000202 -0.000206 0.008456 0.000000 0.001034 0.000000
# 4 0.000000 0.000000 0.000000 0.341517 0.000000 -0.105372
# 5 0.001551 -0.003352 0.001034 0.000000 0.029929 0.000000
# 6 0.000000 0.000000 0.000000 -0.105372 0.000000 0.070748
#
#
# Mechanical properties :
#
#
# Convention : Reuss Voigt Hill
#
# Bulk Modulus (GPa) = 30.78443 32.27233 31.52838
# Shear Modulus (GPa) = 10.27451 32.45992 21.36721
#
# Velocity S-wave (km/s) = 2.12916 3.78444 3.07045
# Velocity P-wave (km/s) = 4.43025 5.77366 5.14598
#
# Compressibility (1/GPa) = 0.03248395
#
# Stress axis : x y z
#
# Youngs Moduli (GPa) = 71.89212 93.57839 118.26337
#
# Poissons Ratio (x) = -0.01164 0.02392
# Poissons Ratio (y) = -0.00895 0.02436
# Poissons Ratio (z) = 0.01454 0.01928
#
# Static dielectric constant tensor:
#      x y z
#    x 1.846440 0.000000 0.015140 
#    y 0.000000 1.999500 0.000000 
#    z 0.015140 0.000000 1.934480 
# 
# From -- ./inp_files/340180.got.cif
#   From: 2010.05.17/outbox.cif.g08.bks.cpg/sg12_171_cif.got.tgz:340180.got - 2010.06.03 13:09:07.
