data_PCOD9189851
_publ_section_title
;
Structure prediction by ZEFSAII (Michael W. Deem and Ramdas Pophale) SiO2 
 PCOD9189851
Probable space group: C 2/M
;
_chemical_formula_sum "Si O2"
_cell_formula_units_Z 50
_cell_length_a 20.152135
_cell_length_b 7.497678
_cell_length_c 17.191912
_cell_angle_alpha 90.000000
_cell_angle_beta 58.627595
_cell_angle_gamma 90.000000
_cell_volume 2217.833848
_symmetry_space_group_name_H-M "C 2/M"
_symmetry_group_IT_number 12
_symmetry_cell_setting 'monoclinic'
loop_
_space_group_symop_operation_xyz
x,y,z
-x,y,-z
-x,-y,-z
x,-y,z
1/2+x,1/2+y,z
1/2-x,1/2+y,-z
1/2-x,1/2-y,-z
1/2+x,1/2-y,z
loop_
_atom_site_type_symbol
_atom_site_label
_atom_site_fract_x
_atom_site_fract_y
_atom_site_fract_z
Si Si1 0.620692 0.206767 0.274826
Si Si2 0.864509 0.282937 0.559223
Si Si3 0.689718 0.714376 0.665796
Si Si4 0.000000 0.500000 0.000000
Si Si5 0.950289 0.794207 0.352673
Si Si6 0.240172 0.213268 0.915495
Si Si7 0.110793 0.213160 0.878052
O O1 0.618321 0.280579 0.363729
O O2 0.535186 0.213689 0.291113
O O3 0.686783 0.284282 0.178693
O O4 0.642317 0.000000 0.272617
O O5 0.868318 0.500000 0.554957
O O6 0.776428 0.222958 0.594090
O O7 0.923905 0.218558 0.458180
O O8 0.692577 0.500000 0.653191
O O9 0.620546 0.784792 0.654057
O O10 0.666268 0.743387 0.769706
O O11 0.962580 0.341348 0.078812
O O12 0.958246 0.000000 0.324856
O O13 0.160045 0.272585 0.924205
O O14 0.238866 0.000000 0.908164
O O15 0.250000 0.250000 0.000000
O O16 0.093239 0.000000 0.891180
#
# Coordination Sequence:
#
# PCOD9189851 Si02
#       7
#     8   8   8   2   8   8   8
#     4  10  21  40  62  85 119 167 213 254 305 384
#     4  10  19  38  65  85 114 167 215 251 304 385
#     4   9  19  40  65  84 123 170 210 247 315 390
#     4  12  26  40  68 106 128 162 228 270 320 398
#     4  11  23  36  55  94 129 158 202 262 324 372
#     4  10  22  41  68  93 123 167 216 267 327 387
#     4  10  22  46  68  93 133 177 212 267 332 391
#
# _framework density 22.544519999999999
#
# number of rings (size 3 to 8) (size 9 to 14) (size 15 to 20)
#    0.000    1.920    1.600    1.680    1.120    4.480 
#    7.200    3.200    0.000    0.000    0.000    0.000 
#    0.000    0.000    0.000    0.000    0.000    0.000 
#
# Total GULP energy -139420.713390 kJ/mol
# GULP energy per Si atom -5576.828536 kJ/mol
# Density = 2.249321 g / cm^3
# Si number density = 22.544520 Si / 1000 Ang^3
#
#
#
# Elastic Constant Matrix: (Units=GPa)
#
#
# Indices 1 2 3 4 5 6 
#
# 1 79.5509 -5.1648 10.7120 -0.0001 9.1299 0.0000
# 2 -5.1648 77.7378 4.7174 -0.0019 -4.1546 -0.0006
# 3 10.7120 4.7174 58.6502 -0.0002 -0.1948 -0.0002
# 4 -0.0001 -0.0019 -0.0002 149.1969 -0.0003 32.0001
# 5 9.1299 -4.1546 -0.1948 -0.0003 35.7045 0.0001
# 6 0.0000 -0.0006 -0.0002 32.0001 0.0001 22.6225
#
#
#
# Elastic Compliance Matrix: (Units=1/GPa)
#
#
# Indices 1 2 3 4 5 6 
#
# 1 0.013347 0.000862 -0.002518 0.000000 -0.003326 0.000000
# 2 0.000862 0.013063 -0.001204 0.000000 0.001293 0.000000
# 3 -0.002518 -0.001204 0.017609 0.000000 0.000600 0.000000
# 4 0.000000 0.000000 0.000000 0.009622 0.000000 -0.013610
# 5 -0.003326 0.001293 0.000600 0.000000 0.029012 0.000000
# 6 0.000000 0.000000 0.000000 -0.013610 0.000000 0.063456
#
#
# Mechanical properties :
#
#
# Convention : Reuss Voigt Hill
#
# Bulk Modulus (GPa) = 26.11018 26.27422 26.19220
# Shear Modulus (GPa) = 30.37749 55.21640 42.79695
#
# Velocity S-wave (km/s) = 3.67474 4.95432 4.36171
# Velocity P-wave (km/s) = 5.44166 6.66384 6.08352
#
# Compressibility (1/GPa) = 0.03829923
#
# Stress axis : x y z
#
# Youngs Moduli (GPa) = 74.92116 76.55109 56.78918
#
# Poissons Ratio (x) = -0.06597 0.14300
# Poissons Ratio (y) = -0.06457 0.06836
# Poissons Ratio (z) = 0.18866 0.09215
#
# Static dielectric constant tensor:
#      x y z
#    x 1.890220 0.000000 0.009790 
#    y 0.000000 1.855330 0.000000 
#    z 0.009790 0.000000 1.813730 
# 
# From -- ./inp_files/274923.got.cif
#   From: 2010.05.17/outbox.cif.g08.bks.cpg/sg12_138_cif.got.tgz:274923.got - 2010.06.03 13:09:07.
