data_PCOD9189067
_publ_section_title
;
Structure prediction by ZEFSAII (Michael W. Deem and Ramdas Pophale) SiO2 
 PCOD9189067
Probable space group: C 2/M
;
_chemical_formula_sum "Si O2"
_cell_formula_units_Z 48
_cell_length_a 11.262435
_cell_length_b 14.198311
_cell_length_c 23.940742
_cell_angle_alpha 90.000000
_cell_angle_beta 146.364650
_cell_angle_gamma 90.000000
_cell_volume 2120.518845
_symmetry_space_group_name_H-M "C 2/M"
_symmetry_group_IT_number 12
_symmetry_cell_setting 'monoclinic'
loop_
_space_group_symop_operation_xyz
x,y,z
-x,y,-z
-x,-y,-z
x,-y,z
1/2+x,1/2+y,z
1/2-x,1/2+y,-z
1/2-x,1/2-y,-z
1/2+x,1/2-y,z
loop_
_atom_site_type_symbol
_atom_site_label
_atom_site_fract_x
_atom_site_fract_y
_atom_site_fract_z
Si Si1 0.256077 0.795327 0.648643
Si Si2 0.224224 0.604369 0.160954
Si Si3 0.354439 0.733358 0.797802
Si Si4 0.875750 0.607410 0.376653
Si Si5 0.187837 0.891168 0.508640
Si Si6 0.713880 0.395683 0.947396
O O1 0.407942 0.794189 0.762453
O O2 0.218679 0.685624 0.619176
O O3 0.288938 0.857343 0.607313
O O4 0.024514 0.829672 0.582084
O O5 0.289895 0.500000 0.207824
O O6 0.284702 0.697799 0.218229
O O7 0.290170 0.609508 0.122092
O O8 0.963828 0.608725 0.061066
O O9 0.228772 0.644431 0.722308
O O10 0.559196 0.686809 0.907143
O O11 0.820966 0.500000 0.368102
O O12 0.128864 0.615402 0.465743
O O13 0.123971 0.000000 0.488118
O O14 0.636781 0.500000 0.933615
#
# Coordination Sequence:
#
# PCOD9189067 Si02
#       6
#     8   8   8   8   8   8
#     4   9  20  31  54  75 101 129 175 204 248 292
#     4   9  19  34  53  75 102 133 168 205 247 300
#     4  10  20  29  56  76 105 123 175 208 251 285
#     4   9  20  34  51  73 101 133 168 207 251 297
#     4  10  19  37  54  71 102 140 168 200 253 302
#     4   9  18  35  54  74 102 137 165 198 254 306
#
# _framework density 22.635967999999998
#
# number of rings (size 3 to 8) (size 9 to 14) (size 15 to 20)
#    1.000    1.667    0.000    3.500    2.333    1.333 
#    0.000    1.667    0.000    2.000    0.000    5.833 
#    0.000    0.000    0.000    0.000    0.000    0.000 
#
# Total GULP energy -133771.019460 kJ/mol
# GULP energy per Si atom -5573.792477 kJ/mol
# Density = 2.258445 g / cm^3
# Si number density = 22.635968 Si / 1000 Ang^3
#
#
#
# Elastic Constant Matrix: (Units=GPa)
#
#
# Indices 1 2 3 4 5 6 
#
# 1 27.6306 20.6564 5.0191 0.0000 9.6543 0.0000
# 2 20.6564 151.1088 9.0431 0.0000 5.2895 0.0000
# 3 5.0191 9.0431 39.3511 0.0000 9.2863 0.0001
# 4 0.0000 0.0000 0.0000 24.0382 0.0001 -7.3428
# 5 9.6543 5.2895 9.2863 0.0001 28.0829 0.0000
# 6 0.0000 0.0000 0.0001 -7.3428 0.0000 22.4459
#
#
#
# Elastic Compliance Matrix: (Units=1/GPa)
#
#
# Indices 1 2 3 4 5 6 
#
# 1 0.045611 -0.005668 -0.001157 0.000000 -0.014230 0.000000
# 2 -0.005668 0.007432 -0.001209 0.000000 0.000948 0.000000
# 3 -0.001157 -0.001209 0.027864 0.000000 -0.008589 0.000000
# 4 0.000000 0.000000 0.000000 0.046219 0.000000 0.015120
# 5 -0.014230 0.000948 -0.008589 0.000000 0.043162 0.000000
# 6 0.000000 0.000000 0.000000 0.015120 0.000000 0.049498
#
#
# Mechanical properties :
#
#
# Convention : Reuss Voigt Hill
#
# Bulk Modulus (GPa) = 15.42248 31.94751 23.68500
# Shear Modulus (GPa) = 19.42002 27.13818 23.27910
#
# Velocity S-wave (km/s) = 2.93222 3.46626 3.21037
# Velocity P-wave (km/s) = 4.27691 5.49220 4.92220
#
# Compressibility (1/GPa) = 0.06484042
#
# Stress axis : x y z
#
# Youngs Moduli (GPa) = 21.92451 134.55971 35.88813
#
# Poissons Ratio (x) = 0.76263 0.04152
# Poissons Ratio (y) = 0.12426 0.04338
# Poissons Ratio (z) = 0.02537 0.16265
#
# Static dielectric constant tensor:
#      x y z
#    x 1.848200 0.000000 -0.005860 
#    y 0.000000 1.850990 0.000000 
#    z -0.005860 0.000000 1.928820 
# 
# From -- ./inp_files/376314.got.cif
#   From: 2010.05.17/outbox.cif.g08.bks.cpg/sg12_189_cif.got.tgz:376314.got - 2010.06.03 13:09:07.
