data_PCOD9189995
_publ_section_title
;
Structure prediction by ZEFSAII (Michael W. Deem and Ramdas Pophale) SiO2 
 PCOD9189995
Probable space group: C 2/M
;
_chemical_formula_sum "Si O2"
_cell_formula_units_Z 64
_cell_length_a 26.032686
_cell_length_b 16.366508
_cell_length_c 21.193153
_cell_angle_alpha 90.000000
_cell_angle_beta 158.242568
_cell_angle_gamma 90.000000
_cell_volume 3347.089225
_symmetry_space_group_name_H-M "C 2/M"
_symmetry_group_IT_number 12
_symmetry_cell_setting 'monoclinic'
loop_
_space_group_symop_operation_xyz
x,y,z
-x,y,-z
-x,-y,-z
x,-y,z
1/2+x,1/2+y,z
1/2-x,1/2+y,-z
1/2-x,1/2-y,-z
1/2+x,1/2-y,z
loop_
_atom_site_type_symbol
_atom_site_label
_atom_site_fract_x
_atom_site_fract_y
_atom_site_fract_z
Si Si1 0.371437 0.333150 0.478992
Si Si2 0.541656 0.687677 0.978961
Si Si3 0.713538 0.596697 0.072362
Si Si4 0.748701 0.836519 0.209895
Si Si5 0.342818 0.214663 0.662661
Si Si6 0.954681 0.294052 0.382472
Si Si7 0.360026 0.402208 0.147325
Si Si8 0.406420 0.905473 0.080846
O O1 0.315594 0.371106 0.349916
O O2 0.256176 0.332569 0.401181
O O3 0.416733 0.241379 0.509553
O O4 0.510785 0.371191 0.665695
O O5 0.418347 0.716606 0.791931
O O6 0.500000 0.655575 0.000000
O O7 0.635376 0.626262 0.045599
O O8 0.633295 0.769076 0.096365
O O9 0.734643 0.500000 0.095946
O O10 0.857115 0.645622 0.233490
O O11 0.628089 0.620743 0.912403
O O12 0.863824 0.784313 0.302550
O O13 0.674210 0.898654 0.078090
O O14 0.250000 0.250000 0.500000
O O15 0.462700 0.154553 0.773322
O O16 0.000000 0.334487 0.500000
O O17 0.358048 0.500000 0.149793
O O18 0.210541 0.374989 0.003343
O O19 0.443233 0.000000 0.135568
#
# Coordination Sequence:
#
# PCOD9189995 Si02
#       8
#     8   8   8   8   8   8   8   8
#     4  11  20  35  60  89 117 151 198 249 294 350
#     4  10  19  39  62  84 120 154 197 250 299 361
#     4  10  22  38  58  83 114 155 200 246 301 360
#     4   9  18  36  58  89 115 149 197 244 295 347
#     4  11  24  38  59  90 120 158 205 247 302 358
#     4   9  19  34  58  84 110 141 190 253 294 339
#     4  10  22  38  57  86 123 161 197 240 294 355
#     4  10  22  40  60  84 123 165 200 241 299 363
#
# _framework density 19.121091
#
# number of rings (size 3 to 8) (size 9 to 14) (size 15 to 20)
#    0.000    2.000    2.500    0.750    1.750    2.000 
#    0.000    2.500    0.000    0.000    0.000    0.000 
#    0.000    0.000    0.000    0.000    0.000    0.000 
#
# Total GULP energy -178515.901815 kJ/mol
# GULP energy per Si atom -5578.621932 kJ/mol
# Density = 1.907757 g / cm^3
# Si number density = 19.121091 Si / 1000 Ang^3
#
#
#
# Elastic Constant Matrix: (Units=GPa)
#
#
# Indices 1 2 3 4 5 6 
#
# 1 90.6408 12.8171 21.8097 0.0009 1.1067 0.0005
# 2 12.8171 27.9608 17.6599 0.0019 -3.9548 0.0020
# 3 21.8097 17.6599 99.3509 0.0009 -13.7196 0.0014
# 4 0.0009 0.0019 0.0009 -5.7350 0.0011 -1.2004
# 5 1.1067 -3.9548 -13.7196 0.0011 37.9102 0.0011
# 6 0.0005 0.0020 0.0014 -1.2004 0.0011 17.6301
#
#
#
# Elastic Compliance Matrix: (Units=1/GPa)
#
#
# Indices 1 2 3 4 5 6 
#
# 1 0.012191 -0.004488 -0.002097 0.000000 -0.001583 0.000000
# 2 -0.004488 0.042043 -0.006173 0.000013 0.002283 -0.000003
# 3 -0.002097 -0.006173 0.012150 0.000000 0.003814 0.000000
# 4 0.000000 0.000013 0.000000 -0.171917 0.000007 -0.011705
# 5 -0.001583 0.002283 0.003814 0.000007 0.028043 -0.000002
# 6 0.000000 -0.000003 0.000000 -0.011705 -0.000002 0.055924
#
#
# Mechanical properties :
#
#
# Convention : Reuss Voigt Hill
#
# Bulk Modulus (GPa) = 24.46874 35.83622 30.15248
# Shear Modulus (GPa) = 284.54859 21.00545 152.77702
#
# Velocity S-wave (km/s) = 12.21217 3.31803 8.94836
# Velocity P-wave (km/s) = 14.54902 5.78459 11.07103
#
# Compressibility (1/GPa) = 0.04086848
#
# Stress axis : x y z
#
# Youngs Moduli (GPa) = 82.02730 23.78512 82.30694
#
# Poissons Ratio (x) = 0.10674 0.17261
# Poissons Ratio (y) = 0.36811 0.50807
# Poissons Ratio (z) = 0.17202 0.14682
#
# Static dielectric constant tensor:
#      x y z
#    x 1.697840 0.000000 -0.003520 
#    y 0.000000 1.640320 0.000000 
#    z -0.003520 0.000000 1.685150 
# 
# From -- ./inp_files/328660.got.cif
#   From: 2010.05.17/outbox.cif.g08.bks.cpg/sg12_165_cif.got.tgz:328660.got - 2010.06.03 13:09:07.
