data_PCOD9189079
_publ_section_title
;
Structure prediction by ZEFSAII (Michael W. Deem and Ramdas Pophale) SiO2 
 PCOD9189079
Probable space group: C 2/M
;
_chemical_formula_sum "Si O2"
_cell_formula_units_Z 56
_cell_length_a 14.094448
_cell_length_b 29.420027
_cell_length_c 8.822757
_cell_angle_alpha 90.000000
_cell_angle_beta 117.204545
_cell_angle_gamma 90.000000
_cell_volume 3253.740175
_symmetry_space_group_name_H-M "C 2/M"
_symmetry_group_IT_number 12
_symmetry_cell_setting 'monoclinic'
loop_
_space_group_symop_operation_xyz
x,y,z
-x,y,-z
-x,-y,-z
x,-y,z
1/2+x,1/2+y,z
1/2-x,1/2+y,-z
1/2-x,1/2-y,-z
1/2+x,1/2-y,z
loop_
_atom_site_type_symbol
_atom_site_label
_atom_site_fract_x
_atom_site_fract_y
_atom_site_fract_z
Si Si1 0.056757 0.827044 0.693262
Si Si2 0.349215 0.299343 0.710715
Si Si3 0.882751 0.390869 0.838604
Si Si4 0.617121 0.618444 0.029598
Si Si5 0.214287 0.447930 0.971787
Si Si6 0.734085 0.202270 0.309680
Si Si7 0.020599 0.552330 0.346738
O O1 0.155810 0.798279 0.704014
O O2 0.000000 0.846746 0.500000
O O3 0.965616 0.799931 0.717390
O O4 0.099897 0.862416 0.847384
O O5 0.347999 0.340247 0.832161
O O6 0.324561 0.249899 0.759176
O O7 0.266286 0.304433 0.510364
O O8 0.804567 0.420990 0.885497
O O9 0.835318 0.340908 0.787763
O O10 0.901789 0.416325 0.693794
O O11 0.000000 0.388748 0.000000
O O12 0.500000 0.602910 0.000000
O O13 0.705170 0.579427 0.077626
O O14 0.248704 0.500000 0.020078
O O15 0.095662 0.448783 0.814983
O O16 0.060039 0.500000 0.381894
O O17 0.000000 0.569527 0.500000
#
# Coordination Sequence:
#
# PCOD9189079 Si02
#       7
#     8   8   8   8   8   8   8
#     4   9  18  36  56  75 106 148 177 215 270 324
#     4   9  21  35  54  81 109 142 180 219 273 316
#     4  10  20  34  54  81 108 144 180 219 268 325
#     4  10  20  36  56  81 106 146 183 223 270 320
#     4  10  20  36  56  80 108 143 182 221 275 325
#     4  10  19  37  55  79 110 142 179 224 261 321
#     4   9  19  35  54  80 113 143 175 222 278 325
#
# _framework density 17.210964000000001
#
# number of rings (size 3 to 8) (size 9 to 14) (size 15 to 20)
#    0.000    2.429    1.429    0.429    2.000    4.286 
#    5.143    0.714    0.000    0.429    0.000    0.000 
#    0.000    0.000    0.000    0.000    0.000    0.000 
#
# Total GULP energy -155984.677201 kJ/mol
# GULP energy per Si atom -5570.881329 kJ/mol
# Density = 1.717179 g / cm^3
# Si number density = 17.210964 Si / 1000 Ang^3
#
#
#
# Elastic Constant Matrix: (Units=GPa)
#
#
# Indices 1 2 3 4 5 6 
#
# 1 95.3446 73.0198 26.9354 0.0000 -15.6297 0.0000
# 2 73.0198 124.9992 28.1566 0.0000 -10.6878 0.0000
# 3 26.9354 28.1566 42.2283 0.0000 -17.1478 0.0000
# 4 0.0000 0.0000 0.0000 20.4286 0.0000 -4.3006
# 5 -15.6297 -10.6878 -17.1478 0.0000 24.4164 0.0000
# 6 0.0000 0.0000 0.0000 -4.3006 0.0000 14.8374
#
#
#
# Elastic Compliance Matrix: (Units=1/GPa)
#
#
# Indices 1 2 3 4 5 6 
#
# 1 0.020770 -0.010808 -0.003587 0.000000 0.006046 0.000000
# 2 -0.010808 0.015041 -0.004576 0.000000 -0.003548 0.000000
# 3 -0.003587 -0.004576 0.038155 0.000000 0.022498 0.000000
# 4 0.000000 0.000000 0.000000 0.052132 0.000000 0.015110
# 5 0.006046 -0.003548 0.022498 0.000000 0.059073 0.000000
# 6 0.000000 0.000000 0.000000 0.015110 0.000000 0.071777
#
#
# Mechanical properties :
#
#
# Convention : Reuss Voigt Hill
#
# Bulk Modulus (GPa) = 27.75844 57.64395 42.70119
# Shear Modulus (GPa) = 16.29202 20.90049 18.59626
#
# Velocity S-wave (km/s) = 3.08004 3.48856 3.29065
# Velocity P-wave (km/s) = 5.36770 7.05635 6.26914
#
# Compressibility (1/GPa) = 0.03602507
#
# Stress axis : x y z
#
# Youngs Moduli (GPa) = 48.14605 66.48412 26.20866
#
# Poissons Ratio (x) = 0.71858 0.09400
# Poissons Ratio (y) = 0.52038 0.11993
# Poissons Ratio (z) = 0.17268 0.30422
#
# Static dielectric constant tensor:
#      x y z
#    x 1.580130 0.000000 -0.002710 
#    y 0.000000 1.560250 0.000000 
#    z -0.002710 0.000000 1.611990 
# 
# From -- ./inp_files/65963.got.cif
#   From: 2010.05.17/outbox.cif.g08.bks.cpg/sg12_33_cif.got.tgz:65963.got - 2010.06.03 13:09:07.
