data_PCOD9189193
_publ_section_title
;
Structure prediction by ZEFSAII (Michael W. Deem and Ramdas Pophale) SiO2 
 PCOD9189193
Probable space group: C 2/M
;
_chemical_formula_sum "Si O2"
_cell_formula_units_Z 58
_cell_length_a 19.148364
_cell_length_b 14.662714
_cell_length_c 23.999614
_cell_angle_alpha 90.000000
_cell_angle_beta 20.093548
_cell_angle_gamma 90.000000
_cell_volume 2314.969276
_symmetry_space_group_name_H-M "C 2/M"
_symmetry_group_IT_number 12
_symmetry_cell_setting 'monoclinic'
loop_
_space_group_symop_operation_xyz
x,y,z
-x,y,-z
-x,-y,-z
x,-y,z
1/2+x,1/2+y,z
1/2-x,1/2+y,-z
1/2-x,1/2-y,-z
1/2+x,1/2-y,z
loop_
_atom_site_type_symbol
_atom_site_label
_atom_site_fract_x
_atom_site_fract_y
_atom_site_fract_z
Si Si1 0.180783 0.852278 0.931549
Si Si2 0.000000 0.500000 0.000000
Si Si3 0.168783 0.606832 0.067737
Si Si4 0.052986 0.238611 0.517086
Si Si5 0.260374 0.096510 0.748595
Si Si6 0.081326 0.647278 0.014786
Si Si7 0.529213 0.397687 0.638081
Si Si8 0.137819 0.892393 0.679804
O O1 0.336710 0.853251 0.866072
O O2 0.968248 0.901739 0.103397
O O3 0.257771 0.898187 0.817803
O O4 0.112381 0.749319 0.971658
O O5 0.070993 0.581445 0.902720
O O6 0.121913 0.500000 0.106043
O O7 0.047952 0.648210 0.106274
O O8 0.403293 0.618033 0.873331
O O9 0.868251 0.310694 0.653367
O O10 0.053498 0.174965 0.570984
O O11 0.000000 0.184659 0.500000
O O12 0.236965 0.311686 0.385193
O O13 0.353837 0.000000 0.661819
O O14 0.296892 0.599969 0.836076
O O15 0.578550 0.500000 0.581796
O O16 0.655616 0.377781 0.599620
O O17 0.190120 0.000000 0.650939
#
# Coordination Sequence:
#
# PCOD9189193 Si02
#       8
#     8   2   8   8   8   8   8   8
#     4  11  21  36  58  86 123 158 194 239 293 357
#     4  12  20  36  60  84 124 150 202 248 282 352
#     4  10  19  37  59  90 119 154 199 239 292 351
#     4  12  24  38  60  92 120 151 197 254 297 346
#     4  11  23  38  57  88 122 163 193 231 308 356
#     4  11  21  36  60  88 114 159 201 244 290 351
#     4  10  21  42  64  84 113 159 203 242 294 355
#     4   9  20  39  64  88 116 155 198 240 288 353
#
# _framework density 25.054328999999999
#
# number of rings (size 3 to 8) (size 9 to 14) (size 15 to 20)
#    0.000    1.379    2.759    5.379    0.000    2.483 
#    0.000    0.000    0.000    0.000    3.586    0.000 
#    0.000    0.000    0.000    0.000    0.000    0.000 
#
# Total GULP energy -161884.019304 kJ/mol
# GULP energy per Si atom -5582.207562 kJ/mol
# Density = 2.499730 g / cm^3
# Si number density = 25.054329 Si / 1000 Ang^3
#
#
#
# Elastic Constant Matrix: (Units=GPa)
#
#
# Indices 1 2 3 4 5 6 
#
# 1 185.9337 47.4152 0.9276 0.1267 18.0981 -0.0217
# 2 47.4152 152.1769 -6.3425 0.2041 15.4066 -0.0051
# 3 0.9276 -6.3425 15.4604 0.1552 1.5162 -0.0179
# 4 0.1267 0.2041 0.1552 5.2467 0.0132 -9.9101
# 5 18.0981 15.4066 1.5162 0.0132 22.8449 -0.0013
# 6 -0.0217 -0.0051 -0.0179 -9.9101 -0.0013 19.3624
#
#
#
# Elastic Compliance Matrix: (Units=1/GPa)
#
#
# Indices 1 2 3 4 5 6 
#
# 1 0.006147 -0.001557 -0.000623 -0.001481 -0.003778 -0.000752
# 2 -0.001557 0.007648 0.003740 -0.010633 -0.004167 -0.005439
# 3 -0.000623 0.003740 0.067454 -0.059905 -0.006473 -0.030599
# 4 -0.001481 -0.010633 -0.059905 5.794947 0.009135 2.965920
# 5 -0.003778 -0.004167 -0.006473 0.009135 0.050001 0.004667
# 6 -0.000752 -0.005439 -0.030599 2.965920 0.004667 1.569639
#
#
# Mechanical properties :
#
#
# Convention : Reuss Voigt Hill
#
# Bulk Modulus (GPa) = 11.85259 48.61906 30.23582
# Shear Modulus (GPa) = 0.66482 30.26218 15.46350
#
# Velocity S-wave (km/s) = 0.51568 3.47920 2.48704
# Velocity P-wave (km/s) = 2.25734 5.96552 4.51015
#
# Compressibility (1/GPa) = 0.08436975
#
# Stress axis : x y z
#
# Youngs Moduli (GPa) = 162.68091 130.74958 14.82492
#
# Poissons Ratio (x) = 0.20355 0.00924
# Poissons Ratio (y) = 0.25327 -0.05545
# Poissons Ratio (z) = 0.10135 -0.48902
#
# Static dielectric constant tensor:
#      x y z
#    x 2.165310 -0.001020 -0.044350 
#    y -0.001020 3.976310 0.000980 
#    z -0.044350 0.000980 2.058730 
# 
# From -- ./inp_files/343808.got.cif
#   From: 2010.05.17/outbox.cif.g08.bks.cpg/sg12_172_cif.got.tgz:343808.got - 2010.06.03 13:09:07.
