data_PCOD9189685
_publ_section_title
;
Structure prediction by ZEFSAII (Michael W. Deem and Ramdas Pophale) SiO2 
 PCOD9189685
Probable space group: C 2/M
;
_chemical_formula_sum "Si O2"
_cell_formula_units_Z 56
_cell_length_a 9.223202
_cell_length_b 33.187555
_cell_length_c 20.617002
_cell_angle_alpha 90.000000
_cell_angle_beta 29.245750
_cell_angle_gamma 90.000000
_cell_volume 3083.168827
_symmetry_space_group_name_H-M "C 2/M"
_symmetry_group_IT_number 12
_symmetry_cell_setting 'monoclinic'
loop_
_space_group_symop_operation_xyz
x,y,z
-x,y,-z
-x,-y,-z
x,-y,z
1/2+x,1/2+y,z
1/2-x,1/2+y,-z
1/2-x,1/2-y,-z
1/2+x,1/2-y,z
loop_
_atom_site_type_symbol
_atom_site_label
_atom_site_fract_x
_atom_site_fract_y
_atom_site_fract_z
Si Si1 0.529052 0.295204 0.156333
Si Si2 0.875432 0.079751 0.476156
Si Si3 0.815168 0.000000 0.413482
Si Si4 0.807386 0.624367 0.746424
Si Si5 0.647848 0.213788 0.836744
Si Si6 0.899557 0.636866 0.229359
Si Si7 0.052213 0.500000 0.902761
Si Si8 0.329769 0.425827 0.000235
O O1 0.360434 0.337471 0.217490
O O2 0.350300 0.257329 0.197536
O O3 0.623027 0.287827 0.193641
O O4 0.827826 0.294806 0.995657
O O5 0.572961 0.104912 0.602124
O O6 0.000000 0.070497 0.500000
O O7 0.118185 0.108094 0.347789
O O8 0.834520 0.039413 0.451242
O O9 0.500000 0.000000 0.500000
O O10 0.103424 0.000000 0.253561
O O11 0.945922 0.639674 0.760669
O O12 0.575826 0.588689 0.853235
O O13 0.686003 0.179028 0.768768
O O14 0.135488 0.613496 0.092600
O O15 0.884333 0.460987 0.939666
O O16 0.000000 0.500000 0.000000
O O17 0.500000 0.437893 0.000000
#
# Coordination Sequence:
#
# PCOD9189685 Si02
#       8
#     8   8   4   8   8   8   4   8
#     4  10  20  34  54  89 118 158 192 243 292 352
#     4  10  23  43  65  85 116 161 202 244 297 361
#     4  12  27  44  60  86 124 164 201 246 302 360
#     4  10  21  36  62  89 117 146 202 242 297 357
#     4  10  20  33  57  84 124 154 194 239 298 347
#     4  10  19  38  60  87 114 157 193 247 294 353
#     4  12  27  42  60  90 126 156 199 254 304 352
#     4  10  21  39  64  88 116 155 200 251 303 354
#
# _framework density 18.163132000000001
#
# number of rings (size 3 to 8) (size 9 to 14) (size 15 to 20)
#    0.000    1.714    2.857    1.286    2.000    3.429 
#    0.000    0.714    0.000    0.000    0.000    0.000 
#    0.000    0.000    0.000    0.000    0.000    0.000 
#
# Total GULP energy -156351.341808 kJ/mol
# GULP energy per Si atom -5583.976493 kJ/mol
# Density = 1.812179 g / cm^3
# Si number density = 18.163132 Si / 1000 Ang^3
#
#
#
# Elastic Constant Matrix: (Units=GPa)
#
#
# Indices 1 2 3 4 5 6 
#
# 1 82.1818 69.0937 37.7010 0.0000 -13.9614 0.0000
# 2 69.0937 98.1392 20.1644 0.0000 -11.0185 0.0000
# 3 37.7010 20.1644 79.7313 -0.0002 -15.5964 -0.0001
# 4 0.0000 0.0000 -0.0002 16.5190 -0.0001 -10.8847
# 5 -13.9614 -11.0185 -15.5964 -0.0001 22.1828 0.0000
# 6 0.0000 0.0000 -0.0001 -10.8847 0.0000 28.9015
#
#
#
# Elastic Compliance Matrix: (Units=1/GPa)
#
#
# Indices 1 2 3 4 5 6 
#
# 1 0.038461 -0.024297 -0.011209 0.000000 0.004257 0.000000
# 2 -0.024297 0.026408 0.005084 0.000000 0.001400 0.000000
# 3 -0.011209 0.005084 0.018169 0.000000 0.008245 0.000000
# 4 0.000000 0.000000 0.000000 0.080518 0.000001 0.030324
# 5 0.004257 0.001400 0.008245 0.000001 0.054252 0.000000
# 6 0.000000 0.000000 0.000000 0.030324 0.000000 0.046021
#
#
# Mechanical properties :
#
#
# Convention : Reuss Voigt Hill
#
# Bulk Modulus (GPa) = 45.05549 57.10783 51.08166
# Shear Modulus (GPa) = 15.05708 22.39352 18.72530
#
# Velocity S-wave (km/s) = 2.88234 3.51509 3.21433
# Velocity P-wave (km/s) = 5.99475 6.92708 6.47771
#
# Compressibility (1/GPa) = 0.02219485
#
# Stress axis : x y z
#
# Youngs Moduli (GPa) = 26.00056 37.86728 55.03790
#
# Poissons Ratio (x) = 0.92005 0.61690
# Poissons Ratio (y) = 0.63173 -0.27980
# Poissons Ratio (z) = 0.29143 -0.19251
#
# Static dielectric constant tensor:
#      x y z
#    x 1.617700 0.000000 -0.004190 
#    y 0.000000 1.585170 0.000000 
#    z -0.004190 0.000000 1.613010 
# 
# From -- ./inp_files/303028.got.cif
#   From: 2010.05.17/outbox.cif.g08.bks.cpg/sg12_152_cif.got.tgz:303028.got - 2010.06.03 13:09:07.
