data_PCOD9189226
_publ_section_title
;
Structure prediction by ZEFSAII (Michael W. Deem and Ramdas Pophale) SiO2 
 PCOD9189226
Probable space group: C 2/M
;
_chemical_formula_sum "Si O2"
_cell_formula_units_Z 56
_cell_length_a 21.309561
_cell_length_b 17.181405
_cell_length_c 9.036506
_cell_angle_alpha 90.000000
_cell_angle_beta 121.448131
_cell_angle_gamma 90.000000
_cell_volume 2822.540551
_symmetry_space_group_name_H-M "C 2/M"
_symmetry_group_IT_number 12
_symmetry_cell_setting 'monoclinic'
loop_
_space_group_symop_operation_xyz
x,y,z
-x,y,-z
-x,-y,-z
x,-y,z
1/2+x,1/2+y,z
1/2-x,1/2+y,-z
1/2-x,1/2-y,-z
1/2+x,1/2-y,z
loop_
_atom_site_type_symbol
_atom_site_label
_atom_site_fract_x
_atom_site_fract_y
_atom_site_fract_z
Si Si1 0.436215 0.309528 0.816338
Si Si2 0.818985 0.815539 0.174887
Si Si3 0.164132 0.587917 0.545247
Si Si4 0.071441 0.329858 0.679153
Si Si5 0.784872 0.196872 0.807012
Si Si6 0.073993 0.091031 0.494904
Si Si7 0.472313 0.129582 0.809385
O O1 0.362311 0.299567 0.820713
O O2 0.426630 0.359162 0.656224
O O3 0.461054 0.222868 0.803076
O O4 0.500000 0.343575 0.000000
O O5 0.876599 0.743456 0.220325
O O6 0.753168 0.778115 0.191172
O O7 0.859987 0.879857 0.320160
O O8 0.794038 0.842257 0.981248
O O9 0.191443 0.500000 0.586477
O O10 0.116566 0.612726 0.629609
O O11 0.230050 0.649638 0.632532
O O12 0.105102 0.596233 0.340952
O O13 0.000000 0.300675 0.500000
O O14 0.037870 0.377895 0.772688
O O15 0.000000 0.102995 0.500000
O O16 0.080074 0.000000 0.467278
O O17 0.500000 0.100349 0.000000
#
# Coordination Sequence:
#
# PCOD9189226 Si02
#       7
#     8   8   8   8   8   8   8
#     4  11  22  39  62  86 113 147 193 246 292 343
#     4  10  19  37  60  84 114 146 191 244 287 338
#     4  10  22  38  55  80 117 154 185 223 275 341
#     4   9  17  33  59  84 106 143 187 229 279 333
#     4  10  22  37  61  87 111 150 193 235 294 351
#     4  11  23  37  56  84 118 157 198 240 288 340
#     4  10  20  34  59  88 111 142 188 235 281 328
#
# _framework density 19.840281000000001
#
# number of rings (size 3 to 8) (size 9 to 14) (size 15 to 20)
#    0.000    1.857    0.000    6.429    0.000    6.571 
#    0.000    0.000    0.000    0.000    0.000    0.000 
#    0.000    0.000    0.000    0.000    0.000    0.000 
#
# Total GULP energy -156359.632079 kJ/mol
# GULP energy per Si atom -5584.272574 kJ/mol
# Density = 1.979512 g / cm^3
# Si number density = 19.840281 Si / 1000 Ang^3
#
#
#
# Elastic Constant Matrix: (Units=GPa)
#
#
# Indices 1 2 3 4 5 6 
#
# 1 94.1649 -5.3163 25.7655 0.0000 8.6905 0.0000
# 2 -5.3163 40.0261 5.9501 0.0000 -5.0641 0.0000
# 3 25.7655 5.9501 87.7886 0.0000 0.9833 0.0000
# 4 0.0000 0.0000 0.0000 -2.5678 0.0000 0.5590
# 5 8.6905 -5.0641 0.9833 0.0000 19.9732 0.0000
# 6 0.0000 0.0000 0.0000 0.5590 0.0000 11.2354
#
#
#
# Elastic Compliance Matrix: (Units=1/GPa)
#
#
# Indices 1 2 3 4 5 6 
#
# 1 0.012130 0.001553 -0.003613 0.000000 -0.004706 0.000000
# 2 0.001553 0.026306 -0.002307 0.000000 0.006108 0.000000
# 3 -0.003613 -0.002307 0.012604 0.000000 0.000366 0.000000
# 4 0.000000 0.000000 0.000000 -0.385270 0.000000 0.019167
# 5 -0.004706 0.006108 0.000366 0.000000 0.053645 0.000000
# 6 0.000000 0.000000 0.000000 0.019167 0.000000 0.088051
#
#
# Mechanical properties :
#
#
# Convention : Reuss Voigt Hill
#
# Bulk Modulus (GPa) = 23.63767 30.53092 27.08429
# Shear Modulus (GPa) = -29.46397 18.76686 -5.34855
#
# Velocity S-wave (km/s) = -3.85783 3.07888 -1.64367
# Velocity P-wave (km/s) = 2.81139 5.29727 3.17468
#
# Compressibility (1/GPa) = 0.04230536
#
# Stress axis : x y z
#
# Youngs Moduli (GPa) = 82.43896 38.01471 79.34267
#
# Poissons Ratio (x) = -0.05903 0.28664
# Poissons Ratio (y) = -0.12801 0.18305
# Poissons Ratio (z) = 0.29782 0.08770
#
# Static dielectric constant tensor:
#      x y z
#    x 1.714270 0.000000 0.006130 
#    y 0.000000 1.671240 0.000000 
#    z 0.006130 0.000000 1.733480 
# 
# From -- ./inp_files/88083.got.cif
#   From: 2010.05.17/outbox.cif.g08.bks.cpg/sg12_45_cif.got.tgz:88083.got - 2010.06.03 13:09:07.
