data_PCOD9189540
_publ_section_title
;
Structure prediction by ZEFSAII (Michael W. Deem and Ramdas Pophale) SiO2 
 PCOD9189540
Probable space group: C 2/M
;
_chemical_formula_sum "Si O2"
_cell_formula_units_Z 40
_cell_length_a 9.797228
_cell_length_b 15.219029
_cell_length_c 13.265256
_cell_angle_alpha 90.000000
_cell_angle_beta 91.769225
_cell_angle_gamma 90.000000
_cell_volume 1976.963779
_symmetry_space_group_name_H-M "C 2/M"
_symmetry_group_IT_number 12
_symmetry_cell_setting 'monoclinic'
loop_
_space_group_symop_operation_xyz
x,y,z
-x,y,-z
-x,-y,-z
x,-y,z
1/2+x,1/2+y,z
1/2-x,1/2+y,-z
1/2-x,1/2-y,-z
1/2+x,1/2-y,z
loop_
_atom_site_type_symbol
_atom_site_label
_atom_site_fract_x
_atom_site_fract_y
_atom_site_fract_z
Si Si1 0.708723 0.602332 0.256851
Si Si2 0.617829 0.733948 0.429203
Si Si3 0.607095 0.098756 0.083358
Si Si4 0.340152 0.335770 0.972317
Si Si5 0.965439 0.397728 0.702416
O O1 0.664934 0.500000 0.263370
O O2 0.644366 0.665347 0.339774
O O3 0.678285 0.638481 0.144402
O O4 0.872183 0.604192 0.276520
O O5 0.500000 0.700112 0.500000
O O6 0.750000 0.750000 0.500000
O O7 0.574023 0.828382 0.383232
O O8 0.601657 0.137536 0.194582
O O9 0.554337 0.000000 0.099966
O O10 0.500000 0.137217 0.000000
O O11 0.756716 0.096405 0.039947
O O12 0.500000 0.331134 0.000000
O O13 0.250000 0.250000 0.000000
O O14 0.925599 0.500000 0.680690
#
# Coordination Sequence:
#
# PCOD9189540 Si02
#       5
#     8   8   8   8   8
#     4  11  25  45  71 102 138 182 231 284 343 409
#     4  12  26  45  70  99 134 175 232 296 354 403
#     4  10  19  37  65  96 131 171 213 263 328 406
#     4  12  26  40  65 100 142 183 224 273 336 408
#     4  10  22  43  73 102 135 180 231 276 338 423
#
# _framework density 20.233046000000002
#
# number of rings (size 3 to 8) (size 9 to 14) (size 15 to 20)
#    0.000    1.000    4.000    2.400    2.800    4.800 
#    0.000    2.000    0.000    0.000    0.000    0.000 
#    0.000    0.000    0.000    0.000    0.000    0.000 
#
# Total GULP energy -111667.026280 kJ/mol
# GULP energy per Si atom -5583.351314 kJ/mol
# Density = 2.018699 g / cm^3
# Si number density = 20.233046 Si / 1000 Ang^3
#
#
#
# Elastic Constant Matrix: (Units=GPa)
#
#
# Indices 1 2 3 4 5 6 
#
# 1 135.0898 40.1650 57.0851 0.0000 -5.1832 0.0000
# 2 40.1650 134.2804 67.1137 0.0000 1.1733 0.0000
# 3 57.0851 67.1137 147.1489 0.0000 -17.5767 0.0000
# 4 0.0000 0.0000 0.0000 6.2664 0.0000 -12.7161
# 5 -5.1832 1.1733 -17.5767 0.0000 45.8766 0.0000
# 6 0.0000 0.0000 0.0000 -12.7161 0.0000 20.0496
#
#
#
# Elastic Compliance Matrix: (Units=1/GPa)
#
#
# Indices 1 2 3 4 5 6 
#
# 1 0.009008 -0.001221 -0.002947 0.000000 -0.000080 0.000000
# 2 -0.001221 0.009994 -0.004330 0.000000 -0.002052 0.000000
# 3 -0.002947 -0.004330 0.010362 0.000000 0.003748 0.000000
# 4 0.000000 0.000000 0.000000 -0.555990 0.000000 -0.352628
# 5 -0.000080 -0.002052 0.003748 0.000000 0.023277 0.000000
# 6 0.000000 0.000000 0.000000 -0.352628 0.000000 -0.173773
#
#
# Mechanical properties :
#
#
# Convention : Reuss Voigt Hill
#
# Bulk Modulus (GPa) = 80.85392 82.80521 81.82956
# Shear Modulus (GPa) = -7.62190 31.24887 11.81348
#
# Velocity S-wave (km/s) = -1.94300 3.93421 2.41896
# Velocity P-wave (km/s) = 5.91730 7.85187 6.95221
#
# Compressibility (1/GPa) = 0.01236798
#
# Stress axis : x y z
#
# Youngs Moduli (GPa) = 111.01514 100.05748 96.50839
#
# Poissons Ratio (x) = 0.12212 0.28445
# Poissons Ratio (y) = 0.13550 0.41788
# Poissons Ratio (z) = 0.32721 0.43325
#
# Static dielectric constant tensor:
#      x y z
#    x 1.688990 0.000000 -0.014760 
#    y 0.000000 1.470630 0.000000 
#    z -0.014760 0.000000 1.729110 
# 
# From -- ./inp_files/119077.got.cif
#   From: 2010.05.17/outbox.cif.g08.bks.cpg/sg12_60_cif.got.tgz:119077.got - 2010.06.03 13:09:07.
