data_PCOD9189372
_publ_section_title
;
Structure prediction by ZEFSAII (Michael W. Deem and Ramdas Pophale) SiO2 
 PCOD9189372
Probable space group: C 2/M
;
_chemical_formula_sum "Si O2"
_cell_formula_units_Z 48
_cell_length_a 20.994091
_cell_length_b 8.488541
_cell_length_c 15.244075
_cell_angle_alpha 90.000000
_cell_angle_beta 71.611403
_cell_angle_gamma 90.000000
_cell_volume 2577.919866
_symmetry_space_group_name_H-M "C 2/M"
_symmetry_group_IT_number 12
_symmetry_cell_setting 'monoclinic'
loop_
_space_group_symop_operation_xyz
x,y,z
-x,y,-z
-x,-y,-z
x,-y,z
1/2+x,1/2+y,z
1/2-x,1/2+y,-z
1/2-x,1/2-y,-z
1/2+x,1/2-y,z
loop_
_atom_site_type_symbol
_atom_site_label
_atom_site_fract_x
_atom_site_fract_y
_atom_site_fract_z
Si Si1 0.948485 0.309452 0.255868
Si Si2 0.292836 0.310863 0.563916
Si Si3 0.455764 0.688619 0.935156
Si Si4 0.692003 0.188768 0.961918
Si Si5 0.695767 0.191786 0.759895
Si Si6 0.559322 0.809463 0.538790
O O1 0.950984 0.500000 0.251856
O O2 0.876208 0.259561 0.248316
O O3 0.953199 0.259816 0.355139
O O4 0.006373 0.243411 0.168700
O O5 0.292459 0.500000 0.562292
O O6 0.250000 0.250000 0.500000
O O7 0.254810 0.257558 0.668897
O O8 0.368424 0.250648 0.523414
O O9 0.452452 0.500000 0.938472
O O10 0.500000 0.742066 0.000000
O O11 0.381220 0.755908 0.975517
O O12 0.702680 0.245153 0.856972
O O13 0.693371 0.000000 0.960882
O O14 0.750000 0.250000 0.000000
O O15 0.695820 0.000000 0.760250
O O16 0.500000 0.757202 0.500000
O O17 0.561140 0.000000 0.537400
#
# Coordination Sequence:
#
# PCOD9189372 Si02
#       6
#     8   8   8   8   8   8
#     4  10  19  37  62  86 116 156 198 235 287 350
#     4  11  21  37  61  89 118 153 197 242 289 345
#     4  11  23  38  59  90 121 150 196 248 291 342
#     4  11  23  41  62  86 119 157 195 241 297 348
#     4   9  19  36  60  86 115 153 195 237 286 349
#     4  10  22  40  60  87 123 156 191 240 294 346
#
# _framework density 18.619664
#
# number of rings (size 3 to 8) (size 9 to 14) (size 15 to 20)
#    0.000    1.667    3.333    1.500    0.000    3.000 
#    0.000    6.667    0.000    0.000    0.000    0.000 
#    0.000    0.000    0.000    0.000    0.000    0.000 
#
# Total GULP energy -134090.120010 kJ/mol
# GULP energy per Si atom -5587.088334 kJ/mol
# Density = 1.857729 g / cm^3
# Si number density = 18.619664 Si / 1000 Ang^3
#
#
#
# Elastic Constant Matrix: (Units=GPa)
#
#
# Indices 1 2 3 4 5 6 
#
# 1 198.8287 35.9623 127.8151 0.0000 0.6987 0.0000
# 2 35.9623 25.7267 35.6357 0.0000 0.5514 0.0000
# 3 127.8151 35.6357 218.1401 0.0000 -7.9189 0.0000
# 4 0.0000 0.0000 0.0000 22.7027 0.0000 -4.5800
# 5 0.6987 0.5514 -7.9189 0.0000 38.2500 0.0000
# 6 0.0000 0.0000 0.0000 -4.5800 0.0000 31.5708
#
#
#
# Elastic Compliance Matrix: (Units=1/GPa)
#
#
# Indices 1 2 3 4 5 6 
#
# 1 0.008921 -0.006673 -0.004171 0.000000 -0.000930 0.000000
# 2 -0.006673 0.055457 -0.005213 0.000000 -0.001757 0.000000
# 3 -0.004171 -0.005213 0.007945 0.000000 0.001796 0.000000
# 4 0.000000 0.000000 0.000000 0.045376 0.000000 0.006583
# 5 -0.000930 -0.001757 0.001796 0.000000 0.026558 0.000000
# 6 0.000000 0.000000 0.000000 0.006583 0.000000 0.032630
#
#
# Mechanical properties :
#
#
# Convention : Reuss Voigt Hill
#
# Bulk Modulus (GPa) = 24.87024 93.50241 59.18633
# Shear Modulus (GPa) = 22.48170 34.72351 28.60261
#
# Velocity S-wave (km/s) = 3.47856 4.32311 3.92363
# Velocity P-wave (km/s) = 5.43321 8.67440 7.23757
#
# Compressibility (1/GPa) = 0.04020870
#
# Stress axis : x y z
#
# Youngs Moduli (GPa) = 112.09898 18.03189 125.86932
#
# Poissons Ratio (x) = 0.12033 0.52495
# Poissons Ratio (y) = 0.74804 0.65621
# Poissons Ratio (z) = 0.46752 0.09401
#
# Static dielectric constant tensor:
#      x y z
#    x 1.603980 0.000000 0.011790 
#    y 0.000000 1.639670 0.000000 
#    z 0.011790 0.000000 1.634730 
# 
# From -- ./inp_files/229922.got.cif
#   From: 2010.05.17/outbox.cif.g08.bks.cpg/sg12_115_cif.got.tgz:229922.got - 2010.06.03 13:09:07.
