data_PCOD9189989
_publ_section_title
;
Structure prediction by ZEFSAII (Michael W. Deem and Ramdas Pophale) SiO2 
 PCOD9189989
Probable space group: C 2/M
;
_chemical_formula_sum "Si O2"
_cell_formula_units_Z 56
_cell_length_a 15.204464
_cell_length_b 29.598938
_cell_length_c 8.607157
_cell_angle_alpha 90.000000
_cell_angle_beta 50.087063
_cell_angle_gamma 90.000000
_cell_volume 2971.076437
_symmetry_space_group_name_H-M "C 2/M"
_symmetry_group_IT_number 12
_symmetry_cell_setting 'monoclinic'
loop_
_space_group_symop_operation_xyz
x,y,z
-x,y,-z
-x,-y,-z
x,-y,z
1/2+x,1/2+y,z
1/2-x,1/2+y,-z
1/2-x,1/2-y,-z
1/2+x,1/2-y,z
loop_
_atom_site_type_symbol
_atom_site_label
_atom_site_fract_x
_atom_site_fract_y
_atom_site_fract_z
Si Si1 0.816735 0.116750 0.520158
Si Si2 0.351227 0.252463 0.511379
Si Si3 0.888431 0.376127 0.834335
Si Si4 0.863193 0.553499 0.117319
Si Si5 0.365030 0.850851 0.514775
Si Si6 0.506843 0.329628 0.177736
Si Si7 0.213179 0.817916 0.159948
O O1 0.735094 0.073922 0.655149
O O2 0.741306 0.143096 0.477792
O O3 0.944424 0.123555 0.304173
O O4 0.823910 0.144682 0.671371
O O5 0.250000 0.250000 0.500000
O O6 0.394558 0.202024 0.490638
O O7 0.441687 0.287925 0.337509
O O8 0.305234 0.271682 0.727602
O O9 0.847386 0.372030 0.704034
O O10 0.024840 0.375564 0.679660
O O11 0.845255 0.419448 0.976732
O O12 0.842111 0.331370 0.973041
O O13 0.848250 0.500000 0.122128
O O14 0.000000 0.561417 0.000000
O O15 0.634697 0.324925 0.098913
O O16 0.500000 0.325609 0.000000
#
# Coordination Sequence:
#
# PCOD9189989 Si02
#       7
#     8   8   8   8   8   8   8
#     4  10  19  39  62  82 118 149 193 239 297 347
#     4  11  22  37  52  79 117 158 205 251 275 333
#     4  10  23  36  58  83 117 155 189 246 297 351
#     4  10  20  39  64  91 115 144 191 241 306 376
#     4  11  21  37  53  83 117 157 194 242 290 336
#     4  11  23  39  57  84 118 164 203 241 287 338
#     4  10  22  37  57  80 115 160 201 237 289 336
#
# _framework density 18.848386999999999
#
# number of rings (size 3 to 8) (size 9 to 14) (size 15 to 20)
#    0.000    1.571    4.286    2.571    4.000    1.714 
#    0.000    2.143    0.000    7.286    0.000    0.000 
#    0.000    0.000    0.000    0.000    0.000    0.000 
#
# Total GULP energy -155984.740837 kJ/mol
# GULP energy per Si atom -5570.883601 kJ/mol
# Density = 1.880549 g / cm^3
# Si number density = 18.848387 Si / 1000 Ang^3
#
#
#
# Elastic Constant Matrix: (Units=GPa)
#
#
# Indices 1 2 3 4 5 6 
#
# 1 70.3207 5.2576 -2.8766 0.0000 12.7277 0.0000
# 2 5.2576 100.8116 29.9051 0.0000 7.0111 0.0000
# 3 -2.8766 29.9051 68.5325 0.0000 9.7341 0.0000
# 4 0.0000 0.0000 0.0000 24.7627 0.0000 -1.8093
# 5 12.7277 7.0111 9.7341 0.0000 24.9849 0.0000
# 6 0.0000 0.0000 0.0000 -1.8093 0.0000 3.2604
#
#
#
# Elastic Compliance Matrix: (Units=1/GPa)
#
#
# Indices 1 2 3 4 5 6 
#
# 1 0.015973 -0.000909 0.002315 0.000000 -0.008784 0.000000
# 2 -0.000909 0.011488 -0.004932 0.000000 -0.000839 0.000000
# 3 0.002315 -0.004932 0.017797 0.000000 -0.006729 0.000000
# 4 0.000000 0.000000 0.000000 0.042090 0.000000 0.023357
# 5 -0.008784 -0.000839 -0.006729 0.000000 0.047356 0.000000
# 6 0.000000 0.000000 0.000000 0.023357 0.000000 0.319672
#
#
# Mechanical properties :
#
#
# Convention : Reuss Voigt Hill
#
# Bulk Modulus (GPa) = 26.17418 33.80409 29.98914
# Shear Modulus (GPa) = 10.54489 24.42684 17.48586
#
# Velocity S-wave (km/s) = 2.36785 3.60386 3.04914
# Velocity P-wave (km/s) = 4.62520 5.94060 5.32368
#
# Compressibility (1/GPa) = 0.03820559
#
# Stress axis : x y z
#
# Youngs Moduli (GPa) = 62.60563 87.04499 56.19038
#
# Poissons Ratio (x) = 0.07910 -0.13006
# Poissons Ratio (y) = 0.05689 0.27713
# Poissons Ratio (z) = -0.14491 0.42931
#
# Static dielectric constant tensor:
#      x y z
#    x 1.655090 0.000000 -0.017990 
#    y 0.000000 1.635860 0.000000 
#    z -0.017990 0.000000 1.701620 
# 
# From -- ./inp_files/68113.got.cif
#   From: 2010.05.17/outbox.cif.g08.bks.cpg/sg12_35_cif.got.tgz:68113.got - 2010.06.03 13:09:07.
