data_PCOD9189276
_publ_section_title
;
Structure prediction by ZEFSAII (Michael W. Deem and Ramdas Pophale) SiO2 
 PCOD9189276
Probable space group: C 2/M
;
_chemical_formula_sum "Si O2"
_cell_formula_units_Z 48
_cell_length_a 19.289380
_cell_length_b 7.524752
_cell_length_c 12.946709
_cell_angle_alpha 90.000000
_cell_angle_beta 80.518638
_cell_angle_gamma 90.000000
_cell_volume 1853.515222
_symmetry_space_group_name_H-M "C 2/M"
_symmetry_group_IT_number 12
_symmetry_cell_setting 'monoclinic'
loop_
_space_group_symop_operation_xyz
x,y,z
-x,y,-z
-x,-y,-z
x,-y,z
1/2+x,1/2+y,z
1/2-x,1/2+y,-z
1/2-x,1/2-y,-z
1/2+x,1/2-y,z
loop_
_atom_site_type_symbol
_atom_site_label
_atom_site_fract_x
_atom_site_fract_y
_atom_site_fract_z
Si Si1 0.995389 0.217579 0.322310
Si Si2 0.142798 0.214380 0.214548
Si Si3 0.455800 0.296820 0.105531
Si Si4 0.633796 0.296919 0.533615
Si Si5 0.828074 0.698584 0.016013
Si Si6 0.751584 0.283981 0.345328
O O1 0.968021 0.278312 0.216204
O O2 0.941896 0.282231 0.422906
O O3 0.077436 0.264453 0.303608
O O4 0.991379 0.000000 0.328239
O O5 0.131961 0.288600 0.103588
O O6 0.217604 0.266645 0.244639
O O7 0.142786 0.000000 0.206248
O O8 0.481777 0.500000 0.108093
O O9 0.500000 0.213511 0.000000
O O10 0.375261 0.298751 0.087616
O O11 0.623429 0.500000 0.500607
O O12 0.691070 0.221098 0.440981
O O13 0.675791 0.294005 0.632586
O O14 0.824567 0.500000 0.056998
O O15 0.750000 0.750000 0.000000
O O16 0.757321 0.500000 0.348285
#
# Coordination Sequence:
#
# PCOD9189276 Si02
#       6
#     8   8   8   8   8   8
#     4   9  18  33  57  83 110 147 186 225 273 330
#     4  10  20  38  58  81 112 147 187 232 282 331
#     4  10  19  37  61  83 114 152 185 224 279 337
#     4   9  18  34  55  82 111 145 187 227 277 336
#     4  12  26  41  58  83 114 149 189 234 282 334
#     4   9  19  34  55  81 112 145 183 234 279 324
#
# _framework density 25.896740999999999
#
# number of rings (size 3 to 8) (size 9 to 14) (size 15 to 20)
#    0.000    2.167    1.667    1.500    2.333    1.667 
#    0.000    4.167    0.000    0.000    0.000    5.833 
#    0.000    0.000    0.000    0.000    0.000    0.000 
#
# Total GULP energy -134147.070332 kJ/mol
# GULP energy per Si atom -5589.461264 kJ/mol
# Density = 2.583780 g / cm^3
# Si number density = 25.896741 Si / 1000 Ang^3
#
#
#
# Elastic Constant Matrix: (Units=GPa)
#
#
# Indices 1 2 3 4 5 6 
#
# 1 123.6701 -8.3869 18.7954 0.0000 1.1587 0.0000
# 2 -8.3869 71.1008 -6.9786 0.0000 -0.2998 0.0000
# 3 18.7954 -6.9786 48.9832 0.0000 11.6947 0.0000
# 4 0.0000 0.0000 0.0000 6.7974 0.0000 5.8316
# 5 1.1587 -0.2998 11.6947 0.0000 57.1187 0.0000
# 6 0.0000 0.0000 0.0000 5.8316 0.0000 13.1204
#
#
#
# Elastic Compliance Matrix: (Units=1/GPa)
#
#
# Indices 1 2 3 4 5 6 
#
# 1 0.008635 0.000693 -0.003337 0.000000 0.000512 0.000000
# 2 0.000693 0.014327 0.001851 0.000000 -0.000318 0.000000
# 3 -0.003337 0.001851 0.023068 0.000000 -0.004646 0.000000
# 4 0.000000 0.000000 0.000000 0.237783 0.000000 -0.105686
# 5 0.000512 -0.000318 -0.004646 0.000000 0.018447 0.000000
# 6 0.000000 0.000000 0.000000 -0.105686 0.000000 0.123191
#
#
# Mechanical properties :
#
#
# Convention : Reuss Voigt Hill
#
# Bulk Modulus (GPa) = 22.49962 27.84599 25.17280
# Shear Modulus (GPa) = 11.31603 31.42892 21.37247
#
# Velocity S-wave (km/s) = 2.09264 3.48749 2.87591
# Velocity P-wave (km/s) = 3.81391 5.19546 4.55734
#
# Compressibility (1/GPa) = 0.04444520
#
# Stress axis : x y z
#
# Youngs Moduli (GPa) = 115.80248 69.79997 43.34922
#
# Poissons Ratio (x) = -0.04839 0.14465
# Poissons Ratio (y) = -0.08028 -0.08024
# Poissons Ratio (z) = 0.38642 -0.12920
#
# Static dielectric constant tensor:
#      x y z
#    x 2.048570 0.000000 -0.018800 
#    y 0.000000 2.039310 0.000000 
#    z -0.018800 0.000000 2.088650 
# 
# From -- ./inp_files/221710.got.cif
#   From: 2010.05.17/outbox.cif.g08.bks.cpg/sg12_111_cif.got.tgz:221710.got - 2010.06.03 13:09:07.
