data_PCOD9189686
_publ_section_title
;
Structure prediction by ZEFSAII (Michael W. Deem and Ramdas Pophale) SiO2 
 PCOD9189686
Probable space group: C 2/M
;
_chemical_formula_sum "Si O2"
_cell_formula_units_Z 42
_cell_length_a 13.204090
_cell_length_b 11.787779
_cell_length_c 12.299614
_cell_angle_alpha 90.000000
_cell_angle_beta 75.530250
_cell_angle_gamma 90.000000
_cell_volume 1853.671482
_symmetry_space_group_name_H-M "C 2/M"
_symmetry_group_IT_number 12
_symmetry_cell_setting 'monoclinic'
loop_
_space_group_symop_operation_xyz
x,y,z
-x,y,-z
-x,-y,-z
x,-y,z
1/2+x,1/2+y,z
1/2-x,1/2+y,-z
1/2-x,1/2-y,-z
1/2+x,1/2-y,z
loop_
_atom_site_type_symbol
_atom_site_label
_atom_site_fract_x
_atom_site_fract_y
_atom_site_fract_z
Si Si1 0.142460 0.698189 0.393525
Si Si2 0.363740 0.630044 0.975568
Si Si3 0.252023 0.869350 0.203443
Si Si4 0.567649 0.282705 0.825567
Si Si5 0.000000 0.500000 0.500000
Si Si6 0.869587 0.125919 0.413052
O O1 0.177357 0.779140 0.284575
O O2 0.114035 0.784332 0.497546
O O3 0.249212 0.637315 0.406087
O O4 0.056325 0.600694 0.409751
O O5 0.401250 0.500000 0.949731
O O6 0.265491 0.640585 0.921989
O O7 0.452764 0.713813 0.906159
O O8 0.359759 0.651182 0.105095
O O9 0.370121 0.834696 0.203376
O O10 0.229975 0.000000 0.240364
O O11 0.565001 0.344640 0.711473
O O12 0.890448 0.000000 0.446122
#
# Coordination Sequence:
#
# PCOD9189686 Si02
#       6
#     8   8   8   8   2   8
#     4  10  23  38  61  87 121 155 194 247 308 356
#     4  10  20  37  61  90 122 162 211 250 300 363
#     4  10  22  41  62  89 125 161 205 254 304 362
#     4  10  20  36  61  89 121 161 203 253 301 351
#     4  12  24  44  58  92 126 148 200 254 300 364
#     4  10  19  38  60  87 115 161 200 239 295 366
#
# _framework density 22.657736
#
# number of rings (size 3 to 8) (size 9 to 14) (size 15 to 20)
#    0.000    1.905    0.952    3.429    2.667    0.000 
#    1.714    2.857    2.095    0.000    0.000    0.000 
#    0.000    0.000    0.000    0.000    0.000    0.000 
#
# Total GULP energy -116979.798366 kJ/mol
# GULP energy per Si atom -5570.466589 kJ/mol
# Density = 2.260617 g / cm^3
# Si number density = 22.657736 Si / 1000 Ang^3
#
#
#
# Elastic Constant Matrix: (Units=GPa)
#
#
# Indices 1 2 3 4 5 6 
#
# 1 46.2539 10.2524 -10.9812 0.0000 -1.3852 0.0000
# 2 10.2524 133.7878 29.2609 0.0000 -1.2017 0.0000
# 3 -10.9812 29.2609 96.0515 0.0000 -7.2474 0.0000
# 4 0.0000 0.0000 0.0000 78.0066 0.0000 12.2261
# 5 -1.3852 -1.2017 -7.2474 0.0000 26.5519 0.0000
# 6 0.0000 0.0000 0.0000 12.2261 0.0000 21.7847
#
#
#
# Elastic Compliance Matrix: (Units=1/GPa)
#
#
# Indices 1 2 3 4 5 6 
#
# 1 0.023089 -0.002531 0.003566 0.000000 0.002063 0.000000
# 2 -0.002531 0.008288 -0.002855 0.000000 -0.000536 0.000000
# 3 0.003566 -0.002855 0.011939 0.000000 0.003316 0.000000
# 4 0.000000 0.000000 0.000000 0.014056 0.000000 -0.007888
# 5 0.002063 -0.000536 0.003316 0.000000 0.038650 0.000000
# 6 0.000000 0.000000 0.000000 -0.007888 0.000000 0.050331
#
#
# Mechanical properties :
#
#
# Convention : Reuss Voigt Hill
#
# Bulk Modulus (GPa) = 25.20309 37.01750 31.11029
# Shear Modulus (GPa) = 30.63403 41.77271 36.20337
#
# Velocity S-wave (km/s) = 3.68099 4.29842 4.00163
# Velocity P-wave (km/s) = 5.40498 6.40378 5.92546
#
# Compressibility (1/GPa) = 0.03967768
#
# Stress axis : x y z
#
# Youngs Moduli (GPa) = 43.31019 120.65645 83.76186
#
# Poissons Ratio (x) = 0.30536 -0.29873
# Poissons Ratio (y) = 0.10961 0.23911
# Poissons Ratio (z) = -0.15446 0.34443
#
# Static dielectric constant tensor:
#      x y z
#    x 1.912350 0.000000 -0.003330 
#    y 0.000000 1.801890 0.000000 
#    z -0.003330 0.000000 1.857120 
# 
# From -- ./inp_files/140933.got.cif
#   From: 2010.05.17/outbox.cif.g08.bks.cpg/sg12_71_cif.got.tgz:140933.got - 2010.06.03 13:09:07.
