data_PCOD9189622
_publ_section_title
;
Structure prediction by ZEFSAII (Michael W. Deem and Ramdas Pophale) SiO2 
 PCOD9189622
Probable space group: C 2/M
;
_chemical_formula_sum "Si O2"
_cell_formula_units_Z 64
_cell_length_a 12.274483
_cell_length_b 13.536019
_cell_length_c 19.487254
_cell_angle_alpha 90.000000
_cell_angle_beta 66.849299
_cell_angle_gamma 90.000000
_cell_volume 2977.037076
_symmetry_space_group_name_H-M "C 2/M"
_symmetry_group_IT_number 12
_symmetry_cell_setting 'monoclinic'
loop_
_space_group_symop_operation_xyz
x,y,z
-x,y,-z
-x,-y,-z
x,-y,z
1/2+x,1/2+y,z
1/2-x,1/2+y,-z
1/2-x,1/2-y,-z
1/2+x,1/2-y,z
loop_
_atom_site_type_symbol
_atom_site_label
_atom_site_fract_x
_atom_site_fract_y
_atom_site_fract_z
Si Si1 0.144556 0.614707 0.969419
Si Si2 0.531957 0.232291 0.196613
Si Si3 0.171176 0.612694 0.694177
Si Si4 0.585712 0.698515 0.327878
Si Si5 0.059761 0.893387 0.857840
Si Si6 0.758310 0.173320 0.087141
Si Si7 0.259643 0.111342 0.688005
Si Si8 0.336844 0.722980 0.417186
O O1 0.170832 0.500000 0.941649
O O2 0.200186 0.711294 0.918570
O O3 0.204137 0.632950 0.029721
O O4 0.000000 0.623429 0.000000
O O5 0.415343 0.166069 0.230418
O O6 0.543682 0.303482 0.259518
O O7 0.527060 0.301751 0.131228
O O8 0.646934 0.164908 0.165571
O O9 0.139158 0.500000 0.693494
O O10 0.307347 0.625491 0.682682
O O11 0.152909 0.677087 0.630473
O O12 0.641621 0.807003 0.322787
O O13 0.469561 0.689926 0.403373
O O14 0.131072 0.885524 0.910576
O O15 0.156464 0.882320 0.771717
O O16 0.001664 0.000000 0.865569
O O17 0.211130 0.141742 0.624820
O O18 0.304270 0.000000 0.677582
O O19 0.250000 0.750000 0.500000
#
# Coordination Sequence:
#
# PCOD9189622 Si02
#       8
#     8   8   8   8   8   8   8   8
#     4  10  23  43  63  91 127 166 207 245 292 358
#     4  11  20  38  58  89 122 153 194 246 301 353
#     4  10  22  37  56  86 118 151 196 247 295 359
#     4  10  19  38  57  82 118 154 193 245 297 358
#     4  11  21  36  59  90 118 149 197 245 301 356
#     4  11  22  39  66  90 123 162 201 250 300 353
#     4  10  20  36  58  86 116 150 197 248 296 357
#     4  10  22  40  59  82 118 160 199 246 300 360
#
# _framework density 21.497883999999999
#
# number of rings (size 3 to 8) (size 9 to 14) (size 15 to 20)
#    0.000    1.625    5.000    1.125    0.000    7.000 
#    0.000    4.375    0.000    4.125    0.000    0.000 
#    0.000    0.000    0.000    0.000    0.000    0.000 
#
# Total GULP energy -178531.237238 kJ/mol
# GULP energy per Si atom -5579.101164 kJ/mol
# Density = 2.144895 g / cm^3
# Si number density = 21.497884 Si / 1000 Ang^3
#
#
#
# Elastic Constant Matrix: (Units=GPa)
#
#
# Indices 1 2 3 4 5 6 
#
# 1 92.7758 10.2739 -0.4174 0.0000 -3.6525 0.0000
# 2 10.2739 114.5387 -5.8042 0.0000 5.1048 0.0000
# 3 -0.4174 -5.8042 19.3940 0.0000 -1.9400 0.0000
# 4 0.0000 0.0000 0.0000 10.1173 0.0000 1.7488
# 5 -3.6525 5.1048 -1.9400 0.0000 24.2333 0.0000
# 6 0.0000 0.0000 0.0000 1.7488 0.0000 4.2061
#
#
#
# Elastic Compliance Matrix: (Units=1/GPa)
#
#
# Indices 1 2 3 4 5 6 
#
# 1 0.010971 -0.001063 0.000107 0.000000 0.001886 0.000000
# 2 -0.001063 0.009035 0.002495 0.000000 -0.001864 0.000000
# 3 0.000107 0.002495 0.052682 0.000000 0.003708 0.000000
# 4 0.000000 0.000000 0.000000 0.106494 0.000000 -0.044277
# 5 0.001886 -0.001864 0.003708 0.000000 0.042239 0.000000
# 6 0.000000 0.000000 0.000000 -0.044277 0.000000 0.256160
#
#
# Mechanical properties :
#
#
# Convention : Reuss Voigt Hill
#
# Bulk Modulus (GPa) = 13.19849 26.09035 19.64442
# Shear Modulus (GPa) = 10.00479 22.55508 16.27993
#
# Velocity S-wave (km/s) = 2.15962 3.24261 2.75486
# Velocity P-wave (km/s) = 3.51730 5.11683 4.39052
#
# Compressibility (1/GPa) = 0.07576627
#
# Stress axis : x y z
#
# Youngs Moduli (GPa) = 91.14869 110.67475 18.98177
#
# Poissons Ratio (x) = 0.11762 -0.00203
# Poissons Ratio (y) = 0.09687 -0.04736
# Poissons Ratio (z) = -0.00973 -0.27611
#
# Static dielectric constant tensor:
#      x y z
#    x 1.824700 0.000000 0.009310 
#    y 0.000000 1.774970 0.000000 
#    z 0.009310 0.000000 1.825500 
# 
# From -- ./inp_files/305406.got.cif
#   From: 2010.05.17/outbox.cif.g08.bks.cpg/sg12_153_cif.got.tgz:305406.got - 2010.06.03 13:09:07.
