data_PCOD9189238
_publ_section_title
;
Structure prediction by ZEFSAII (Michael W. Deem and Ramdas Pophale) SiO2 
 PCOD9189238
Probable space group: C 2/M
;
_chemical_formula_sum "Si O2"
_cell_formula_units_Z 48
_cell_length_a 11.349752
_cell_length_b 21.037678
_cell_length_c 11.159155
_cell_angle_alpha 90.000000
_cell_angle_beta 77.535853
_cell_angle_gamma 90.000000
_cell_volume 2601.699643
_symmetry_space_group_name_H-M "C 2/M"
_symmetry_group_IT_number 12
_symmetry_cell_setting 'monoclinic'
loop_
_space_group_symop_operation_xyz
x,y,z
-x,y,-z
-x,-y,-z
x,-y,z
1/2+x,1/2+y,z
1/2-x,1/2+y,-z
1/2-x,1/2-y,-z
1/2+x,1/2-y,z
loop_
_atom_site_type_symbol
_atom_site_label
_atom_site_fract_x
_atom_site_fract_y
_atom_site_fract_z
Si Si1 0.862834 0.662469 0.503419
Si Si2 0.412237 0.613686 0.700404
Si Si3 0.246861 0.729471 0.692598
Si Si4 0.347479 0.426940 0.446590
Si Si5 0.147840 0.790072 0.947615
Si Si6 0.366195 0.431108 0.974848
O O1 0.836981 0.686356 0.374267
O O2 0.814644 0.719451 0.596342
O O3 0.783340 0.600771 0.547001
O O4 0.000000 0.650893 0.500000
O O5 0.348657 0.681958 0.722030
O O6 0.555798 0.614948 0.647926
O O7 0.370638 0.581552 0.584283
O O8 0.378551 0.577305 0.828636
O O9 0.171735 0.765509 0.808970
O O10 0.364422 0.500000 0.409733
O O11 0.250000 0.750000 0.000000
O O12 0.181426 0.864307 0.962514
O O13 0.000000 0.783432 0.000000
O O14 0.306863 0.500000 0.014102
O O15 0.500000 0.434425 0.000000
#
# Coordination Sequence:
#
# PCOD9189238 Si02
#       6
#     8   8   8   8   8   8
#     4  10  24  36  58  86 119 160 191 253 300 361
#     4  10  19  37  60  86 115 150 200 252 291 347
#     4  10  23  39  59  87 120 152 206 246 303 358
#     4  10  21  36  60  88 115 155 198 245 302 355
#     4  11  24  40  63  91 122 163 204 256 306 367
#     4  10  21  35  56  87 121 154 195 248 305 356
#
# _framework density 18.449477000000002
#
# number of rings (size 3 to 8) (size 9 to 14) (size 15 to 20)
#    0.000    1.833    1.667    2.000   14.000    0.333 
#    0.000    0.000    0.000    0.500    0.000    0.000 
#    0.000    0.000    0.000    0.000    0.000    0.000 
#
# Total GULP energy -133775.172369 kJ/mol
# GULP energy per Si atom -5573.965515 kJ/mol
# Density = 1.840749 g / cm^3
# Si number density = 18.449477 Si / 1000 Ang^3
#
#
#
# Elastic Constant Matrix: (Units=GPa)
#
#
# Indices 1 2 3 4 5 6 
#
# 1 115.9653 39.9313 30.1696 0.0000 -15.3541 0.0000
# 2 39.9313 122.8032 52.6322 0.0000 -7.5016 0.0000
# 3 30.1696 52.6322 66.2255 0.0000 -15.6643 0.0000
# 4 0.0000 0.0000 0.0000 20.0931 0.0000 -5.5089
# 5 -15.3541 -7.5016 -15.6643 0.0000 17.8068 0.0000
# 6 0.0000 0.0000 0.0000 -5.5089 0.0000 12.7178
#
#
#
# Elastic Compliance Matrix: (Units=1/GPa)
#
#
# Indices 1 2 3 4 5 6 
#
# 1 0.010758 -0.002558 -0.001173 0.000000 0.007167 0.000000
# 2 -0.002558 0.013228 -0.010798 0.000000 -0.006132 0.000000
# 3 -0.001173 -0.010798 0.028918 0.000000 0.019878 0.000000
# 4 0.000000 0.000000 0.000000 0.056475 0.000000 0.024463
# 5 0.007167 -0.006132 0.019878 0.000000 0.077241 0.000000
# 6 0.000000 0.000000 0.000000 0.024463 0.000000 0.089227
#
#
# Mechanical properties :
#
#
# Convention : Reuss Voigt Hill
#
# Bulk Modulus (GPa) = 41.93516 61.16223 51.54869
# Shear Modulus (GPa) = 15.98191 22.27426 19.12809
#
# Velocity S-wave (km/s) = 2.94641 3.47841 3.22340
# Velocity P-wave (km/s) = 5.86124 7.02535 6.46954
#
# Compressibility (1/GPa) = 0.02384634
#
# Stress axis : x y z
#
# Youngs Moduli (GPa) = 92.95366 75.59629 34.58075
#
# Poissons Ratio (x) = 0.19334 0.04057
# Poissons Ratio (y) = 0.23773 0.37341
# Poissons Ratio (z) = 0.10905 0.81630
#
# Static dielectric constant tensor:
#      x y z
#    x 1.642800 0.000000 0.045110 
#    y 0.000000 1.657250 0.000000 
#    z 0.045110 0.000000 1.658550 
# 
# From -- ./inp_files/132425.got.cif
#   From: 2010.05.17/outbox.cif.g08.bks.cpg/sg12_67_cif.got.tgz:132425.got - 2010.06.03 13:09:07.
