data_PCOD9189327
_publ_section_title
;
Structure prediction by ZEFSAII (Michael W. Deem and Ramdas Pophale) SiO2 
 PCOD9189327
Probable space group: C 2/M
;
_chemical_formula_sum "Si O2"
_cell_formula_units_Z 54
_cell_length_a 8.603583
_cell_length_b 27.215485
_cell_length_c 11.985715
_cell_angle_alpha 90.000000
_cell_angle_beta 111.079342
_cell_angle_gamma 90.000000
_cell_volume 2618.664018
_symmetry_space_group_name_H-M "C 2/M"
_symmetry_group_IT_number 12
_symmetry_cell_setting 'monoclinic'
loop_
_space_group_symop_operation_xyz
x,y,z
-x,y,-z
-x,-y,-z
x,-y,z
1/2+x,1/2+y,z
1/2-x,1/2+y,-z
1/2-x,1/2-y,-z
1/2+x,1/2-y,z
loop_
_atom_site_type_symbol
_atom_site_label
_atom_site_fract_x
_atom_site_fract_y
_atom_site_fract_z
Si Si1 0.338064 0.672566 0.380577
Si Si2 0.127996 0.419603 0.874928
Si Si3 0.500936 0.877232 0.381448
Si Si4 0.500000 0.413173 0.000000
Si Si5 0.796823 0.282660 0.289759
Si Si6 0.634372 0.194702 0.943108
Si Si7 0.055552 0.170370 0.838948
Si Si8 0.000000 0.500000 0.000000
O O1 0.500000 0.664860 0.500000
O O2 0.179462 0.643780 0.387715
O O3 0.311828 0.731568 0.358759
O O4 0.363847 0.656762 0.258492
O O5 0.318593 0.437953 0.946679
O O6 0.113885 0.364189 0.919795
O O7 0.080924 0.410847 0.734547
O O8 0.008877 0.456897 0.906048
O O9 0.500000 0.903275 0.500000
O O10 0.388249 0.828391 0.369660
O O11 0.501737 0.377721 0.892722
O O12 0.869132 0.283304 0.181995
O O13 0.606060 0.297814 0.227877
O O14 0.500000 0.210842 0.000000
O O15 0.814829 0.197910 0.046744
#
# Coordination Sequence:
#
# PCOD9189327 Si02
#       8
#     8   8   8   4   8   8   8   2
#     4  12  27  38  57  88 127 179 233 275 311 360
#     4  10  22  40  70 100 128 164 198 265 326 403
#     4  11  23  43  65  89 128 181 227 264 317 374
#     4  10  20  41  66  91 130 158 207 256 314 397
#     4  11  21  38  56  87 127 173 227 284 314 358
#     4  10  19  37  61  88 123 166 215 267 329 387
#     4  11  19  37  59  85 118 168 217 269 323 372
#     4  12  24  42  74 110 134 148 200 256 348 394
#
# _framework density 20.621203000000001
#
# number of rings (size 3 to 8) (size 9 to 14) (size 15 to 20)
#    0.000    1.185    5.185    4.000    2.074    2.667 
#    1.333    4.815    0.000    0.000    0.000    1.556 
#    0.000    0.000    0.000    0.000    0.000    0.000 
#
# Total GULP energy -150711.959352 kJ/mol
# GULP energy per Si atom -5581.924420 kJ/mol
# Density = 2.057427 g / cm^3
# Si number density = 20.621203 Si / 1000 Ang^3
#
#
#
# Elastic Constant Matrix: (Units=GPa)
#
#
# Indices 1 2 3 4 5 6 
#
# 1 90.5409 -1.2391 33.3143 0.0000 3.9438 0.0000
# 2 -1.2391 60.7597 16.8115 0.0000 -3.7277 0.0000
# 3 33.3143 16.8115 127.6205 0.0000 -2.3196 0.0000
# 4 0.0000 0.0000 0.0000 7.6187 0.0000 -10.8808
# 5 3.9438 -3.7277 -2.3196 0.0000 43.8791 0.0000
# 6 0.0000 0.0000 0.0000 -10.8808 0.0000 12.8104
#
#
#
# Elastic Compliance Matrix: (Units=1/GPa)
#
#
# Indices 1 2 3 4 5 6 
#
# 1 0.012362 0.001118 -0.003396 0.000000 -0.001196 0.000000
# 2 0.001118 0.017260 -0.002543 0.000000 0.001231 0.000000
# 3 -0.003396 -0.002543 0.009068 0.000000 0.000569 0.000000
# 4 0.000000 0.000000 0.000000 -0.616101 0.000000 -0.523297
# 5 -0.001196 0.001231 0.000569 0.000000 0.023032 0.000000
# 6 0.000000 0.000000 0.000000 -0.523297 0.000000 -0.366410
#
#
# Mechanical properties :
#
#
# Convention : Reuss Voigt Hill
#
# Bulk Modulus (GPa) = 34.42596 41.85492 38.14044
# Shear Modulus (GPa) = -5.54652 28.19727 11.32537
#
# Velocity S-wave (km/s) = -1.64182 3.70184 2.34607
# Velocity P-wave (km/s) = 3.62445 6.21390 5.08671
#
# Compressibility (1/GPa) = 0.02904785
#
# Stress axis : x y z
#
# Youngs Moduli (GPa) = 80.89533 57.93634 110.28298
#
# Poissons Ratio (x) = -0.06479 0.37452
# Poissons Ratio (y) = -0.09047 0.28048
# Poissons Ratio (z) = 0.27472 0.14735
#
# Static dielectric constant tensor:
#      x y z
#    x 1.816090 0.000000 0.007020 
#    y 0.000000 1.846730 0.000000 
#    z 0.007020 0.000000 1.745490 
# 
# From -- ./inp_files/125366.got.cif
#   From: 2010.05.17/outbox.cif.g08.bks.cpg/sg12_63_cif.got.tgz:125366.got - 2010.06.03 13:09:07.
