data_PCOD9189201
_publ_section_title
;
Structure prediction by ZEFSAII (Michael W. Deem and Ramdas Pophale) SiO2 
 PCOD9189201
Probable space group: C 2/M
;
_chemical_formula_sum "Si O2"
_cell_formula_units_Z 40
_cell_length_a 24.425258
_cell_length_b 10.100539
_cell_length_c 10.423664
_cell_angle_alpha 90.000000
_cell_angle_beta 52.793613
_cell_angle_gamma 90.000000
_cell_volume 2048.186290
_symmetry_space_group_name_H-M "C 2/M"
_symmetry_group_IT_number 12
_symmetry_cell_setting 'monoclinic'
loop_
_space_group_symop_operation_xyz
x,y,z
-x,y,-z
-x,-y,-z
x,-y,z
1/2+x,1/2+y,z
1/2-x,1/2+y,-z
1/2-x,1/2-y,-z
1/2+x,1/2-y,z
loop_
_atom_site_type_symbol
_atom_site_label
_atom_site_fract_x
_atom_site_fract_y
_atom_site_fract_z
Si Si1 0.000000 0.728736 0.500000
Si Si2 0.684964 0.500000 0.752798
Si Si3 0.271827 0.500000 0.606106
Si Si4 0.888665 0.500000 0.107000
Si Si5 0.428269 0.000000 0.753986
Si Si6 0.380228 0.283012 0.502486
Si Si7 0.574875 0.712010 0.849457
Si Si8 0.671106 0.000000 0.340046
O O1 0.027896 0.628905 0.350064
O O2 0.063514 0.808781 0.467515
O O3 0.719725 0.500000 0.561037
O O4 0.635500 0.627402 0.829600
O O5 0.746852 0.500000 0.765475
O O6 0.193216 0.500000 0.756968
O O7 0.312903 0.373455 0.601066
O O8 0.916834 0.366379 0.130458
O O9 0.909263 0.500000 0.928624
O O10 0.361486 0.000000 0.755905
O O11 0.414803 0.307974 0.316386
O O12 0.357567 0.130928 0.550324
O O13 0.500000 0.667182 0.000000
#
# Coordination Sequence:
#
# PCOD9189201 Si02
#       8
#     4   4   4   4   4   8   8   4
#     4   9  18  37  58  76 108 146 178 216 264 320
#     4  10  21  39  56  76 111 149 175 212 270 324
#     4  10  22  36  54  82 113 139 177 223 264 317
#     4  12  22  36  57  83 110 135 178 234 269 301
#     4   9  20  35  56  83 107 136 182 227 263 310
#     4  10  20  36  57  81 107 143 182 216 263 320
#     4  11  22  35  56  83 110 138 178 224 268 316
#     4  10  19  37  60  77 102 146 185 212 260 327
#
# _framework density 19.529475000000001
#
# number of rings (size 3 to 8) (size 9 to 14) (size 15 to 20)
#    0.000    1.800    0.000    5.400    0.000    3.600 
#    0.000   11.000    0.000    0.000    0.000    0.000 
#    0.000    0.000    0.000    0.000    0.000    0.000 
#
# Total GULP energy -111786.046980 kJ/mol
# GULP energy per Si atom -5589.302349 kJ/mol
# Density = 1.948502 g / cm^3
# Si number density = 19.529475 Si / 1000 Ang^3
#
#
#
# Elastic Constant Matrix: (Units=GPa)
#
#
# Indices 1 2 3 4 5 6 
#
# 1 59.7924 0.1931 11.3788 0.0000 -28.8571 0.0000
# 2 0.1931 61.2086 -2.1372 0.0000 -7.5028 0.0000
# 3 11.3788 -2.1372 100.7455 0.0000 -16.9381 0.0000
# 4 0.0000 0.0000 0.0000 16.5004 0.0000 0.9406
# 5 -28.8571 -7.5028 -16.9381 0.0000 29.6556 0.0000
# 6 0.0000 0.0000 0.0000 0.9406 0.0000 89.0243
#
#
#
# Elastic Compliance Matrix: (Units=1/GPa)
#
#
# Indices 1 2 3 4 5 6 
#
# 1 0.032810 0.004163 0.002132 0.000000 0.034197 0.000000
# 2 0.004163 0.017518 0.001469 0.000000 0.009322 0.000000
# 3 0.002132 0.001469 0.011203 0.000000 0.008845 0.000000
# 4 0.000000 0.000000 0.000000 0.060641 0.000000 -0.000641
# 5 0.034197 0.009322 0.008845 0.000000 0.074407 0.000000
# 6 0.000000 0.000000 0.000000 -0.000641 0.000000 0.011240
#
#
# Mechanical properties :
#
#
# Convention : Reuss Voigt Hill
#
# Bulk Modulus (GPa) = 12.97715 26.73511 19.85613
# Shear Modulus (GPa) = 22.93800 41.19017 32.06409
#
# Velocity S-wave (km/s) = 3.43086 4.59751 4.05635
# Velocity P-wave (km/s) = 4.72798 6.47318 5.66815
#
# Compressibility (1/GPa) = 0.07705854
#
# Stress axis : x y z
#
# Youngs Moduli (GPa) = 30.47884 57.08299 89.25801
#
# Poissons Ratio (x) = -0.23762 -0.19030
# Poissons Ratio (y) = -0.12688 -0.13109
# Poissons Ratio (z) = -0.06498 -0.08384
#
# Static dielectric constant tensor:
#      x y z
#    x 1.679710 0.000000 -0.013390 
#    y 0.000000 1.692730 0.000000 
#    z -0.013390 0.000000 1.648260 
# 
# From -- ./inp_files/174383.got.cif
#   From: 2010.05.17/outbox.cif.g08.bks.cpg/sg12_88_cif.got.tgz:174383.got - 2010.06.03 13:09:07.
