data_PCOD9189118
_publ_section_title
;
Structure prediction by ZEFSAII (Michael W. Deem and Ramdas Pophale) SiO2 
 PCOD9189118
Probable space group: C 2/M
;
_chemical_formula_sum "Si O2"
_cell_formula_units_Z 44
_cell_length_a 21.254462
_cell_length_b 14.865420
_cell_length_c 6.996310
_cell_angle_alpha 90.000000
_cell_angle_beta 118.158424
_cell_angle_gamma 90.000000
_cell_volume 1948.904893
_symmetry_space_group_name_H-M "C 2/M"
_symmetry_group_IT_number 12
_symmetry_cell_setting 'monoclinic'
loop_
_space_group_symop_operation_xyz
x,y,z
-x,y,-z
-x,-y,-z
x,-y,z
1/2+x,1/2+y,z
1/2-x,1/2+y,-z
1/2-x,1/2-y,-z
1/2+x,1/2-y,z
loop_
_atom_site_type_symbol
_atom_site_label
_atom_site_fract_x
_atom_site_fract_y
_atom_site_fract_z
Si Si1 0.699622 0.304145 0.693823
Si Si2 0.391028 0.796775 0.184313
Si Si3 0.695977 0.500000 0.633033
Si Si4 0.000000 0.848417 0.500000
Si Si5 0.635544 0.000000 0.247000
Si Si6 0.544490 0.500000 0.261790
Si Si7 0.144472 0.303607 0.279899
Si Si8 0.930993 0.500000 0.263209
O O1 0.684517 0.233920 0.838924
O O2 0.685677 0.407229 0.731580
O O3 0.777024 0.304426 0.705585
O O4 0.648036 0.270331 0.447179
O O5 0.440561 0.721223 0.345477
O O6 0.399611 0.900483 0.254722
O O7 0.402849 0.788362 0.974223
O O8 0.779556 0.500000 0.689238
O O9 0.632281 0.500000 0.382393
O O10 0.022264 0.913881 0.358293
O O11 0.626429 0.903394 0.333036
O O12 0.581201 0.000000 0.987900
O O13 0.500000 0.500000 0.000000
O O14 0.000000 0.500000 0.500000
#
# Coordination Sequence:
#
# PCOD9189118 Si02
#       8
#     8   8   4   4   4   4   8   4
#     4  10  20  37  58  86 114 151 194 243 288 353
#     4  11  21  37  60  83 117 152 194 236 292 345
#     4  10  19  37  57  84 115 149 191 247 293 337
#     4  11  24  39  60  90 114 157 198 239 290 364
#     4   8  18  36  60  84 117 149 187 243 293 342
#     4  11  25  42  61  85 123 154 198 244 293 347
#     4   9  20  36  60  85 115 148 192 240 299 340
#     4  10  20  37  59  86 119 156 188 238 290 341
#
# _framework density 22.576779999999999
#
# number of rings (size 3 to 8) (size 9 to 14) (size 15 to 20)
#    0.000    2.000    2.727    0.545    2.545    0.727 
#    0.000    1.818    0.000    2.182    0.000    0.000 
#    0.000    0.000    0.000    0.000    0.000    0.000 
#
# Total GULP energy -122469.907771 kJ/mol
# GULP energy per Si atom -5566.813990 kJ/mol
# Density = 2.252539 g / cm^3
# Si number density = 22.576780 Si / 1000 Ang^3
#
#
#
# Elastic Constant Matrix: (Units=GPa)
#
#
# Indices 1 2 3 4 5 6 
#
# 1 28.0216 24.5306 26.5430 0.0000 -5.4535 0.0000
# 2 24.5306 196.1787 28.4897 0.0000 -7.0189 0.0000
# 3 26.5430 28.4897 105.2521 0.0000 1.4681 0.0000
# 4 0.0000 0.0000 0.0000 19.9254 0.0000 4.8912
# 5 -5.4535 -7.0189 1.4681 0.0000 30.3578 0.0000
# 6 0.0000 0.0000 0.0000 4.8912 0.0000 11.7919
#
#
#
# Elastic Compliance Matrix: (Units=1/GPa)
#
#
# Indices 1 2 3 4 5 6 
#
# 1 0.053046 -0.004525 -0.012279 0.000000 0.009077 0.000000
# 2 -0.004525 0.005744 -0.000421 0.000000 0.000535 0.000000
# 3 -0.012279 -0.000421 0.012752 0.000000 -0.002920 0.000000
# 4 0.000000 0.000000 0.000000 0.055877 0.000000 -0.023177
# 5 0.009077 0.000535 -0.002920 0.000000 0.034836 0.000000
# 6 0.000000 0.000000 0.000000 -0.023177 0.000000 0.094417
#
#
# Mechanical properties :
#
#
# Convention : Reuss Voigt Hill
#
# Bulk Modulus (GPa) = 26.96047 54.28655 40.62351
# Shear Modulus (GPa) = 16.47525 29.07428 22.77477
#
# Velocity S-wave (km/s) = 2.70431 3.59248 3.17956
# Velocity P-wave (km/s) = 4.66033 6.42693 5.61356
#
# Compressibility (1/GPa) = 0.03709134
#
# Stress axis : x y z
#
# Youngs Moduli (GPa) = 18.85166 174.10975 78.41733
#
# Poissons Ratio (x) = 0.78785 0.96289
# Poissons Ratio (y) = 0.08530 0.03301
# Poissons Ratio (z) = 0.23148 0.07330
#
# Static dielectric constant tensor:
#      x y z
#    x 1.983620 0.000000 0.057220 
#    y 0.000000 1.834230 0.000000 
#    z 0.057220 0.000000 1.936520 
# 
# From -- ./inp_files/96625.got.cif
#   From: 2010.05.17/outbox.cif.g08.bks.cpg/sg12_49_cif.got.tgz:96625.got - 2010.06.03 13:09:07.
