data_PCOD9189745
_publ_section_title
;
Structure prediction by ZEFSAII (Michael W. Deem and Ramdas Pophale) SiO2 
 PCOD9189745
Probable space group: C 2/M
;
_chemical_formula_sum "Si O2"
_cell_formula_units_Z 36
_cell_length_a 17.832634
_cell_length_b 15.608304
_cell_length_c 14.786421
_cell_angle_alpha 90.000000
_cell_angle_beta 25.412800
_cell_angle_gamma 90.000000
_cell_volume 1766.160503
_symmetry_space_group_name_H-M "C 2/M"
_symmetry_group_IT_number 12
_symmetry_cell_setting 'monoclinic'
loop_
_space_group_symop_operation_xyz
x,y,z
-x,y,-z
-x,-y,-z
x,-y,z
1/2+x,1/2+y,z
1/2-x,1/2+y,-z
1/2-x,1/2-y,-z
1/2+x,1/2-y,z
loop_
_atom_site_type_symbol
_atom_site_label
_atom_site_fract_x
_atom_site_fract_y
_atom_site_fract_z
Si Si1 0.306280 0.597948 0.350398
Si Si2 0.837315 0.907897 0.533880
Si Si3 0.500000 0.853575 0.000000
Si Si4 0.498682 0.770372 0.655758
Si Si5 0.119340 0.216812 0.013661
O O1 0.284130 0.500000 0.344162
O O2 0.298261 0.598318 0.469018
O O3 0.495907 0.637472 0.122310
O O4 0.158744 0.663606 0.476616
O O5 0.945372 0.823194 0.441354
O O6 0.926138 0.000000 0.453502
O O7 0.654079 0.904763 0.784715
O O8 0.588296 0.792022 0.977250
O O9 0.448617 0.752316 0.815297
O O10 0.323154 0.803900 0.800358
#
# Coordination Sequence:
#
# PCOD9189745 Si02
#       5
#     8   8   4   8   8
#     4  10  19  38  62  84 113 153 197 237 276 336
#     4  10  20  35  59  87 119 152 186 231 289 345
#     4  12  19  36  57  86 122 152 179 238 293 344
#     4  10  19  40  59  81 114 156 197 232 271 342
#     4  10  21  35  61  83 114 154 192 233 287 335
#
# _framework density 20.383199999999999
#
# number of rings (size 3 to 8) (size 9 to 14) (size 15 to 20)
#    0.000    1.778    4.444    1.667    0.000    1.778 
#    0.000    7.222    0.000    1.333    0.000    0.000 
#    0.000    0.000    0.000    0.000    0.000    0.000 
#
# Total GULP energy -100546.131929 kJ/mol
# GULP energy per Si atom -5585.896218 kJ/mol
# Density = 2.033681 g / cm^3
# Si number density = 20.383200 Si / 1000 Ang^3
#
#
#
# Elastic Constant Matrix: (Units=GPa)
#
#
# Indices 1 2 3 4 5 6 
#
# 1 39.3921 29.7419 34.0749 -0.0002 -11.5338 -0.0002
# 2 29.7419 176.1062 77.5054 0.0029 -29.8979 -0.0001
# 3 34.0749 77.5054 104.3823 0.0064 -38.5822 0.0001
# 4 -0.0002 0.0029 0.0064 9.5696 -0.0010 -0.4843
# 5 -11.5338 -29.8979 -38.5822 -0.0010 37.8938 -0.0002
# 6 -0.0002 -0.0001 0.0001 -0.4843 -0.0002 -3.1119
#
#
#
# Elastic Compliance Matrix: (Units=1/GPa)
#
#
# Indices 1 2 3 4 5 6 
#
# 1 0.035650 -0.001353 -0.011251 0.000009 -0.001672 -0.000003
# 2 -0.001353 0.008491 -0.005674 0.000001 0.000510 -0.000001
# 3 -0.011251 -0.005674 0.023323 -0.000012 0.015845 0.000003
# 4 0.000009 0.000001 -0.000012 0.103681 -0.000006 -0.016136
# 5 -0.001672 0.000510 0.015845 -0.000006 0.042416 -0.000001
# 6 -0.000003 -0.000001 0.000003 -0.016136 -0.000001 -0.318836
#
#
# Mechanical properties :
#
#
# Convention : Reuss Voigt Hill
#
# Bulk Modulus (GPa) = 32.35521 66.94722 49.65122
# Shear Modulus (GPa) = -85.59548 20.77418 -32.41065
#
# Velocity S-wave (km/s) = -6.48724 3.19593 -3.99189
# Velocity P-wave (km/s) = 6.34070 6.82160 1.77900
#
# Compressibility (1/GPa) = 0.03090693
#
# Stress axis : x y z
#
# Youngs Moduli (GPa) = 28.05022 117.77468 42.87569
#
# Poissons Ratio (x) = 0.15935 0.48241
# Poissons Ratio (y) = 0.03795 0.24329
# Poissons Ratio (z) = 0.31560 0.66830
#
# Static dielectric constant tensor:
#      x y z
#    x 1.730300 0.000000 0.016360 
#    y 0.000000 1.719580 0.000000 
#    z 0.016360 0.000000 1.718220 
# 
# From -- ./inp_files/58315.got.cif
#   From: 2010.05.17/outbox.cif.g08.bks.cpg/sg12_30_cif.got.tgz:58315.got - 2010.06.03 13:09:07.
