data_PCOD9189621
_publ_section_title
;
Structure prediction by ZEFSAII (Michael W. Deem and Ramdas Pophale) SiO2 
 PCOD9189621
Probable space group: C 2/M
;
_chemical_formula_sum "Si O2"
_cell_formula_units_Z 64
_cell_length_a 27.423361
_cell_length_b 12.910650
_cell_length_c 16.581280
_cell_angle_alpha 90.000000
_cell_angle_beta 30.727028
_cell_angle_gamma 90.000000
_cell_volume 2999.604184
_symmetry_space_group_name_H-M "C 2/M"
_symmetry_group_IT_number 12
_symmetry_cell_setting 'monoclinic'
loop_
_space_group_symop_operation_xyz
x,y,z
-x,y,-z
-x,-y,-z
x,-y,z
1/2+x,1/2+y,z
1/2-x,1/2+y,-z
1/2-x,1/2-y,-z
1/2+x,1/2-y,z
loop_
_atom_site_type_symbol
_atom_site_label
_atom_site_fract_x
_atom_site_fract_y
_atom_site_fract_z
Si Si1 0.743868 0.887164 0.418636
Si Si2 0.417476 0.729439 0.559880
Si Si3 0.283403 0.830913 0.885191
Si Si4 0.537532 0.117211 0.274520
Si Si5 0.042944 0.837790 0.855559
Si Si6 0.244622 0.307118 0.712984
Si Si7 0.885246 0.387916 0.239917
Si Si8 0.892119 0.785680 0.954336
O O1 0.849794 0.876297 0.305014
O O2 0.732615 0.796507 0.370715
O O3 0.671465 0.878946 0.595323
O O4 0.734732 0.000000 0.393055
O O5 0.500000 0.681347 0.500000
O O6 0.344867 0.782350 0.725551
O O7 0.467631 0.817841 0.433289
O O8 0.346014 0.659837 0.607382
O O9 0.361978 0.895487 0.821176
O O10 0.182311 0.858118 0.988621
O O11 0.250000 0.750000 0.000000
O O12 0.503986 0.000000 0.301191
O O13 0.560312 0.195882 0.168586
O O14 0.049894 0.712925 0.854344
O O15 0.000000 0.878487 0.000000
O O16 0.972819 0.854153 0.881593
O O17 0.190077 0.378913 0.726600
O O18 0.169528 0.273176 0.888861
O O19 0.933379 0.500000 0.169746
#
# Coordination Sequence:
#
# PCOD9189621 Si02
#       8
#     8   8   8   8   8   8   8   8
#     4  10  22  38  56  80 113 149 187 231 281 340
#     4   9  19  33  56  83 108 143 180 229 279 332
#     4   8  17  36  54  73 110 147 180 212 270 338
#     4  10  21  34  55  87 116 141 180 237 288 336
#     4  11  20  37  57  81 112 147 190 233 281 330
#     4  10  19  38  57  78 113 153 188 224 286 338
#     4  10  22  37  56  82 113 148 188 234 283 337
#     4  10  20  35  54  79 109 151 189 222 274 342
#
# _framework density 21.336148000000001
#
# number of rings (size 3 to 8) (size 9 to 14) (size 15 to 20)
#    0.000    2.250    2.500    1.500    3.500    4.250 
#    0.000    3.750    0.000    0.375    0.000    0.000 
#    0.000    0.000    0.000    0.000    0.000    0.000 
#
# Total GULP energy -178357.318055 kJ/mol
# GULP energy per Si atom -5573.666189 kJ/mol
# Density = 2.128759 g / cm^3
# Si number density = 21.336148 Si / 1000 Ang^3
#
#
#
# Elastic Constant Matrix: (Units=GPa)
#
#
# Indices 1 2 3 4 5 6 
#
# 1 118.4012 -4.0033 22.5347 0.0000 -19.9996 0.0000
# 2 -4.0033 48.7057 10.4001 0.0000 12.2119 0.0000
# 3 22.5347 10.4001 105.8170 0.0000 17.2855 0.0000
# 4 0.0000 0.0000 0.0000 -6.4886 0.0000 9.9066
# 5 -19.9996 12.2119 17.2855 0.0000 52.6788 0.0000
# 6 0.0000 0.0000 0.0000 9.9066 0.0000 -2.5152
#
#
#
# Elastic Compliance Matrix: (Units=1/GPa)
#
#
# Indices 1 2 3 4 5 6 
#
# 1 0.009773 0.000263 -0.002856 0.000000 0.004587 0.000000
# 2 0.000263 0.022001 -0.001481 0.000000 -0.004514 0.000000
# 3 -0.002856 -0.001481 0.010910 0.000000 -0.004321 0.000000
# 4 0.000000 0.000000 0.000000 0.030741 0.000000 0.121077
# 5 0.004587 -0.004514 -0.004321 0.000000 0.023189 0.000000
# 6 0.000000 0.000000 0.000000 0.121077 0.000000 0.079303
#
#
# Mechanical properties :
#
#
# Convention : Reuss Voigt Hill
#
# Bulk Modulus (GPa) = 28.95530 36.75412 32.85471
# Shear Modulus (GPa) = 25.56544 25.00118 25.28331
#
# Velocity S-wave (km/s) = 3.46529 3.42683 3.44612
# Velocity P-wave (km/s) = 5.44164 5.73770 5.59163
#
# Compressibility (1/GPa) = 0.03453600
#
# Stress axis : x y z
#
# Youngs Moduli (GPa) = 102.32123 45.45205 91.65927
#
# Poissons Ratio (x) = -0.01196 0.26181
# Poissons Ratio (y) = -0.02693 0.13575
# Poissons Ratio (z) = 0.29227 0.06731
#
# Static dielectric constant tensor:
#      x y z
#    x 1.872380 0.000000 -0.035440 
#    y 0.000000 1.751480 0.000000 
#    z -0.035440 0.000000 1.744780 
# 
# From -- ./inp_files/296665.got.cif
#   From: 2010.05.17/outbox.cif.g08.bks.cpg/sg12_149_cif.got.tgz:296665.got - 2010.06.03 13:09:07.
