data_PCOD9189554
_publ_section_title
;
Structure prediction by ZEFSAII (Michael W. Deem and Ramdas Pophale) SiO2 
 PCOD9189554
Probable space group: C 2/M
;
_chemical_formula_sum "Si O2"
_cell_formula_units_Z 48
_cell_length_a 14.628710
_cell_length_b 17.791727
_cell_length_c 8.784721
_cell_angle_alpha 90.000000
_cell_angle_beta 116.704231
_cell_angle_gamma 90.000000
_cell_volume 2042.527995
_symmetry_space_group_name_H-M "C 2/M"
_symmetry_group_IT_number 12
_symmetry_cell_setting 'monoclinic'
loop_
_space_group_symop_operation_xyz
x,y,z
-x,y,-z
-x,-y,-z
x,-y,z
1/2+x,1/2+y,z
1/2-x,1/2+y,-z
1/2-x,1/2-y,-z
1/2+x,1/2-y,z
loop_
_atom_site_type_symbol
_atom_site_label
_atom_site_fract_x
_atom_site_fract_y
_atom_site_fract_z
Si Si1 0.893649 0.388445 0.832110
Si Si2 0.384857 0.920973 0.476722
Si Si3 0.962400 0.768661 0.807881
Si Si4 0.486846 0.582758 0.672434
Si Si5 0.708886 0.368524 0.878186
Si Si6 0.341041 0.211678 0.233427
O O1 0.888487 0.420473 0.660425
O O2 0.799071 0.412993 0.864592
O O3 0.888113 0.298219 0.800737
O O4 0.000000 0.403494 0.000000
O O5 0.500000 0.922765 0.500000
O O6 0.345102 0.843051 0.379325
O O7 0.334443 0.000000 0.386927
O O8 0.930725 0.842184 0.690081
O O9 0.052363 0.723482 0.782301
O O10 0.000000 0.798031 0.000000
O O11 0.500000 0.586416 0.500000
O O12 0.443567 0.500000 0.677536
O O13 0.602649 0.589865 0.825170
O O14 0.681574 0.297915 0.749196
O O15 0.758313 0.328144 0.061721
#
# Coordination Sequence:
#
# PCOD9189554 Si02
#       6
#     8   8   8   8   8   8
#     4  11  21  39  64  97 124 158 204 255 307 371
#     4  11  23  37  58  88 126 166 200 246 312 374
#     4  10  19  37  66  92 119 155 205 256 303 358
#     4  10  24  43  62  89 125 167 209 252 310 369
#     4  10  21  38  66  90 118 161 207 254 307 359
#     4  10  20  38  60  92 121 156 210 253 297 370
#
# _framework density 23.500291000000001
#
# number of rings (size 3 to 8) (size 9 to 14) (size 15 to 20)
#    0.000    1.667    5.000    0.000    4.667    2.667 
#    0.000    0.000    0.000    0.500    0.000    0.000 
#    0.000    0.000    0.000    0.000    0.000    0.000 
#
# Total GULP energy -133944.118556 kJ/mol
# GULP energy per Si atom -5581.004940 kJ/mol
# Density = 2.344680 g / cm^3
# Si number density = 23.500291 Si / 1000 Ang^3
#
#
#
# Elastic Constant Matrix: (Units=GPa)
#
#
# Indices 1 2 3 4 5 6 
#
# 1 54.0634 -23.8528 -12.9843 0.0000 2.0260 0.0000
# 2 -23.8528 150.0754 32.9323 0.0000 -3.6204 0.0000
# 3 -12.9843 32.9323 76.8281 0.0000 -15.2102 0.0000
# 4 0.0000 0.0000 0.0000 23.0746 0.0000 -14.4312
# 5 2.0260 -3.6204 -15.2102 0.0000 18.8788 0.0000
# 6 0.0000 0.0000 0.0000 -14.4312 0.0000 3.8260
#
#
#
# Elastic Compliance Matrix: (Units=1/GPa)
#
#
# Indices 1 2 3 4 5 6 
#
# 1 0.020240 0.002718 0.002295 0.000000 0.000198 0.000000
# 2 0.002718 0.007749 -0.003124 0.000000 -0.001323 0.000000
# 3 0.002295 -0.003124 0.017342 0.000000 0.013126 0.000000
# 4 0.000000 0.000000 0.000000 -0.031889 0.000000 -0.120282
# 5 0.000198 -0.001323 0.013126 0.000000 0.063270 0.000000
# 6 0.000000 0.000000 0.000000 -0.120282 0.000000 -0.192324
#
#
# Mechanical properties :
#
#
# Convention : Reuss Voigt Hill
#
# Bulk Modulus (GPa) = 20.36335 30.35084 25.35710
# Shear Modulus (GPa) = -48.53416 28.14732 -10.19342
#
# Velocity S-wave (km/s) = -4.54944 3.46460 -2.08494
# Velocity P-wave (km/s) = 4.34886 5.38031 2.23999
#
# Compressibility (1/GPa) = 0.04910783
#
# Stress axis : x y z
#
# Youngs Moduli (GPa) = 49.40785 129.04956 57.66434
#
# Poissons Ratio (x) = -0.35077 -0.13232
# Poissons Ratio (y) = -0.13430 0.18015
# Poissons Ratio (z) = -0.11338 0.40316
#
# Static dielectric constant tensor:
#      x y z
#    x 1.987110 0.000000 0.103260 
#    y 0.000000 1.943470 0.000000 
#    z 0.103260 0.000000 1.943610 
# 
# From -- ./inp_files/75447.got.cif
#   From: 2010.05.17/outbox.cif.g08.bks.cpg/sg12_38_cif.got.tgz:75447.got - 2010.06.03 13:09:07.
