data_PCOD9189659
_publ_section_title
;
Structure prediction by ZEFSAII (Michael W. Deem and Ramdas Pophale) SiO2 
 PCOD9189659
Probable space group: C 2/M
;
_chemical_formula_sum "Si O2"
_cell_formula_units_Z 64
_cell_length_a 27.986579
_cell_length_b 15.097425
_cell_length_c 8.546217
_cell_angle_alpha 90.000000
_cell_angle_beta 114.846120
_cell_angle_gamma 90.000000
_cell_volume 3276.757593
_symmetry_space_group_name_H-M "C 2/M"
_symmetry_group_IT_number 12
_symmetry_cell_setting 'monoclinic'
loop_
_space_group_symop_operation_xyz
x,y,z
-x,y,-z
-x,-y,-z
x,-y,z
1/2+x,1/2+y,z
1/2-x,1/2+y,-z
1/2-x,1/2-y,-z
1/2+x,1/2-y,z
loop_
_atom_site_type_symbol
_atom_site_label
_atom_site_fract_x
_atom_site_fract_y
_atom_site_fract_z
Si Si1 0.835713 0.396024 0.216765
Si Si2 0.887406 0.738915 0.508406
Si Si3 0.617144 0.903594 0.060100
Si Si4 0.062684 0.895001 0.614505
Si Si5 0.058151 0.244798 0.117201
Si Si6 0.766119 0.829699 0.763613
Si Si7 0.701047 0.830553 0.392479
Si Si8 0.881413 0.103577 0.975106
O O1 0.832761 0.500000 0.257903
O O2 0.878207 0.340477 0.374419
O O3 0.852163 0.391734 0.059630
O O4 0.780176 0.348557 0.177269
O O5 0.901586 0.830015 0.441590
O O6 0.934094 0.723585 0.695506
O O7 0.834896 0.733105 0.544869
O O8 0.591685 0.000000 0.025786
O O9 0.577058 0.824257 0.032583
O O10 0.659930 0.896403 0.257757
O O11 0.000000 0.876422 0.500000
O O12 0.070277 0.000000 0.590814
O O13 0.083487 0.879973 0.820869
O O14 0.095254 0.161903 0.132255
O O15 0.000000 0.217331 0.000000
O O16 0.743950 0.871263 0.568975
O O17 0.775878 0.729516 0.715591
O O18 0.820611 0.867034 0.904584
O O19 0.883725 0.000000 0.944882
#
# Coordination Sequence:
#
# PCOD9189659 Si02
#       8
#     8   8   8   8   8   8   8   8
#     4  10  22  38  61  89 120 156 192 234 289 353
#     4  10  20  37  60  84 115 156 193 237 295 348
#     4  10  21  40  61  86 116 153 196 239 292 350
#     4  10  22  40  60  84 116 156 200 246 299 349
#     4  11  23  40  60  86 116 151 199 249 298 346
#     4  10  19  38  59  86 122 150 194 231 287 347
#     4   9  20  37  58  89 118 157 191 230 292 354
#     4  11  22  38  61  88 120 156 197 245 290 346
#
# _framework density 19.531503000000001
#
# number of rings (size 3 to 8) (size 9 to 14) (size 15 to 20)
#    0.000    1.875    2.500    1.875    0.000    6.500 
#    4.500    0.000    0.000    1.875    0.000    0.000 
#    0.000    0.000    0.000    0.000    0.000    0.000 
#
# Total GULP energy -178372.766437 kJ/mol
# GULP energy per Si atom -5574.148951 kJ/mol
# Density = 1.948705 g / cm^3
# Si number density = 19.531503 Si / 1000 Ang^3
#
#
#
# Elastic Constant Matrix: (Units=GPa)
#
#
# Indices 1 2 3 4 5 6 
#
# 1 38.5686 28.0727 26.0168 0.0000 -0.0628 0.0000
# 2 28.0727 67.4924 19.5847 0.0000 -13.5800 0.0000
# 3 26.0168 19.5847 86.6517 0.0000 12.5658 0.0000
# 4 0.0000 0.0000 0.0000 24.1048 0.0000 0.9479
# 5 -0.0628 -13.5800 12.5658 0.0000 23.6946 0.0000
# 6 0.0000 0.0000 0.0000 0.9479 0.0000 -14.7434
#
#
#
# Elastic Compliance Matrix: (Units=1/GPa)
#
#
# Indices 1 2 3 4 5 6 
#
# 1 0.043988 -0.016743 -0.008719 0.000000 -0.004856 0.000000
# 2 -0.016743 0.026082 -0.003281 0.000000 0.016644 0.000000
# 3 -0.008719 -0.003281 0.016440 0.000000 -0.010622 0.000000
# 4 0.000000 0.000000 0.000000 0.041381 0.000000 0.002660
# 5 -0.004856 0.016644 -0.010622 0.000000 0.057363 0.000000
# 6 0.000000 0.000000 0.000000 0.002660 0.000000 -0.067656
#
#
# Mechanical properties :
#
#
# Convention : Reuss Voigt Hill
#
# Bulk Modulus (GPa) = 34.45540 37.78457 36.11998
# Shear Modulus (GPa) = 27.06217 14.54712 20.80465
#
# Velocity S-wave (km/s) = 3.72636 2.73207 3.26726
# Velocity P-wave (km/s) = 6.01611 5.41661 5.72421
#
# Compressibility (1/GPa) = 0.02902302
#
# Stress axis : x y z
#
# Youngs Moduli (GPa) = 22.73342 38.34095 60.82606
#
# Poissons Ratio (x) = 0.64196 0.53033
# Poissons Ratio (y) = 0.38063 0.19960
# Poissons Ratio (z) = 0.19821 0.12581
#
# Static dielectric constant tensor:
#      x y z
#    x 1.681650 0.000000 0.006050 
#    y 0.000000 1.680200 0.000000 
#    z 0.006050 0.000000 1.715900 
# 
# From -- ./inp_files/111682.got.cif
#   From: 2010.05.17/outbox.cif.g08.bks.cpg/sg12_56_cif.got.tgz:111682.got - 2010.06.03 13:09:07.
