data_PCOD9189721
_publ_section_title
;
Structure prediction by ZEFSAII (Michael W. Deem and Ramdas Pophale) SiO2 
 PCOD9189721
Probable space group: C 2/M
;
_chemical_formula_sum "Si O2"
_cell_formula_units_Z 56
_cell_length_a 14.902288
_cell_length_b 16.639013
_cell_length_c 11.495805
_cell_angle_alpha 90.000000
_cell_angle_beta 119.190774
_cell_angle_gamma 90.000000
_cell_volume 2488.481723
_symmetry_space_group_name_H-M "C 2/M"
_symmetry_group_IT_number 12
_symmetry_cell_setting 'monoclinic'
loop_
_space_group_symop_operation_xyz
x,y,z
-x,y,-z
-x,-y,-z
x,-y,z
1/2+x,1/2+y,z
1/2-x,1/2+y,-z
1/2-x,1/2-y,-z
1/2+x,1/2-y,z
loop_
_atom_site_type_symbol
_atom_site_label
_atom_site_fract_x
_atom_site_fract_y
_atom_site_fract_z
Si Si1 0.098331 0.120408 0.496934
Si Si2 0.245696 0.634583 0.590223
Si Si3 0.243740 0.905535 0.805928
Si Si4 0.052542 0.289890 0.353671
Si Si5 0.801286 0.833931 0.994790
Si Si6 0.627281 0.913068 0.731850
Si Si7 0.872296 0.254005 0.831011
O O1 0.159158 0.094897 0.417973
O O2 0.182792 0.112567 0.650060
O O3 0.062519 0.209136 0.434280
O O4 0.000000 0.083818 0.500000
O O5 0.159749 0.664018 0.444791
O O6 0.185978 0.583538 0.646896
O O7 0.287419 0.710130 0.693555
O O8 0.336172 0.840323 0.858322
O O9 0.271117 0.000000 0.830305
O O10 0.171520 0.879920 0.869641
O O11 0.040236 0.269730 0.209065
O O12 0.958582 0.345104 0.331131
O O13 0.712352 0.887431 0.879374
O O14 0.880244 0.808141 0.943306
O O15 0.750000 0.750000 0.000000
O O16 0.581838 0.000000 0.731885
#
# Coordination Sequence:
#
# PCOD9189721 Si02
#       7
#     8   8   8   8   8   8   8
#     4  11  22  37  66  92 122 167 219 264 310 373
#     4  10  19  38  61  89 131 171 212 252 311 383
#     4  11  21  37  62  89 121 163 208 270 326 360
#     4  11  20  35  65  93 131 166 213 256 314 388
#     4   9  21  40  66  84 117 168 223 253 306 372
#     4  11  24  39  63 100 133 168 205 260 328 385
#     4   9  18  38  60  88 120 168 215 258 304 377
#
# _framework density 22.503681
#
# number of rings (size 3 to 8) (size 9 to 14) (size 15 to 20)
#    0.000    1.714    2.857    2.571    4.000    2.571 
#    0.000    2.857    3.143    4.286    0.000    4.000 
#    0.000    0.000    0.000    0.000    0.000    0.000 
#
# Total GULP energy -156153.099148 kJ/mol
# GULP energy per Si atom -5576.896398 kJ/mol
# Density = 2.245246 g / cm^3
# Si number density = 22.503681 Si / 1000 Ang^3
#
#
#
# Elastic Constant Matrix: (Units=GPa)
#
#
# Indices 1 2 3 4 5 6 
#
# 1 127.0835 39.7728 22.4484 0.0000 -30.9778 0.0000
# 2 39.7728 147.6800 28.4638 0.0000 -12.3760 0.0000
# 3 22.4484 28.4638 71.5139 0.0000 -28.1115 0.0000
# 4 0.0000 0.0000 0.0000 -6.6234 0.0000 5.5860
# 5 -30.9778 -12.3760 -28.1115 0.0000 39.5863 0.0000
# 6 0.0000 0.0000 0.0000 5.5860 0.0000 -2.8741
#
#
#
# Elastic Compliance Matrix: (Units=1/GPa)
#
#
# Indices 1 2 3 4 5 6 
#
# 1 0.010387 -0.002280 0.000779 0.000000 0.007969 0.000000
# 2 -0.002280 0.007837 -0.002971 0.000000 -0.001444 0.000000
# 3 0.000779 -0.002971 0.020525 0.000000 0.014257 0.000000
# 4 0.000000 0.000000 0.000000 0.236212 0.000000 0.459099
# 5 0.007969 -0.001444 0.014257 0.000000 0.041170 0.000000
# 6 0.000000 0.000000 0.000000 0.459099 0.000000 0.544362
#
#
# Mechanical properties :
#
#
# Convention : Reuss Voigt Hill
#
# Bulk Modulus (GPa) = 33.54979 58.62750 46.08865
# Shear Modulus (GPa) = 5.68587 23.05725 14.37156
#
# Velocity S-wave (km/s) = 1.59127 3.20441 2.52986
# Velocity P-wave (km/s) = 4.27985 6.30872 5.39060
#
# Compressibility (1/GPa) = 0.02980644
#
# Stress axis : x y z
#
# Youngs Moduli (GPa) = 96.27205 127.59862 48.72003
#
# Poissons Ratio (x) = 0.29091 -0.03797
# Poissons Ratio (y) = 0.21949 0.14476
# Poissons Ratio (z) = -0.07504 0.37913
#
# Static dielectric constant tensor:
#      x y z
#    x 1.894170 0.000000 -0.019470 
#    y 0.000000 1.860200 0.000000 
#    z -0.019470 0.000000 1.849880 
# 
# From -- ./inp_files/146251.got.cif
#   From: 2010.05.17/outbox.cif.g08.bks.cpg/sg12_74_cif.got.tgz:146251.got - 2010.06.03 13:09:07.
