data_PCOD9189947
_publ_section_title
;
Structure prediction by ZEFSAII (Michael W. Deem and Ramdas Pophale) SiO2 
 PCOD9189947
Probable space group: C 2/M
;
_chemical_formula_sum "Si O2"
_cell_formula_units_Z 56
_cell_length_a 28.116244
_cell_length_b 22.324473
_cell_length_c 5.334753
_cell_angle_alpha 90.000000
_cell_angle_beta 45.234621
_cell_angle_gamma 90.000000
_cell_volume 2377.436749
_symmetry_space_group_name_H-M "C 2/M"
_symmetry_group_IT_number 12
_symmetry_cell_setting 'monoclinic'
loop_
_space_group_symop_operation_xyz
x,y,z
-x,y,-z
-x,-y,-z
x,-y,z
1/2+x,1/2+y,z
1/2-x,1/2+y,-z
1/2-x,1/2-y,-z
1/2+x,1/2-y,z
loop_
_atom_site_type_symbol
_atom_site_label
_atom_site_fract_x
_atom_site_fract_y
_atom_site_fract_z
Si Si1 0.306669 0.355944 0.408680
Si Si2 0.157636 0.343450 0.014195
Si Si3 0.169297 0.245271 0.338240
Si Si4 0.533317 0.281373 0.628925
Si Si5 0.037657 0.652237 0.136632
Si Si6 0.784067 0.929077 0.010789
Si Si7 0.128228 0.568757 0.485534
O O1 0.341714 0.294520 0.371871
O O2 0.319411 0.396544 0.117183
O O3 0.230894 0.333762 0.639986
O O4 0.302967 0.396222 0.677932
O O5 0.152723 0.312080 0.305087
O O6 0.104968 0.321212 0.010863
O O7 0.142457 0.411513 0.145194
O O8 0.113539 0.214353 0.360247
O O9 0.250000 0.250000 0.000000
O O10 0.500000 0.305496 0.500000
O O11 0.508624 0.211007 0.732860
O O12 0.500000 0.309384 0.000000
O O13 0.000000 0.618012 0.500000
O O14 0.067130 0.607681 0.822512
O O15 0.702497 0.924016 0.335964
O O16 0.799314 0.000000 0.945260
O O17 0.110405 0.500000 0.570092
#
# Coordination Sequence:
#
# PCOD9189947 Si02
#       7
#     8   8   8   8   8   8   8
#     4  10  21  36  59  92 122 155 212 249 313 371
#     4  10  19  39  53  83 111 167 199 266 310 362
#     4  10  21  40  63  92 128 166 216 271 322 384
#     4  11  23  40  63  88 121 170 208 253 324 386
#     4  11  21  34  58  72 112 156 214 246 314 362
#     4  10  20  38  61  88 124 163 200 257 313 366
#     4  10  22  36  56  81 115 161 221 266 303 357
#
# _framework density 23.554779
#
# number of rings (size 3 to 8) (size 9 to 14) (size 15 to 20)
#    0.000    1.714    4.286    1.286    0.000    2.571 
#    2.571    4.286    0.000    0.000    0.000    0.000 
#    0.000   11.429    0.000    0.000    0.000    0.000 
#
# Total GULP energy -155888.634077 kJ/mol
# GULP energy per Si atom -5567.451217 kJ/mol
# Density = 2.350117 g / cm^3
# Si number density = 23.554779 Si / 1000 Ang^3
#
#
#
# Elastic Constant Matrix: (Units=GPa)
#
#
# Indices 1 2 3 4 5 6 
#
# 1 142.2720 21.7795 37.9354 0.0000 -8.2196 0.0000
# 2 21.7795 96.5229 13.3970 0.0000 -0.3612 0.0000
# 3 37.9354 13.3970 58.3291 0.0000 17.7703 0.0000
# 4 0.0000 0.0000 0.0000 24.3269 0.0000 3.5869
# 5 -8.2196 -0.3612 17.7703 0.0000 24.8313 0.0000
# 6 0.0000 0.0000 0.0000 3.5869 0.0000 21.8875
#
#
#
# Elastic Compliance Matrix: (Units=1/GPa)
#
#
# Indices 1 2 3 4 5 6 
#
# 1 0.010345 -0.000956 -0.009652 0.000000 0.010317 0.000000
# 2 -0.000956 0.010907 -0.002347 0.000000 0.001522 0.000000
# 3 -0.009652 -0.002347 0.031899 0.000000 -0.026057 0.000000
# 4 0.000000 0.000000 0.000000 0.042125 0.000000 -0.006903
# 5 0.010317 0.001522 -0.026057 0.000000 0.062357 0.000000
# 6 0.000000 0.000000 0.000000 -0.006903 0.000000 0.046820
#
#
# Mechanical properties :
#
#
# Convention : Reuss Voigt Hill
#
# Bulk Modulus (GPa) = 36.70879 49.26086 42.98482
# Shear Modulus (GPa) = 20.88194 29.14327 25.01261
#
# Velocity S-wave (km/s) = 2.98069 3.52128 3.26220
# Velocity P-wave (km/s) = 5.24064 6.12301 5.69893
#
# Compressibility (1/GPa) = 0.02724143
#
# Stress axis : x y z
#
# Youngs Moduli (GPa) = 96.66789 91.68074 31.34928
#
# Poissons Ratio (x) = 0.08764 0.30257
# Poissons Ratio (y) = 0.09241 0.07358
# Poissons Ratio (z) = 0.93299 0.21519
#
# Static dielectric constant tensor:
#      x y z
#    x 2.074200 0.000000 0.096340 
#    y 0.000000 1.923990 0.000000 
#    z 0.096340 0.000000 2.032780 
# 
# From -- ./inp_files/29580.got.cif
#   From: 2010.05.17/outbox.cif.g08.bks.cpg/sg12_15_cif.got.tgz:29580.got - 2010.06.03 13:09:07.
