data_PCOD9189546
_publ_section_title
;
Structure prediction by ZEFSAII (Michael W. Deem and Ramdas Pophale) SiO2 
 PCOD9189546
Probable space group: C 2/M
;
_chemical_formula_sum "Si O2"
_cell_formula_units_Z 58
_cell_length_a 30.277425
_cell_length_b 19.870925
_cell_length_c 16.032916
_cell_angle_alpha 90.000000
_cell_angle_beta 163.419553
_cell_angle_gamma 90.000000
_cell_volume 2752.609648
_symmetry_space_group_name_H-M "C 2/M"
_symmetry_group_IT_number 12
_symmetry_cell_setting 'monoclinic'
loop_
_space_group_symop_operation_xyz
x,y,z
-x,y,-z
-x,-y,-z
x,-y,z
1/2+x,1/2+y,z
1/2-x,1/2+y,-z
1/2-x,1/2-y,-z
1/2+x,1/2-y,z
loop_
_atom_site_type_symbol
_atom_site_label
_atom_site_fract_x
_atom_site_fract_y
_atom_site_fract_z
Si Si1 0.834566 0.420935 0.580737
Si Si2 0.080677 0.073608 0.974917
Si Si3 0.883593 0.826379 0.712042
Si Si4 0.487813 0.800002 0.138806
Si Si5 0.052836 0.893336 0.736420
Si Si6 0.154250 0.235314 0.588268
Si Si7 0.819487 0.696151 0.189095
Si Si8 0.500000 0.500000 0.500000
O O1 0.852299 0.500000 0.633045
O O2 0.727484 0.417195 0.302615
O O3 0.754021 0.375447 0.506897
O O4 0.986989 0.377790 0.836895
O O5 0.015731 0.000000 0.881243
O O6 0.101587 0.075577 0.913959
O O7 0.965055 0.134001 0.784683
O O8 0.899630 0.747959 0.714365
O O9 0.000000 0.830516 0.000000
O O10 0.546000 0.782628 0.336577
O O11 0.307629 0.780975 0.811319
O O12 0.939757 0.830151 0.550993
O O13 0.214060 0.868736 0.988809
O O14 0.979536 0.942220 0.536472
O O15 0.203028 0.276082 0.758340
O O16 0.000000 0.685928 0.500000
O O17 0.750000 0.750000 0.000000
#
# Coordination Sequence:
#
# PCOD9189546 Si02
#       8
#     8   8   8   8   8   8   8   2
#     4  10  22  38  62  95 138 176 223 271 330 390
#     4  10  19  38  65  90 123 173 215 270 322 397
#     4  10  19  37  65  98 129 175 229 277 327 384
#     4  12  23  40  66  98 132 173 228 278 333 389
#     4  12  23  43  66  94 134 169 221 269 338 408
#     4  12  23  41  69  98 126 170 224 282 337 396
#     4  12  22  40  68  99 129 163 216 285 348 403
#     4  12  28  44  66  96 134 190 220 268 344 428
#
# _framework density 21.070913000000001
#
# number of rings (size 3 to 8) (size 9 to 14) (size 15 to 20)
#    0.000    0.828    4.828    4.138    0.000    1.655 
#    1.241    0.345    3.034    1.241    0.000    0.000 
#    0.000    0.000    0.000    0.000    0.000    0.000 
#
# Total GULP energy -161564.176900 kJ/mol
# GULP energy per Si atom -5571.178514 kJ/mol
# Density = 2.102296 g / cm^3
# Si number density = 21.070913 Si / 1000 Ang^3
#
#
#
# Elastic Constant Matrix: (Units=GPa)
#
#
# Indices 1 2 3 4 5 6 
#
# 1 72.7958 14.5112 6.1286 0.0000 3.3265 0.0000
# 2 14.5112 133.0476 21.9075 0.0000 20.7883 0.0000
# 3 6.1286 21.9075 66.9419 0.0000 13.7851 0.0000
# 4 0.0000 0.0000 0.0000 4.7032 0.0000 2.0987
# 5 3.3265 20.7883 13.7851 0.0000 22.9470 0.0000
# 6 0.0000 0.0000 0.0000 2.0987 0.0000 36.6183
#
#
#
# Elastic Compliance Matrix: (Units=1/GPa)
#
#
# Indices 1 2 3 4 5 6 
#
# 1 0.014088 -0.001354 -0.000774 0.000000 -0.000350 0.000000
# 2 -0.001354 0.009003 -0.001350 0.000000 -0.007149 0.000000
# 3 -0.000774 -0.001350 0.017319 0.000000 -0.009068 0.000000
# 4 0.000000 0.000000 0.000000 0.218200 0.000000 -0.012505
# 5 -0.000350 -0.007149 -0.009068 0.000000 0.055553 0.000000
# 6 0.000000 0.000000 0.000000 -0.012505 0.000000 0.028025
#
#
# Mechanical properties :
#
#
# Convention : Reuss Voigt Hill
#
# Bulk Modulus (GPa) = 29.89389 39.76445 34.82917
# Shear Modulus (GPa) = 13.87744 28.20289 21.04016
#
# Velocity S-wave (km/s) = 2.56912 3.66249 3.16340
# Velocity P-wave (km/s) = 4.79777 6.06612 5.46884
#
# Compressibility (1/GPa) = 0.03345165
#
# Stress axis : x y z
#
# Youngs Moduli (GPa) = 70.98123 111.07258 57.74164
#
# Poissons Ratio (x) = 0.15043 0.04472
# Poissons Ratio (y) = 0.09613 0.07797
# Poissons Ratio (z) = 0.05497 0.14998
#
# Static dielectric constant tensor:
#      x y z
#    x 1.784490 0.000000 0.004270 
#    y 0.000000 1.792860 0.000000 
#    z 0.004270 0.000000 1.750220 
# 
# From -- ./inp_files/247323.got.cif
#   From: 2010.05.17/outbox.cif.g08.bks.cpg/sg12_124_cif.got.tgz:247323.got - 2010.06.03 13:09:07.
