data_PCOD9189658
_publ_section_title
;
Structure prediction by ZEFSAII (Michael W. Deem and Ramdas Pophale) SiO2 
 PCOD9189658
Probable space group: C 2/M
;
_chemical_formula_sum "Si O2"
_cell_formula_units_Z 44
_cell_length_a 16.138539
_cell_length_b 20.094385
_cell_length_c 10.719100
_cell_angle_alpha 90.000000
_cell_angle_beta 36.198612
_cell_angle_gamma 90.000000
_cell_volume 2052.960023
_symmetry_space_group_name_H-M "C 2/M"
_symmetry_group_IT_number 12
_symmetry_cell_setting 'monoclinic'
loop_
_space_group_symop_operation_xyz
x,y,z
-x,y,-z
-x,-y,-z
x,-y,z
1/2+x,1/2+y,z
1/2-x,1/2+y,-z
1/2-x,1/2-y,-z
1/2+x,1/2-y,z
loop_
_atom_site_type_symbol
_atom_site_label
_atom_site_fract_x
_atom_site_fract_y
_atom_site_fract_z
Si Si1 0.000000 0.645770 0.500000
Si Si2 0.374862 0.572144 0.053033
Si Si3 0.049489 0.791875 0.175436
Si Si4 0.116265 0.575487 0.560204
Si Si5 0.629591 0.188254 0.748505
Si Si6 0.318268 0.270060 0.732341
O O1 0.017735 0.601443 0.355789
O O2 0.873531 0.696795 0.630561
O O3 0.371184 0.500000 0.990686
O O4 0.236512 0.575872 0.307547
O O5 0.500000 0.570361 0.000000
O O6 0.410723 0.636082 0.926482
O O7 0.070002 0.795455 0.300164
O O8 0.915564 0.756553 0.270510
O O9 0.172416 0.741127 0.983369
O O10 0.100980 0.500000 0.623845
O O11 0.145279 0.628542 0.631996
O O12 0.765965 0.194048 0.670989
O O13 0.500000 0.174332 0.000000
#
# Coordination Sequence:
#
# PCOD9189658 Si02
#       6
#     4   8   8   8   8   8
#     4  12  21  38  58  94 121 158 210 256 309 364
#     4  10  21  38  62  89 119 161 207 254 307 364
#     4  10  19  38  59  86 120 155 207 257 301 358
#     4  11  24  40  60  90 130 165 203 253 312 377
#     4  10  22  40  63  92 120 166 209 257 308 362
#     4  10  21  34  58  87 121 154 201 256 305 361
#
# _framework density 21.432469000000001
#
# number of rings (size 3 to 8) (size 9 to 14) (size 15 to 20)
#    0.000    1.636    3.636    1.909    0.000    2.545 
#    0.000    0.909    0.000    0.000    0.000    5.091 
#    0.000    0.000    0.000    0.000    0.000    0.000 
#
# Total GULP energy -122703.360483 kJ/mol
# GULP energy per Si atom -5577.425477 kJ/mol
# Density = 2.138369 g / cm^3
# Si number density = 21.432469 Si / 1000 Ang^3
#
#
#
# Elastic Constant Matrix: (Units=GPa)
#
#
# Indices 1 2 3 4 5 6 
#
# 1 170.1116 90.3731 28.7246 0.0009 16.6657 0.0008
# 2 90.3731 182.6914 37.8097 0.0002 31.5237 0.0004
# 3 28.7246 37.8097 39.9183 0.0008 13.9035 -0.0003
# 4 0.0009 0.0002 0.0008 28.8323 -0.0011 13.5045
# 5 16.6657 31.5237 13.9035 -0.0011 42.2366 -0.0004
# 6 0.0008 0.0004 -0.0003 13.5045 -0.0004 41.0353
#
#
#
# Elastic Compliance Matrix: (Units=1/GPa)
#
#
# Indices 1 2 3 4 5 6 
#
# 1 0.008181 -0.003554 -0.002621 0.000000 0.000287 0.000000
# 2 -0.003554 0.008797 -0.004492 0.000000 -0.003685 0.000000
# 3 -0.002621 -0.004492 0.033505 -0.000001 -0.006643 0.000001
# 4 0.000000 0.000000 -0.000001 0.041004 0.000001 -0.013494
# 5 0.000287 -0.003685 -0.006643 0.000001 0.028500 0.000000
# 6 0.000000 0.000000 0.000001 -0.013494 0.000000 0.028810
#
#
# Mechanical properties :
#
#
# Convention : Reuss Voigt Hill
#
# Bulk Modulus (GPa) = 34.30463 78.50400 56.40431
# Shear Modulus (GPa) = 27.80149 38.14175 32.97162
#
# Velocity S-wave (km/s) = 3.60553 4.22314 3.92649
# Velocity P-wave (km/s) = 5.77700 7.77740 6.85061
#
# Compressibility (1/GPa) = 0.02915059
#
# Stress axis : x y z
#
# Youngs Moduli (GPa) = 122.23385 113.67105 29.84637
#
# Poissons Ratio (x) = 0.40401 0.07821
# Poissons Ratio (y) = 0.43444 0.13406
# Poissons Ratio (z) = 0.32032 0.51056
#
# Static dielectric constant tensor:
#      x y z
#    x 1.873580 0.000000 -0.099460 
#    y 0.000000 1.792260 0.000000 
#    z -0.099460 0.000000 2.008650 
# 
# From -- ./inp_files/158146.got.cif
#   From: 2010.05.17/outbox.cif.g08.bks.cpg/sg12_80_cif.got.tgz:158146.got - 2010.06.03 13:09:07.
