data_PCOD9189173
_publ_section_title
;
Structure prediction by ZEFSAII (Michael W. Deem and Ramdas Pophale) SiO2 
 PCOD9189173
Probable space group: C 2/M
;
_chemical_formula_sum "Si O2"
_cell_formula_units_Z 48
_cell_length_a 16.678161
_cell_length_b 28.674447
_cell_length_c 12.125718
_cell_angle_alpha 90.000000
_cell_angle_beta 156.209308
_cell_angle_gamma 90.000000
_cell_volume 2339.284080
_symmetry_space_group_name_H-M "C 2/M"
_symmetry_group_IT_number 12
_symmetry_cell_setting 'monoclinic'
loop_
_space_group_symop_operation_xyz
x,y,z
-x,y,-z
-x,-y,-z
x,-y,z
1/2+x,1/2+y,z
1/2-x,1/2+y,-z
1/2-x,1/2-y,-z
1/2+x,1/2-y,z
loop_
_atom_site_type_symbol
_atom_site_label
_atom_site_fract_x
_atom_site_fract_y
_atom_site_fract_z
Si Si1 0.671893 0.053862 0.135866
Si Si2 0.914579 0.916273 0.242554
Si Si3 0.504462 0.209666 0.631392
Si Si4 0.341592 0.651838 0.701029
Si Si5 0.545219 0.310678 0.742724
Si Si6 0.937466 0.947368 0.792197
O O1 0.726405 0.073740 0.083520
O O2 0.885828 0.057478 0.466139
O O3 0.619436 0.000000 0.052584
O O4 0.500000 0.074329 0.000000
O O5 0.966497 0.861812 0.323878
O O6 0.896984 0.932057 0.091772
O O7 0.500000 0.194192 0.500000
O O8 0.350990 0.179056 0.505005
O O9 0.452861 0.264788 0.571666
O O10 0.723140 0.200699 0.952391
O O11 0.444767 0.680791 0.734095
O O12 0.297714 0.598330 0.610102
O O13 0.500000 0.649863 0.000000
O O14 0.867637 0.000000 0.677203
O O15 0.000000 0.949338 0.000000
#
# Coordination Sequence:
#
# PCOD9189173 Si02
#       6
#     8   8   8   8   8   8
#     4  10  21  37  60  89 121 158 197 245 304 354
#     4  10  20  37  61  85 122 155 200 244 295 355
#     4  11  22  38  61  82 118 151 192 243 292 349
#     4  10  19  37  59  83 115 153 189 234 292 343
#     4  10  23  38  58  88 112 154 194 239 294 347
#     4   9  18  33  59  88 116 155 197 238 287 347
#
# _framework density 20.519098
#
# number of rings (size 3 to 8) (size 9 to 14) (size 15 to 20)
#    0.000    2.000    1.667    2.500    2.333    2.667 
#    0.000    0.833    0.000    5.500    0.000    0.000 
#    0.000    0.000    0.000    0.000    0.000    0.000 
#
# Total GULP energy -133719.127997 kJ/mol
# GULP energy per Si atom -5571.630333 kJ/mol
# Density = 2.047240 g / cm^3
# Si number density = 20.519098 Si / 1000 Ang^3
#
#
#
# Elastic Constant Matrix: (Units=GPa)
#
#
# Indices 1 2 3 4 5 6 
#
# 1 178.7663 54.5285 30.8369 0.0001 30.3359 0.0000
# 2 54.5285 135.7621 13.7899 0.0001 29.2531 0.0000
# 3 30.8369 13.7899 38.1953 0.0005 21.5194 0.0002
# 4 0.0001 0.0001 0.0005 17.8130 0.0002 16.3362
# 5 30.3359 29.2531 21.5194 0.0002 35.4097 0.0001
# 6 0.0000 0.0000 0.0002 16.3362 0.0001 35.4380
#
#
#
# Elastic Compliance Matrix: (Units=1/GPa)
#
#
# Indices 1 2 3 4 5 6 
#
# 1 0.007260 -0.002057 -0.003911 0.000000 -0.002144 0.000000
# 2 -0.002057 0.009595 0.002539 0.000000 -0.007707 0.000000
# 3 -0.003911 0.002539 0.042147 -0.000001 -0.024361 0.000000
# 4 0.000000 0.000000 -0.000001 0.097255 0.000000 -0.044833
# 5 -0.002144 -0.007707 -0.024361 0.000000 0.051249 0.000000
# 6 0.000000 0.000000 0.000000 -0.044833 0.000000 0.048885
#
#
# Mechanical properties :
#
#
# Convention : Reuss Voigt Hill
#
# Bulk Modulus (GPa) = 19.17771 61.22605 40.20188
# Shear Modulus (GPa) = 17.81713 34.63670 26.22692
#
# Velocity S-wave (km/s) = 2.94992 4.11301 3.57903
# Velocity P-wave (km/s) = 4.57922 7.24287 6.05923
#
# Compressibility (1/GPa) = 0.05214388
#
# Stress axis : x y z
#
# Youngs Moduli (GPa) = 137.74862 104.22366 23.72660
#
# Poissons Ratio (x) = 0.21435 0.09279
# Poissons Ratio (y) = 0.28330 -0.06024
# Poissons Ratio (z) = 0.53870 -0.26460
#
# Static dielectric constant tensor:
#      x y z
#    x 1.738560 0.000000 -0.008170 
#    y 0.000000 1.770270 0.000000 
#    z -0.008170 0.000000 1.726340 
# 
# From -- ./inp_files/149619.got.cif
#   From: 2010.05.17/outbox.cif.g08.bks.cpg/sg12_75_cif.got.tgz:149619.got - 2010.06.03 13:09:07.
