data_PCOD9189480
_publ_section_title
;
Structure prediction by ZEFSAII (Michael W. Deem and Ramdas Pophale) SiO2 
 PCOD9189480
Probable space group: C 2/M
;
_chemical_formula_sum "Si O2"
_cell_formula_units_Z 48
_cell_length_a 20.190042
_cell_length_b 19.537388
_cell_length_c 16.043927
_cell_angle_alpha 90.000000
_cell_angle_beta 24.126645
_cell_angle_gamma 90.000000
_cell_volume 2586.886639
_symmetry_space_group_name_H-M "C 2/M"
_symmetry_group_IT_number 12
_symmetry_cell_setting 'monoclinic'
loop_
_space_group_symop_operation_xyz
x,y,z
-x,y,-z
-x,-y,-z
x,-y,z
1/2+x,1/2+y,z
1/2-x,1/2+y,-z
1/2-x,1/2-y,-z
1/2+x,1/2-y,z
loop_
_atom_site_type_symbol
_atom_site_label
_atom_site_fract_x
_atom_site_fract_y
_atom_site_fract_z
Si Si1 0.018333 0.580374 0.724925
Si Si2 0.577376 0.846520 0.830376
Si Si3 0.276732 0.159911 0.631600
Si Si4 0.205119 0.170101 0.047446
Si Si5 0.941774 0.804544 0.957578
Si Si6 0.932463 0.200285 0.483349
O O1 0.995903 0.500000 0.760609
O O2 0.084558 0.612939 0.735528
O O3 0.132385 0.596165 0.513723
O O4 0.851059 0.620032 0.900016
O O5 0.463950 0.778117 0.943909
O O6 0.754748 0.825807 0.660493
O O7 0.500000 0.883281 0.000000
O O8 0.411959 0.219051 0.485040
O O9 0.130371 0.175389 0.736445
O O10 0.169743 0.165720 0.839314
O O11 0.140380 0.165296 0.028896
O O12 0.061355 0.162137 0.278221
O O13 0.250000 0.250000 0.000000
O O14 0.000000 0.194945 0.500000
#
# Coordination Sequence:
#
# PCOD9189480 Si02
#       6
#     8   8   8   8   8   8
#     4  12  27  42  58  89 134 175 205 246 316 385
#     4  11  20  39  65  95 124 157 207 263 316 363
#     4  10  20  38  62  93 127 153 204 261 316 365
#     4  12  21  35  61  89 122 162 212 264 302 354
#     4  10  19  37  64 100 119 149 211 274 311 351
#     4  11  20  34  63 101 122 148 205 274 315 351
#
# _framework density 18.555122999999998
#
# number of rings (size 3 to 8) (size 9 to 14) (size 15 to 20)
#    0.000    1.000    6.667    3.000    0.000    3.000 
#    0.000    6.667    0.000    2.000    0.000    0.000 
#    0.000    0.000    0.000    0.000    0.000    0.000 
#
# Total GULP energy -133621.689469 kJ/mol
# GULP energy per Si atom -5567.570395 kJ/mol
# Density = 1.851289 g / cm^3
# Si number density = 18.555123 Si / 1000 Ang^3
#
#
#
# Elastic Constant Matrix: (Units=GPa)
#
#
# Indices 1 2 3 4 5 6 
#
# 1 132.3812 54.6048 46.6412 -0.0009 -15.5318 0.0003
# 2 54.6048 85.2940 43.4900 -0.0028 -0.0439 0.0004
# 3 46.6412 43.4900 99.0817 -0.0035 5.9043 0.0010
# 4 -0.0009 -0.0028 -0.0035 16.9141 0.0018 3.4518
# 5 -15.5318 -0.0439 5.9043 0.0018 29.7255 -0.0002
# 6 0.0003 0.0004 0.0010 3.4518 -0.0002 10.7539
#
#
#
# Elastic Compliance Matrix: (Units=1/GPa)
#
#
# Indices 1 2 3 4 5 6 
#
# 1 0.012047 -0.005933 -0.003482 -0.000002 0.006977 0.000001
# 2 -0.005933 0.018081 -0.005020 0.000002 -0.002076 -0.000001
# 3 -0.003482 -0.005020 0.014212 0.000003 -0.004650 -0.000002
# 4 -0.000002 0.000002 0.000003 0.063266 -0.000006 -0.020307
# 5 0.006977 -0.002076 -0.004650 -0.000006 0.038207 0.000003
# 6 0.000001 -0.000001 -0.000002 -0.020307 0.000003 0.099508
#
#
# Mechanical properties :
#
#
# Convention : Reuss Voigt Hill
#
# Bulk Modulus (GPa) = 64.64227 67.35876 66.00052
# Shear Modulus (GPa) = 17.89880 22.94678 20.42279
#
# Velocity S-wave (km/s) = 3.10922 3.52046 3.32121
# Velocity P-wave (km/s) = 6.91399 7.27363 7.09609
#
# Compressibility (1/GPa) = 0.01546975
#
# Stress axis : x y z
#
# Youngs Moduli (GPa) = 83.00953 55.30724 70.36152
#
# Poissons Ratio (x) = 0.32814 0.24503
# Poissons Ratio (y) = 0.49250 0.35319
# Poissons Ratio (z) = 0.28907 0.27762
#
# Static dielectric constant tensor:
#      x y z
#    x 1.691740 0.000000 0.003670 
#    y 0.000000 1.612790 0.000000 
#    z 0.003670 0.000000 1.680530 
# 
# From -- ./inp_files/285314.got.cif
#   From: 2010.05.17/outbox.cif.g08.bks.cpg/sg12_143_cif.got.tgz:285314.got - 2010.06.03 13:09:07.
