data_PCOD9189593
_publ_section_title
;
Structure prediction by ZEFSAII (Michael W. Deem and Ramdas Pophale) SiO2 
 PCOD9189593
Probable space group: C 2/M
;
_chemical_formula_sum "Si O2"
_cell_formula_units_Z 52
_cell_length_a 12.717630
_cell_length_b 12.885735
_cell_length_c 18.780501
_cell_angle_alpha 90.000000
_cell_angle_beta 39.932279
_cell_angle_gamma 90.000000
_cell_volume 1975.502439
_symmetry_space_group_name_H-M "C 2/M"
_symmetry_group_IT_number 12
_symmetry_cell_setting 'monoclinic'
loop_
_space_group_symop_operation_xyz
x,y,z
-x,y,-z
-x,-y,-z
x,-y,z
1/2+x,1/2+y,z
1/2-x,1/2+y,-z
1/2-x,1/2-y,-z
1/2+x,1/2-y,z
loop_
_atom_site_type_symbol
_atom_site_label
_atom_site_fract_x
_atom_site_fract_y
_atom_site_fract_z
Si Si1 0.675020 0.324813 0.318222
Si Si2 0.179364 0.312204 0.103941
Si Si3 0.702673 0.382588 0.814609
Si Si4 0.861150 0.617642 0.521915
Si Si5 0.508131 0.387631 0.780357
Si Si6 0.937544 0.500000 0.175775
Si Si7 0.800370 0.877904 0.533695
O O1 0.697861 0.211794 0.273026
O O2 0.719441 0.325724 0.379797
O O3 0.803776 0.408222 0.221197
O O4 0.488345 0.365363 0.411248
O O5 0.302890 0.355286 0.099549
O O6 0.081354 0.217507 0.193121
O O7 0.065157 0.406993 0.137355
O O8 0.250000 0.250000 0.000000
O O9 0.772102 0.500000 0.772311
O O10 0.543412 0.384409 0.846921
O O11 0.915900 0.500000 0.481209
O O12 0.825068 0.657229 0.461667
O O13 0.000000 0.664408 0.500000
O O14 0.428171 0.500000 0.806045
O O15 0.685930 0.389110 0.651200
O O16 0.771585 0.000000 0.562972
#
# Coordination Sequence:
#
# PCOD9189593 Si02
#       7
#     8   8   8   8   8   4   8
#     4  11  21  43  76 118 156 216 279 326 399 478
#     4  12  28  51  80 115 151 203 265 336 412 498
#     4  11  25  49  77 107 156 208 255 330 418 486
#     4   9  19  38  65 110 160 213 273 323 391 467
#     4  10  23  46  73 108 154 203 258 324 399 475
#     4  12  24  49  81 115 156 200 277 324 400 502
#     4  10  19  37  72 113 167 218 273 345 386 463
#
# _framework density 26.322417999999999
#
# number of rings (size 3 to 8) (size 9 to 14) (size 15 to 20)
#    0.000    1.385    3.846    1.385    1.077    1.846 
#    6.923    4.615    3.385    0.000    0.000    0.000 
#    0.000    0.000    0.000    0.000    0.000    0.000 
#
# Total GULP energy -145033.383052 kJ/mol
# GULP energy per Si atom -5578.207040 kJ/mol
# Density = 2.626251 g / cm^3
# Si number density = 26.322418 Si / 1000 Ang^3
#
#
#
# Elastic Constant Matrix: (Units=GPa)
#
#
# Indices 1 2 3 4 5 6 
#
# 1 186.5283 57.8825 38.1057 0.0000 9.6017 0.0000
# 2 57.8825 265.2813 42.3352 0.0000 -4.9087 0.0000
# 3 38.1057 42.3352 57.3551 -0.0002 11.0568 0.0000
# 4 0.0000 0.0000 -0.0002 6.5435 0.0000 17.0402
# 5 9.6017 -4.9087 11.0568 0.0000 33.5348 0.0000
# 6 0.0000 0.0000 0.0000 17.0402 0.0000 22.9023
#
#
#
# Elastic Compliance Matrix: (Units=1/GPa)
#
#
# Indices 1 2 3 4 5 6 
#
# 1 0.006372 -0.000856 -0.003445 0.000000 -0.000814 0.000000
# 2 -0.000856 0.004489 -0.003117 0.000000 0.001930 0.000000
# 3 -0.003445 -0.003117 0.023411 -0.000001 -0.007189 0.000001
# 4 0.000000 0.000000 -0.000001 -0.162997 0.000000 0.121276
# 5 -0.000814 0.001930 -0.007189 0.000000 0.032706 0.000000
# 6 0.000000 0.000000 0.000001 0.121276 0.000000 -0.046570
#
#
# Mechanical properties :
#
#
# Convention : Reuss Voigt Hill
#
# Bulk Modulus (GPa) = 51.44993 87.31239 69.38116
# Shear Modulus (GPa) = -41.22897 37.31888 -1.95504
#
# Velocity S-wave (km/s) = -3.96195 3.76940 -0.86275
# Velocity P-wave (km/s) = 1.15799 7.22405 5.04212
#
# Compressibility (1/GPa) = 0.01943637
#
# Stress axis : x y z
#
# Youngs Moduli (GPa) = 156.92802 222.74290 42.71502
#
# Poissons Ratio (x) = 0.19059 0.14716
# Poissons Ratio (y) = 0.13428 0.13316
# Poissons Ratio (z) = 0.54065 0.69437
#
# Static dielectric constant tensor:
#      x y z
#    x 2.069010 0.000000 0.046910 
#    y 0.000000 2.079440 0.000000 
#    z 0.046910 0.000000 2.159960 
# 
# From -- ./inp_files/360558.got.cif
#   From: 2010.05.17/outbox.cif.g08.bks.cpg/sg12_181_cif.got.tgz:360558.got - 2010.06.03 13:09:07.
