data_PCOD9189715
_publ_section_title
;
Structure prediction by ZEFSAII (Michael W. Deem and Ramdas Pophale) SiO2 
 PCOD9189715
Probable space group: C 2/M
;
_chemical_formula_sum "Si O2"
_cell_formula_units_Z 44
_cell_length_a 16.211762
_cell_length_b 17.395960
_cell_length_c 8.137730
_cell_angle_alpha 90.000000
_cell_angle_beta 113.370792
_cell_angle_gamma 90.000000
_cell_volume 2106.707379
_symmetry_space_group_name_H-M "C 2/M"
_symmetry_group_IT_number 12
_symmetry_cell_setting 'monoclinic'
loop_
_space_group_symop_operation_xyz
x,y,z
-x,y,-z
-x,-y,-z
x,-y,z
1/2+x,1/2+y,z
1/2-x,1/2+y,-z
1/2-x,1/2-y,-z
1/2+x,1/2-y,z
loop_
_atom_site_type_symbol
_atom_site_label
_atom_site_fract_x
_atom_site_fract_y
_atom_site_fract_z
Si Si1 0.808626 0.910224 0.369804
Si Si2 0.227715 0.823577 0.317001
Si Si3 0.721153 0.160219 0.979474
Si Si4 0.025271 0.411282 0.827738
Si Si5 0.000000 0.839549 0.500000
Si Si6 0.597341 0.779619 0.377469
O O1 0.786006 0.873327 0.529122
O O2 0.912023 0.890500 0.412683
O O3 0.792260 0.000000 0.366609
O O4 0.753235 0.876438 0.174397
O O5 0.229190 0.868479 0.147957
O O6 0.325929 0.785066 0.421232
O O7 0.151440 0.757577 0.267784
O O8 0.617366 0.136042 0.878744
O O9 0.750000 0.250000 0.000000
O O10 0.033290 0.500000 0.777549
O O11 0.946323 0.362166 0.681310
O O12 0.000000 0.412902 0.000000
O O13 0.021740 0.781347 0.368423
#
# Coordination Sequence:
#
# PCOD9189715 Si02
#       6
#     8   8   8   8   4   8
#     4  11  24  42  63  90 126 162 203 258 314 369
#     4  10  22  39  64  92 120 162 210 253 303 366
#     4  12  23  40  66  93 125 167 211 255 307 373
#     4  11  23  37  57  90 129 164 201 252 315 374
#     4  10  21  40  65  86 114 160 208 256 309 364
#     4  10  19  38  61  87 122 158 205 256 301 364
#
# _framework density 20.885673000000001
#
# number of rings (size 3 to 8) (size 9 to 14) (size 15 to 20)
#    0.000    1.273    0.000    8.455    0.000    3.636 
#    0.000    5.909    0.000    5.455    0.000    0.000 
#    0.000    0.000    0.000    0.000    0.000    0.000 
#
# Total GULP energy -122897.056224 kJ/mol
# GULP energy per Si atom -5586.229828 kJ/mol
# Density = 2.083814 g / cm^3
# Si number density = 20.885673 Si / 1000 Ang^3
#
#
#
# Elastic Constant Matrix: (Units=GPa)
#
#
# Indices 1 2 3 4 5 6 
#
# 1 124.9316 48.5569 48.2420 0.0000 -7.6271 0.0000
# 2 48.5569 153.9931 44.0715 0.0000 0.1080 0.0000
# 3 48.2420 44.0715 69.6795 0.0000 -9.7331 0.0000
# 4 0.0000 0.0000 0.0000 20.0269 0.0000 -5.1279
# 5 -7.6271 0.1080 -9.7331 0.0000 34.2862 0.0000
# 6 0.0000 0.0000 0.0000 -5.1279 0.0000 4.0570
#
#
#
# Elastic Compliance Matrix: (Units=1/GPa)
#
#
# Indices 1 2 3 4 5 6 
#
# 1 0.011255 -0.001641 -0.006668 0.000000 0.000616 0.000000
# 2 -0.001641 0.008244 -0.004303 0.000000 -0.001613 0.000000
# 3 -0.006668 -0.004303 0.022372 0.000000 0.004881 0.000000
# 4 0.000000 0.000000 0.000000 0.073827 0.000000 0.093316
# 5 0.000616 -0.001613 0.004881 0.000000 0.030694 0.000000
# 6 0.000000 0.000000 0.000000 0.093316 0.000000 0.364439
#
#
# Mechanical properties :
#
#
# Convention : Reuss Voigt Hill
#
# Bulk Modulus (GPa) = 60.07676 70.03835 65.05755
# Shear Modulus (GPa) = 9.23185 25.52292 17.37739
#
# Velocity S-wave (km/s) = 2.10470 3.49955 2.88761
# Velocity P-wave (km/s) = 5.89350 7.06655 6.50651
#
# Compressibility (1/GPa) = 0.01664537
#
# Stress axis : x y z
#
# Youngs Moduli (GPa) = 88.85228 121.30160 44.69923
#
# Poissons Ratio (x) = 0.19904 0.29806
# Poissons Ratio (y) = 0.14579 0.19236
# Poissons Ratio (z) = 0.59249 0.52201
#
# Static dielectric constant tensor:
#      x y z
#    x 1.783510 0.000000 -0.028110 
#    y 0.000000 1.761540 0.000000 
#    z -0.028110 0.000000 1.774830 
# 
# From -- ./inp_files/61819.got.cif
#   From: 2010.05.17/outbox.cif.g08.bks.cpg/sg12_31_cif.got.tgz:61819.got - 2010.06.03 13:09:07.
