data_PCOD9189161
_publ_section_title
;
Structure prediction by ZEFSAII (Michael W. Deem and Ramdas Pophale) SiO2 
 PCOD9189161
Probable space group: C 2/M
;
_chemical_formula_sum "Si O2"
_cell_formula_units_Z 56
_cell_length_a 23.735733
_cell_length_b 8.738262
_cell_length_c 19.376030
_cell_angle_alpha 90.000000
_cell_angle_beta 54.065285
_cell_angle_gamma 90.000000
_cell_volume 3253.937846
_symmetry_space_group_name_H-M "C 2/M"
_symmetry_group_IT_number 12
_symmetry_cell_setting 'monoclinic'
loop_
_space_group_symop_operation_xyz
x,y,z
-x,y,-z
-x,-y,-z
x,-y,z
1/2+x,1/2+y,z
1/2-x,1/2+y,-z
1/2-x,1/2-y,-z
1/2+x,1/2-y,z
loop_
_atom_site_type_symbol
_atom_site_label
_atom_site_fract_x
_atom_site_fract_y
_atom_site_fract_z
Si Si1 0.703485 0.682150 0.824594
Si Si2 0.446970 0.184807 0.100796
Si Si3 0.064248 0.324405 0.508139
Si Si4 0.049325 0.314326 0.145273
Si Si5 0.300601 0.184120 0.021582
Si Si6 0.659666 0.318845 0.330964
Si Si7 0.953318 0.313940 0.694031
O O1 0.705546 0.500000 0.825155
O O2 0.627556 0.739899 0.856654
O O3 0.716924 0.748519 0.891382
O O4 0.764929 0.744803 0.732285
O O5 0.484585 0.233338 0.144623
O O6 0.438356 0.000000 0.106715
O O7 0.500000 0.220997 0.000000
O O8 0.088094 0.500000 0.498660
O O9 0.123496 0.225951 0.429348
O O10 0.000000 0.325718 0.500000
O O11 0.026701 0.271552 0.605161
O O12 0.048052 0.500000 0.147615
O O13 0.049515 0.263927 0.224542
O O14 0.120789 0.271367 0.055906
O O15 0.296405 0.000000 0.026687
O O16 0.250000 0.250000 0.000000
O O17 0.664081 0.500000 0.320775
O O18 0.609129 0.253400 0.306964
O O19 0.948182 0.500000 0.694207
#
# Coordination Sequence:
#
# PCOD9189161 Si02
#       7
#     8   8   8   8   8   8   8
#     4  12  24  37  53  75 105 141 180 225 268 315
#     4  10  19  37  59  77 100 136 179 224 266 314
#     4   8  15  29  50  76 108 141 171 208 258 319
#     4   9  18  33  55  77 103 138 174 211 258 313
#     4  11  21  35  53  79 110 143 176 213 262 315
#     4  11  21  33  52  78 107 140 178 221 267 317
#     4   9  17  32  54  81 111 142 173 208 260 325
#
# _framework density 17.209916
#
# number of rings (size 3 to 8) (size 9 to 14) (size 15 to 20)
#    0.000    2.000    1.429    4.714    0.000    4.000 
#    0.000    1.429    0.000    0.857    0.000    0.000 
#    0.000    0.000    0.000    0.000    0.000    0.000 
#
# Total GULP energy -156261.901760 kJ/mol
# GULP energy per Si atom -5580.782206 kJ/mol
# Density = 1.717075 g / cm^3
# Si number density = 17.209916 Si / 1000 Ang^3
#
#
#
# Elastic Constant Matrix: (Units=GPa)
#
#
# Indices 1 2 3 4 5 6 
#
# 1 70.4631 31.9617 15.0672 0.0001 -24.8103 0.0001
# 2 31.9617 71.4774 37.0309 0.0002 -17.2422 0.0003
# 3 15.0672 37.0309 84.7935 0.0004 -25.9872 0.0000
# 4 0.0001 0.0002 0.0004 23.5053 0.0001 -4.4575
# 5 -24.8103 -17.2422 -25.9872 0.0001 23.3873 0.0000
# 6 0.0001 0.0003 0.0000 -4.4575 0.0000 25.8118
#
#
#
# Elastic Compliance Matrix: (Units=1/GPa)
#
#
# Indices 1 2 3 4 5 6 
#
# 1 0.028196 -0.009389 0.009305 0.000000 0.033329 0.000000
# 2 -0.009389 0.021975 -0.009123 0.000000 -0.003896 0.000000
# 3 0.009305 -0.009123 0.022879 0.000000 0.028568 0.000000
# 4 0.000000 0.000000 0.000000 0.043984 -0.000001 0.007596
# 5 0.033329 -0.003896 0.028568 -0.000001 0.106987 0.000000
# 6 0.000000 0.000000 0.000000 0.007596 0.000000 0.040054
#
#
# Mechanical properties :
#
#
# Convention : Reuss Voigt Hill
#
# Bulk Modulus (GPa) = 18.30262 43.87265 31.08763
# Shear Modulus (GPa) = 16.62776 24.05249 20.34013
#
# Velocity S-wave (km/s) = 3.11171 3.74250 3.44158
# Velocity P-wave (km/s) = 4.85472 6.65004 5.82200
#
# Compressibility (1/GPa) = 0.05463698
#
# Stress axis : x y z
#
# Youngs Moduli (GPa) = 35.46575 45.50583 43.70734
#
# Poissons Ratio (x) = 0.42725 -0.40668
# Poissons Ratio (y) = 0.33298 0.39873
# Poissons Ratio (z) = -0.32999 0.41513
#
# Static dielectric constant tensor:
#      x y z
#    x 1.560740 0.000000 0.002250 
#    y 0.000000 1.580140 0.000000 
#    z 0.002250 0.000000 1.596720 
# 
# From -- ./inp_files/288230.got.cif
#   From: 2010.05.17/outbox.cif.g08.bks.cpg/sg12_145_cif.got.tgz:288230.got - 2010.06.03 13:09:07.
