data_PCOD9189051
_publ_section_title
;
Structure prediction by ZEFSAII (Michael W. Deem and Ramdas Pophale) SiO2 
 PCOD9189051
Probable space group: C 2/M
;
_chemical_formula_sum "Si O2"
_cell_formula_units_Z 28
_cell_length_a 9.853889
_cell_length_b 27.022905
_cell_length_c 10.109200
_cell_angle_alpha 90.000000
_cell_angle_beta 29.772789
_cell_angle_gamma 90.000000
_cell_volume 1336.687178
_symmetry_space_group_name_H-M "C 2/M"
_symmetry_group_IT_number 12
_symmetry_cell_setting 'monoclinic'
loop_
_space_group_symop_operation_xyz
x,y,z
-x,y,-z
-x,-y,-z
x,-y,z
1/2+x,1/2+y,z
1/2-x,1/2+y,-z
1/2-x,1/2-y,-z
1/2+x,1/2-y,z
loop_
_atom_site_type_symbol
_atom_site_label
_atom_site_fract_x
_atom_site_fract_y
_atom_site_fract_z
Si Si1 0.000000 0.121636 0.500000
Si Si2 0.972652 0.555605 0.182540
Si Si3 0.868335 0.702229 0.471918
Si Si4 0.320285 0.353597 0.919181
O O1 0.806679 0.086872 0.573858
O O2 0.828259 0.152283 0.751896
O O3 0.959796 0.500000 0.247044
O O4 0.000000 0.551709 0.000000
O O5 0.216472 0.590023 0.028894
O O6 0.750000 0.750000 0.500000
O O7 0.620255 0.663755 0.708451
O O8 0.000000 0.715352 0.500000
O O9 0.095392 0.678928 0.183476
#
# Coordination Sequence:
#
# PCOD9189051 Si02
#       4
#     4   8   8   8
#     4  10  19  36  68 102 144 172 222 274 333 392
#     4   9  18  33  62 101 139 177 221 273 327 386
#     4  12  28  47  72  96 130 175 227 282 339 402
#     4  11  23  43  66 100 138 174 217 280 336 396
#
# _framework density 20.947310000000002
#
# number of rings (size 3 to 8) (size 9 to 14) (size 15 to 20)
#    0.000    1.429    2.857    2.143    2.000    1.143 
#    0.000    0.000    0.000    5.143    0.000    0.000 
#    0.000    0.000    0.000    0.000    0.000    0.000 
#
# Total GULP energy -78130.765896 kJ/mol
# GULP energy per Si atom -5580.768993 kJ/mol
# Density = 2.089963 g / cm^3
# Si number density = 20.947310 Si / 1000 Ang^3
#
#
#
# Elastic Constant Matrix: (Units=GPa)
#
#
# Indices 1 2 3 4 5 6 
#
# 1 111.8169 81.2491 49.9748 0.0000 -12.5889 0.0000
# 2 81.2491 95.3036 48.0416 0.0000 8.0133 0.0000
# 3 49.9748 48.0416 157.7831 0.0000 -2.2651 0.0000
# 4 0.0000 0.0000 0.0000 18.1707 0.0000 -0.2619
# 5 -12.5889 8.0133 -2.2651 0.0000 33.4301 0.0000
# 6 0.0000 0.0000 0.0000 -0.2619 0.0000 28.1430
#
#
#
# Elastic Compliance Matrix: (Units=1/GPa)
#
#
# Indices 1 2 3 4 5 6 
#
# 1 0.032441 -0.028601 -0.001294 0.000000 0.018984 0.000000
# 2 -0.028601 0.037969 -0.002790 0.000000 -0.020061 0.000000
# 3 -0.001294 -0.002790 0.007607 0.000000 0.000697 0.000000
# 4 0.000000 0.000000 0.000000 0.055041 0.000000 0.000512
# 5 0.018984 -0.020061 0.000697 0.000000 0.041918 0.000000
# 6 0.000000 0.000000 0.000000 0.000512 0.000000 0.035538
#
#
# Mechanical properties :
#
#
# Convention : Reuss Voigt Hill
#
# Bulk Modulus (GPa) = 79.06851 80.38161 79.72506
# Shear Modulus (GPa) = 17.85081 28.32464 23.08772
#
# Velocity S-wave (km/s) = 2.92237 3.68120 3.32351
# Velocity P-wave (km/s) = 7.01536 7.51830 7.27118
#
# Compressibility (1/GPa) = 0.01264726
#
# Stress axis : x y z
#
# Youngs Moduli (GPa) = 30.82516 26.33737 131.45407
#
# Poissons Ratio (x) = 0.75327 0.17013
# Poissons Ratio (y) = 0.88162 0.36675
# Poissons Ratio (z) = 0.03989 0.07348
#
# Static dielectric constant tensor:
#      x y z
#    x 1.764220 0.000000 -0.006920 
#    y 0.000000 1.794230 0.000000 
#    z -0.006920 0.000000 1.839960 
# 
# From -- ./inp_files/134613.got.cif
#   From: 2010.05.17/outbox.cif.g08.bks.cpg/sg12_68_cif.got.tgz:134613.got - 2010.06.03 13:09:07.
