data_PCOD9189643
_publ_section_title
;
Structure prediction by ZEFSAII (Michael W. Deem and Ramdas Pophale) SiO2 
 PCOD9189643
Probable space group: C 2/M
;
_chemical_formula_sum "Si O2"
_cell_formula_units_Z 52
_cell_length_a 24.803714
_cell_length_b 24.725426
_cell_length_c 5.389351
_cell_angle_alpha 90.000000
_cell_angle_beta 40.506531
_cell_angle_gamma 90.000000
_cell_volume 2146.838320
_symmetry_space_group_name_H-M "C 2/M"
_symmetry_group_IT_number 12
_symmetry_cell_setting 'monoclinic'
loop_
_space_group_symop_operation_xyz
x,y,z
-x,y,-z
-x,-y,-z
x,-y,z
1/2+x,1/2+y,z
1/2-x,1/2+y,-z
1/2-x,1/2-y,-z
1/2+x,1/2-y,z
loop_
_atom_site_type_symbol
_atom_site_label
_atom_site_fract_x
_atom_site_fract_y
_atom_site_fract_z
Si Si1 0.584700 0.000000 0.443079
Si Si2 0.657677 0.195206 0.469780
Si Si3 0.054677 0.000000 0.558551
Si Si4 0.444858 0.380109 0.444866
Si Si5 0.176990 0.187234 0.395029
Si Si6 0.192001 0.500000 0.565956
Si Si7 0.936138 0.382746 0.519800
Si Si8 0.734139 0.886845 0.591305
O O1 0.535582 0.943662 0.640148
O O2 0.650943 0.000000 0.437771
O O3 0.624854 0.000000 0.026299
O O4 0.639038 0.256216 0.618880
O O5 0.582313 0.159798 0.630631
O O6 0.701476 0.159161 0.522297
O O7 0.727297 0.199640 0.009889
O O8 0.094858 0.059483 0.418886
O O9 0.000000 0.000000 0.500000
O O10 0.000000 0.000000 0.000000
O O11 0.500000 0.374053 0.500000
O O12 0.374870 0.334674 0.656034
O O13 0.500000 0.375184 0.000000
O O14 0.185632 0.137124 0.553487
O O15 0.242467 0.444753 0.432617
O O16 0.000000 0.360894 0.500000
O O17 0.843425 0.393398 0.949795
#
# Coordination Sequence:
#
# PCOD9189643 Si02
#       8
#     4   8   4   8   8   4   8   8
#     4  10  19  38  58  89 126 167 201 255 315 368
#     4  10  21  41  60  84 121 166 212 254 308 373
#     4   8  16  35  61  85 122 155 187 242 311 372
#     4  10  22  41  64  95 124 157 203 257 312 372
#     4  10  23  39  63  86 119 169 207 253 313 375
#     4  10  20  37  64  90 126 155 211 262 305 366
#     4  10  21  37  58  89 122 163 212 257 312 367
#     4  10  21  39  60  87 121 163 205 258 311 372
#
# _framework density 24.221664000000001
#
# number of rings (size 3 to 8) (size 9 to 14) (size 15 to 20)
#    0.000    2.154    1.538    0.692    2.154    1.846 
#    2.769    3.077    0.000    0.000    0.000    0.000 
#    0.000    0.000    0.000    0.000    0.000    0.000 
#
# Total GULP energy -145187.058508 kJ/mol
# GULP energy per Si atom -5584.117635 kJ/mol
# Density = 2.416653 g / cm^3
# Si number density = 24.221664 Si / 1000 Ang^3
#
#
#
# Elastic Constant Matrix: (Units=GPa)
#
#
# Indices 1 2 3 4 5 6 
#
# 1 158.5675 75.2983 18.7463 0.0000 11.7119 0.0000
# 2 75.2983 176.1049 -12.5979 0.0000 -5.6673 0.0000
# 3 18.7463 -12.5979 88.4475 0.0000 3.2426 0.0000
# 4 0.0000 0.0000 0.0000 27.7182 0.0000 -59.6903
# 5 11.7119 -5.6673 3.2426 0.0000 30.6637 0.0000
# 6 0.0000 0.0000 0.0000 -59.6903 0.0000 183.9936
#
#
#
# Elastic Compliance Matrix: (Units=1/GPa)
#
#
# Indices 1 2 3 4 5 6 
#
# 1 0.008783 -0.004044 -0.002296 0.000000 -0.003859 0.000000
# 2 -0.004044 0.007628 0.001842 0.000000 0.002760 0.000000
# 3 -0.002296 0.001842 0.012057 0.000000 -0.000058 0.000000
# 4 0.000000 0.000000 0.000000 0.119706 0.000000 0.038835
# 5 -0.003859 0.002760 -0.000058 0.000000 0.034602 0.000000
# 6 0.000000 0.000000 0.000000 0.038835 0.000000 0.018033
#
#
# Mechanical properties :
#
#
# Convention : Reuss Voigt Hill
#
# Bulk Modulus (GPa) = 51.35187 65.11260 58.23223
# Shear Modulus (GPa) = 23.11633 71.25332 47.18482
#
# Velocity S-wave (km/s) = 3.09263 5.42965 4.41845
# Velocity P-wave (km/s) = 5.83089 8.13931 7.07982
#
# Compressibility (1/GPa) = 0.01947349
#
# Stress axis : x y z
#
# Youngs Moduli (GPa) = 113.85194 131.09314 82.93708
#
# Poissons Ratio (x) = 0.53014 0.19043
# Poissons Ratio (y) = 0.46042 -0.15281
# Poissons Ratio (z) = 0.26142 -0.24153
#
# Static dielectric constant tensor:
#      x y z
#    x 1.901130 0.000000 -0.015660 
#    y 0.000000 2.001110 0.000000 
#    z -0.015660 0.000000 2.134530 
# 
# From -- ./inp_files/21836.got.cif
#   From: 2010.05.17/outbox.cif.g08.bks.cpg/sg12_11_cif.got.tgz:21836.got - 2010.06.03 13:09:07.
