data_PCOD9189846
_publ_section_title
;
Structure prediction by ZEFSAII (Michael W. Deem and Ramdas Pophale) SiO2 
 PCOD9189846
Probable space group: C 2/M
;
_chemical_formula_sum "Si O2"
_cell_formula_units_Z 36
_cell_length_a 23.698589
_cell_length_b 7.745490
_cell_length_c 22.605690
_cell_angle_alpha 90.000000
_cell_angle_beta 26.312607
_cell_angle_gamma 90.000000
_cell_volume 1839.314367
_symmetry_space_group_name_H-M "C 2/M"
_symmetry_group_IT_number 12
_symmetry_cell_setting 'monoclinic'
loop_
_space_group_symop_operation_xyz
x,y,z
-x,y,-z
-x,-y,-z
x,-y,z
1/2+x,1/2+y,z
1/2-x,1/2+y,-z
1/2-x,1/2-y,-z
1/2+x,1/2-y,z
loop_
_atom_site_type_symbol
_atom_site_label
_atom_site_fract_x
_atom_site_fract_y
_atom_site_fract_z
Si Si1 0.530731 0.000000 0.039288
Si Si2 0.920079 0.200444 0.303462
Si Si3 0.515201 0.500000 0.556300
Si Si4 0.149798 0.802845 0.995880
Si Si5 0.794199 0.500000 0.351298
Si Si6 0.060793 0.700914 0.287792
O O1 0.403262 0.000000 0.198588
O O2 0.500000 0.000000 0.000000
O O3 0.609923 0.832494 0.983840
O O4 0.821359 0.332653 0.366732
O O5 0.959664 0.249928 0.332443
O O6 0.880778 0.000000 0.337130
O O7 0.050848 0.220367 0.142469
O O8 0.500000 0.500000 0.500000
O O9 0.660333 0.500000 0.443870
O O10 0.453376 0.330300 0.644161
O O11 0.297399 0.775766 0.872367
O O12 0.136292 0.000000 0.987833
O O13 0.046070 0.500000 0.317832
#
# Coordination Sequence:
#
# PCOD9189846 Si02
#       6
#     4   8   4   8   4   8
#     4  10  21  36  63  88 122 172 206 249 312 365
#     4  10  19  38  65 100 129 155 196 257 332 378
#     4  12  29  46  63  84 126 178 227 249 294 372
#     4   9  20  35  60  97 131 152 196 258 318 379
#     4  10  24  42  60  94 127 160 213 268 300 371
#     4  11  22  40  65  96 125 165 205 259 317 367
#
# _framework density 19.572512
#
# number of rings (size 3 to 8) (size 9 to 14) (size 15 to 20)
#    0.000    1.778    2.222    1.333    3.111    2.667 
#    0.000    0.000    0.000    0.000    0.000    0.000 
#    0.000    0.000    0.000    0.000    0.000    0.000 
#
# Total GULP energy -100601.002300 kJ/mol
# GULP energy per Si atom -5588.944572 kJ/mol
# Density = 1.952796 g / cm^3
# Si number density = 19.572512 Si / 1000 Ang^3
#
#
#
# Elastic Constant Matrix: (Units=GPa)
#
#
# Indices 1 2 3 4 5 6 
#
# 1 129.5848 80.5331 38.8275 0.0000 10.5834 -0.0003
# 2 80.5331 136.5737 57.3689 -0.0013 2.4886 0.0015
# 3 38.8275 57.3689 85.4994 -0.0007 -17.4792 0.0011
# 4 0.0000 -0.0013 -0.0007 22.7327 0.0006 -2.3784
# 5 10.5834 2.4886 -17.4792 0.0006 30.6292 -0.0002
# 6 -0.0003 0.0015 0.0011 -2.3784 -0.0002 8.4660
#
#
#
# Elastic Compliance Matrix: (Units=1/GPa)
#
#
# Indices 1 2 3 4 5 6 
#
# 1 0.012958 -0.006399 -0.002717 0.000000 -0.005508 0.000002
# 2 -0.006399 0.014197 -0.007249 0.000000 -0.003079 -0.000002
# 3 -0.002717 -0.007249 0.020497 0.000000 0.013225 -0.000001
# 4 0.000000 0.000000 0.000000 0.045322 -0.000001 0.012733
# 5 -0.005508 -0.003079 0.013225 -0.000001 0.042349 -0.000001
# 6 0.000002 -0.000002 -0.000001 0.012733 -0.000001 0.121697
#
#
# Mechanical properties :
#
#
# Convention : Reuss Voigt Hill
#
# Bulk Modulus (GPa) = 67.01639 78.34633 72.68136
# Shear Modulus (GPa) = 16.96506 24.02748 20.49627
#
# Velocity S-wave (km/s) = 2.94731 3.50753 3.23955
# Velocity P-wave (km/s) = 6.77470 7.51794 7.15597
#
# Compressibility (1/GPa) = 0.01492172
#
# Stress axis : x y z
#
# Youngs Moduli (GPa) = 77.17425 70.43900 48.78652
#
# Poissons Ratio (x) = 0.45076 0.13253
# Poissons Ratio (y) = 0.49386 0.35366
# Poissons Ratio (z) = 0.20965 0.51063
#
# Static dielectric constant tensor:
#      x y z
#    x 1.620400 0.000000 -0.010680 
#    y 0.000000 1.704250 0.000000 
#    z -0.010680 0.000000 1.740820 
# 
# From -- ./inp_files/282354.got.cif
#   From: 2010.05.17/outbox.cif.g08.bks.cpg/sg12_142_cif.got.tgz:282354.got - 2010.06.03 13:09:07.
