data_PCOD9189975
_publ_section_title
;
Structure prediction by ZEFSAII (Michael W. Deem and Ramdas Pophale) SiO2 
 PCOD9189975
Probable space group: C 2/M
;
_chemical_formula_sum "Si O2"
_cell_formula_units_Z 58
_cell_length_a 13.822258
_cell_length_b 29.949250
_cell_length_c 19.505239
_cell_angle_alpha 90.000000
_cell_angle_beta 158.324454
_cell_angle_gamma 90.000000
_cell_volume 2982.321932
_symmetry_space_group_name_H-M "C 2/M"
_symmetry_group_IT_number 12
_symmetry_cell_setting 'monoclinic'
loop_
_space_group_symop_operation_xyz
x,y,z
-x,y,-z
-x,-y,-z
x,-y,z
1/2+x,1/2+y,z
1/2-x,1/2+y,-z
1/2-x,1/2-y,-z
1/2+x,1/2-y,z
loop_
_atom_site_type_symbol
_atom_site_label
_atom_site_fract_x
_atom_site_fract_y
_atom_site_fract_z
Si Si1 0.806274 0.810547 0.586577
Si Si2 0.481623 0.451009 0.260497
Si Si3 0.901352 0.641128 0.770148
Si Si4 0.000000 0.500000 0.000000
Si Si5 0.008688 0.876453 0.391703
Si Si6 0.787385 0.184180 0.801145
Si Si7 0.517579 0.621482 0.178888
Si Si8 0.938135 0.254630 0.785083
O O1 0.987304 0.829163 0.645655
O O2 0.507455 0.814749 0.366646
O O3 0.865601 0.763677 0.661789
O O4 0.857170 0.845485 0.682090
O O5 0.610643 0.500000 0.351798
O O6 0.176775 0.462055 0.075383
O O7 0.552999 0.415932 0.366814
O O8 0.536997 0.427539 0.224380
O O9 0.760260 0.620451 0.743526
O O10 0.743402 0.623168 0.600870
O O11 0.860176 0.694434 0.743811
O O12 0.209014 0.632131 0.970142
O O13 0.811521 0.222702 0.759228
O O14 0.849229 0.137158 0.803816
O O15 0.000000 0.191746 0.000000
O O16 0.250000 0.250000 0.000000
#
# Coordination Sequence:
#
# PCOD9189975 Si02
#       8
#     8   8   8   2   8   8   8   8
#     4  10  22  38  60  80 117 162 203 243 292 348
#     4   9  19  37  62  87 114 145 194 237 301 374
#     4  11  22  37  54  84 122 157 196 248 294 344
#     4   8  16  32  64  90 116 144 182 246 288 376
#     4  10  23  37  57  87 118 159 192 251 301 352
#     4  11  23  39  60  85 117 164 204 248 295 347
#     4  10  19  39  61  85 118 151 196 243 299 351
#     4  11  22  39  52  83 119 159 208 249 286 343
#
# _framework density 19.447932999999999
#
# number of rings (size 3 to 8) (size 9 to 14) (size 15 to 20)
#    0.414    1.379    2.759    3.310    3.862    3.310 
#    0.000    2.069    0.000    7.034    0.000    0.000 
#    0.000    0.000    0.000    0.000    0.000    0.000 
#
# Total GULP energy -161513.895447 kJ/mol
# GULP energy per Si atom -5569.444671 kJ/mol
# Density = 1.940367 g / cm^3
# Si number density = 19.447933 Si / 1000 Ang^3
#
#
#
# Elastic Constant Matrix: (Units=GPa)
#
#
# Indices 1 2 3 4 5 6 
#
# 1 64.1337 33.4637 7.4094 0.0001 -11.4073 0.0034
# 2 33.4637 110.6704 11.5316 0.0001 -10.0775 0.0019
# 3 7.4094 11.5316 75.1026 0.0099 -2.5396 0.0037
# 4 0.0001 0.0001 0.0099 1.3778 -0.0024 4.7288
# 5 -11.4073 -10.0775 -2.5396 -0.0024 21.3855 0.0070
# 6 0.0034 0.0019 0.0037 4.7288 0.0070 29.5328
#
#
#
# Elastic Compliance Matrix: (Units=1/GPa)
#
#
# Indices 1 2 3 4 5 6 
#
# 1 0.019821 -0.005169 -0.000890 0.000071 0.008031 -0.000015
# 2 -0.005169 0.010918 -0.001090 0.000028 0.002258 -0.000005
# 3 -0.000890 -0.001090 0.013591 -0.000201 0.000626 0.000031
# 4 0.000071 0.000028 -0.000201 1.611190 0.000288 -0.257983
# 5 0.008031 0.002258 0.000626 0.000288 0.052183 -0.000060
# 6 -0.000015 -0.000005 0.000031 -0.257983 -0.000060 0.075169
#
#
# Mechanical properties :
#
#
# Convention : Reuss Voigt Hill
#
# Bulk Modulus (GPa) = 33.29838 39.41290 36.35564
# Shear Modulus (GPa) = 2.76674 23.62602 13.19638
#
# Velocity S-wave (km/s) = 1.19404 3.48923 2.60772
# Velocity P-wave (km/s) = 4.36577 6.04506 5.27270
#
# Compressibility (1/GPa) = 0.03003149
#
# Stress axis : x y z
#
# Youngs Moduli (GPa) = 50.45164 91.59109 73.57541
#
# Poissons Ratio (x) = 0.47346 0.06550
# Poissons Ratio (y) = 0.26080 0.08020
# Poissons Ratio (z) = 0.04491 0.09984
#
# Static dielectric constant tensor:
#      x y z
#    x 1.707400 0.000000 -0.000540 
#    y 0.000000 1.700470 -0.000010 
#    z -0.000540 -0.000010 1.677820 
# 
# From -- ./inp_files/312885.got.cif
#   From: 2010.05.17/outbox.cif.g08.bks.cpg/sg12_157_cif.got.tgz:312885.got - 2010.06.03 13:09:07.
