data_PCOD9189700
_publ_section_title
;
Structure prediction by ZEFSAII (Michael W. Deem and Ramdas Pophale) SiO2 
 PCOD9189700
Probable space group: C 2/M
;
_chemical_formula_sum "Si O2"
_cell_formula_units_Z 56
_cell_length_a 12.303109
_cell_length_b 31.366927
_cell_length_c 15.036333
_cell_angle_alpha 90.000000
_cell_angle_beta 30.864641
_cell_angle_gamma 90.000000
_cell_volume 2976.843332
_symmetry_space_group_name_H-M "C 2/M"
_symmetry_group_IT_number 12
_symmetry_cell_setting 'monoclinic'
loop_
_space_group_symop_operation_xyz
x,y,z
-x,y,-z
-x,-y,-z
x,-y,z
1/2+x,1/2+y,z
1/2-x,1/2+y,-z
1/2-x,1/2-y,-z
1/2+x,1/2-y,z
loop_
_atom_site_type_symbol
_atom_site_label
_atom_site_fract_x
_atom_site_fract_y
_atom_site_fract_z
Si Si1 0.710750 0.274368 0.406112
Si Si2 0.422233 0.306397 0.305885
Si Si3 0.589847 0.408181 0.694596
Si Si4 0.095934 0.550801 0.655428
Si Si5 0.096502 0.415936 0.026979
Si Si6 0.585818 0.186712 0.036095
Si Si7 0.292902 0.550890 0.203394
O O1 0.500000 0.283705 0.500000
O O2 0.650863 0.291018 0.545585
O O3 0.776762 0.224672 0.349336
O O4 0.918388 0.298445 0.226248
O O5 0.397076 0.356885 0.311847
O O6 0.673747 0.297991 0.117916
O O7 0.703981 0.425048 0.525991
O O8 0.697719 0.426512 0.708049
O O9 0.346957 0.424403 0.862316
O O10 0.129212 0.500000 0.631207
O O11 0.027888 0.565282 0.801416
O O12 0.906538 0.560789 0.718865
O O13 0.083257 0.364577 0.037698
O O14 0.000000 0.430464 0.000000
O O15 0.500000 0.201372 0.000000
O O16 0.294535 0.500000 0.218191
O O17 0.500000 0.562033 0.000000
#
# Coordination Sequence:
#
# PCOD9189700 Si02
#       7
#     8   8   8   8   8   8   8
#     4  11  21  37  60  85 117 152 192 242 291 351
#     4  10  23  38  57  87 117 153 193 240 296 344
#     4  11  22  40  62  89 120 155 200 249 294 353
#     4  11  23  39  63  91 119 157 199 243 299 356
#     4  10  23  40  60  87 120 159 203 247 291 345
#     4  10  19  38  61  81 111 155 199 237 286 348
#     4  10  20  38  64  88 117 156 194 240 300 358
#
# _framework density 18.811872000000001
#
# number of rings (size 3 to 8) (size 9 to 14) (size 15 to 20)
#    0.000    1.571    2.857    2.143    0.000    3.714 
#    0.000    1.429    0.000    0.000    0.000    0.000 
#    0.000    0.000    0.000    0.000    0.000    0.000 
#
# Total GULP energy -156265.776164 kJ/mol
# GULP energy per Si atom -5580.920577 kJ/mol
# Density = 1.876906 g / cm^3
# Si number density = 18.811872 Si / 1000 Ang^3
#
#
#
# Elastic Constant Matrix: (Units=GPa)
#
#
# Indices 1 2 3 4 5 6 
#
# 1 69.2470 17.7521 27.5905 0.0000 14.0227 0.0000
# 2 17.7521 23.5858 26.0196 0.0000 6.6816 0.0000
# 3 27.5905 26.0196 142.3382 0.0000 11.9340 0.0000
# 4 0.0000 0.0000 0.0000 27.7691 0.0000 8.1422
# 5 14.0227 6.6816 11.9340 0.0000 15.3980 0.0000
# 6 0.0000 0.0000 0.0000 8.1422 0.0000 27.1831
#
#
#
# Elastic Compliance Matrix: (Units=1/GPa)
#
#
# Indices 1 2 3 4 5 6 
#
# 1 0.020130 -0.010455 -0.000892 0.000000 -0.013104 0.000000
# 2 -0.010455 0.062826 -0.008525 0.000000 -0.011134 0.000000
# 3 -0.000892 -0.008525 0.008961 0.000000 -0.002433 0.000000
# 4 0.000000 0.000000 0.000000 0.039479 0.000000 -0.011825
# 5 -0.013104 -0.011134 -0.002433 0.000000 0.083595 0.000000
# 6 0.000000 0.000000 0.000000 -0.011825 0.000000 0.040330
#
#
# Mechanical properties :
#
#
# Convention : Reuss Voigt Hill
#
# Bulk Modulus (GPa) = 19.16668 41.98835 30.57752
# Shear Modulus (GPa) = 16.00235 24.99063 20.49649
#
# Velocity S-wave (km/s) = 2.91976 3.64874 3.30442
# Velocity P-wave (km/s) = 4.64515 6.33401 5.55415
#
# Compressibility (1/GPa) = 0.05217386
#
# Stress axis : x y z
#
# Youngs Moduli (GPa) = 49.67614 15.91703 111.59748
#
# Poissons Ratio (x) = 0.16641 0.09956
# Poissons Ratio (y) = 0.51935 0.95132
# Poissons Ratio (z) = 0.04432 0.13569
#
# Static dielectric constant tensor:
#      x y z
#    x 1.638370 0.000000 -0.004690 
#    y 0.000000 1.643960 0.000000 
#    z -0.004690 0.000000 1.640620 
# 
# From -- ./inp_files/209980.got.cif
#   From: 2010.05.17/outbox.cif.g08.bks.cpg/sg12_105_cif.got.tgz:209980.got - 2010.06.03 13:09:07.
