data_PCOD9189860
_publ_section_title
;
Structure prediction by ZEFSAII (Michael W. Deem and Ramdas Pophale) SiO2 
 PCOD9189860
Probable space group: C 2/M
;
_chemical_formula_sum "Si O2"
_cell_formula_units_Z 48
_cell_length_a 14.122854
_cell_length_b 14.630995
_cell_length_c 17.531457
_cell_angle_alpha 90.000000
_cell_angle_beta 35.490152
_cell_angle_gamma 90.000000
_cell_volume 2103.118333
_symmetry_space_group_name_H-M "C 2/M"
_symmetry_group_IT_number 12
_symmetry_cell_setting 'monoclinic'
loop_
_space_group_symop_operation_xyz
x,y,z
-x,y,-z
-x,-y,-z
x,-y,z
1/2+x,1/2+y,z
1/2-x,1/2+y,-z
1/2-x,1/2-y,-z
1/2+x,1/2-y,z
loop_
_atom_site_type_symbol
_atom_site_label
_atom_site_fract_x
_atom_site_fract_y
_atom_site_fract_z
Si Si1 0.605446 0.392577 0.278351
Si Si2 0.734675 0.149112 0.541524
Si Si3 0.123966 0.389189 0.782008
Si Si4 0.458163 0.103896 0.609089
Si Si5 0.244019 0.611408 0.972343
Si Si6 0.317808 0.387850 0.095192
O O1 0.644721 0.500000 0.247690
O O2 0.419162 0.385888 0.425517
O O3 0.734643 0.355513 0.254561
O O4 0.636397 0.355613 0.172874
O O5 0.750000 0.250000 0.500000
O O6 0.653375 0.144734 0.677300
O O7 0.618566 0.100422 0.556346
O O8 0.131850 0.500000 0.772263
O O9 0.941769 0.365912 0.927788
O O10 0.500000 0.148716 0.500000
O O11 0.316414 0.144390 0.755404
O O12 0.403331 0.000000 0.627079
O O13 0.254782 0.500000 0.969628
O O14 0.281892 0.644134 0.032786
O O15 0.307410 0.500000 0.101088
O O16 0.500000 0.363266 0.000000
#
# Coordination Sequence:
#
# PCOD9189860 Si02
#       6
#     8   8   8   8   8   8
#     4  10  21  36  63  95 117 147 194 244 293 350
#     4  12  25  39  56  82 120 162 196 236 285 348
#     4  10  19  38  65  90 117 150 192 244 299 347
#     4  10  21  37  59  84 112 148 195 244 289 338
#     4   9  17  32  59  92 121 142 182 247 303 348
#     4   9  17  30  53  85 117 147 181 234 295 345
#
# _framework density 22.823253000000001
#
# number of rings (size 3 to 8) (size 9 to 14) (size 15 to 20)
#    0.000    2.000    1.667    2.500    2.333    4.667 
#    0.000    0.833    0.000    0.000    0.000    0.000 
#    0.000    0.000    0.000    0.000    0.000    0.000 
#
# Total GULP energy -134159.485515 kJ/mol
# GULP energy per Si atom -5589.978563 kJ/mol
# Density = 2.277131 g / cm^3
# Si number density = 22.823253 Si / 1000 Ang^3
#
#
#
# Elastic Constant Matrix: (Units=GPa)
#
#
# Indices 1 2 3 4 5 6 
#
# 1 98.3915 -9.8245 -2.2212 0.0003 -3.6367 0.0000
# 2 -9.8245 51.1534 -17.4443 -0.0003 3.9158 0.0004
# 3 -2.2212 -17.4443 44.0152 -0.0001 0.1101 0.0006
# 4 0.0003 -0.0003 -0.0001 -18.7335 0.0006 -4.7110
# 5 -3.6367 3.9158 0.1101 0.0006 40.9484 -0.0001
# 6 0.0000 0.0004 0.0006 -4.7110 -0.0001 -38.4403
#
#
#
# Elastic Compliance Matrix: (Units=1/GPa)
#
#
# Indices 1 2 3 4 5 6 
#
# 1 0.010470 0.002472 0.001506 0.000000 0.000689 0.000000
# 2 0.002472 0.023385 0.009398 -0.000001 -0.002042 0.000000
# 3 0.001506 0.009398 0.026522 0.000000 -0.000836 0.000001
# 4 0.000000 -0.000001 0.000000 -0.055078 0.000001 0.006750
# 5 0.000689 -0.002042 -0.000836 0.000001 0.024680 0.000000
# 6 0.000000 0.000000 0.000001 0.006750 0.000000 -0.026842
#
#
# Mechanical properties :
#
#
# Convention : Reuss Voigt Hill
#
# Bulk Modulus (GPa) = 11.47733 14.95335 13.21534
# Shear Modulus (GPa) = 921.04687 11.62491 466.33589
#
# Velocity S-wave (km/s) = 20.11051 2.25932 14.30973
# Velocity P-wave (km/s) = 23.32987 3.65678 16.69813
#
# Compressibility (1/GPa) = 0.08712829
#
# Stress axis : x y z
#
# Youngs Moduli (GPa) = 95.51315 42.76263 37.70440
#
# Poissons Ratio (x) = -0.10570 -0.05679
# Poissons Ratio (y) = -0.23608 -0.35434
# Poissons Ratio (z) = -0.14386 -0.40188
#
# Static dielectric constant tensor:
#      x y z
#    x 1.851990 0.000000 -0.041330 
#    y 0.000000 1.918020 0.000000 
#    z -0.041330 0.000000 1.897190 
# 
# From -- ./inp_files/271580.got.cif
#   From: 2010.05.17/outbox.cif.g08.bks.cpg/sg12_136_cif.got.tgz:271580.got - 2010.06.03 13:09:07.
