data_PCOD9189167
_publ_section_title
;
Structure prediction by ZEFSAII (Michael W. Deem and Ramdas Pophale) SiO2 
 PCOD9189167
Probable space group: C 2/M
;
_chemical_formula_sum "Si O2"
_cell_formula_units_Z 64
_cell_length_a 25.119328
_cell_length_b 7.617051
_cell_length_c 15.830858
_cell_angle_alpha 90.000000
_cell_angle_beta 108.263078
_cell_angle_gamma 90.000000
_cell_volume 2876.422462
_symmetry_space_group_name_H-M "C 2/M"
_symmetry_group_IT_number 12
_symmetry_cell_setting 'monoclinic'
loop_
_space_group_symop_operation_xyz
x,y,z
-x,y,-z
-x,-y,-z
x,-y,z
1/2+x,1/2+y,z
1/2-x,1/2+y,-z
1/2-x,1/2-y,-z
1/2+x,1/2-y,z
loop_
_atom_site_type_symbol
_atom_site_label
_atom_site_fract_x
_atom_site_fract_y
_atom_site_fract_z
Si Si1 0.061166 0.788531 0.000511
Si Si2 0.595319 0.784073 0.672862
Si Si3 0.843188 0.782787 0.821939
Si Si4 0.210702 0.790638 0.558222
Si Si5 0.471531 0.793556 0.195081
Si Si6 0.087936 0.194198 0.296839
Si Si7 0.582229 0.195892 0.482772
Si Si8 0.277485 0.799548 0.251131
O O1 0.111165 0.728843 0.085918
O O2 0.060432 0.000000 0.003986
O O3 0.066408 0.735233 0.905600
O O4 0.000000 0.723514 0.000000
O O5 0.558563 0.733672 0.734429
O O6 0.571195 0.720431 0.569993
O O7 0.659544 0.723424 0.721200
O O8 0.597367 0.000000 0.669051
O O9 0.865806 0.719238 0.741124
O O10 0.780274 0.723232 0.813558
O O11 0.842466 0.000000 0.819175
O O12 0.250000 0.750000 0.500000
O O13 0.149841 0.706967 0.514240
O O14 0.234510 0.706406 0.654771
O O15 0.204636 0.000000 0.565803
O O16 0.530894 0.697720 0.214265
O O17 0.484170 0.000000 0.209834
O O18 0.068531 0.251682 0.380332
O O19 0.109950 0.000000 0.323279
O O20 0.560058 0.000000 0.478681
O O21 0.282180 0.000000 0.222910
#
# Coordination Sequence:
#
# PCOD9189167 Si02
#       8
#     8   8   8   8   8   8   8   8
#     4  10  19  37  59  81 110 141 175 223 283 339
#     4   8  18  36  56  76 108 148 186 224 271 327
#     4   9  18  33  57  82 107 139 176 221 279 337
#     4  11  20  31  48  74 108 147 186 229 277 328
#     4  11  22  37  56  80 108 146 187 226 271 331
#     4  11  21  35  54  83 115 145 181 230 282 332
#     4  10  20  36  55  78 107 146 188 231 275 325
#     4   9  17  34  57  78 101 140 186 226 272 331
#
# _framework density 22.249860000000002
#
# number of rings (size 3 to 8) (size 9 to 14) (size 15 to 20)
#    0.000    2.125    1.250    3.750    0.000    1.750 
#    0.000   10.625    0.000    0.000    0.000    0.000 
#    0.000    0.000    0.000    0.000    0.000    0.000 
#
# Total GULP energy -178453.864835 kJ/mol
# GULP energy per Si atom -5576.683276 kJ/mol
# Density = 2.219922 g / cm^3
# Si number density = 22.249860 Si / 1000 Ang^3
#
#
#
# Elastic Constant Matrix: (Units=GPa)
#
#
# Indices 1 2 3 4 5 6 
#
# 1 65.3771 -5.0020 22.8203 0.0000 6.8551 0.0000
# 2 -5.0020 58.9848 -4.2397 0.0000 0.3969 0.0000
# 3 22.8203 -4.2397 108.5201 0.0000 4.8032 0.0000
# 4 0.0000 0.0000 0.0000 23.2593 0.0000 -0.8728
# 5 6.8551 0.3969 4.8032 0.0000 40.4065 0.0000
# 6 0.0000 0.0000 0.0000 -0.8728 0.0000 8.6378
#
#
#
# Elastic Compliance Matrix: (Units=1/GPa)
#
#
# Indices 1 2 3 4 5 6 
#
# 1 0.016827 0.001200 -0.003382 0.000000 -0.002464 0.000000
# 2 0.001200 0.017089 0.000434 0.000000 -0.000423 0.000000
# 3 -0.003382 0.000434 0.009970 0.000000 -0.000616 0.000000
# 4 0.000000 0.000000 0.000000 0.043157 0.000000 0.004361
# 5 -0.002464 -0.000423 -0.000616 0.000000 0.025244 0.000000
# 6 0.000000 0.000000 0.000000 0.004361 0.000000 0.116211
#
#
# Mechanical properties :
#
#
# Convention : Reuss Voigt Hill
#
# Bulk Modulus (GPa) = 24.75845 28.89327 26.82586
# Shear Modulus (GPa) = 20.37008 29.08094 24.72551
#
# Velocity S-wave (km/s) = 3.02903 3.61919 3.33718
# Velocity P-wave (km/s) = 4.83580 5.52075 5.18959
#
# Compressibility (1/GPa) = 0.04039024
#
# Stress axis : x y z
#
# Youngs Moduli (GPa) = 59.42903 58.51596 100.29710
#
# Poissons Ratio (x) = -0.07024 0.33925
# Poissons Ratio (y) = -0.07134 -0.04352
# Poissons Ratio (z) = 0.20102 -0.02539
#
# Static dielectric constant tensor:
#      x y z
#    x 1.815940 0.000000 0.022160 
#    y 0.000000 1.885670 0.000000 
#    z 0.022160 0.000000 1.866830 
# 
# From -- ./inp_files/244230.got.cif
#   From: 2010.05.17/outbox.cif.g08.bks.cpg/sg12_123_cif.got.tgz:244230.got - 2010.06.03 13:09:07.
