data_PCOD9189481
_publ_section_title
;
Structure prediction by ZEFSAII (Michael W. Deem and Ramdas Pophale) SiO2 
 PCOD9189481
Probable space group: C 2/M
;
_chemical_formula_sum "Si O2"
_cell_formula_units_Z 56
_cell_length_a 20.239063
_cell_length_b 7.693633
_cell_length_c 19.081327
_cell_angle_alpha 90.000000
_cell_angle_beta 118.172255
_cell_angle_gamma 90.000000
_cell_volume 2619.199696
_symmetry_space_group_name_H-M "C 2/M"
_symmetry_group_IT_number 12
_symmetry_cell_setting 'monoclinic'
loop_
_space_group_symop_operation_xyz
x,y,z
-x,y,-z
-x,-y,-z
x,-y,z
1/2+x,1/2+y,z
1/2-x,1/2+y,-z
1/2-x,1/2-y,-z
1/2+x,1/2-y,z
loop_
_atom_site_type_symbol
_atom_site_label
_atom_site_fract_x
_atom_site_fract_y
_atom_site_fract_z
Si Si1 0.933700 0.212937 0.519620
Si Si2 0.516219 0.708400 0.301244
Si Si3 0.634693 0.795076 0.243529
Si Si4 0.294793 0.701214 0.365130
Si Si5 0.077531 0.296352 0.067339
Si Si6 0.776307 0.207254 0.935308
Si Si7 0.653858 0.793917 0.761076
O O1 0.952454 0.268357 0.607647
O O2 0.854075 0.276430 0.449968
O O3 0.000000 0.266464 0.500000
O O4 0.932986 0.000000 0.518392
O O5 0.519715 0.500000 0.301513
O O6 0.567800 0.776889 0.264873
O O7 0.429597 0.761374 0.253080
O O8 0.712288 0.719655 0.313076
O O9 0.609740 0.719955 0.156016
O O10 0.650469 0.000000 0.239653
O O11 0.284608 0.500000 0.380961
O O12 0.333922 0.708204 0.308430
O O13 0.062450 0.500000 0.074617
O O14 0.142851 0.282664 0.043036
O O15 0.000000 0.219510 0.000000
O O16 0.715707 0.269666 0.847530
O O17 0.781335 0.000000 0.931290
O O18 0.750000 0.250000 0.000000
O O19 0.664027 0.000000 0.756444
#
# Coordination Sequence:
#
# PCOD9189481 Si02
#       7
#     8   8   8   8   8   8   8
#     4   9  17  33  58  87 117 151 199 249 291 343
#     4  11  23  38  60  87 119 160 201 243 294 354
#     4  10  22  39  59  86 122 159 196 242 296 354
#     4  10  19  37  64  86 113 159 203 238 291 357
#     4  10  22  41  64  89 121 159 194 236 297 357
#     4  11  25  42  63  91 122 154 196 246 292 348
#     4  11  23  39  60  88 121 153 194 248 296 342
#
# _framework density 21.380576000000001
#
# number of rings (size 3 to 8) (size 9 to 14) (size 15 to 20)
#    0.000    1.714    2.857    1.286    2.000    3.714 
#    0.000    2.143    0.000    0.000    0.000    0.000 
#    0.000    0.000    0.000    0.000    0.000    0.000 
#
# Total GULP energy -156476.858001 kJ/mol
# GULP energy per Si atom -5588.459214 kJ/mol
# Density = 2.133191 g / cm^3
# Si number density = 21.380576 Si / 1000 Ang^3
#
#
#
# Elastic Constant Matrix: (Units=GPa)
#
#
# Indices 1 2 3 4 5 6 
#
# 1 133.6283 -22.5532 47.8202 0.0000 25.1686 0.0000
# 2 -22.5532 40.2431 -0.4079 0.0000 10.7667 0.0000
# 3 47.8202 -0.4079 103.6655 0.0000 24.5160 0.0000
# 4 0.0000 0.0000 0.0000 6.7124 0.0000 -7.3107
# 5 25.1686 10.7667 24.5160 0.0000 47.3348 0.0000
# 6 0.0000 0.0000 0.0000 -7.3107 0.0000 22.1503
#
#
#
# Elastic Compliance Matrix: (Units=1/GPa)
#
#
# Indices 1 2 3 4 5 6 
#
# 1 0.011251 0.007818 -0.003788 0.000000 -0.005799 0.000000
# 2 0.007818 0.032170 -0.000873 0.000000 -0.011022 0.000000
# 3 -0.003788 -0.000873 0.012384 0.000000 -0.004201 0.000000
# 4 0.000000 0.000000 0.000000 0.232585 0.000000 0.076764
# 5 -0.005799 -0.011022 -0.004201 0.000000 0.028892 0.000000
# 6 0.000000 0.000000 0.000000 0.076764 0.000000 0.070482
#
#
# Mechanical properties :
#
#
# Convention : Reuss Voigt Hill
#
# Bulk Modulus (GPa) = 16.09810 36.36169 26.22990
# Shear Modulus (GPa) = 12.43297 32.08469 22.25883
#
# Velocity S-wave (km/s) = 2.41406 3.87802 3.23007
# Velocity P-wave (km/s) = 3.91356 6.09064 5.11917
#
# Compressibility (1/GPa) = 0.06211912
#
# Stress axis : x y z
#
# Youngs Moduli (GPa) = 88.88431 31.08440 80.75071
#
# Poissons Ratio (x) = -0.24302 0.30586
# Poissons Ratio (y) = -0.69490 0.07051
# Poissons Ratio (z) = 0.33667 0.02714
#
# Static dielectric constant tensor:
#      x y z
#    x 1.729820 0.000000 0.039010 
#    y 0.000000 1.795810 0.000000 
#    z 0.039010 0.000000 1.774940 
# 
# From -- ./inp_files/275039.got.cif
#   From: 2010.05.17/outbox.cif.g08.bks.cpg/sg12_138_cif.got.tgz:275039.got - 2010.06.03 13:09:07.
