data_PCOD9189557
_publ_section_title
;
Structure prediction by ZEFSAII (Michael W. Deem and Ramdas Pophale) SiO2 
 PCOD9189557
Probable space group: C 2/M
;
_chemical_formula_sum "Si O2"
_cell_formula_units_Z 48
_cell_length_a 23.994875
_cell_length_b 12.212079
_cell_length_c 9.770436
_cell_angle_alpha 90.000000
_cell_angle_beta 121.087973
_cell_angle_gamma 90.000000
_cell_volume 2451.806946
_symmetry_space_group_name_H-M "C 2/M"
_symmetry_group_IT_number 12
_symmetry_cell_setting 'monoclinic'
loop_
_space_group_symop_operation_xyz
x,y,z
-x,y,-z
-x,-y,-z
x,-y,z
1/2+x,1/2+y,z
1/2-x,1/2+y,-z
1/2-x,1/2-y,-z
1/2+x,1/2-y,z
loop_
_atom_site_type_symbol
_atom_site_label
_atom_site_fract_x
_atom_site_fract_y
_atom_site_fract_z
Si Si1 0.505728 0.871881 0.168105
Si Si2 0.153186 0.626940 0.457869
Si Si3 0.337872 0.683236 0.315530
Si Si4 0.695432 0.124629 0.213537
Si Si5 0.964003 0.000000 0.097941
Si Si6 0.940137 0.000000 0.529493
Si Si7 0.607288 0.722080 0.914038
O O1 0.579076 0.858265 0.312042
O O2 0.456335 0.797160 0.189068
O O3 0.488744 0.000000 0.158688
O O4 0.500000 0.841844 0.000000
O O5 0.162452 0.500000 0.508343
O O6 0.165197 0.706831 0.598555
O O7 0.195815 0.649203 0.376200
O O8 0.267534 0.628659 0.244286
O O9 0.394112 0.604489 0.446213
O O10 0.354754 0.705144 0.179217
O O11 0.668609 0.000000 0.166441
O O12 0.651168 0.211575 0.077829
O O13 0.919309 0.893324 0.064280
O O14 0.023220 0.000000 0.280745
O O15 0.000000 0.000000 0.000000
O O16 0.000000 0.000000 0.500000
#
# Coordination Sequence:
#
# PCOD9189557 Si02
#       7
#     8   8   8   8   4   4   8
#     4  10  19  37  66  95 122 166 215 269 329 388
#     4  10  23  41  66  98 130 165 221 276 331 404
#     4  12  25  44  67  97 134 178 221 275 339 406
#     4  11  24  46  68  93 131 180 227 271 335 405
#     4  12  28  44  68 108 138 176 230 280 332 397
#     4  12  24  48  72  94 138 181 223 281 341 401
#     4  12  24  42  67  98 134 174 221 277 334 396
#
# _framework density 19.577397000000001
#
# number of rings (size 3 to 8) (size 9 to 14) (size 15 to 20)
#    0.000    0.833    4.167    3.000    2.333    1.333 
#    1.500    1.667    0.000    0.000    0.000    0.000 
#    0.000    0.000    0.000    0.000    0.000    0.000 
#
# Total GULP energy -134214.878455 kJ/mol
# GULP energy per Si atom -5592.286602 kJ/mol
# Density = 1.953284 g / cm^3
# Si number density = 19.577397 Si / 1000 Ang^3
#
#
#
# Elastic Constant Matrix: (Units=GPa)
#
#
# Indices 1 2 3 4 5 6 
#
# 1 122.0641 45.3559 17.8137 0.0000 -23.8713 0.0000
# 2 45.3559 117.2368 50.6888 0.0000 -12.2281 0.0000
# 3 17.8137 50.6888 73.7995 0.0000 -20.8462 0.0000
# 4 0.0000 0.0000 0.0000 9.1448 0.0000 -5.5916
# 5 -23.8713 -12.2281 -20.8462 0.0000 39.7491 0.0000
# 6 0.0000 0.0000 0.0000 -5.5916 0.0000 13.7271
#
#
#
# Elastic Compliance Matrix: (Units=1/GPa)
#
#
# Indices 1 2 3 4 5 6 
#
# 1 0.010753 -0.004480 0.002249 0.000000 0.006259 0.000000
# 2 -0.004480 0.014018 -0.009495 0.000000 -0.003358 0.000000
# 3 0.002249 -0.009495 0.022405 0.000000 0.010180 0.000000
# 4 0.000000 0.000000 0.000000 0.145622 0.000000 0.059318
# 5 0.006259 -0.003358 0.010180 0.000000 0.033223 0.000000
# 6 0.000000 0.000000 0.000000 0.059318 0.000000 0.097011
#
#
# Mechanical properties :
#
#
# Convention : Reuss Voigt Hill
#
# Bulk Modulus (GPa) = 42.15127 60.09080 51.12104
# Shear Modulus (GPa) = 14.10874 25.80700 19.95787
#
# Velocity S-wave (km/s) = 2.68743 3.63465 3.19632
# Velocity P-wave (km/s) = 5.58633 6.95520 6.30801
#
# Compressibility (1/GPa) = 0.02372408
#
# Stress axis : x y z
#
# Youngs Moduli (GPa) = 92.99955 71.33668 44.63367
#
# Poissons Ratio (x) = 0.31956 -0.10040
# Poissons Ratio (y) = 0.41661 0.42381
# Poissons Ratio (z) = -0.20919 0.67737
#
# Static dielectric constant tensor:
#      x y z
#    x 1.670100 0.000000 0.011650 
#    y 0.000000 1.686650 0.000000 
#    z 0.011650 0.000000 1.616260 
# 
# From -- ./inp_files/95011.got.cif
#   From: 2010.05.17/outbox.cif.g08.bks.cpg/sg12_48_cif.got.tgz:95011.got - 2010.06.03 13:09:07.
