data_PCOD9189628
_publ_section_title
;
Structure prediction by ZEFSAII (Michael W. Deem and Ramdas Pophale) SiO2 
 PCOD9189628
Probable space group: C 2/M
;
_chemical_formula_sum "Si O2"
_cell_formula_units_Z 58
_cell_length_a 13.376197
_cell_length_b 11.950775
_cell_length_c 19.322714
_cell_angle_alpha 90.000000
_cell_angle_beta 95.781696
_cell_angle_gamma 90.000000
_cell_volume 3073.137077
_symmetry_space_group_name_H-M "C 2/M"
_symmetry_group_IT_number 12
_symmetry_cell_setting 'monoclinic'
loop_
_space_group_symop_operation_xyz
x,y,z
-x,y,-z
-x,-y,-z
x,-y,z
1/2+x,1/2+y,z
1/2-x,1/2+y,-z
1/2-x,1/2-y,-z
1/2+x,1/2-y,z
loop_
_atom_site_type_symbol
_atom_site_label
_atom_site_fract_x
_atom_site_fract_y
_atom_site_fract_z
Si Si1 0.355110 0.630028 0.563509
Si Si2 0.500000 0.000000 0.500000
Si Si3 0.575910 0.727102 0.799464
Si Si4 0.678321 0.625222 0.678515
Si Si5 0.729262 0.367440 0.170905
Si Si6 0.877442 0.248790 0.708183
Si Si7 0.875793 0.700950 0.440879
Si Si8 0.539057 0.634737 0.076703
O O1 0.381907 0.500000 0.556066
O O2 0.392793 0.679158 0.639067
O O3 0.233721 0.643359 0.556170
O O4 0.389777 0.712215 0.505092
O O5 0.453833 0.100046 0.446805
O O6 0.629327 0.640512 0.750501
O O7 0.661925 0.813684 0.825645
O O8 0.482537 0.779908 0.750655
O O9 0.531368 0.671470 0.864926
O O10 0.660978 0.500000 0.650707
O O11 0.797828 0.652047 0.688820
O O12 0.632225 0.721597 0.626999
O O13 0.735763 0.500000 0.169525
O O14 0.679457 0.329635 0.239962
O O15 0.651640 0.328858 0.105907
O O16 0.539693 0.500000 0.074580
O O17 0.500000 0.676419 0.000000
#
# Coordination Sequence:
#
# PCOD9189628 Si02
#       8
#     8   2   8   8   8   8   8   8
#     4  10  19  38  58  78 104 144 188 229 280 340
#     4  12  24  44  54  80 116 138 186 242 282 356
#     4  10  20  35  55  83 113 146 188 225 285 330
#     4  10  21  39  57  82 114 143 189 241 288 340
#     4   9  18  34  54  79 113 145 186 230 267 334
#     4   9  20  35  53  80 108 149 182 227 291 329
#     4  10  23  38  57  80 108 146 182 233 291 330
#     4   9  18  34  57  83 111 147 186 226 275 329
#
# _framework density 18.873221999999998
#
# number of rings (size 3 to 8) (size 9 to 14) (size 15 to 20)
#    0.000    2.345    0.690    1.241    1.931    2.759 
#    2.483    0.690    0.000    0.414    0.000    0.000 
#    0.000    0.000    0.000    0.000    0.000    0.000 
#
# Total GULP energy -161572.635644 kJ/mol
# GULP energy per Si atom -5571.470195 kJ/mol
# Density = 1.883027 g / cm^3
# Si number density = 18.873222 Si / 1000 Ang^3
#
#
#
# Elastic Constant Matrix: (Units=GPa)
#
#
# Indices 1 2 3 4 5 6 
#
# 1 93.0008 32.5604 32.0763 0.0000 19.5801 0.0000
# 2 32.5604 104.1171 37.1599 0.0000 10.1891 0.0000
# 3 32.0763 37.1599 116.5494 0.0000 18.1148 0.0000
# 4 0.0000 0.0000 0.0000 14.1127 0.0000 7.7248
# 5 19.5801 10.1891 18.1148 0.0000 25.1486 0.0000
# 6 0.0000 0.0000 0.0000 7.7248 0.0000 13.4343
#
#
#
# Elastic Compliance Matrix: (Units=1/GPa)
#
#
# Indices 1 2 3 4 5 6 
#
# 1 0.014185 -0.003019 -0.001593 0.000000 -0.008673 0.000000
# 2 -0.003019 0.011584 -0.002813 0.000000 -0.000317 0.000000
# 3 -0.001593 -0.002813 0.010749 0.000000 -0.005362 0.000000
# 4 0.000000 0.000000 0.000000 0.103404 0.000000 -0.059458
# 5 -0.008673 -0.000317 -0.005362 0.000000 0.050507 0.000000
# 6 0.000000 0.000000 0.000000 -0.059458 0.000000 0.108626
#
#
# Mechanical properties :
#
#
# Convention : Reuss Voigt Hill
#
# Bulk Modulus (GPa) = 46.15309 57.47339 51.81324
# Shear Modulus (GPa) = 15.57014 24.66382 20.11698
#
# Velocity S-wave (km/s) = 2.87537 3.61891 3.26836
# Velocity P-wave (km/s) = 5.96079 6.92680 6.46187
#
# Compressibility (1/GPa) = 0.02166702
#
# Stress axis : x y z
#
# Youngs Moduli (GPa) = 70.49655 86.32878 93.03199
#
# Poissons Ratio (x) = 0.26059 0.14824
# Poissons Ratio (y) = 0.21280 0.26173
# Poissons Ratio (z) = 0.11233 0.24287
#
# Static dielectric constant tensor:
#      x y z
#    x 1.708330 0.000000 0.024870 
#    y 0.000000 1.606070 0.000000 
#    z 0.024870 0.000000 1.657340 
# 
# From -- ./inp_files/268792.got.cif
#   From: 2010.05.17/outbox.cif.g08.bks.cpg/sg12_135_cif.got.tgz:268792.got - 2010.06.03 13:09:07.
