data_PCOD9189908
_publ_section_title
;
Structure prediction by ZEFSAII (Michael W. Deem and Ramdas Pophale) SiO2 
 PCOD9189908
Probable space group: C 2/M
;
_chemical_formula_sum "Si O2"
_cell_formula_units_Z 64
_cell_length_a 28.423960
_cell_length_b 16.790845
_cell_length_c 20.269497
_cell_angle_alpha 90.000000
_cell_angle_beta 19.839006
_cell_angle_gamma 90.000000
_cell_volume 3283.101250
_symmetry_space_group_name_H-M "C 2/M"
_symmetry_group_IT_number 12
_symmetry_cell_setting 'monoclinic'
loop_
_space_group_symop_operation_xyz
x,y,z
-x,y,-z
-x,-y,-z
x,-y,z
1/2+x,1/2+y,z
1/2-x,1/2+y,-z
1/2-x,1/2-y,-z
1/2+x,1/2-y,z
loop_
_atom_site_type_symbol
_atom_site_label
_atom_site_fract_x
_atom_site_fract_y
_atom_site_fract_z
Si Si1 0.694108 0.909216 0.796021
Si Si2 0.759667 0.640049 0.403985
Si Si3 0.986880 0.592535 0.843124
Si Si4 0.104466 0.904727 0.801920
Si Si5 0.124138 0.300282 0.560668
Si Si6 0.485570 0.590110 0.590709
Si Si7 0.614792 0.301518 0.166819
Si Si8 0.980662 0.090243 0.820448
O O1 0.670947 0.861262 0.759552
O O2 0.858223 0.912354 0.588920
O O3 0.642967 0.000000 0.853556
O O4 0.624283 0.880574 0.955609
O O5 0.865965 0.602498 0.314400
O O6 0.705440 0.728597 0.490178
O O7 0.620921 0.588332 0.591708
O O8 0.962217 0.500000 0.858475
O O9 0.008698 0.651010 0.753620
O O10 0.250445 0.860042 0.621446
O O11 0.032110 0.885086 0.826320
O O12 0.129661 0.000000 0.766597
O O13 0.000000 0.887415 0.000000
O O14 0.026998 0.250899 0.638517
O O15 0.500000 0.629227 0.500000
O O16 0.432812 0.500000 0.650458
O O17 0.391912 0.633211 0.767085
O O18 0.608760 0.345882 0.103179
O O19 0.750000 0.250000 0.000000
O O20 0.922925 0.000000 0.899996
#
# Coordination Sequence:
#
# PCOD9189908 Si02
#       8
#     8   8   8   8   8   8   8   8
#     4  10  20  35  56  86 117 156 196 238 298 371
#     4  11  20  34  55  87 122 154 191 240 300 375
#     4  11  22  34  55  87 124 158 191 239 304 373
#     4  10  22  41  65  93 121 161 215 262 315 383
#     4  11  23  39  57  87 125 160 202 252 324 370
#     4  10  21  41  64  85 114 155 208 257 303 361
#     4  11  25  42  59  91 126 164 212 258 308 370
#     4  10  19  38  67  87 117 166 206 251 309 374
#
# _framework density 19.493765
#
# number of rings (size 3 to 8) (size 9 to 14) (size 15 to 20)
#    0.000    1.500    3.750    2.625    3.500    2.000 
#    2.250    1.875    0.000    0.000    0.000    2.625 
#    0.000    0.000    0.000    0.000    0.000    0.000 
#
# Total GULP energy -178390.754975 kJ/mol
# GULP energy per Si atom -5574.711093 kJ/mol
# Density = 1.944940 g / cm^3
# Si number density = 19.493765 Si / 1000 Ang^3
#
#
#
# Elastic Constant Matrix: (Units=GPa)
#
#
# Indices 1 2 3 4 5 6 
#
# 1 73.2435 25.1533 24.4882 -0.0001 11.0614 0.0003
# 2 25.1533 74.9608 34.3808 -0.0001 9.0660 0.0002
# 3 24.4882 34.3808 73.1746 -0.0004 7.8285 0.0008
# 4 -0.0001 -0.0001 -0.0004 -0.1662 0.0003 -17.7465
# 5 11.0614 9.0660 7.8285 0.0003 32.5566 -0.0007
# 6 0.0003 0.0002 0.0008 -17.7465 -0.0007 13.1492
#
#
#
# Elastic Compliance Matrix: (Units=1/GPa)
#
#
# Indices 1 2 3 4 5 6 
#
# 1 0.016604 -0.003503 -0.003502 0.000000 -0.003824 0.000000
# 2 -0.003503 0.018013 -0.007063 0.000000 -0.002127 0.000000
# 3 -0.003502 -0.007063 0.018289 0.000001 -0.001241 0.000000
# 4 0.000000 0.000000 0.000001 -0.041464 -0.000001 -0.055961
# 5 -0.003824 -0.002127 -0.001241 -0.000001 0.032906 0.000001
# 6 0.000000 0.000000 0.000000 -0.055961 0.000001 0.000524
#
#
# Mechanical properties :
#
#
# Convention : Reuss Voigt Hill
#
# Bulk Modulus (GPa) = 40.37119 43.26926 41.82022
# Shear Modulus (GPa) = 61.52678 18.26502 39.89590
#
# Velocity S-wave (km/s) = 5.62413 3.06431 4.52884
# Velocity P-wave (km/s) = 7.93279 5.89616 6.98906
#
# Compressibility (1/GPa) = 0.02477014
#
# Stress axis : x y z
#
# Youngs Moduli (GPa) = 60.22502 55.51661 54.67698
#
# Poissons Ratio (x) = 0.19448 0.19146
# Poissons Ratio (y) = 0.21097 0.38620
# Poissons Ratio (z) = 0.21089 0.39213
#
# Static dielectric constant tensor:
#      x y z
#    x 1.725340 0.000000 0.003780 
#    y 0.000000 1.725050 0.000000 
#    z 0.003780 0.000000 1.682460 
# 
# From -- ./inp_files/330345.got.cif
#   From: 2010.05.17/outbox.cif.g08.bks.cpg/sg12_166_cif.got.tgz:330345.got - 2010.06.03 13:09:07.
