data_PCOD9189949
_publ_section_title
;
Structure prediction by ZEFSAII (Michael W. Deem and Ramdas Pophale) SiO2 
 PCOD9189949
Probable space group: C 2/M
;
_chemical_formula_sum "Si O2"
_cell_formula_units_Z 64
_cell_length_a 14.552320
_cell_length_b 18.290452
_cell_length_c 14.285068
_cell_angle_alpha 90.000000
_cell_angle_beta 55.162050
_cell_angle_gamma 90.000000
_cell_volume 3120.764505
_symmetry_space_group_name_H-M "C 2/M"
_symmetry_group_IT_number 12
_symmetry_cell_setting 'monoclinic'
loop_
_space_group_symop_operation_xyz
x,y,z
-x,y,-z
-x,-y,-z
x,-y,z
1/2+x,1/2+y,z
1/2-x,1/2+y,-z
1/2-x,1/2-y,-z
1/2+x,1/2-y,z
loop_
_atom_site_type_symbol
_atom_site_label
_atom_site_fract_x
_atom_site_fract_y
_atom_site_fract_z
Si Si1 0.467671 0.722277 0.224229
Si Si2 0.412449 0.858311 0.926615
Si Si3 0.873007 0.267489 0.464432
Si Si4 0.701145 0.140146 0.188071
Si Si5 0.350478 0.086528 0.169274
Si Si6 0.568786 0.583038 0.864120
Si Si7 0.275390 0.722698 0.707291
Si Si8 0.527396 0.079761 0.593443
O O1 0.553506 0.775068 0.119419
O O2 0.460584 0.732156 0.340400
O O3 0.477361 0.639793 0.184563
O O4 0.345424 0.748967 0.259850
O O5 0.311233 0.874971 0.914761
O O6 0.531931 0.900516 0.842868
O O7 0.376744 0.878288 0.051931
O O8 0.750000 0.250000 0.500000
O O9 0.868292 0.242656 0.575256
O O10 0.887124 0.354304 0.446369
O O11 0.804605 0.102945 0.179924
O O12 0.705449 0.226026 0.213269
O O13 0.586757 0.105525 0.292551
O O14 0.248877 0.136846 0.265364
O O15 0.329425 0.000000 0.175822
O O16 0.562463 0.500000 0.835189
O O17 0.500000 0.591271 0.000000
O O18 0.500000 0.075162 0.500000
O O19 0.564330 0.000000 0.605599
#
# Coordination Sequence:
#
# PCOD9189949 Si02
#       8
#     8   8   8   8   8   8   8   8
#     4   9  19  35  58  83 114 161 213 241 299 386
#     4  10  20  35  62  90 116 157 201 266 322 381
#     4  10  19  39  56  84 123 167 204 240 302 385
#     4  11  21  38  63  93 118 158 211 256 323 386
#     4  10  22  39  57  86 126 162 202 259 319 376
#     4  10  23  41  60  85 127 169 205 261 320 377
#     4   9  20  36  57  80 118 166 202 244 302 373
#     4  11  22  36  59  95 129 151 191 267 332 363
#
# _framework density 20.507795000000002
#
# number of rings (size 3 to 8) (size 9 to 14) (size 15 to 20)
#    0.000    2.000    2.500    1.125    5.250    2.500 
#    0.000    0.625    0.000    0.000    0.000    0.875 
#    0.000    0.000    0.000    0.000    0.000    0.000 
#
# Total GULP energy -178492.511526 kJ/mol
# GULP energy per Si atom -5577.890985 kJ/mol
# Density = 2.046112 g / cm^3
# Si number density = 20.507795 Si / 1000 Ang^3
#
#
#
# Elastic Constant Matrix: (Units=GPa)
#
#
# Indices 1 2 3 4 5 6 
#
# 1 21.8093 13.8106 16.2944 0.0000 13.1199 0.0000
# 2 13.8106 185.4366 60.9271 0.0000 1.3512 0.0000
# 3 16.2944 60.9271 47.1667 0.0000 -2.8246 0.0000
# 4 0.0000 0.0000 0.0000 21.3074 0.0000 -5.5847
# 5 13.1199 1.3512 -2.8246 0.0000 28.5393 0.0000
# 6 0.0000 0.0000 0.0000 -5.5847 0.0000 24.2767
#
#
#
# Elastic Compliance Matrix: (Units=1/GPa)
#
#
# Indices 1 2 3 4 5 6 
#
# 1 0.120716 0.011087 -0.059733 0.000000 -0.061932 0.000000
# 2 0.011087 0.010465 -0.017789 0.000000 -0.007353 0.000000
# 3 -0.059733 -0.017789 0.066907 0.000000 0.034924 0.000000
# 4 0.000000 0.000000 0.000000 0.049943 0.000000 0.011489
# 5 -0.061932 -0.007353 0.034924 0.000000 0.067315 0.000000
# 6 0.000000 0.000000 0.000000 0.011489 0.000000 0.043835
#
#
# Mechanical properties :
#
#
# Convention : Reuss Voigt Hill
#
# Bulk Modulus (GPa) = 15.33312 48.49743 31.91527
# Shear Modulus (GPa) = 9.73158 25.71671 17.72414
#
# Velocity S-wave (km/s) = 2.18074 3.54502 2.94303
# Velocity P-wave (km/s) = 3.71938 6.36049 5.21007
#
# Compressibility (1/GPa) = 0.06521829
#
# Stress axis : x y z
#
# Youngs Moduli (GPa) = 8.28388 95.55480 14.94620
#
# Poissons Ratio (x) = -1.05938 0.89278
# Poissons Ratio (y) = -0.09184 0.26587
# Poissons Ratio (z) = 0.49482 1.69979
#
# Static dielectric constant tensor:
#      x y z
#    x 1.783550 0.000000 0.052240 
#    y 0.000000 1.743240 0.000000 
#    z 0.052240 0.000000 1.780210 
# 
# From -- ./inp_files/216796.got.cif
#   From: 2010.05.17/outbox.cif.g08.bks.cpg/sg12_109_cif.got.tgz:216796.got - 2010.06.03 13:09:07.
