data_PCOD9189877
_publ_section_title
;
Structure prediction by ZEFSAII (Michael W. Deem and Ramdas Pophale) SiO2 
 PCOD9189877
Probable space group: C 2/M
;
_chemical_formula_sum "Si O2"
_cell_formula_units_Z 40
_cell_length_a 17.544052
_cell_length_b 15.648402
_cell_length_c 14.579416
_cell_angle_alpha 90.000000
_cell_angle_beta 152.444191
_cell_angle_gamma 90.000000
_cell_volume 1851.643122
_symmetry_space_group_name_H-M "C 2/M"
_symmetry_group_IT_number 12
_symmetry_cell_setting 'monoclinic'
loop_
_space_group_symop_operation_xyz
x,y,z
-x,y,-z
-x,-y,-z
x,-y,z
1/2+x,1/2+y,z
1/2-x,1/2+y,-z
1/2-x,1/2-y,-z
1/2+x,1/2-y,z
loop_
_atom_site_type_symbol
_atom_site_label
_atom_site_fract_x
_atom_site_fract_y
_atom_site_fract_z
Si Si1 0.510487 0.596857 0.677809
Si Si2 0.000000 0.848649 0.000000
Si Si3 0.617698 0.907420 0.894088
Si Si4 0.000000 0.793434 0.500000
Si Si5 0.162922 0.374878 0.727136
Si Si6 0.074898 0.764158 0.267210
O O1 0.449182 0.500000 0.624632
O O2 0.432883 0.647224 0.509553
O O3 0.495919 0.655809 0.751391
O O4 0.705891 0.592034 0.868411
O O5 0.160860 0.896443 0.129836
O O6 0.072541 0.792028 0.159805
O O7 0.649998 0.900185 0.819046
O O8 0.521866 0.823516 0.821279
O O9 0.535799 0.000000 0.823608
O O10 0.134444 0.728092 0.686560
O O11 0.000000 0.407528 0.500000
O O12 0.250000 0.750000 0.500000
#
# Coordination Sequence:
#
# PCOD9189877 Si02
#       6
#     8   4   8   4   8   8
#     4  11  22  39  65  94 129 170 219 275 331 399
#     4  12  22  38  70  94 136 178 222 284 332 410
#     4  11  23  43  68  92 131 180 220 275 339 398
#     4  10  19  38  65  94 126 170 221 272 335 394
#     4  10  21  40  64  97 127 176 222 272 337 395
#     4  12  24  43  66  99 133 180 226 276 349 403
#
# _framework density 21.602435
#
# number of rings (size 3 to 8) (size 9 to 14) (size 15 to 20)
#    0.600    0.400    4.000    4.500    0.000    1.200 
#    0.000    2.500    0.000    0.000    0.000    0.000 
#    0.000    0.000    0.000    0.000    0.000    0.000 
#
# Total GULP energy -111655.947772 kJ/mol
# GULP energy per Si atom -5582.797389 kJ/mol
# Density = 2.155327 g / cm^3
# Si number density = 21.602435 Si / 1000 Ang^3
#
#
#
# Elastic Constant Matrix: (Units=GPa)
#
#
# Indices 1 2 3 4 5 6 
#
# 1 58.8150 24.9065 -3.9940 0.0000 -17.2618 0.0000
# 2 24.9065 176.8706 5.2200 0.0000 -8.5429 0.0000
# 3 -3.9940 5.2200 77.7241 0.0000 -0.4996 -0.0001
# 4 0.0000 0.0000 0.0000 5.4437 0.0000 1.9824
# 5 -17.2618 -8.5429 -0.4996 0.0000 45.4972 -0.0001
# 6 0.0000 0.0000 -0.0001 1.9824 -0.0001 -41.7482
#
#
#
# Elastic Compliance Matrix: (Units=1/GPa)
#
#
# Indices 1 2 3 4 5 6 
#
# 1 0.020289 -0.002545 0.001260 0.000000 0.007234 0.000000
# 2 -0.002545 0.006036 -0.000535 0.000000 0.000162 0.000000
# 3 0.001260 -0.000535 0.012970 0.000000 0.000520 0.000000
# 4 0.000000 0.000000 0.000000 0.180577 0.000000 0.008574
# 5 0.007234 0.000162 0.000520 0.000000 0.024760 0.000000
# 6 0.000000 0.000000 0.000000 0.008574 0.000000 -0.023546
#
#
# Mechanical properties :
#
#
# Convention : Reuss Voigt Hill
#
# Bulk Modulus (GPa) = 28.04680 40.63052 34.33866
# Shear Modulus (GPa) = 21.13181 20.99036 21.06109
#
# Velocity S-wave (km/s) = 3.13104 3.12054 3.12579
# Velocity P-wave (km/s) = 5.10711 5.64206 5.38123
#
# Compressibility (1/GPa) = 0.03565469
#
# Stress axis : x y z
#
# Youngs Moduli (GPa) = 49.28855 165.67757 77.10073
#
# Poissons Ratio (x) = 0.42162 -0.09715
# Poissons Ratio (y) = 0.12543 0.04126
# Poissons Ratio (z) = -0.06210 0.08865
#
# Static dielectric constant tensor:
#      x y z
#    x 1.776130 0.000000 0.016920 
#    y 0.000000 1.855420 0.000000 
#    z 0.016920 0.000000 1.777180 
# 
# From -- ./inp_files/225841.got.cif
#   From: 2010.05.17/outbox.cif.g08.bks.cpg/sg12_113_cif.got.tgz:225841.got - 2010.06.03 13:09:07.
