data_PCOD9189515
_publ_section_title
;
Structure prediction by ZEFSAII (Michael W. Deem and Ramdas Pophale) SiO2 
 PCOD9189515
Probable space group: C 2/M
;
_chemical_formula_sum "Si O2"
_cell_formula_units_Z 48
_cell_length_a 18.368294
_cell_length_b 16.777419
_cell_length_c 18.208834
_cell_angle_alpha 90.000000
_cell_angle_beta 26.822408
_cell_angle_gamma 90.000000
_cell_volume 2532.041352
_symmetry_space_group_name_H-M "C 2/M"
_symmetry_group_IT_number 12
_symmetry_cell_setting 'monoclinic'
loop_
_space_group_symop_operation_xyz
x,y,z
-x,y,-z
-x,-y,-z
x,-y,z
1/2+x,1/2+y,z
1/2-x,1/2+y,-z
1/2-x,1/2-y,-z
1/2+x,1/2-y,z
loop_
_atom_site_type_symbol
_atom_site_label
_atom_site_fract_x
_atom_site_fract_y
_atom_site_fract_z
Si Si1 0.351923 0.329194 0.737520
Si Si2 0.648546 0.277932 0.812427
Si Si3 0.369031 0.093195 0.551910
Si Si4 0.419313 0.223905 0.383923
Si Si5 0.030955 0.500000 0.850060
Si Si6 0.729189 0.500000 0.236698
Si Si7 0.549072 0.828774 0.120680
O O1 0.284003 0.270650 0.735531
O O2 0.514420 0.294213 0.624379
O O3 0.363140 0.418470 0.696809
O O4 0.215139 0.328268 0.925044
O O5 0.714317 0.360243 0.722166
O O6 0.578881 0.221302 0.811937
O O7 0.500000 0.292592 0.000000
O O8 0.500000 0.098611 0.500000
O O9 0.412813 0.145344 0.440852
O O10 0.344856 0.000000 0.557209
O O11 0.250000 0.250000 0.500000
O O12 0.545590 0.207464 0.204623
O O13 0.192520 0.500000 0.753214
O O14 0.011772 0.419652 0.821838
O O15 0.883224 0.500000 0.042156
#
# Coordination Sequence:
#
# PCOD9189515 Si02
#       7
#     8   8   8   8   4   4   8
#     4  10  20  37  60  87 121 154 196 232 285 356
#     4  10  19  37  65  88 114 154 196 242 290 345
#     4  11  24  43  62  81 113 157 203 246 289 342
#     4  12  24  39  59  82 119 160 192 241 297 343
#     4   9  16  30  59  91 122 142 183 235 289 352
#     4   9  16  32  59  93 117 146 182 240 290 339
#     4  10  20  35  59  91 120 154 189 236 290 352
#
# _framework density 18.957037
#
# number of rings (size 3 to 8) (size 9 to 14) (size 15 to 20)
#    0.000    1.667    5.000    0.500    1.167    0.333 
#    1.500    0.000    0.000    2.000    0.000    0.000 
#    0.000    0.000    0.000    0.000    0.000    0.000 
#
# Total GULP energy -133997.679815 kJ/mol
# GULP energy per Si atom -5583.236659 kJ/mol
# Density = 1.891389 g / cm^3
# Si number density = 18.957037 Si / 1000 Ang^3
#
#
#
# Elastic Constant Matrix: (Units=GPa)
#
#
# Indices 1 2 3 4 5 6 
#
# 1 84.0671 41.8901 23.7822 -0.0002 -9.4827 -0.0004
# 2 41.8901 137.5466 26.4461 0.0011 -17.9710 -0.0011
# 3 23.7822 26.4461 36.3386 0.0066 1.2981 -0.0029
# 4 -0.0002 0.0011 0.0066 26.6117 -0.0024 0.1670
# 5 -9.4827 -17.9710 1.2981 -0.0024 34.5052 0.0010
# 6 -0.0004 -0.0011 -0.0029 0.1670 0.0010 28.4071
#
#
#
# Elastic Compliance Matrix: (Units=1/GPa)
#
#
# Indices 1 2 3 4 5 6 
#
# 1 0.016105 -0.002822 -0.008604 0.000003 0.003280 -0.000001
# 2 -0.002822 0.009761 -0.005418 0.000001 0.004512 0.000000
# 3 -0.008604 -0.005418 0.037328 -0.000010 -0.006590 0.000004
# 4 0.000003 0.000001 -0.000010 0.037579 0.000004 -0.000221
# 5 0.003280 0.004512 -0.006590 0.000004 0.032480 -0.000002
# 6 -0.000001 0.000000 0.000004 -0.000221 -0.000002 0.035204
#
#
# Mechanical properties :
#
#
# Convention : Reuss Voigt Hill
#
# Bulk Modulus (GPa) = 33.89017 49.13211 41.51114
# Shear Modulus (GPa) = 23.58705 28.96039 26.27372
#
# Velocity S-wave (km/s) = 3.53120 3.91280 3.72689
# Velocity P-wave (km/s) = 5.87725 6.81082 6.36118
#
# Compressibility (1/GPa) = 0.02950708
#
# Stress axis : x y z
#
# Youngs Moduli (GPa) = 62.09079 102.44889 26.78943
#
# Poissons Ratio (x) = 0.28913 0.23049
# Poissons Ratio (y) = 0.17523 0.14514
# Poissons Ratio (z) = 0.53421 0.55506
#
# Static dielectric constant tensor:
#      x y z
#    x 1.647050 0.000000 0.011810 
#    y 0.000000 1.622800 0.000000 
#    z 0.011810 0.000000 1.689950 
# 
# From -- ./inp_files/271820.got.cif
#   From: 2010.05.17/outbox.cif.g08.bks.cpg/sg12_136_cif.got.tgz:271820.got - 2010.06.03 13:09:07.
