data_PCOD9189144
_publ_section_title
;
Structure prediction by ZEFSAII (Michael W. Deem and Ramdas Pophale) SiO2 
 PCOD9189144
Probable space group: C 2/M
;
_chemical_formula_sum "Si O2"
_cell_formula_units_Z 24
_cell_length_a 17.366817
_cell_length_b 8.528606
_cell_length_c 18.905658
_cell_angle_alpha 90.000000
_cell_angle_beta 157.698078
_cell_angle_gamma 90.000000
_cell_volume 1062.642555
_symmetry_space_group_name_H-M "C 2/M"
_symmetry_group_IT_number 12
_symmetry_cell_setting 'monoclinic'
loop_
_space_group_symop_operation_xyz
x,y,z
-x,y,-z
-x,-y,-z
x,-y,z
1/2+x,1/2+y,z
1/2-x,1/2+y,-z
1/2-x,1/2-y,-z
1/2+x,1/2-y,z
loop_
_atom_site_type_symbol
_atom_site_label
_atom_site_fract_x
_atom_site_fract_y
_atom_site_fract_z
Si Si1 0.438276 0.500000 0.065879
Si Si2 0.515027 0.000000 0.779840
Si Si3 0.544981 0.832711 0.134593
Si Si4 0.000000 0.248193 0.500000
Si Si5 0.116450 0.500000 0.489661
O O1 0.441454 0.667555 0.028148
O O2 0.653384 0.500000 0.288196
O O3 0.249518 0.500000 0.957803
O O4 0.464457 0.853350 0.787729
O O5 0.400462 0.000000 0.608357
O O6 0.780684 0.832050 0.313392
O O7 0.448732 0.000000 0.029767
O O8 0.010378 0.353742 0.438084
#
# Coordination Sequence:
#
# PCOD9189144 Si02
#       5
#     4   4   8   4   4
#     4  10  19  37  58  83 115 146 180 236 277 324
#     4  10  21  36  59  88 109 144 194 228 272 332
#     4   9  20  34  60  84 109 150 186 227 279 328
#     4   9  17  36  56  83 115 146 185 227 280 333
#     4   9  20  36  61  83 108 154 186 223 282 330
#
# _framework density 22.585205999999999
#
# number of rings (size 3 to 8) (size 9 to 14) (size 15 to 20)
#    1.000    1.667    0.000    2.500    0.000    5.333 
#    0.000   13.333    3.667    2.000    0.000    0.000 
#    0.000    0.000    0.000    0.000    0.000    0.000 
#
# Total GULP energy -66839.496325 kJ/mol
# GULP energy per Si atom -5569.958027 kJ/mol
# Density = 2.253380 g / cm^3
# Si number density = 22.585206 Si / 1000 Ang^3
#
#
#
# Elastic Constant Matrix: (Units=GPa)
#
#
# Indices 1 2 3 4 5 6 
#
# 1 125.7729 15.3916 35.7158 0.0000 -1.9322 0.0002
# 2 15.3916 180.6841 12.9266 0.0003 11.1336 0.0002
# 3 35.7158 12.9266 87.3005 0.0008 30.6258 0.0002
# 4 0.0000 0.0003 0.0008 8.7527 0.0001 28.6370
# 5 -1.9322 11.1336 30.6258 0.0001 56.2171 0.0002
# 6 0.0002 0.0002 0.0002 28.6370 0.0002 15.1805
#
#
#
# Elastic Compliance Matrix: (Units=1/GPa)
#
#
# Indices 1 2 3 4 5 6 
#
# 1 0.009459 -0.000649 -0.004862 0.000000 0.003102 0.000000
# 2 -0.000649 0.005668 -0.000213 0.000000 -0.001029 0.000000
# 3 -0.004862 -0.000213 0.016713 0.000000 -0.009230 0.000000
# 4 0.000000 0.000000 0.000000 -0.022090 0.000000 0.041671
# 5 0.003102 -0.001029 -0.009230 0.000000 0.023127 0.000000
# 6 0.000000 0.000000 0.000000 0.041671 0.000000 -0.012737
#
#
# Mechanical properties :
#
#
# Convention : Reuss Voigt Hill
#
# Bulk Modulus (GPa) = 49.03695 57.98062 53.50879
# Shear Modulus (GPa) = 130.25862 38.01162 84.13512
#
# Velocity S-wave (km/s) = 7.60260 4.10693 6.11009
# Velocity P-wave (km/s) = 9.94108 6.94383 8.57444
#
# Compressibility (1/GPa) = 0.02039279
#
# Stress axis : x y z
#
# Youngs Moduli (GPa) = 105.72463 176.41528 59.83317
#
# Poissons Ratio (x) = 0.11450 0.29090
# Poissons Ratio (y) = 0.06862 0.01273
# Poissons Ratio (z) = 0.51401 0.03754
#
# Static dielectric constant tensor:
#      x y z
#    x 1.795570 0.000000 -0.020450 
#    y 0.000000 1.946210 0.000000 
#    z -0.020450 0.000000 1.772920 
# 
# From -- ./inp_files/81909.got.cif
#   From: 2010.05.17/outbox.cif.g08.bks.cpg/sg12_41_cif.got.tgz:81909.got - 2010.06.03 13:09:07.
