data_PCOD9189571
_publ_section_title
;
Structure prediction by ZEFSAII (Michael W. Deem and Ramdas Pophale) SiO2 
 PCOD9189571
Probable space group: C 2/M
;
_chemical_formula_sum "Si O2"
_cell_formula_units_Z 36
_cell_length_a 12.225691
_cell_length_b 14.465249
_cell_length_c 10.959597
_cell_angle_alpha 90.000000
_cell_angle_beta 66.575982
_cell_angle_gamma 90.000000
_cell_volume 1778.450038
_symmetry_space_group_name_H-M "C 2/M"
_symmetry_group_IT_number 12
_symmetry_cell_setting 'monoclinic'
loop_
_space_group_symop_operation_xyz
x,y,z
-x,y,-z
-x,-y,-z
x,-y,z
1/2+x,1/2+y,z
1/2-x,1/2+y,-z
1/2-x,1/2-y,-z
1/2+x,1/2-y,z
loop_
_atom_site_type_symbol
_atom_site_label
_atom_site_fract_x
_atom_site_fract_y
_atom_site_fract_z
Si Si1 0.224933 0.899418 0.160617
Si Si2 0.075518 0.341872 0.073004
Si Si3 0.432684 0.000000 0.733062
Si Si4 0.214747 0.500000 0.633464
Si Si5 0.520401 0.641129 0.849289
Si Si6 0.209272 0.000000 0.669332
O O1 0.087036 0.890045 0.191061
O O2 0.261238 0.000000 0.091231
O O3 0.254886 0.913385 0.289887
O O4 0.300797 0.824458 0.053706
O O5 0.095340 0.407650 0.177592
O O6 0.998574 0.251880 0.141228
O O7 0.000000 0.391737 0.000000
O O8 0.576011 0.000000 0.658856
O O9 0.344692 0.000000 0.657658
O O10 0.289954 0.500000 0.477270
O O11 0.638851 0.590110 0.751269
O O12 0.500000 0.613327 0.000000
#
# Coordination Sequence:
#
# PCOD9189571 Si02
#       6
#     8   8   4   4   8   4
#     4  10  19  37  67  94 124 167 208 262 315 382
#     4  11  20  38  68  98 126 162 212 270 323 377
#     4  12  21  43  70  93 125 171 223 267 316 375
#     4  10  23  41  69  88 125 179 223 251 317 383
#     4  11  24  38  63 101 136 161 207 271 329 376
#     4  12  25  43  65  94 132 176 211 265 319 380
#
# _framework density 20.242345
#
# number of rings (size 3 to 8) (size 9 to 14) (size 15 to 20)
#    0.667    0.444    4.444    3.000    0.000    3.556 
#    0.000    1.111    4.889    0.000    0.000    0.000 
#    0.000    0.000    0.000    0.000    0.000    0.000 
#
# Total GULP energy -100270.890637 kJ/mol
# GULP energy per Si atom -5570.605035 kJ/mol
# Density = 2.019627 g / cm^3
# Si number density = 20.242345 Si / 1000 Ang^3
#
#
#
# Elastic Constant Matrix: (Units=GPa)
#
#
# Indices 1 2 3 4 5 6 
#
# 1 135.6368 20.5676 32.0793 0.0000 7.7541 0.0000
# 2 20.5676 93.9326 37.0674 0.0000 15.6000 0.0000
# 3 32.0793 37.0674 118.8832 0.0000 13.8566 0.0000
# 4 0.0000 0.0000 0.0000 11.1471 0.0000 -1.8680
# 5 7.7541 15.6000 13.8566 0.0000 18.9478 0.0000
# 6 0.0000 0.0000 0.0000 -1.8680 0.0000 94.9239
#
#
#
# Elastic Compliance Matrix: (Units=1/GPa)
#
#
# Indices 1 2 3 4 5 6 
#
# 1 0.007987 -0.000846 -0.001740 0.000000 -0.001299 0.000000
# 2 -0.000846 0.013417 -0.002960 0.000000 -0.008535 0.000000
# 3 -0.001740 -0.002960 0.010316 0.000000 -0.004395 0.000000
# 4 0.000000 0.000000 0.000000 0.090007 0.000000 0.001771
# 5 -0.001299 -0.008535 -0.004395 0.000000 0.063550 0.000000
# 6 0.000000 0.000000 0.000000 0.001771 0.000000 0.010570
#
#
# Mechanical properties :
#
#
# Convention : Reuss Voigt Hill
#
# Bulk Modulus (GPa) = 48.47952 58.65345 53.56649
# Shear Modulus (GPa) = 23.38480 42.25298 32.81889
#
# Velocity S-wave (km/s) = 3.40257 4.57372 4.03090
# Velocity P-wave (km/s) = 6.27998 7.54522 6.94149
#
# Compressibility (1/GPa) = 0.02062727
#
# Stress axis : x y z
#
# Youngs Moduli (GPa) = 125.20770 74.53295 96.93371
#
# Poissons Ratio (x) = 0.06309 0.16864
# Poissons Ratio (y) = 0.10598 0.28693
# Poissons Ratio (z) = 0.21783 0.22063
#
# Static dielectric constant tensor:
#      x y z
#    x 1.794340 0.000000 -0.047210 
#    y 0.000000 1.793540 0.000000 
#    z -0.047210 0.000000 1.703200 
# 
# From -- ./inp_files/130311.got.cif
#   From: 2010.05.17/outbox.cif.g08.bks.cpg/sg12_66_cif.got.tgz:130311.got - 2010.06.03 13:09:07.
