data_PCOD9189615
_publ_section_title
;
Structure prediction by ZEFSAII (Michael W. Deem and Ramdas Pophale) SiO2 
 PCOD9189615
Probable space group: C 2/M
;
_chemical_formula_sum "Si O2"
_cell_formula_units_Z 60
_cell_length_a 21.927440
_cell_length_b 8.054406
_cell_length_c 24.858833
_cell_angle_alpha 90.000000
_cell_angle_beta 137.438735
_cell_angle_gamma 90.000000
_cell_volume 2969.557716
_symmetry_space_group_name_H-M "C 2/M"
_symmetry_group_IT_number 12
_symmetry_cell_setting 'monoclinic'
loop_
_space_group_symop_operation_xyz
x,y,z
-x,y,-z
-x,-y,-z
x,-y,z
1/2+x,1/2+y,z
1/2-x,1/2+y,-z
1/2-x,1/2-y,-z
1/2+x,1/2-y,z
loop_
_atom_site_type_symbol
_atom_site_label
_atom_site_fract_x
_atom_site_fract_y
_atom_site_fract_z
Si Si1 0.262965 0.500000 0.351602
Si Si2 0.805670 0.804681 0.116901
Si Si3 0.844923 0.689199 0.837739
Si Si4 0.066281 0.816124 0.586849
Si Si5 0.140088 0.183759 0.269151
Si Si6 0.049243 0.307249 0.867935
Si Si7 0.106876 0.807475 0.017056
Si Si8 0.151475 0.693600 0.745628
O O1 0.337487 0.357821 0.378041
O O2 0.193330 0.347828 0.322634
O O3 0.857015 0.752928 0.096604
O O4 0.712020 0.711637 0.067871
O O5 0.870558 0.758107 0.209259
O O6 0.785855 0.000000 0.103643
O O7 0.855382 0.804942 0.793273
O O8 0.898336 0.733986 0.926348
O O9 0.740388 0.703787 0.786846
O O10 0.917736 0.000000 0.997859
O O11 0.081316 0.722280 0.652258
O O12 0.000000 0.737113 0.500000
O O13 0.026588 0.000000 0.574184
O O14 0.033717 0.206782 0.210733
O O15 0.171198 0.000000 0.306611
O O16 0.037975 0.500000 0.848972
O O17 0.052703 0.282163 0.934597
O O18 0.139178 0.500000 0.170108
O O19 0.175189 0.500000 0.764086
#
# Coordination Sequence:
#
# PCOD9189615 Si02
#       8
#     4   8   8   8   8   8   8   8
#     4  10  19  38  56  85 116 152 180 222 274 324
#     4  11  22  37  56  76 104 146 188 231 284 327
#     4  11  19  34  53  78 105 147 188 223 284 331
#     4   9  18  33  56  85 121 145 176 210 273 329
#     4  12  22  36  57  80 110 148 190 232 273 333
#     4  12  24  40  53  76 107 140 192 239 281 325
#     4  11  22  36  54  77 105 144 184 238 289 332
#     4  11  19  31  53  82 113 144 180 225 271 330
#
# _framework density 20.205030000000001
#
# number of rings (size 3 to 8) (size 9 to 14) (size 15 to 20)
#    0.400    0.667    2.667    8.000    0.000    0.800 
#    0.000    2.667    0.000    0.400    0.000    0.933 
#    0.000    0.000    0.000    0.000    0.000    0.000 
#
# Total GULP energy -167017.218300 kJ/mol
# GULP energy per Si atom -5567.240610 kJ/mol
# Density = 2.015904 g / cm^3
# Si number density = 20.205030 Si / 1000 Ang^3
#
#
#
# Elastic Constant Matrix: (Units=GPa)
#
#
# Indices 1 2 3 4 5 6 
#
# 1 40.1789 -1.9332 -3.5423 0.0000 2.8540 0.0000
# 2 -1.9332 128.4202 6.5085 0.0000 1.8126 0.0000
# 3 -3.5423 6.5085 61.8086 0.0000 -9.4259 0.0000
# 4 0.0000 0.0000 0.0000 19.6066 0.0000 -0.9112
# 5 2.8540 1.8126 -9.4259 0.0000 15.2155 0.0000
# 6 0.0000 0.0000 0.0000 -0.9112 0.0000 20.4081
#
#
#
# Elastic Compliance Matrix: (Units=1/GPa)
#
#
# Indices 1 2 3 4 5 6 
#
# 1 0.025281 0.000404 0.000746 0.000000 -0.004328 0.000000
# 2 0.000404 0.007870 -0.001060 0.000000 -0.001670 0.000000
# 3 0.000746 -0.001060 0.018035 0.000000 0.011159 0.000000
# 4 0.000000 0.000000 0.000000 0.051109 0.000000 0.002282
# 5 -0.004328 -0.001670 0.011159 0.000000 0.073646 0.000000
# 6 0.000000 0.000000 0.000000 0.002282 0.000000 0.049102
#
#
# Mechanical properties :
#
#
# Convention : Reuss Voigt Hill
#
# Bulk Modulus (GPa) = 19.46790 25.83041 22.64915
# Shear Modulus (GPa) = 20.66232 26.33770 23.50001
#
# Velocity S-wave (km/s) = 3.20133 3.61435 3.41409
# Velocity P-wave (km/s) = 4.82916 5.49817 5.17449
#
# Compressibility (1/GPa) = 0.05136661
#
# Stress axis : x y z
#
# Youngs Moduli (GPa) = 39.55489 127.05949 55.44729
#
# Poissons Ratio (x) = -0.05131 -0.04138
# Poissons Ratio (y) = -0.01597 0.05879
# Poissons Ratio (z) = -0.02952 0.13472
#
# Static dielectric constant tensor:
#      x y z
#    x 1.739920 0.000000 0.011200 
#    y 0.000000 1.694770 0.000000 
#    z 0.011200 0.000000 1.806900 
# 
# From -- ./inp_files/367193.got.cif
#   From: 2010.05.17/outbox.cif.g08.bks.cpg/sg12_184_cif.got.tgz:367193.got - 2010.06.03 13:09:07.
