data_PCOD9189787
_publ_section_title
;
Structure prediction by ZEFSAII (Michael W. Deem and Ramdas Pophale) SiO2 
 PCOD9189787
Probable space group: C 2/M
;
_chemical_formula_sum "Si O2"
_cell_formula_units_Z 48
_cell_length_a 15.311455
_cell_length_b 8.605802
_cell_length_c 29.940332
_cell_angle_alpha 90.000000
_cell_angle_beta 39.531024
_cell_angle_gamma 90.000000
_cell_volume 2511.077179
_symmetry_space_group_name_H-M "C 2/M"
_symmetry_group_IT_number 12
_symmetry_cell_setting 'monoclinic'
loop_
_space_group_symop_operation_xyz
x,y,z
-x,y,-z
-x,-y,-z
x,-y,z
1/2+x,1/2+y,z
1/2-x,1/2+y,-z
1/2-x,1/2-y,-z
1/2+x,1/2-y,z
loop_
_atom_site_type_symbol
_atom_site_label
_atom_site_fract_x
_atom_site_fract_y
_atom_site_fract_z
Si Si1 0.302126 0.312676 0.341807
Si Si2 0.352505 0.812216 0.686082
Si Si3 0.907408 0.189072 0.814518
Si Si4 0.175625 0.313908 0.837465
Si Si5 0.667787 0.814349 0.574502
Si Si6 0.390099 0.313674 0.924380
O O1 0.303292 0.500000 0.344942
O O2 0.195969 0.270055 0.344630
O O3 0.453094 0.261162 0.265236
O O4 0.273850 0.243718 0.401375
O O5 0.250900 0.739564 0.762435
O O6 0.508320 0.763783 0.634133
O O7 0.342595 0.000000 0.693780
O O8 0.774283 0.238211 0.839053
O O9 0.904475 0.239297 0.867047
O O10 0.909614 0.000000 0.813718
O O11 0.167148 0.500000 0.841755
O O12 0.023851 0.244623 0.897823
O O13 0.750000 0.750000 0.500000
O O14 0.670281 0.000000 0.572234
O O15 0.387856 0.500000 0.925607
O O16 0.250000 0.250000 0.000000
#
# Coordination Sequence:
#
# PCOD9189787 Si02
#       6
#     8   8   8   8   8   8
#     4  10  19  38  63  86 114 155 197 238 292 353
#     4  10  21  38  61  87 117 155 197 240 292 351
#     4   9  19  36  61  86 116 156 194 234 291 356
#     4  11  21  36  61  91 116 151 197 242 290 348
#     4  11  24  40  59  88 122 157 195 246 298 347
#     4  11  23  42  61  86 122 159 197 242 296 350
#
# _framework density 19.115302
#
# number of rings (size 3 to 8) (size 9 to 14) (size 15 to 20)
#    0.000    1.667    3.333    1.500    0.000    2.667 
#    0.000   10.000    0.000    0.000    0.000    0.000 
#    0.000    0.000    0.000    0.000    0.000    0.000 
#
# Total GULP energy -134097.212185 kJ/mol
# GULP energy per Si atom -5587.383841 kJ/mol
# Density = 1.907179 g / cm^3
# Si number density = 19.115302 Si / 1000 Ang^3
#
#
#
# Elastic Constant Matrix: (Units=GPa)
#
#
# Indices 1 2 3 4 5 6 
#
# 1 77.0560 10.0746 -22.8524 0.0000 3.2073 -0.0001
# 2 10.0746 24.1589 4.6546 0.0001 -2.6142 0.0000
# 3 -22.8524 4.6546 36.8804 0.0000 2.9488 -0.0001
# 4 0.0000 0.0001 0.0000 33.7959 0.0000 0.9688
# 5 3.2073 -2.6142 2.9488 0.0000 30.1285 0.0000
# 6 -0.0001 0.0000 -0.0001 0.9688 0.0000 27.3398
#
#
#
# Elastic Compliance Matrix: (Units=1/GPa)
#
#
# Indices 1 2 3 4 5 6 
#
# 1 0.018429 -0.010660 0.013098 0.000000 -0.004169 0.000000
# 2 -0.010660 0.049134 -0.013342 0.000000 0.006704 0.000000
# 3 0.013098 -0.013342 0.037411 0.000000 -0.006214 0.000000
# 4 0.000000 0.000000 0.000000 0.029620 0.000000 -0.001050
# 5 -0.004169 0.006704 -0.006214 0.000000 0.034825 0.000000
# 6 0.000000 0.000000 0.000000 -0.001050 0.000000 0.036614
#
#
# Mechanical properties :
#
#
# Convention : Reuss Voigt Hill
#
# Bulk Modulus (GPa) = 12.02407 13.53875 12.78141
# Shear Modulus (GPa) = 19.56462 28.00073 23.78268
#
# Velocity S-wave (km/s) = 3.20270 3.83147 3.53111
# Velocity P-wave (km/s) = 4.46993 5.16445 4.82969
#
# Compressibility (1/GPa) = 0.08316650
#
# Stress axis : x y z
#
# Youngs Moduli (GPa) = 54.26142 20.35250 26.72981
#
# Poissons Ratio (x) = 0.21696 -0.35011
# Poissons Ratio (y) = 0.57842 0.35664
# Poissons Ratio (z) = -0.71072 0.27155
#
# Static dielectric constant tensor:
#      x y z
#    x 1.665620 0.000000 -0.006370 
#    y 0.000000 1.652560 0.000000 
#    z -0.006370 0.000000 1.629400 
# 
# From -- ./inp_files/308263.got.cif
#   From: 2010.05.17/outbox.cif.g08.bks.cpg/sg12_155_cif.got.tgz:308263.got - 2010.06.03 13:09:07.
