data_PCOD9189874
_publ_section_title
;
Structure prediction by ZEFSAII (Michael W. Deem and Ramdas Pophale) SiO2 
 PCOD9189874
Probable space group: C 2/M
;
_chemical_formula_sum "Si O2"
_cell_formula_units_Z 64
_cell_length_a 22.214505
_cell_length_b 8.970351
_cell_length_c 20.044805
_cell_angle_alpha 90.000000
_cell_angle_beta 133.130167
_cell_angle_gamma 90.000000
_cell_volume 2915.098363
_symmetry_space_group_name_H-M "C 2/M"
_symmetry_group_IT_number 12
_symmetry_cell_setting 'monoclinic'
loop_
_space_group_symop_operation_xyz
x,y,z
-x,y,-z
-x,-y,-z
x,-y,z
1/2+x,1/2+y,z
1/2-x,1/2+y,-z
1/2-x,1/2-y,-z
1/2+x,1/2-y,z
loop_
_atom_site_type_symbol
_atom_site_label
_atom_site_fract_x
_atom_site_fract_y
_atom_site_fract_z
Si Si1 0.450810 0.675909 0.622432
Si Si2 0.309988 0.824155 0.099655
Si Si3 0.753741 0.825684 0.713848
Si Si4 0.713917 0.821145 0.539153
Si Si5 0.062338 0.670040 0.609563
Si Si6 0.704575 0.823727 0.123592
Si Si7 0.002175 0.323931 0.207319
Si Si8 0.462094 0.675405 0.044973
O O1 0.438202 0.500000 0.615081
O O2 0.377992 0.756464 0.526896
O O3 0.533609 0.718458 0.645365
O O4 0.451577 0.742811 0.697300
O O5 0.284442 0.749768 0.149946
O O6 0.404951 0.804263 0.151772
O O7 0.293506 0.000000 0.090795
O O8 0.250000 0.750000 0.000000
O O9 0.763154 0.782568 0.643843
O O10 0.655817 0.813317 0.655612
O O11 0.799079 0.726505 0.802528
O O12 0.777250 0.000000 0.740385
O O13 0.750000 0.750000 0.500000
O O14 0.711421 0.000000 0.533066
O O15 0.053372 0.500000 0.628911
O O16 0.000000 0.686361 0.500000
O O17 0.706342 0.000000 0.117743
O O18 0.625852 0.756596 0.026111
O O19 0.020415 0.500000 0.219813
O O20 0.013565 0.249690 0.143673
O O21 0.451839 0.500000 0.051112
O O22 0.500000 0.691675 0.000000
#
# Coordination Sequence:
#
# PCOD9189874 Si02
#       8
#     8   8   8   8   8   8   8   8
#     4  12  25  40  63  96 131 168 209 258 313 375
#     4  11  22  38  64  95 129 167 207 254 313 376
#     4  10  22  41  66  92 125 167 208 255 314 376
#     4  11  24  45  68  92 124 166 214 265 318 373
#     4  10  19  38  65  93 126 167 208 253 314 377
#     4  12  25  40  63  95 130 167 207 254 311 375
#     4  11  24  42  66  95 127 167 210 257 314 374
#     4  11  25  45  68  92 122 162 210 264 317 372
#
# _framework density 21.954663
#
# number of rings (size 3 to 8) (size 9 to 14) (size 15 to 20)
#    0.000    1.000    2.500    4.500    0.000    8.250 
#    0.000    1.250    0.000    0.000    0.000    0.000 
#    0.000    0.000    0.000    0.000    0.000    0.000 
#
# Total GULP energy -179175.193979 kJ/mol
# GULP energy per Si atom -5599.224812 kJ/mol
# Density = 2.190469 g / cm^3
# Si number density = 21.954663 Si / 1000 Ang^3
#
#
#
# Elastic Constant Matrix: (Units=GPa)
#
#
# Indices 1 2 3 4 5 6 
#
# 1 60.6469 36.2855 6.2808 0.0000 -24.8951 0.0000
# 2 36.2855 104.4251 42.9450 0.0000 -28.7152 0.0000
# 3 6.2808 42.9450 87.8713 0.0000 -31.1970 0.0000
# 4 0.0000 0.0000 0.0000 31.3148 0.0000 -7.0810
# 5 -24.8951 -28.7152 -31.1970 0.0000 38.2919 0.0000
# 6 0.0000 0.0000 0.0000 -7.0810 0.0000 30.0962
#
#
#
# Elastic Compliance Matrix: (Units=1/GPa)
#
#
# Indices 1 2 3 4 5 6 
#
# 1 0.028556 -0.008183 0.008964 0.000000 0.019732 0.000000
# 2 -0.008183 0.015371 -0.006646 0.000000 0.000792 0.000000
# 3 0.008964 -0.006646 0.020102 0.000000 0.017221 0.000000
# 4 0.000000 0.000000 0.000000 0.033728 0.000000 0.007936
# 5 0.019732 0.000792 0.017221 0.000000 0.053567 0.000000
# 6 0.000000 0.000000 0.000000 0.007936 0.000000 0.035094
#
#
# Mechanical properties :
#
#
# Convention : Reuss Voigt Hill
#
# Bulk Modulus (GPa) = 19.12137 47.10732 33.11435
# Shear Modulus (GPa) = 23.19306 31.10269 27.14787
#
# Velocity S-wave (km/s) = 3.25377 3.76796 3.52027
# Velocity P-wave (km/s) = 4.77958 6.35872 5.62484
#
# Compressibility (1/GPa) = 0.05229750
#
# Stress axis : x y z
#
# Youngs Moduli (GPa) = 35.01845 65.05937 49.74725
#
# Poissons Ratio (x) = 0.53239 -0.44591
# Poissons Ratio (y) = 0.28656 0.33062
# Poissons Ratio (z) = -0.31389 0.43239
#
# Static dielectric constant tensor:
#      x y z
#    x 1.788710 0.000000 0.005450 
#    y 0.000000 1.726150 0.000000 
#    z 0.005450 0.000000 1.837350 
# 
# From -- ./inp_files/324330.got.cif
#   From: 2010.05.17/outbox.cif.g08.bks.cpg/sg12_163_cif.got.tgz:324330.got - 2010.06.03 13:09:07.
