data_PCOD9189620
_publ_section_title
;
Structure prediction by ZEFSAII (Michael W. Deem and Ramdas Pophale) SiO2 
 PCOD9189620
Probable space group: C 2/M
;
_chemical_formula_sum "Si O2"
_cell_formula_units_Z 40
_cell_length_a 12.458339
_cell_length_b 25.065443
_cell_length_c 5.432043
_cell_angle_alpha 90.000000
_cell_angle_beta 103.748677
_cell_angle_gamma 90.000000
_cell_volume 1647.681936
_symmetry_space_group_name_H-M "C 2/M"
_symmetry_group_IT_number 12
_symmetry_cell_setting 'monoclinic'
loop_
_space_group_symop_operation_xyz
x,y,z
-x,y,-z
-x,-y,-z
x,-y,z
1/2+x,1/2+y,z
1/2-x,1/2+y,-z
1/2-x,1/2-y,-z
1/2+x,1/2-y,z
loop_
_atom_site_type_symbol
_atom_site_label
_atom_site_fract_x
_atom_site_fract_y
_atom_site_fract_z
Si Si1 0.207120 0.677884 0.111629
Si Si2 0.683670 0.000000 0.030868
Si Si3 0.118113 0.779586 0.184637
Si Si4 0.824157 0.886557 0.543258
Si Si5 0.399292 0.102403 0.258212
Si Si6 0.326334 0.500000 0.610710
O O1 0.165681 0.721417 0.288498
O O2 0.269551 0.626469 0.253033
O O3 0.297315 0.703132 0.982136
O O4 0.104101 0.656386 0.900845
O O5 0.611090 0.051681 0.924937
O O6 0.777408 0.000000 0.862870
O O7 0.734157 0.000000 0.335364
O O8 0.114624 0.831283 0.358042
O O9 0.000000 0.771830 0.000000
O O10 0.715744 0.893827 0.654100
O O11 0.885590 0.942887 0.603172
O O12 0.500000 0.098177 0.500000
#
# Coordination Sequence:
#
# PCOD9189620 Si02
#       6
#     8   4   8   8   8   4
#     4  10  21  40  60  87 124 160 208 255 321 379
#     4  10  19  38  56  94 129 177 213 261 320 389
#     4  10  23  40  61  90 121 160 209 266 315 378
#     4  10  21  39  60  89 119 166 206 262 316 387
#     4  10  21  34  56  90 128 165 212 256 314 382
#     4  10  20  38  68  87 132 170 212 269 327 375
#
# _framework density 24.276529
#
# number of rings (size 3 to 8) (size 9 to 14) (size 15 to 20)
#    0.000    2.000    2.000    0.900    2.800    0.800 
#    0.000    2.500    0.000    1.200    0.000    0.000 
#    0.000    0.000    0.000    0.000    0.000    0.000 
#
# Total GULP energy -111589.608084 kJ/mol
# GULP energy per Si atom -5579.480404 kJ/mol
# Density = 2.422127 g / cm^3
# Si number density = 24.276529 Si / 1000 Ang^3
#
#
#
# Elastic Constant Matrix: (Units=GPa)
#
#
# Indices 1 2 3 4 5 6 
#
# 1 48.6074 5.4295 -0.1834 0.0000 -4.5608 0.0000
# 2 5.4295 143.3285 4.0638 0.0000 4.5308 0.0000
# 3 -0.1834 4.0638 61.3734 0.0000 -3.5656 0.0000
# 4 0.0000 0.0000 0.0000 50.2664 0.0000 -1.6392
# 5 -4.5608 4.5308 -3.5656 0.0000 24.6113 0.0000
# 6 0.0000 0.0000 0.0000 -1.6392 0.0000 12.7409
#
#
#
# Elastic Compliance Matrix: (Units=1/GPa)
#
#
# Indices 1 2 3 4 5 6 
#
# 1 0.021067 -0.000939 0.000365 0.000000 0.004130 0.000000
# 2 -0.000939 0.007078 -0.000562 0.000000 -0.001558 0.000000
# 3 0.000365 -0.000562 0.016481 0.000000 0.002559 0.000000
# 4 0.000000 0.000000 0.000000 0.019978 0.000000 0.002570
# 5 0.004130 -0.001558 0.002559 0.000000 0.042055 0.000000
# 6 0.000000 0.000000 0.000000 0.002570 0.000000 0.078818
#
#
# Mechanical properties :
#
#
# Convention : Reuss Voigt Hill
#
# Bulk Modulus (GPa) = 23.61086 30.21433 26.91260
# Shear Modulus (GPa) = 24.76902 33.79035 29.27969
#
# Velocity S-wave (km/s) = 3.19766 3.73486 3.47665
# Velocity P-wave (km/s) = 4.83531 5.57421 5.21786
#
# Compressibility (1/GPa) = 0.04235339
#
# Stress axis : x y z
#
# Youngs Moduli (GPa) = 47.46816 141.28794 60.67716
#
# Poissons Ratio (x) = 0.13266 -0.02215
# Poissons Ratio (y) = 0.04457 0.03410
# Poissons Ratio (z) = -0.01733 0.07940
#
# Static dielectric constant tensor:
#      x y z
#    x 1.906940 0.000000 -0.016410 
#    y 0.000000 2.086700 0.000000 
#    z -0.016410 0.000000 1.956750 
# 
# From -- ./inp_files/11716.got.cif
#   From: 2010.05.17/outbox.cif.g08.bks.cpg/sg12_6_cif.got.tgz:11716.got - 2010.06.03 13:09:07.
