data_PCOD9189077
_publ_section_title
;
Structure prediction by ZEFSAII (Michael W. Deem and Ramdas Pophale) SiO2 
 PCOD9189077
Probable space group: C 2/M
;
_chemical_formula_sum "Si O2"
_cell_formula_units_Z 56
_cell_length_a 8.349068
_cell_length_b 26.799714
_cell_length_c 14.301436
_cell_angle_alpha 90.000000
_cell_angle_beta 72.217345
_cell_angle_gamma 90.000000
_cell_volume 3047.094801
_symmetry_space_group_name_H-M "C 2/M"
_symmetry_group_IT_number 12
_symmetry_cell_setting 'monoclinic'
loop_
_space_group_symop_operation_xyz
x,y,z
-x,y,-z
-x,-y,-z
x,-y,z
1/2+x,1/2+y,z
1/2-x,1/2+y,-z
1/2-x,1/2-y,-z
1/2+x,1/2-y,z
loop_
_atom_site_type_symbol
_atom_site_label
_atom_site_fract_x
_atom_site_fract_y
_atom_site_fract_z
Si Si1 0.301690 0.320539 0.307210
Si Si2 0.782958 0.635346 0.310594
Si Si3 0.077146 0.766478 0.383915
Si Si4 0.933532 0.102577 0.414262
Si Si5 0.515581 0.704502 0.106593
Si Si6 0.362361 0.054627 0.443635
Si Si7 0.394132 0.183185 0.108671
O O1 0.138869 0.286699 0.336371
O O2 0.438096 0.287364 0.339121
O O3 0.300925 0.368487 0.373070
O O4 0.380592 0.326212 0.191264
O O5 0.722067 0.690650 0.354899
O O6 0.607603 0.603913 0.325842
O O7 0.874536 0.601534 0.371360
O O8 0.883373 0.645874 0.197901
O O9 0.000000 0.760217 0.500000
O O10 0.823650 0.058159 0.475897
O O11 0.000000 0.127949 0.500000
O O12 0.472740 0.763381 0.124317
O O13 0.702347 0.694147 0.110817
O O14 0.500000 0.693217 0.000000
O O15 0.500000 0.057776 0.500000
O O16 0.378542 0.000000 0.394763
O O17 0.500000 0.165606 0.000000
#
# Coordination Sequence:
#
# PCOD9189077 Si02
#       7
#     8   8   8   8   8   8   8
#     4  11  19  33  47  72 109 145 179 222 251 306
#     4  10  19  37  55  77 107 143 184 223 265 321
#     4  11  21  31  47  71 107 148 179 214 255 308
#     4   9  19  35  54  75 106 144 177 212 260 323
#     4  11  20  35  52  74 107 155 191 232 265 302
#     4  10  22  40  59  84 111 134 169 222 277 336
#     4  11  21  36  54  77 110 148 197 231 265 310
#
# _framework density 18.378160999999999
#
# number of rings (size 3 to 8) (size 9 to 14) (size 15 to 20)
#    0.000    1.571    4.286    5.571    0.000    4.286 
#    5.143    0.714    0.000    0.429    0.000    0.000 
#    0.000    3.429    0.000    0.000    0.000    0.000 
#
# Total GULP energy -156064.168950 kJ/mol
# GULP energy per Si atom -5573.720320 kJ/mol
# Density = 1.833633 g / cm^3
# Si number density = 18.378161 Si / 1000 Ang^3
#
#
#
# Elastic Constant Matrix: (Units=GPa)
#
#
# Indices 1 2 3 4 5 6 
#
# 1 41.1314 7.3441 8.7438 0.0000 -1.9587 0.0000
# 2 7.3441 37.0551 22.4397 0.0000 1.6667 0.0000
# 3 8.7438 22.4397 120.5957 0.0000 -10.7027 0.0000
# 4 0.0000 0.0000 0.0000 9.6723 0.0000 5.1157
# 5 -1.9587 1.6667 -10.7027 0.0000 25.0186 0.0000
# 6 0.0000 0.0000 0.0000 5.1157 0.0000 -1.5933
#
#
#
# Elastic Compliance Matrix: (Units=1/GPa)
#
#
# Indices 1 2 3 4 5 6 
#
# 1 0.025404 -0.004635 -0.000806 0.000000 0.001953 0.000000
# 2 -0.004635 0.031783 -0.006027 0.000000 -0.005058 0.000000
# 3 -0.000806 -0.006027 0.009877 0.000000 0.004564 0.000000
# 4 0.000000 0.000000 0.000000 0.038319 0.000000 0.123028
# 5 0.001953 -0.005058 0.004564 0.000000 0.042413 0.000000
# 6 0.000000 0.000000 0.000000 0.123028 0.000000 -0.232612
#
#
# Mechanical properties :
#
#
# Convention : Reuss Voigt Hill
#
# Bulk Modulus (GPa) = 22.66102 30.64860 26.65481
# Shear Modulus (GPa) = -105.99559 17.30314 -44.34622
#
# Velocity S-wave (km/s) = -7.60263 3.07173 -4.91754
# Velocity P-wave (km/s) = 8.04422 5.41235 4.20808
#
# Compressibility (1/GPa) = 0.04412864
#
# Stress axis : x y z
#
# Youngs Moduli (GPa) = 39.36351 31.46377 101.24448
#
# Poissons Ratio (x) = 0.14582 0.08163
# Poissons Ratio (y) = 0.18243 0.61018
# Poissons Ratio (z) = 0.03174 0.18963
#
# Static dielectric constant tensor:
#      x y z
#    x 1.705240 0.000000 0.042820 
#    y 0.000000 1.636010 0.000000 
#    z 0.042820 0.000000 1.382630 
# 
# From -- ./inp_files/199310.got.cif
#   From: 2010.05.17/outbox.cif.g08.bks.cpg/sg12_100_cif.got.tgz:199310.got - 2010.06.03 13:09:07.
