data_PCOD9189983
_publ_section_title
;
Structure prediction by ZEFSAII (Michael W. Deem and Ramdas Pophale) SiO2 
 PCOD9189983
Probable space group: C 2/M
;
_chemical_formula_sum "Si O2"
_cell_formula_units_Z 48
_cell_length_a 23.160043
_cell_length_b 13.432025
_cell_length_c 12.385496
_cell_angle_alpha 90.000000
_cell_angle_beta 145.297369
_cell_angle_gamma 90.000000
_cell_volume 2193.555456
_symmetry_space_group_name_H-M "C 2/M"
_symmetry_group_IT_number 12
_symmetry_cell_setting 'monoclinic'
loop_
_space_group_symop_operation_xyz
x,y,z
-x,y,-z
-x,-y,-z
x,-y,z
1/2+x,1/2+y,z
1/2-x,1/2+y,-z
1/2-x,1/2-y,-z
1/2+x,1/2-y,z
loop_
_atom_site_type_symbol
_atom_site_label
_atom_site_fract_x
_atom_site_fract_y
_atom_site_fract_z
Si Si1 0.047840 0.237471 0.282772
Si Si2 0.733712 0.634983 0.956029
Si Si3 0.772974 0.186689 0.292140
Si Si4 0.533910 0.109809 0.668636
Si Si5 0.352961 0.386003 0.952798
Si Si6 0.884987 0.609241 0.782223
O O1 0.126197 0.184254 0.482105
O O2 0.114397 0.299427 0.299608
O O3 0.991622 0.318997 0.271571
O O4 0.962424 0.165541 0.100626
O O5 0.707296 0.630103 0.790013
O O6 0.657961 0.604432 0.933701
O O7 0.750000 0.750000 0.000000
O O8 0.846133 0.596213 0.149226
O O9 0.685685 0.132316 0.225180
O O10 0.731658 0.301878 0.211088
O O11 0.500000 0.151581 0.500000
O O12 0.485347 0.000000 0.606115
O O13 0.341951 0.500000 0.892800
O O14 0.859248 0.500000 0.696013
O O15 0.000000 0.605276 0.000000
#
# Coordination Sequence:
#
# PCOD9189983 Si02
#       6
#     8   8   8   8   8   8
#     4  12  24  41  66  95 136 169 218 269 336 386
#     4  10  19  39  61  91 130 172 212 264 323 380
#     4  11  24  43  68  94 131 174 221 273 327 391
#     4  11  21  35  63  97 127 166 219 267 321 388
#     4  11  24  43  65  96 138 177 219 267 331 399
#     4  11  23  44  70  95 125 166 218 274 330 389
#
# _framework density 21.882280999999999
#
# number of rings (size 3 to 8) (size 9 to 14) (size 15 to 20)
#    0.000    1.000    5.000    3.500    0.000    6.000 
#    0.000    2.500    0.000    0.000    0.000    0.000 
#    0.000    0.000    0.000    0.000    0.000    0.000 
#
# Total GULP energy -133945.876030 kJ/mol
# GULP energy per Si atom -5581.078168 kJ/mol
# Density = 2.183248 g / cm^3
# Si number density = 21.882281 Si / 1000 Ang^3
#
#
#
# Elastic Constant Matrix: (Units=GPa)
#
#
# Indices 1 2 3 4 5 6 
#
# 1 60.0316 -8.4250 -30.6177 0.0000 2.1079 0.0000
# 2 -8.4250 79.6012 -22.6992 0.0000 8.2743 0.0000
# 3 -30.6177 -22.6992 36.5096 0.0000 -0.6897 0.0000
# 4 0.0000 0.0000 0.0000 39.1244 0.0000 -10.4027
# 5 2.1079 8.2743 -0.6897 0.0000 27.5726 0.0000
# 6 0.0000 0.0000 0.0000 -10.4027 0.0000 -0.1831
#
#
#
# Elastic Compliance Matrix: (Units=1/GPa)
#
#
# Indices 1 2 3 4 5 6 
#
# 1 0.045522 0.020076 0.050502 0.000000 -0.008241 0.000000
# 2 0.020076 0.024663 0.032016 0.000000 -0.008135 0.000000
# 3 0.050502 0.032016 0.089435 0.000000 -0.011231 0.000000
# 4 0.000000 0.000000 0.000000 0.001587 0.000000 -0.090162
# 5 -0.008241 -0.008135 -0.011231 0.000000 0.039058 0.000000
# 6 0.000000 0.000000 0.000000 -0.090162 0.000000 -0.339095
#
#
# Mechanical properties :
#
#
# Convention : Reuss Voigt Hill
#
# Bulk Modulus (GPa) = 2.74118 5.85097 4.29607
# Shear Modulus (GPa) = -22.48047 29.16174 3.34063
#
# Velocity S-wave (km/s) = -3.20869 3.65453 1.23691
# Velocity P-wave (km/s) = 3.53159 4.52627 2.00187
#
# Compressibility (1/GPa) = 0.36480661
#
# Stress axis : x y z
#
# Youngs Moduli (GPa) = 21.96742 40.54694 11.18132
#
# Poissons Ratio (x) = -0.81401 -0.56468
# Poissons Ratio (y) = -0.44101 -0.35798
# Poissons Ratio (z) = -1.10939 -1.29815
#
# Static dielectric constant tensor:
#      x y z
#    x 1.837850 0.000000 -0.020280 
#    y 0.000000 1.600620 0.000000 
#    z -0.020280 0.000000 1.798150 
# 
# From -- ./inp_files/167651.got.cif
#   From: 2010.05.17/outbox.cif.g08.bks.cpg/sg12_84_cif.got.tgz:167651.got - 2010.06.03 13:09:07.
