data_PCOD9189505
_publ_section_title
;
Structure prediction by ZEFSAII (Michael W. Deem and Ramdas Pophale) SiO2 
 PCOD9189505
Probable space group: C 2/M
;
_chemical_formula_sum "Si O2"
_cell_formula_units_Z 48
_cell_length_a 17.069590
_cell_length_b 28.340941
_cell_length_c 9.980082
_cell_angle_alpha 90.000000
_cell_angle_beta 149.451381
_cell_angle_gamma 90.000000
_cell_volume 2453.948058
_symmetry_space_group_name_H-M "C 2/M"
_symmetry_group_IT_number 12
_symmetry_cell_setting 'monoclinic'
loop_
_space_group_symop_operation_xyz
x,y,z
-x,y,-z
-x,-y,-z
x,-y,z
1/2+x,1/2+y,z
1/2-x,1/2+y,-z
1/2-x,1/2-y,-z
1/2+x,1/2-y,z
loop_
_atom_site_type_symbol
_atom_site_label
_atom_site_fract_x
_atom_site_fract_y
_atom_site_fract_z
Si Si1 0.646781 0.054174 0.118862
Si Si2 0.892297 0.303131 0.097787
Si Si3 0.438161 0.054509 0.557540
Si Si4 0.876158 0.808642 0.082382
Si Si5 0.695262 0.352630 0.584063
Si Si6 0.279734 0.852917 0.399301
O O1 0.774796 0.092856 0.336258
O O2 0.694774 0.000000 0.211124
O O3 0.500000 0.063541 0.000000
O O4 0.578290 0.059411 0.869189
O O5 0.910610 0.246860 0.118001
O O6 0.054184 0.327561 0.366658
O O7 0.769974 0.313818 0.035033
O O8 0.819013 0.323395 0.853380
O O9 0.500000 0.064051 0.500000
O O10 0.310382 0.092218 0.411365
O O11 0.385494 0.000000 0.487586
O O12 0.024891 0.834152 0.362176
O O13 0.832629 0.830620 0.875430
O O14 0.723963 0.346476 0.468464
#
# Coordination Sequence:
#
# PCOD9189505 Si02
#       6
#     8   8   8   8   8   8
#     4  10  19  37  64  93 125 166 211 251 306 384
#     4  11  23  44  64  85 117 172 215 246 305 382
#     4  10  20  36  62  93 121 159 212 256 294 366
#     4  11  26  41  61  88 128 162 202 262 318 365
#     4  12  23  39  62  96 125 157 205 264 315 359
#     4  12  23  39  63  92 122 161 208 252 310 374
#
# _framework density 19.560316
#
# number of rings (size 3 to 8) (size 9 to 14) (size 15 to 20)
#    0.000    1.000    3.333    4.000    0.000    6.667 
#    0.000    0.833    0.000    5.000    0.000    0.000 
#    0.000    0.000    0.000    0.000    0.000    0.000 
#
# Total GULP energy -134262.601276 kJ/mol
# GULP energy per Si atom -5594.275053 kJ/mol
# Density = 1.951580 g / cm^3
# Si number density = 19.560316 Si / 1000 Ang^3
#
#
#
# Elastic Constant Matrix: (Units=GPa)
#
#
# Indices 1 2 3 4 5 6 
#
# 1 62.3687 32.2660 18.6729 0.0000 -20.7227 0.0000
# 2 32.2660 90.8791 41.9807 0.0000 0.2982 0.0000
# 3 18.6729 41.9807 90.0301 0.0000 -1.5155 0.0000
# 4 0.0000 0.0000 0.0000 14.5949 0.0000 -2.7803
# 5 -20.7227 0.2982 -1.5155 0.0000 34.9523 0.0000
# 6 0.0000 0.0000 0.0000 -2.7803 0.0000 11.0912
#
#
#
# Elastic Compliance Matrix: (Units=1/GPa)
#
#
# Indices 1 2 3 4 5 6 
#
# 1 0.026048 -0.008824 -0.001027 0.000000 0.015474 0.000000
# 2 -0.008824 0.017020 -0.006201 0.000000 -0.005646 0.000000
# 3 -0.001027 -0.006201 0.014213 0.000000 0.000060 0.000000
# 4 0.000000 0.000000 0.000000 0.071953 0.000000 0.018037
# 5 0.015474 -0.005646 0.000060 0.000000 0.037836 0.000000
# 6 0.000000 0.000000 0.000000 0.018037 0.000000 0.094683
#
#
# Mechanical properties :
#
#
# Convention : Reuss Voigt Hill
#
# Bulk Modulus (GPa) = 39.72153 47.67968 43.70061
# Shear Modulus (GPa) = 16.54261 22.15155 19.34708
#
# Velocity S-wave (km/s) = 2.91129 3.36888 3.14841
# Velocity P-wave (km/s) = 5.62602 6.28976 5.96712
#
# Compressibility (1/GPa) = 0.02517526
#
# Stress axis : x y z
#
# Youngs Moduli (GPa) = 38.39077 58.75548 70.35818
#
# Poissons Ratio (x) = 0.51848 0.07228
# Poissons Ratio (y) = 0.33877 0.43629
# Poissons Ratio (z) = 0.03944 0.36434
#
# Static dielectric constant tensor:
#      x y z
#    x 1.683930 0.000000 -0.015960 
#    y 0.000000 1.687710 0.000000 
#    z -0.015960 0.000000 1.644020 
# 
# From -- ./inp_files/67416.got.cif
#   From: 2010.05.17/outbox.cif.g08.bks.cpg/sg12_34_cif.got.tgz:67416.got - 2010.06.03 13:09:07.
