data_PCOD9189352
_publ_section_title
;
Structure prediction by ZEFSAII (Michael W. Deem and Ramdas Pophale) SiO2 
 PCOD9189352
Probable space group: C 2/M
;
_chemical_formula_sum "Si O2"
_cell_formula_units_Z 48
_cell_length_a 15.427425
_cell_length_b 8.365589
_cell_length_c 19.255737
_cell_angle_alpha 90.000000
_cell_angle_beta 90.243217
_cell_angle_gamma 90.000000
_cell_volume 2485.113339
_symmetry_space_group_name_H-M "C 2/M"
_symmetry_group_IT_number 12
_symmetry_cell_setting 'monoclinic'
loop_
_space_group_symop_operation_xyz
x,y,z
-x,y,-z
-x,-y,-z
x,-y,z
1/2+x,1/2+y,z
1/2-x,1/2+y,-z
1/2-x,1/2-y,-z
1/2+x,1/2-y,z
loop_
_atom_site_type_symbol
_atom_site_label
_atom_site_fract_x
_atom_site_fract_y
_atom_site_fract_z
Si Si1 0.522402 0.193000 0.077509
Si Si2 0.373467 0.806411 0.682992
Si Si3 0.225452 0.809207 0.575988
Si Si4 0.125354 0.695088 0.815494
Si Si5 0.431569 0.192873 0.338802
Si Si6 0.321030 0.691163 0.834988
O O1 0.449595 0.248539 0.132251
O O2 0.615981 0.244976 0.105280
O O3 0.520229 0.000000 0.077335
O O4 0.500000 0.248922 0.000000
O O5 0.296794 0.750375 0.632197
O O6 0.468290 0.756695 0.656480
O O7 0.358044 0.745862 0.760688
O O8 0.372397 0.000000 0.685266
O O9 0.250000 0.750000 0.500000
O O10 0.131552 0.754167 0.601779
O O11 0.228287 0.000000 0.576335
O O12 0.124378 0.500000 0.815294
O O13 0.104782 0.745994 0.736650
O O14 0.221248 0.746972 0.838366
O O15 0.429507 0.000000 0.339915
O O16 0.321074 0.500000 0.837346
#
# Coordination Sequence:
#
# PCOD9189352 Si02
#       6
#     8   8   8   8   8   8
#     4  10  21  39  60  82 114 156 197 234 280 343
#     4  10  21  38  61  85 112 150 196 233 275 344
#     4  11  24  40  59  87 120 151 190 237 286 340
#     4   9  18  34  57  84 113 149 188 231 287 341
#     4  10  19  37  62  83 112 150 190 237 284 337
#     4  11  21  34  57  86 116 147 186 238 291 338
#
# _framework density 19.315014000000001
#
# number of rings (size 3 to 8) (size 9 to 14) (size 15 to 20)
#    0.000    1.833    3.333    1.000    0.000    3.000 
#    0.000    5.000    0.000    0.000    0.000    0.000 
#    0.000    0.000    0.000    0.000    0.000    0.000 
#
# Total GULP energy -134056.134466 kJ/mol
# GULP energy per Si atom -5585.672269 kJ/mol
# Density = 1.927105 g / cm^3
# Si number density = 19.315014 Si / 1000 Ang^3
#
#
#
# Elastic Constant Matrix: (Units=GPa)
#
#
# Indices 1 2 3 4 5 6 
#
# 1 78.6738 8.2514 -22.8133 0.0000 -3.5097 0.0000
# 2 8.2514 8.3906 4.3269 0.0000 -0.7371 0.0000
# 3 -22.8133 4.3269 39.2801 0.0000 -1.5964 0.0000
# 4 0.0000 0.0000 0.0000 23.0618 0.0000 4.4469
# 5 -3.5097 -0.7371 -1.5964 0.0000 31.7015 0.0000
# 6 0.0000 0.0000 0.0000 4.4469 0.0000 22.6156
#
#
#
# Elastic Compliance Matrix: (Units=1/GPa)
#
#
# Indices 1 2 3 4 5 6 
#
# 1 0.019859 -0.026847 0.014585 0.000000 0.002309 0.000000
# 2 -0.026847 0.162813 -0.033563 0.000000 -0.000877 0.000000
# 3 0.014585 -0.033563 0.037737 0.000000 0.002735 0.000000
# 4 0.000000 0.000000 0.000000 0.045071 0.000000 -0.008862
# 5 0.002309 -0.000877 0.002735 0.000000 0.031917 0.000000
# 6 0.000000 0.000000 0.000000 -0.008862 0.000000 0.045960
#
#
# Mechanical properties :
#
#
# Convention : Reuss Voigt Hill
#
# Bulk Modulus (GPa) = 7.76650 11.76382 9.76516
# Shear Modulus (GPa) = 10.46187 24.58109 17.52148
#
# Velocity S-wave (km/s) = 2.32985 3.57128 3.01515
# Velocity P-wave (km/s) = 3.35668 4.80719 4.14587
#
# Compressibility (1/GPa) = 0.12875805
#
# Stress axis : x y z
#
# Youngs Moduli (GPa) = 50.35579 6.14203 26.49917
#
# Poissons Ratio (x) = 0.16490 -0.38649
# Poissons Ratio (y) = 1.35192 0.88938
# Poissons Ratio (z) = -0.73443 0.20614
#
# Static dielectric constant tensor:
#      x y z
#    x 1.674960 0.000000 0.009460 
#    y 0.000000 1.674370 0.000000 
#    z 0.009460 0.000000 1.642070 
# 
# From -- ./inp_files/267622.got.cif
#   From: 2010.05.17/outbox.cif.g08.bks.cpg/sg12_134_cif.got.tgz:267622.got - 2010.06.03 13:09:07.
