data_PCOD9189982
_publ_section_title
;
Structure prediction by ZEFSAII (Michael W. Deem and Ramdas Pophale) SiO2 
 PCOD9189982
Probable space group: C 2/M
;
_chemical_formula_sum "Si O2"
_cell_formula_units_Z 52
_cell_length_a 18.122703
_cell_length_b 14.205227
_cell_length_c 15.159278
_cell_angle_alpha 90.000000
_cell_angle_beta 136.373469
_cell_angle_gamma 90.000000
_cell_volume 2692.590499
_symmetry_space_group_name_H-M "C 2/M"
_symmetry_group_IT_number 12
_symmetry_cell_setting 'monoclinic'
loop_
_space_group_symop_operation_xyz
x,y,z
-x,y,-z
-x,-y,-z
x,-y,z
1/2+x,1/2+y,z
1/2-x,1/2+y,-z
1/2-x,1/2-y,-z
1/2+x,1/2-y,z
loop_
_atom_site_type_symbol
_atom_site_label
_atom_site_fract_x
_atom_site_fract_y
_atom_site_fract_z
Si Si1 0.211156 0.108046 0.363802
Si Si2 0.842798 0.388468 0.652483
Si Si3 0.538622 0.607164 0.812536
Si Si4 0.536489 0.805149 0.718032
Si Si5 0.230804 0.807786 0.072935
Si Si6 0.238100 0.222553 0.716687
Si Si7 0.000000 0.249678 0.500000
O O1 0.258856 0.135425 0.501059
O O2 0.252092 0.177225 0.324286
O O3 0.082483 0.113253 0.256918
O O4 0.242245 0.000000 0.374383
O O5 0.848820 0.500000 0.663200
O O6 0.956021 0.347163 0.719393
O O7 0.803888 0.346458 0.711037
O O8 0.553955 0.500000 0.791826
O O9 0.548229 0.693466 0.751660
O O10 0.627959 0.628560 0.964465
O O11 0.652356 0.854001 0.814364
O O12 0.489299 0.809879 0.579570
O O13 0.219179 0.740094 0.147700
O O14 0.250000 0.750000 0.000000
O O15 0.112446 0.195475 0.608139
#
# Coordination Sequence:
#
# PCOD9189982 Si02
#       7
#     8   8   8   8   8   8   4
#     4  10  20  34  59  93 119 149 192 244 302 357
#     4  11  22  38  63  93 123 156 198 252 305 361
#     4  10  20  37  60  85 118 156 196 245 296 348
#     4  10  19  39  61  89 122 158 202 242 307 355
#     4   9  22  39  57  83 117 162 203 242 290 354
#     4  11  20  38  61  87 122 158 201 243 305 357
#     4  10  20  34  64  88 122 166 188 248 306 358
#
# _framework density 19.312256999999999
#
# number of rings (size 3 to 8) (size 9 to 14) (size 15 to 20)
#    0.000    1.846    3.077    1.385    0.000    1.846 
#    0.000   12.308    0.000    4.615    0.000    0.000 
#    0.000    0.000    0.000    0.000    0.000    0.000 
#
# Total GULP energy -144901.012164 kJ/mol
# GULP energy per Si atom -5573.115852 kJ/mol
# Density = 1.926830 g / cm^3
# Si number density = 19.312257 Si / 1000 Ang^3
#
#
#
# Elastic Constant Matrix: (Units=GPa)
#
#
# Indices 1 2 3 4 5 6 
#
# 1 110.8440 34.6493 39.8245 0.0000 -12.3460 0.0000
# 2 34.6493 91.1791 29.0074 0.0000 -8.9499 0.0000
# 3 39.8245 29.0074 97.3608 0.0000 -1.3500 0.0000
# 4 0.0000 0.0000 0.0000 16.9687 0.0000 4.3449
# 5 -12.3460 -8.9499 -1.3500 0.0000 41.3018 0.0000
# 6 0.0000 0.0000 0.0000 4.3449 0.0000 -2.4820
#
#
#
# Elastic Compliance Matrix: (Units=1/GPa)
#
#
# Indices 1 2 3 4 5 6 
#
# 1 0.011620 -0.002927 -0.003843 0.000000 0.002714 0.000000
# 2 -0.002927 0.013118 -0.002685 0.000000 0.001880 0.000000
# 3 -0.003843 -0.002685 0.012625 0.000000 -0.001318 0.000000
# 4 0.000000 0.000000 0.000000 0.040693 0.000000 0.071233
# 5 0.002714 0.001880 -0.001318 0.000000 0.025387 0.000000
# 6 0.000000 0.000000 0.000000 0.071233 0.000000 -0.278199
#
#
# Mechanical properties :
#
#
# Convention : Reuss Voigt Hill
#
# Bulk Modulus (GPa) = 54.19307 56.26071 55.22689
# Shear Modulus (GPa) = -33.40129 24.21788 -4.59170
#
# Velocity S-wave (km/s) = -4.16328 3.54505 -1.54362
# Velocity P-wave (km/s) = 2.23871 6.77878 5.04796
#
# Compressibility (1/GPa) = 0.01845254
#
# Stress axis : x y z
#
# Youngs Moduli (GPa) = 86.06149 76.22886 79.20838
#
# Poissons Ratio (x) = 0.22309 0.30442
# Poissons Ratio (y) = 0.25186 0.21270
# Poissons Ratio (z) = 0.33076 0.20470
#
# Static dielectric constant tensor:
#      x y z
#    x 1.679780 0.000000 0.032520 
#    y 0.000000 1.674330 0.000000 
#    z 0.032520 0.000000 1.743880 
# 
# From -- ./inp_files/225800.got.cif
#   From: 2010.05.17/outbox.cif.g08.bks.cpg/sg12_113_cif.got.tgz:225800.got - 2010.06.03 13:09:07.
