data_PCOD9189589
_publ_section_title
;
Structure prediction by ZEFSAII (Michael W. Deem and Ramdas Pophale) SiO2 
 PCOD9189589
Probable space group: C 2/M
;
_chemical_formula_sum "Si O2"
_cell_formula_units_Z 64
_cell_length_a 19.674570
_cell_length_b 15.139729
_cell_length_c 11.915353
_cell_angle_alpha 90.000000
_cell_angle_beta 52.726317
_cell_angle_gamma 90.000000
_cell_volume 2824.280711
_symmetry_space_group_name_H-M "C 2/M"
_symmetry_group_IT_number 12
_symmetry_cell_setting 'monoclinic'
loop_
_space_group_symop_operation_xyz
x,y,z
-x,y,-z
-x,-y,-z
x,-y,z
1/2+x,1/2+y,z
1/2-x,1/2+y,-z
1/2-x,1/2-y,-z
1/2+x,1/2-y,z
loop_
_atom_site_type_symbol
_atom_site_label
_atom_site_fract_x
_atom_site_fract_y
_atom_site_fract_z
Si Si1 0.847933 0.106578 0.661176
Si Si2 0.573916 0.852163 0.707963
Si Si3 0.114202 0.398123 0.142265
Si Si4 0.385797 0.601878 0.870669
Si Si5 0.249999 0.608025 0.186849
Si Si6 0.750000 0.653345 0.559313
Si Si7 0.152068 0.393422 0.857042
Si Si8 0.573916 0.352163 0.644207
O O1 0.863256 0.141673 0.771551
O O2 0.750000 0.126460 0.726683
O O3 0.913009 0.139718 0.502234
O O4 0.857251 0.000000 0.653575
O O5 0.487573 0.894273 0.748522
O O6 0.661425 0.889991 0.568440
O O7 0.586992 0.860282 0.828252
O O8 0.568140 0.750000 0.681860
O O9 0.141828 0.500000 0.106940
O O10 0.167862 0.364900 0.194214
O O11 0.136745 0.358327 0.998062
O O12 0.358172 0.500000 0.890596
O O13 0.487573 0.605729 0.776334
O O14 0.332136 0.635100 0.029939
O O15 0.249999 0.500000 0.205142
O O16 0.250000 0.654634 0.306690
O O17 0.750000 0.750000 0.500000
O O18 0.661425 0.610010 0.608710
O O19 0.142750 0.500000 0.868077
#
# Coordination Sequence:
#
# PCOD9189589 Si02
#       8
#     8   8   8   8   8   8   8   8
#     4  10  19  37  69  98 125 164 211 267 327 381
#     4  11  23  41  59  92 132 175 215 258 311 387
#     4  10  21  42  68  99 128 158 209 272 328 386
#     4  10  21  42  68  99 128 158 209 272 328 386
#     4  10  22  43  71  96 127 166 213 271 330 382
#     4  10  24  45  60  84 131 175 212 261 313 384
#     4  10  19  37  69  98 125 164 211 267 327 381
#     4  11  23  41  59  92 132 175 215 258 311 387
#
# _framework density 22.660637999999999
#
# number of rings (size 3 to 8) (size 9 to 14) (size 15 to 20)
#    0.000    1.750    2.500    1.500    0.000    5.000 
#   18.000    3.125    0.000    0.000    0.000    0.000 
#    0.000    0.000    0.000    0.000    0.000    0.000 
#
# Total GULP energy -178836.916653 kJ/mol
# GULP energy per Si atom -5588.653645 kJ/mol
# Density = 2.260906 g / cm^3
# Si number density = 22.660638 Si / 1000 Ang^3
#
#
#
# Elastic Constant Matrix: (Units=GPa)
#
#
# Indices 1 2 3 4 5 6 
#
# 1 145.5606 11.1911 101.8878 0.0000 2.7227 0.0000
# 2 11.1911 70.9269 17.3976 0.0000 11.2756 0.0000
# 3 101.8878 17.3976 156.6260 0.0000 17.3938 0.0000
# 4 0.0000 0.0000 0.0000 31.0905 0.0000 9.1059
# 5 2.7227 11.2756 17.3938 0.0000 49.2409 0.0000
# 6 0.0000 0.0000 0.0000 9.1059 0.0000 26.0786
#
#
#
# Elastic Compliance Matrix: (Units=1/GPa)
#
#
# Indices 1 2 3 4 5 6 
#
# 1 0.012873 -0.000301 -0.008607 0.000000 0.002397 0.000000
# 2 -0.000301 0.014899 -0.001126 0.000000 -0.002997 0.000000
# 3 -0.008607 -0.001126 0.012518 0.000000 -0.003688 0.000000
# 4 0.000000 0.000000 0.000000 0.035828 0.000000 -0.012510
# 5 0.002397 -0.002997 -0.003688 0.000000 0.022165 0.000000
# 6 0.000000 0.000000 0.000000 -0.012510 0.000000 0.042714
#
#
# Mechanical properties :
#
#
# Convention : Reuss Voigt Hill
#
# Bulk Modulus (GPa) = 49.45109 70.45184 59.95146
# Shear Modulus (GPa) = 29.79636 37.45781 33.62708
#
# Velocity S-wave (km/s) = 3.63008 4.07011 3.85638
# Velocity P-wave (km/s) = 6.28011 7.29693 6.80753
#
# Compressibility (1/GPa) = 0.02022200
#
# Stress axis : x y z
#
# Youngs Moduli (GPa) = 77.68369 67.11737 79.88428
#
# Poissons Ratio (x) = 0.02021 0.68754
# Poissons Ratio (y) = 0.02339 0.08997
# Poissons Ratio (z) = 0.66860 0.07559
#
# Static dielectric constant tensor:
#      x y z
#    x 1.858150 0.000000 -0.012110 
#    y 0.000000 1.888690 0.000000 
#    z -0.012110 0.000000 1.851480 
# 
# From -- ./inp_files/168748.got.cif
#   From: 2010.05.17/outbox.cif.g08.bks.cpg/sg12_85_cif.got.tgz:168748.got - 2010.06.03 13:09:07.
