data_PCOD9189216
_publ_section_title
;
Structure prediction by ZEFSAII (Michael W. Deem and Ramdas Pophale) SiO2 
 PCOD9189216
Probable space group: C 2/M
;
_chemical_formula_sum "Si O2"
_cell_formula_units_Z 64
_cell_length_a 13.680552
_cell_length_b 13.360446
_cell_length_c 14.761131
_cell_angle_alpha 90.000000
_cell_angle_beta 88.397839
_cell_angle_gamma 90.000000
_cell_volume 2696.959321
_symmetry_space_group_name_H-M "C 2/M"
_symmetry_group_IT_number 12
_symmetry_cell_setting 'monoclinic'
loop_
_space_group_symop_operation_xyz
x,y,z
-x,y,-z
-x,-y,-z
x,-y,z
1/2+x,1/2+y,z
1/2-x,1/2+y,-z
1/2-x,1/2-y,-z
1/2+x,1/2-y,z
loop_
_atom_site_type_symbol
_atom_site_label
_atom_site_fract_x
_atom_site_fract_y
_atom_site_fract_z
Si Si1 0.192475 0.303895 0.890345
Si Si2 0.409222 0.232605 0.442809
Si Si3 0.904437 0.110891 0.857560
Si Si4 0.716295 0.890996 0.202029
Si Si5 0.290929 0.174782 0.595944
Si Si6 0.828588 0.108157 0.662658
Si Si7 0.400579 0.889115 0.272490
Si Si8 0.929077 0.682921 0.931934
O O1 0.289871 0.372311 0.885701
O O2 0.219537 0.201134 0.837003
O O3 0.106767 0.351739 0.830190
O O4 0.157770 0.294313 0.993573
O O5 0.500000 0.267907 0.500000
O O6 0.352518 0.147088 0.505120
O O7 0.324436 0.312342 0.421120
O O8 0.443779 0.184432 0.346959
O O9 0.898774 0.116039 0.748375
O O10 0.960148 0.205946 0.897291
O O11 0.937255 0.000000 0.883965
O O12 0.698863 0.880477 0.309606
O O13 0.615256 0.876094 0.150569
O O14 0.758326 0.000000 0.180558
O O15 0.330731 0.287878 0.610996
O O16 0.715670 0.106203 0.699290
O O17 0.847689 0.000000 0.617325
O O18 0.442149 0.000000 0.278558
O O19 0.000000 0.629329 0.000000
#
# Coordination Sequence:
#
# PCOD9189216 Si02
#       8
#     8   8   8   8   8   8   8   8
#     4  10  19  37  60  82 111 155 198 236 288 343
#     4  10  21  36  60  88 119 156 195 246 301 356
#     4   9  16  32  58  81 103 139 193 242 281 330
#     4  11  22  40  62  86 117 156 200 240 294 361
#     4  10  19  39  61  85 121 156 195 243 306 357
#     4   8  13  28  57  83 104 140 190 236 284 346
#     4   9  17  33  57  85 114 144 190 243 290 348
#     4  11  24  37  53  84 123 158 192 240 296 351
#
# _framework density 23.730428
#
# number of rings (size 3 to 8) (size 9 to 14) (size 15 to 20)
#    0.000    2.250    5.000    2.625    0.000    4.750 
#    0.000    3.125    0.000    3.000    0.000    0.000 
#    0.000    0.000    0.000    0.000    0.000    0.000 
#
# Total GULP energy -178546.035534 kJ/mol
# GULP energy per Si atom -5579.563610 kJ/mol
# Density = 2.367642 g / cm^3
# Si number density = 23.730428 Si / 1000 Ang^3
#
#
#
# Elastic Constant Matrix: (Units=GPa)
#
#
# Indices 1 2 3 4 5 6 
#
# 1 63.5633 -3.7824 14.6772 0.0000 18.8494 0.0000
# 2 -3.7824 87.1416 14.9295 0.0000 -0.6287 0.0000
# 3 14.6772 14.9295 117.9067 0.0000 30.7939 0.0000
# 4 0.0000 0.0000 0.0000 1.4591 0.0000 -1.3986
# 5 18.8494 -0.6287 30.7939 0.0000 34.6556 0.0000
# 6 0.0000 0.0000 0.0000 -1.3986 0.0000 3.8509
#
#
#
# Elastic Compliance Matrix: (Units=1/GPa)
#
#
# Indices 1 2 3 4 5 6 
#
# 1 0.018814 0.000687 0.000313 0.000000 -0.010499 0.000000
# 2 0.000687 0.011862 -0.002013 0.000000 0.001630 0.000000
# 3 0.000313 -0.002013 0.011396 0.000000 -0.010333 0.000000
# 4 0.000000 0.000000 0.000000 1.051334 0.000000 0.381817
# 5 -0.010499 0.001630 -0.010333 0.000000 0.043777 0.000000
# 6 0.000000 0.000000 0.000000 0.381817 0.000000 0.398343
#
#
# Mechanical properties :
#
#
# Convention : Reuss Voigt Hill
#
# Bulk Modulus (GPa) = 24.97124 35.58449 30.27786
# Shear Modulus (GPa) = 3.22393 24.17894 13.70143
#
# Velocity S-wave (km/s) = 1.16684 3.19548 2.40548
# Velocity P-wave (km/s) = 3.51583 5.35189 4.52790
#
# Compressibility (1/GPa) = 0.04004607
#
# Stress axis : x y z
#
# Youngs Moduli (GPa) = 53.15081 84.30207 87.75081
#
# Poissons Ratio (x) = -0.05794 -0.02746
# Poissons Ratio (y) = -0.03653 0.17668
# Poissons Ratio (z) = -0.01663 0.16973
#
# Static dielectric constant tensor:
#      x y z
#    x 1.992530 0.000000 -0.032320 
#    y 0.000000 1.893560 0.000000 
#    z -0.032320 0.000000 1.960260 
# 
# From -- ./inp_files/224771.got.cif
#   From: 2010.05.17/outbox.cif.g08.bks.cpg/sg12_113_cif.got.tgz:224771.got - 2010.06.03 13:09:07.
