data_PCOD9189212
_publ_section_title
;
Structure prediction by ZEFSAII (Michael W. Deem and Ramdas Pophale) SiO2 
 PCOD9189212
Probable space group: C 2/M
;
_chemical_formula_sum "Si O2"
_cell_formula_units_Z 40
_cell_length_a 11.025130
_cell_length_b 24.692057
_cell_length_c 9.562651
_cell_angle_alpha 90.000000
_cell_angle_beta 121.253509
_cell_angle_gamma 90.000000
_cell_volume 2225.484133
_symmetry_space_group_name_H-M "C 2/M"
_symmetry_group_IT_number 12
_symmetry_cell_setting 'monoclinic'
loop_
_space_group_symop_operation_xyz
x,y,z
-x,y,-z
-x,-y,-z
x,-y,z
1/2+x,1/2+y,z
1/2-x,1/2+y,-z
1/2-x,1/2-y,-z
1/2+x,1/2-y,z
loop_
_atom_site_type_symbol
_atom_site_label
_atom_site_fract_x
_atom_site_fract_y
_atom_site_fract_z
Si Si1 0.661456 0.215440 0.559863
Si Si2 0.839611 0.590133 0.418005
Si Si3 0.843134 0.215622 0.949302
Si Si4 0.651995 0.409637 0.027015
Si Si5 0.144166 0.000000 0.793663
Si Si6 0.685113 0.500000 0.498008
O O1 0.500000 0.233944 0.500000
O O2 0.750000 0.250000 0.500000
O O3 0.653978 0.151544 0.519549
O O4 0.752633 0.215645 0.754646
O O5 0.764748 0.586936 0.220996
O O6 0.754182 0.552720 0.471522
O O7 0.000000 0.570648 0.500000
O O8 0.859893 0.154136 0.016058
O O9 0.750000 0.250000 0.000000
O O10 0.000000 0.235854 0.000000
O O11 0.500000 0.426712 0.000000
O O12 0.679985 0.448000 0.911574
O O13 0.211170 0.000000 0.679734
O O14 0.977873 0.000000 0.651458
#
# Coordination Sequence:
#
# PCOD9189212 Si02
#       6
#     8   8   8   8   4   4
#     4  10  21  38  58  85 116 153 192 233 284 340
#     4  10  21  38  59  82 114 153 191 226 281 350
#     4  10  21  36  58  85 113 149 192 234 280 337
#     4  10  19  37  60  80 110 154 193 223 277 348
#     4  11  22  36  58  88 114 140 191 248 287 325
#     4  11  22  37  56  89 114 141 188 248 291 327
#
# _framework density 17.973617999999998
#
# number of rings (size 3 to 8) (size 9 to 14) (size 15 to 20)
#    0.000    1.800    2.000    2.400    0.000    1.600 
#    3.600    2.000    0.000    0.000    0.000    0.000 
#    0.000    0.000    0.000    0.000    0.000    0.000 
#
# Total GULP energy -111532.913118 kJ/mol
# GULP energy per Si atom -5576.645656 kJ/mol
# Density = 1.793271 g / cm^3
# Si number density = 17.973618 Si / 1000 Ang^3
#
#
#
# Elastic Constant Matrix: (Units=GPa)
#
#
# Indices 1 2 3 4 5 6 
#
# 1 116.4184 50.6290 38.2983 0.0000 -0.1820 0.0000
# 2 50.6290 83.8712 31.7284 0.0000 -27.2869 0.0000
# 3 38.2983 31.7284 72.4540 0.0000 -5.9557 0.0000
# 4 0.0000 0.0000 0.0000 110.0294 0.0000 -12.8952
# 5 -0.1820 -27.2869 -5.9557 0.0000 43.7826 0.0000
# 6 0.0000 0.0000 0.0000 -12.8952 0.0000 28.3214
#
#
#
# Elastic Compliance Matrix: (Units=1/GPa)
#
#
# Indices 1 2 3 4 5 6 
#
# 1 0.013630 -0.008666 -0.003892 0.000000 -0.005874 0.000000
# 2 -0.008666 0.023396 -0.004520 0.000000 0.013931 0.000000
# 3 -0.003892 -0.004520 0.017805 0.000000 -0.000411 0.000000
# 4 0.000000 0.000000 0.000000 0.009601 0.000000 0.004371
# 5 -0.005874 0.013931 -0.000411 0.000000 0.031442 0.000000
# 6 0.000000 0.000000 0.000000 0.004371 0.000000 0.037299
#
#
# Mechanical properties :
#
#
# Convention : Reuss Voigt Hill
#
# Bulk Modulus (GPa) = 48.36850 57.11721 52.74286
# Shear Modulus (GPa) = 28.69918 46.56587 37.63253
#
# Velocity S-wave (km/s) = 4.00026 5.09550 4.58073
# Velocity P-wave (km/s) = 6.95020 8.15268 7.57534
#
# Compressibility (1/GPa) = 0.02067461
#
# Stress axis : x y z
#
# Youngs Moduli (GPa) = 73.36837 42.74156 56.16494
#
# Poissons Ratio (x) = 0.37041 0.21861
# Poissons Ratio (y) = 0.63583 0.25384
# Poissons Ratio (z) = 0.28558 0.19317
#
# Static dielectric constant tensor:
#      x y z
#    x 1.568620 0.000000 0.031970 
#    y 0.000000 1.633300 0.000000 
#    z 0.031970 0.000000 1.584830 
# 
# From -- ./inp_files/50482.got.cif
#   From: 2010.05.17/outbox.cif.g08.bks.cpg/sg12_26_cif.got.tgz:50482.got - 2010.06.03 13:09:07.
