data_PCOD9189541
_publ_section_title
;
Structure prediction by ZEFSAII (Michael W. Deem and Ramdas Pophale) SiO2 
 PCOD9189541
Probable space group: C 2/M
;
_chemical_formula_sum "Si O2"
_cell_formula_units_Z 56
_cell_length_a 12.729674
_cell_length_b 28.443397
_cell_length_c 8.305068
_cell_angle_alpha 90.000000
_cell_angle_beta 117.231193
_cell_angle_gamma 90.000000
_cell_volume 2673.778724
_symmetry_space_group_name_H-M "C 2/M"
_symmetry_group_IT_number 12
_symmetry_cell_setting 'monoclinic'
loop_
_space_group_symop_operation_xyz
x,y,z
-x,y,-z
-x,-y,-z
x,-y,z
1/2+x,1/2+y,z
1/2-x,1/2+y,-z
1/2-x,1/2-y,-z
1/2+x,1/2-y,z
loop_
_atom_site_type_symbol
_atom_site_label
_atom_site_fract_x
_atom_site_fract_y
_atom_site_fract_z
Si Si1 0.206736 0.357210 0.469085
Si Si2 0.869838 0.287729 0.324230
Si Si3 0.941528 0.085934 0.280873
Si Si4 0.122753 0.181750 0.682804
Si Si5 0.214684 0.552061 0.990366
Si Si6 0.827374 0.946567 0.715089
Si Si7 0.545029 0.859862 0.860287
O O1 0.210671 0.314416 0.600774
O O2 0.279326 0.340678 0.364982
O O3 0.261176 0.404749 0.576589
O O4 0.071349 0.367186 0.329008
O O5 0.839087 0.234717 0.251720
O O6 0.877103 0.321414 0.175874
O O7 0.000000 0.286497 0.500000
O O8 0.908934 0.140238 0.214400
O O9 0.000000 0.084996 0.500000
O O10 0.035091 0.063671 0.224041
O O11 0.817975 0.058899 0.193032
O O12 0.000000 0.187117 0.500000
O O13 0.162563 0.500000 0.964326
O O14 0.283457 0.556398 0.868142
O O15 0.118106 0.592575 0.934404
O O16 0.801650 0.000000 0.642116
O O17 0.500000 0.842124 0.000000
#
# Coordination Sequence:
#
# PCOD9189541 Si02
#       7
#     8   8   8   8   8   8   8
#     4  11  20  41  63  94 127 169 213 258 307 383
#     4   9  20  38  66  90 125 171 214 255 315 373
#     4  11  22  41  64  95 130 157 212 269 315 377
#     4  10  19  37  65  97 123 163 215 261 314 376
#     4  11  25  44  64  88 126 173 213 258 321 380
#     4  11  23  40  65  94 127 168 212 264 319 376
#     4  11  24  41  61  91 134 165 207 266 314 371
#
# _framework density 20.944140999999998
#
# number of rings (size 3 to 8) (size 9 to 14) (size 15 to 20)
#    0.000    1.429    4.286    2.143    0.000    3.143 
#    0.000    5.714    0.000    0.000    0.000    0.000 
#    0.000    0.000    0.000    0.000    0.000    0.000 
#
# Total GULP energy -156368.905752 kJ/mol
# GULP energy per Si atom -5584.603777 kJ/mol
# Density = 2.089647 g / cm^3
# Si number density = 20.944141 Si / 1000 Ang^3
#
#
#
# Elastic Constant Matrix: (Units=GPa)
#
#
# Indices 1 2 3 4 5 6 
#
# 1 55.6971 9.1160 5.5621 0.0000 5.2411 0.0000
# 2 9.1160 132.8078 21.3485 0.0000 6.3362 0.0000
# 3 5.5621 21.3485 38.3781 0.0000 4.4473 0.0000
# 4 0.0000 0.0000 0.0000 21.2244 0.0000 -4.7082
# 5 5.2411 6.3362 4.4473 0.0000 29.8378 0.0000
# 6 0.0000 0.0000 0.0000 -4.7082 0.0000 41.3966
#
#
#
# Elastic Compliance Matrix: (Units=1/GPa)
#
#
# Indices 1 2 3 4 5 6 
#
# 1 0.018544 -0.000834 -0.001899 0.000000 -0.002797 0.000000
# 2 -0.000834 0.008342 -0.004407 0.000000 -0.000968 0.000000
# 3 -0.001899 -0.004407 0.029139 0.000000 -0.003074 0.000000
# 4 0.000000 0.000000 0.000000 0.048335 0.000000 0.005497
# 5 -0.002797 -0.000968 -0.003074 0.000000 0.034669 0.000000
# 6 0.000000 0.000000 0.000000 0.005497 0.000000 0.024782
#
#
# Mechanical properties :
#
#
# Convention : Reuss Voigt Hill
#
# Bulk Modulus (GPa) = 23.95580 33.21514 28.58547
# Shear Modulus (GPa) = 26.04076 31.21553 28.62815
#
# Velocity S-wave (km/s) = 3.52993 3.86478 3.70115
# Velocity P-wave (km/s) = 5.29874 5.98404 5.65179
#
# Compressibility (1/GPa) = 0.04174355
#
# Stress axis : x y z
#
# Youngs Moduli (GPa) = 53.92685 119.88201 34.31770
#
# Poissons Ratio (x) = 0.09999 0.06518
# Poissons Ratio (y) = 0.04498 0.15124
# Poissons Ratio (z) = 0.10243 0.52833
#
# Static dielectric constant tensor:
#      x y z
#    x 1.731360 0.000000 0.006230 
#    y 0.000000 1.765380 0.000000 
#    z 0.006230 0.000000 1.793240 
# 
# From -- ./inp_files/53290.got.cif
#   From: 2010.05.17/outbox.cif.g08.bks.cpg/sg12_27_cif.got.tgz:53290.got - 2010.06.03 13:09:07.
