data_PCOD9189613
_publ_section_title
;
Structure prediction by ZEFSAII (Michael W. Deem and Ramdas Pophale) SiO2 
 PCOD9189613
Probable space group: C 2/M
;
_chemical_formula_sum "Si O2"
_cell_formula_units_Z 50
_cell_length_a 17.717574
_cell_length_b 30.687374
_cell_length_c 5.230679
_cell_angle_alpha 90.000000
_cell_angle_beta 71.814207
_cell_angle_gamma 90.000000
_cell_volume 2701.893769
_symmetry_space_group_name_H-M "C 2/M"
_symmetry_group_IT_number 12
_symmetry_cell_setting 'monoclinic'
loop_
_space_group_symop_operation_xyz
x,y,z
-x,y,-z
-x,-y,-z
x,-y,z
1/2+x,1/2+y,z
1/2-x,1/2+y,-z
1/2-x,1/2-y,-z
1/2+x,1/2-y,z
loop_
_atom_site_type_symbol
_atom_site_label
_atom_site_fract_x
_atom_site_fract_y
_atom_site_fract_z
Si Si1 0.445270 0.222509 0.307775
Si Si2 0.000000 0.500000 0.500000
Si Si3 0.212041 0.050930 0.049332
Si Si4 0.368452 0.130760 0.384830
Si Si5 0.397896 0.077061 0.854369
Si Si6 0.815169 0.104324 0.424495
Si Si7 0.444831 0.320356 0.309114
O O1 0.500000 0.217415 0.500000
O O2 0.387469 0.181589 0.350645
O O3 0.409543 0.271211 0.356003
O O4 0.500000 0.221093 0.000000
O O5 0.957842 0.538366 0.723661
O O6 0.308059 0.057253 0.950588
O O7 0.179053 0.077126 0.842254
O O8 0.194838 0.000000 0.049604
O O9 0.178333 0.072063 0.342269
O O10 0.399132 0.111246 0.619467
O O11 0.274164 0.123233 0.471611
O O12 0.406155 0.102951 0.111876
O O13 0.878111 0.142948 0.371723
O O14 0.500000 0.325550 0.500000
O O15 0.500000 0.323442 0.000000
#
# Coordination Sequence:
#
# PCOD9189613 Si02
#       7
#     8   2   8   8   8   8   8
#     4  10  21  36  57  81 116 152 185 228 285 332
#     4  12  24  38  52  82 116 166 192 238 276 310
#     4  10  19  38  56  82 112 148 190 226 275 331
#     4  10  22  38  54  84 112 150 195 232 276 324
#     4  10  23  35  54  78 114 152 196 235 265 318
#     4  10  21  36  62  83 111 149 186 232 282 330
#     4  10  21  39  61  88 112 142 182 229 288 355
#
# _framework density 18.50554
#
# number of rings (size 3 to 8) (size 9 to 14) (size 15 to 20)
#    0.000    1.920    0.800    2.400    3.360    1.920 
#    0.000    0.000    0.000   21.120    0.000    0.000 
#    0.000    0.000    0.000    0.000    0.000    0.000 
#
# Total GULP energy -139386.350978 kJ/mol
# GULP energy per Si atom -5575.454039 kJ/mol
# Density = 1.846342 g / cm^3
# Si number density = 18.505540 Si / 1000 Ang^3
#
#
#
# Elastic Constant Matrix: (Units=GPa)
#
#
# Indices 1 2 3 4 5 6 
#
# 1 31.8276 38.9917 19.3337 0.0000 5.0118 0.0000
# 2 38.9917 127.2640 -1.2517 0.0000 -2.4565 0.0000
# 3 19.3337 -1.2517 62.2205 0.0000 26.9624 0.0000
# 4 0.0000 0.0000 0.0000 30.0588 0.0000 -12.1007
# 5 5.0118 -2.4565 26.9624 0.0000 26.6492 0.0000
# 6 0.0000 0.0000 0.0000 -12.1007 0.0000 32.7833
#
#
#
# Elastic Compliance Matrix: (Units=1/GPa)
#
#
# Indices 1 2 3 4 5 6 
#
# 1 0.076239 -0.023383 -0.030295 0.000000 0.014158 0.000000
# 2 -0.023383 0.015046 0.009014 0.000000 -0.003335 0.000000
# 3 -0.030295 0.009014 0.040668 0.000000 -0.034617 0.000000
# 4 0.000000 0.000000 0.000000 0.039074 0.000000 0.014423
# 5 0.014158 -0.003335 -0.034617 0.000000 0.069579 0.000000
# 6 0.000000 0.000000 0.000000 0.014423 0.000000 0.035827
#
#
# Mechanical properties :
#
#
# Convention : Reuss Voigt Hill
#
# Bulk Modulus (GPa) = 23.46099 37.27326 30.36713
# Shear Modulus (GPa) = 13.15893 28.84748 21.00320
#
# Velocity S-wave (km/s) = 2.66950 3.95252 3.37258
# Velocity P-wave (km/s) = 4.71243 6.40432 5.62238
#
# Compressibility (1/GPa) = 0.04262394
#
# Stress axis : x y z
#
# Youngs Moduli (GPa) = 13.11662 66.46206 24.58956
#
# Poissons Ratio (x) = 1.55409 0.74494
# Poissons Ratio (y) = 0.30671 -0.22164
# Poissons Ratio (z) = 0.39737 -0.59907
#
# Static dielectric constant tensor:
#      x y z
#    x 1.641740 0.000000 0.006920 
#    y 0.000000 1.615230 0.000000 
#    z 0.006920 0.000000 1.626820 
# 
# From -- ./inp_files/13110.got.cif
#   From: 2010.05.17/outbox.cif.g08.bks.cpg/sg12_7_cif.got.tgz:13110.got - 2010.06.03 13:09:07.
