data_PCOD9189834
_publ_section_title
;
Structure prediction by ZEFSAII (Michael W. Deem and Ramdas Pophale) SiO2 
 PCOD9189834
Probable space group: C 2/M
;
_chemical_formula_sum "Si O2"
_cell_formula_units_Z 42
_cell_length_a 21.459105
_cell_length_b 7.719663
_cell_length_c 12.767911
_cell_angle_alpha 90.000000
_cell_angle_beta 71.662585
_cell_angle_gamma 90.000000
_cell_volume 2007.690575
_symmetry_space_group_name_H-M "C 2/M"
_symmetry_group_IT_number 12
_symmetry_cell_setting 'monoclinic'
loop_
_space_group_symop_operation_xyz
x,y,z
-x,y,-z
-x,-y,-z
x,-y,z
1/2+x,1/2+y,z
1/2-x,1/2+y,-z
1/2-x,1/2-y,-z
1/2+x,1/2-y,z
loop_
_atom_site_type_symbol
_atom_site_label
_atom_site_fract_x
_atom_site_fract_y
_atom_site_fract_z
Si Si1 0.874437 0.789123 0.328776
Si Si2 0.592153 0.300583 0.457624
Si Si3 0.235948 0.698104 0.333117
Si Si4 0.711102 0.202283 0.916158
Si Si5 0.000000 0.500000 0.500000
Si Si6 0.570626 0.290640 0.922952
O O1 0.907203 0.741574 0.420428
O O2 0.798852 0.729135 0.362330
O O3 0.911933 0.731161 0.204418
O O4 0.872071 0.000000 0.327607
O O5 0.570815 0.500000 0.458707
O O6 0.667859 0.293972 0.382944
O O7 0.548299 0.155379 0.427104
O O8 0.225001 0.500000 0.371955
O O9 0.259783 0.700828 0.200153
O O10 0.633225 0.240538 0.960410
O O11 0.719762 0.000000 0.890895
O O12 0.750000 0.250000 0.000000
O O13 0.568469 0.500000 0.921789
O O14 0.500000 0.228173 0.000000
#
# Coordination Sequence:
#
# PCOD9189834 Si02
#       6
#     8   8   8   8   2   8
#     4   8  17  34  61  90 118 151 197 256 308 360
#     4  11  22  41  62  88 123 164 204 248 308 366
#     4  10  19  38  64  91 119 149 200 258 308 358
#     4  11  22  38  58  87 121 160 203 252 305 362
#     4  12  26  44  56  86 130 168 204 246 300 374
#     4   9  18  37  61  87 119 155 199 252 305 363
#
# _framework density 20.919560000000001
#
# number of rings (size 3 to 8) (size 9 to 14) (size 15 to 20)
#    0.000    2.095    0.952    4.286    0.000    0.381 
#   12.000    0.000    0.000    0.000    0.000    0.000 
#    0.000    0.000    0.000    0.000    0.000    0.000 
#
# Total GULP energy -116998.929102 kJ/mol
# GULP energy per Si atom -5571.377576 kJ/mol
# Density = 2.087195 g / cm^3
# Si number density = 20.919560 Si / 1000 Ang^3
#
#
#
# Elastic Constant Matrix: (Units=GPa)
#
#
# Indices 1 2 3 4 5 6 
#
# 1 130.9590 21.7463 52.2725 0.0000 -24.9828 0.0000
# 2 21.7463 103.3029 5.2235 0.0000 -8.6258 0.0000
# 3 52.2725 5.2235 53.9408 0.0000 -11.2015 0.0000
# 4 0.0000 0.0000 0.0000 17.9375 0.0000 -7.3690
# 5 -24.9828 -8.6258 -11.2015 0.0000 36.8826 0.0000
# 6 0.0000 0.0000 0.0000 -7.3690 0.0000 8.9140
#
#
#
# Elastic Compliance Matrix: (Units=1/GPa)
#
#
# Indices 1 2 3 4 5 6 
#
# 1 0.013755 -0.001850 -0.012067 0.000000 0.005220 0.000000
# 2 -0.001850 0.010135 0.001113 0.000000 0.001455 0.000000
# 3 -0.012067 0.001113 0.030399 0.000000 0.001319 0.000000
# 4 0.000000 0.000000 0.000000 0.084419 0.000000 0.069788
# 5 0.005220 0.001455 0.001319 0.000000 0.031390 0.000000
# 6 0.000000 0.000000 0.000000 0.069788 0.000000 0.169876
#
#
# Mechanical properties :
#
#
# Convention : Reuss Voigt Hill
#
# Bulk Modulus (GPa) = 34.86458 49.63192 42.24825
# Shear Modulus (GPa) = 13.32833 26.67752 20.00293
#
# Velocity S-wave (km/s) = 2.52687 3.57493 3.09558
# Velocity P-wave (km/s) = 5.02151 6.38880 5.74597
#
# Compressibility (1/GPa) = 0.02868241
#
# Stress axis : x y z
#
# Youngs Moduli (GPa) = 72.69847 98.66916 32.89619
#
# Poissons Ratio (x) = 0.18250 0.39696
# Poissons Ratio (y) = 0.13447 -0.03662
# Poissons Ratio (z) = 0.87725 -0.10984
#
# Static dielectric constant tensor:
#      x y z
#    x 1.792950 0.000000 0.009910 
#    y 0.000000 1.732630 0.000000 
#    z 0.009910 0.000000 1.752740 
# 
# From -- ./inp_files/163021.got.cif
#   From: 2010.05.17/outbox.cif.g08.bks.cpg/sg12_82_cif.got.tgz:163021.got - 2010.06.03 13:09:07.
