data_PCOD9189820
_publ_section_title
;
Structure prediction by ZEFSAII (Michael W. Deem and Ramdas Pophale) SiO2 
 PCOD9189820
Probable space group: C 2/M
;
_chemical_formula_sum "Si O2"
_cell_formula_units_Z 40
_cell_length_a 8.265391
_cell_length_b 23.684160
_cell_length_c 11.253450
_cell_angle_alpha 90.000000
_cell_angle_beta 126.075484
_cell_angle_gamma 90.000000
_cell_volume 1780.526516
_symmetry_space_group_name_H-M "C 2/M"
_symmetry_group_IT_number 12
_symmetry_cell_setting 'monoclinic'
loop_
_space_group_symop_operation_xyz
x,y,z
-x,y,-z
-x,-y,-z
x,-y,z
1/2+x,1/2+y,z
1/2-x,1/2+y,-z
1/2-x,1/2-y,-z
1/2+x,1/2-y,z
loop_
_atom_site_type_symbol
_atom_site_label
_atom_site_fract_x
_atom_site_fract_y
_atom_site_fract_z
Si Si1 0.435271 0.284221 0.195617
Si Si2 0.315069 0.063254 0.064070
Si Si3 0.418743 0.397413 0.804373
Si Si4 0.790713 0.667812 0.475551
Si Si5 0.079191 0.669294 0.199816
O O1 0.512978 0.332463 0.139587
O O2 0.620531 0.286243 0.370271
O O3 0.243894 0.307442 0.180902
O O4 0.421330 0.220771 0.144739
O O5 0.475799 0.111899 0.116750
O O6 0.217067 0.076732 0.151327
O O7 0.394753 0.000000 0.094825
O O8 0.126960 0.069381 0.893383
O O9 0.299612 0.387930 0.630417
O O10 0.825664 0.659673 0.629154
O O11 0.000000 0.680656 0.500000
#
# Coordination Sequence:
#
# PCOD9189820 Si02
#       5
#     8   8   8   8   8
#     4  10  23  37  68  98 132 166 197 271 318 382
#     4  11  23  43  67  90 124 172 217 263 306 375
#     4   9  21  40  62  92 123 160 212 254 319 369
#     4  10  19  38  63  99 125 163 202 256 322 377
#     4  12  21  40  65  97 133 162 215 249 326 376
#
# _framework density 22.465264000000001
#
# number of rings (size 3 to 8) (size 9 to 14) (size 15 to 20)
#    1.200    0.400    2.000    4.800    0.000    1.600 
#    0.000    6.000    0.000    1.200    0.000    0.000 
#    0.000    0.000    0.000    0.000    0.000    0.000 
#
# Total GULP energy -111759.195183 kJ/mol
# GULP energy per Si atom -5587.959759 kJ/mol
# Density = 2.241413 g / cm^3
# Si number density = 22.465264 Si / 1000 Ang^3
#
#
#
# Elastic Constant Matrix: (Units=GPa)
#
#
# Indices 1 2 3 4 5 6 
#
# 1 120.7149 62.8616 55.5454 0.0000 11.1888 0.0000
# 2 62.8616 185.4652 52.6013 0.0000 16.1021 0.0000
# 3 55.5454 52.6013 104.6505 0.0000 -9.9102 0.0000
# 4 0.0000 0.0000 0.0000 18.8449 0.0000 -1.3428
# 5 11.1888 16.1021 -9.9102 0.0000 38.7363 0.0000
# 6 0.0000 0.0000 0.0000 -1.3428 0.0000 17.7563
#
#
#
# Elastic Compliance Matrix: (Units=1/GPa)
#
#
# Indices 1 2 3 4 5 6 
#
# 1 0.012568 -0.002199 -0.005967 0.000000 -0.004243 0.000000
# 2 -0.002199 0.007175 -0.002728 0.000000 -0.003045 0.000000
# 3 -0.005967 -0.002728 0.014721 0.000000 0.006624 0.000000
# 4 0.000000 0.000000 0.000000 0.053352 0.000000 0.004035
# 5 -0.004243 -0.003045 0.006624 0.000000 0.030002 0.000000
# 6 0.000000 0.000000 0.000000 0.004035 0.000000 0.056623
#
#
# Mechanical properties :
#
#
# Convention : Reuss Voigt Hill
#
# Bulk Modulus (GPa) = 78.88642 83.64970 81.26806
# Shear Modulus (GPa) = 24.94325 31.05566 27.99945
#
# Velocity S-wave (km/s) = 3.33574 3.72208 3.53419
# Velocity P-wave (km/s) = 7.07299 7.46912 7.27376
#
# Compressibility (1/GPa) = 0.01267645
#
# Stress axis : x y z
#
# Youngs Moduli (GPa) = 79.56621 139.36851 67.92934
#
# Poissons Ratio (x) = 0.30648 0.40535
# Poissons Ratio (y) = 0.17497 0.18529
# Poissons Ratio (z) = 0.47479 0.38016
#
# Static dielectric constant tensor:
#      x y z
#    x 1.827510 0.000000 0.013740 
#    y 0.000000 1.828910 0.000000 
#    z 0.013740 0.000000 1.903870 
# 
# From -- ./inp_files/197321.got.cif
#   From: 2010.05.17/outbox.cif.g08.bks.cpg/sg12_99_cif.got.tgz:197321.got - 2010.06.03 13:09:07.
