data_PCOD9189386
_publ_section_title
;
Structure prediction by ZEFSAII (Michael W. Deem and Ramdas Pophale) SiO2 
 PCOD9189386
Probable space group: C 2/M
;
_chemical_formula_sum "Si O2"
_cell_formula_units_Z 56
_cell_length_a 28.815261
_cell_length_b 8.552394
_cell_length_c 12.163962
_cell_angle_alpha 90.000000
_cell_angle_beta 106.349326
_cell_angle_gamma 90.000000
_cell_volume 2876.464023
_symmetry_space_group_name_H-M "C 2/M"
_symmetry_group_IT_number 12
_symmetry_cell_setting 'monoclinic'
loop_
_space_group_symop_operation_xyz
x,y,z
-x,y,-z
-x,-y,-z
x,-y,z
1/2+x,1/2+y,z
1/2-x,1/2+y,-z
1/2-x,1/2-y,-z
1/2+x,1/2-y,z
loop_
_atom_site_type_symbol
_atom_site_label
_atom_site_fract_x
_atom_site_fract_y
_atom_site_fract_z
Si Si1 0.103078 0.185031 0.832669
Si Si2 0.517849 0.189267 0.633840
Si Si3 0.256026 0.811178 0.333068
Si Si4 0.557658 0.185448 0.025168
Si Si5 0.711572 0.187609 0.886932
Si Si6 0.427702 0.190834 0.720822
Si Si7 0.174181 0.688283 0.425807
O O1 0.069225 0.250397 0.711840
O O2 0.157067 0.253570 0.867657
O O3 0.105600 0.000000 0.824621
O O4 0.078115 0.230835 0.931823
O O5 0.500000 0.236756 0.500000
O O6 0.477067 0.240399 0.694850
O O7 0.519914 0.000000 0.635579
O O8 0.270058 0.761785 0.221005
O O9 0.205691 0.744735 0.343740
O O10 0.297226 0.758519 0.446894
O O11 0.253764 0.000000 0.334972
O O12 0.577880 0.240593 0.156386
O O13 0.567669 0.000000 0.018509
O O14 0.500000 0.202666 0.000000
O O15 0.711089 0.000000 0.890439
O O16 0.750000 0.250000 0.000000
O O17 0.380913 0.240878 0.621126
O O18 0.429264 0.000000 0.723986
O O19 0.173952 0.500000 0.426567
#
# Coordination Sequence:
#
# PCOD9189386 Si02
#       7
#     8   8   8   8   8   8   8
#     4  12  26  42  61  89 127 165 204 252 311 370
#     4  10  21  39  66  93 122 163 211 254 301 365
#     4   9  20  38  59  84 116 150 195 248 296 357
#     4  10  19  37  62  87 118 154 201 250 296 355
#     4  11  25  44  65  89 120 160 208 256 308 364
#     4   9  18  33  58  91 117 149 198 248 298 355
#     4   9  18  34  59  88 117 150 191 242 299 356
#
# _framework density 19.468347999999999
#
# number of rings (size 3 to 8) (size 9 to 14) (size 15 to 20)
#    0.000    2.000    1.429    1.714    4.000    1.714 
#    0.000    0.714    0.000    0.000    0.000    0.000 
#    0.000    0.000    0.000    0.000    0.000    0.000 
#
# Total GULP energy -156342.805481 kJ/mol
# GULP energy per Si atom -5583.671624 kJ/mol
# Density = 1.942404 g / cm^3
# Si number density = 19.468348 Si / 1000 Ang^3
#
#
#
# Elastic Constant Matrix: (Units=GPa)
#
#
# Indices 1 2 3 4 5 6 
#
# 1 110.0406 30.2453 73.9029 0.0000 16.7063 0.0000
# 2 30.2453 32.0147 33.3253 0.0000 1.0827 0.0000
# 3 73.9029 33.3253 131.8855 0.0000 -0.9475 0.0000
# 4 0.0000 0.0000 0.0000 20.0487 0.0000 5.5714
# 5 16.7063 1.0827 -0.9475 0.0000 35.3136 0.0000
# 6 0.0000 0.0000 0.0000 5.5714 0.0000 20.0863
#
#
#
# Elastic Compliance Matrix: (Units=1/GPa)
#
#
# Indices 1 2 3 4 5 6 
#
# 1 0.018135 -0.008415 -0.008097 0.000000 -0.008538 0.000000
# 2 -0.008415 0.046378 -0.006986 0.000000 0.002372 0.000000
# 3 -0.008097 -0.006986 0.013916 0.000000 0.004418 0.000000
# 4 0.000000 0.000000 0.000000 0.054044 0.000000 -0.014990
# 5 -0.008538 0.002372 0.004418 0.000000 0.032403 0.000000
# 6 0.000000 0.000000 0.000000 -0.014990 0.000000 0.053943
#
#
# Mechanical properties :
#
#
# Convention : Reuss Voigt Hill
#
# Bulk Modulus (GPa) = 31.81451 60.98754 46.40102
# Shear Modulus (GPa) = 18.09667 24.18753 21.14210
#
# Velocity S-wave (km/s) = 3.05215 3.52860 3.29899
# Velocity P-wave (km/s) = 5.36637 6.92790 6.19652
#
# Compressibility (1/GPa) = 0.03143220
#
# Stress axis : x y z
#
# Youngs Moduli (GPa) = 55.14314 21.56194 71.85717
#
# Poissons Ratio (x) = 0.18145 0.58181
# Poissons Ratio (y) = 0.46405 0.50202
# Poissons Ratio (z) = 0.44648 0.15064
#
# Static dielectric constant tensor:
#      x y z
#    x 1.654190 0.000000 0.008110 
#    y 0.000000 1.667060 0.000000 
#    z 0.008110 0.000000 1.696490 
# 
# From -- ./inp_files/181120.got.cif
#   From: 2010.05.17/outbox.cif.g08.bks.cpg/sg12_91_cif.got.tgz:181120.got - 2010.06.03 13:09:07.
