data_PCOD9189046
_publ_section_title
;
Structure prediction by ZEFSAII (Michael W. Deem and Ramdas Pophale) SiO2 
 PCOD9189046
Probable space group: C 2/M
;
_chemical_formula_sum "Si O2"
_cell_formula_units_Z 64
_cell_length_a 19.367699
_cell_length_b 23.497264
_cell_length_c 17.201321
_cell_angle_alpha 90.000000
_cell_angle_beta 22.399681
_cell_angle_gamma 90.000000
_cell_volume 2983.021930
_symmetry_space_group_name_H-M "C 2/M"
_symmetry_group_IT_number 12
_symmetry_cell_setting 'monoclinic'
loop_
_space_group_symop_operation_xyz
x,y,z
-x,y,-z
-x,-y,-z
x,-y,z
1/2+x,1/2+y,z
1/2-x,1/2+y,-z
1/2-x,1/2-y,-z
1/2+x,1/2-y,z
loop_
_atom_site_type_symbol
_atom_site_label
_atom_site_fract_x
_atom_site_fract_y
_atom_site_fract_z
Si Si1 0.478573 0.064454 0.684486
Si Si2 0.216277 0.744390 0.443809
Si Si3 0.635103 0.142790 0.790047
Si Si4 0.641191 0.933503 0.017753
Si Si5 0.085738 0.315725 0.326523
Si Si6 0.893986 0.935110 0.311539
Si Si7 0.483860 0.658130 0.927065
Si Si8 0.554447 0.432618 0.561524
O O1 0.444854 0.117762 0.663688
O O2 0.688610 0.067151 0.493455
O O3 0.446812 0.000000 0.686909
O O4 0.364473 0.071672 0.882825
O O5 0.250000 0.750000 0.500000
O O6 0.275459 0.802558 0.341916
O O7 0.345359 0.695754 0.274551
O O8 0.015113 0.723986 0.630822
O O9 0.803675 0.102264 0.637177
O O10 0.500000 0.158864 0.000000
O O11 0.508820 0.106844 0.862912
O O12 0.841467 0.920252 0.778111
O O13 0.598913 0.000000 0.044377
O O14 0.000000 0.304326 0.500000
O O15 0.299921 0.306855 0.107436
O O16 0.896386 0.918925 0.399529
O O17 0.013553 0.895079 0.133357
O O18 0.958492 0.000000 0.240376
O O19 0.500000 0.640384 0.000000
O O20 0.579764 0.500000 0.522635
#
# Coordination Sequence:
#
# PCOD9189046 Si02
#       8
#     8   8   8   8   8   8   8   8
#     4  10  19  37  67 102 136 175 224 271 324 401
#     4  12  27  48  71  97 128 175 237 284 336 410
#     4  12  26  42  66  96 131 172 220 286 337 400
#     4  10  21  40  67  99 137 176 218 269 332 399
#     4  12  25  44  71  95 136 184 217 281 350 398
#     4  10  19  36  66  98 135 177 221 273 326 397
#     4  12  24  44  68  95 136 178 221 278 349 401
#     4  10  21  40  65  97 134 174 220 269 329 403
#
# _framework density 21.454754000000001
#
# number of rings (size 3 to 8) (size 9 to 14) (size 15 to 20)
#    0.000    1.000    3.750    3.000    0.000    5.000 
#    0.000    1.250    0.000    0.000    0.000    0.000 
#    0.000    0.000    0.000    0.000    0.000    0.000 
#
# Total GULP energy -179072.474854 kJ/mol
# GULP energy per Si atom -5596.014839 kJ/mol
# Density = 2.140592 g / cm^3
# Si number density = 21.454754 Si / 1000 Ang^3
#
#
#
# Elastic Constant Matrix: (Units=GPa)
#
#
# Indices 1 2 3 4 5 6 
#
# 1 65.4318 18.9310 17.0680 0.0747 2.4440 -0.1441
# 2 18.9310 68.2529 25.8550 0.0100 3.8874 0.3226
# 3 17.0680 25.8550 105.4129 0.0162 -1.1100 -0.0102
# 4 0.0747 0.0100 0.0162 12.0179 0.0020 -4.8885
# 5 2.4440 3.8874 -1.1100 0.0020 31.2958 0.0399
# 6 -0.1441 0.3226 -0.0102 -4.8885 0.0399 86.3764
#
#
#
# Elastic Compliance Matrix: (Units=1/GPa)
#
#
# Indices 1 2 3 4 5 6 
#
# 1 0.016929 -0.003972 -0.001776 -0.000084 -0.000892 0.000039
# 2 -0.003972 0.017230 -0.003604 -0.000013 -0.001958 -0.000071
# 3 -0.001776 -0.003604 0.010668 0.000004 0.000965 0.000012
# 4 -0.000084 -0.000013 0.000004 0.085170 -0.000003 0.004820
# 5 -0.000892 -0.001958 0.000965 -0.000003 0.032300 -0.000009
# 6 0.000039 -0.000071 0.000012 0.004820 -0.000009 0.011850
#
#
# Mechanical properties :
#
#
# Convention : Reuss Voigt Hill
#
# Bulk Modulus (GPa) = 38.27960 40.31173 39.29567
# Shear Modulus (GPa) = 24.80653 37.75426 31.28040
#
# Velocity S-wave (km/s) = 3.40402 4.19945 3.82248
# Velocity P-wave (km/s) = 5.77326 6.50721 6.15119
#
# Compressibility (1/GPa) = 0.02612357
#
# Stress axis : x y z
#
# Youngs Moduli (GPa) = 59.06977 58.03828 93.73732
#
# Poissons Ratio (x) = 0.23053 0.16650
# Poissons Ratio (y) = 0.23463 0.33779
# Poissons Ratio (z) = 0.10492 0.20914
#
# Static dielectric constant tensor:
#      x y z
#    x 1.819410 -0.000040 -0.049940 
#    y -0.000040 1.766060 0.000030 
#    z -0.049940 0.000030 1.824730 
# 
# From -- ./inp_files/286402.got.cif
#   From: 2010.05.17/outbox.cif.g08.bks.cpg/sg12_144_cif.got.tgz:286402.got - 2010.06.03 13:09:07.
