data_PCOD9189466
_publ_section_title
;
Structure prediction by ZEFSAII (Michael W. Deem and Ramdas Pophale) SiO2 
 PCOD9189466
Probable space group: C 2/M
;
_chemical_formula_sum "Si O2"
_cell_formula_units_Z 50
_cell_length_a 18.544467
_cell_length_b 7.796737
_cell_length_c 14.714747
_cell_angle_alpha 90.000000
_cell_angle_beta 76.067258
_cell_angle_gamma 90.000000
_cell_volume 2064.956701
_symmetry_space_group_name_H-M "C 2/M"
_symmetry_group_IT_number 12
_symmetry_cell_setting 'monoclinic'
loop_
_space_group_symop_operation_xyz
x,y,z
-x,y,-z
-x,-y,-z
x,-y,z
1/2+x,1/2+y,z
1/2-x,1/2+y,-z
1/2-x,1/2-y,-z
1/2+x,1/2-y,z
loop_
_atom_site_type_symbol
_atom_site_label
_atom_site_fract_x
_atom_site_fract_y
_atom_site_fract_z
Si Si1 0.341739 0.699435 0.101980
Si Si2 0.500000 0.500000 0.000000
Si Si3 0.133089 0.295421 0.700463
Si Si4 0.566878 0.706928 0.543575
Si Si5 0.292994 0.303305 0.603748
Si Si6 0.675073 0.798517 0.209017
Si Si7 0.439531 0.808159 0.912029
O O1 0.360505 0.500000 0.071088
O O2 0.368408 0.730528 0.196429
O O3 0.253221 0.729495 0.133147
O O4 0.379490 0.809849 0.012681
O O5 0.491292 0.653367 0.925316
O O6 0.139092 0.500000 0.704480
O O7 0.068120 0.251889 0.649636
O O8 0.211172 0.223583 0.635848
O O9 0.500000 0.768899 0.500000
O O10 0.567397 0.500000 0.536675
O O11 0.643820 0.777142 0.477779
O O12 0.283272 0.500000 0.576851
O O13 0.323538 0.301905 0.697507
O O14 0.674580 0.000000 0.233087
O O15 0.606348 0.765801 0.164453
O O16 0.472863 0.000000 0.894271
#
# Coordination Sequence:
#
# PCOD9189466 Si02
#       7
#     8   2   8   8   8   8   8
#     4  10  19  37  63  92 120 154 197 251 315 364
#     4  12  26  44  60  86 124 178 214 234 312 366
#     4  10  20  35  57  86 115 150 194 248 304 360
#     4  10  21  38  55  80 112 152 197 245 299 367
#     4   9  19  35  58  84 114 150 196 247 303 366
#     4   9  20  36  61  92 120 150 196 257 311 360
#     4  11  23  42  62  90 125 163 212 256 295 364
#
# _framework density 24.213581999999999
#
# number of rings (size 3 to 8) (size 9 to 14) (size 15 to 20)
#    0.000    2.080    0.800    2.160    1.120    2.240 
#    2.880    0.000    0.000    0.000    0.000    0.000 
#    0.000    0.000    0.000    0.000    0.000    0.000 
#
# Total GULP energy -139597.780295 kJ/mol
# GULP energy per Si atom -5583.911212 kJ/mol
# Density = 2.415847 g / cm^3
# Si number density = 24.213582 Si / 1000 Ang^3
#
#
#
# Elastic Constant Matrix: (Units=GPa)
#
#
# Indices 1 2 3 4 5 6 
#
# 1 69.3479 26.4214 41.7770 0.0000 17.7934 0.0000
# 2 26.4214 80.8457 -4.9222 0.0000 5.9038 0.0000
# 3 41.7770 -4.9222 70.5083 0.0000 23.3505 0.0000
# 4 0.0000 0.0000 0.0000 22.8871 0.0000 -0.2932
# 5 17.7934 5.9038 23.3505 0.0000 41.8540 0.0000
# 6 0.0000 0.0000 0.0000 -0.2932 0.0000 12.4941
#
#
#
# Elastic Compliance Matrix: (Units=1/GPa)
#
#
# Indices 1 2 3 4 5 6 
#
# 1 0.029534 -0.010663 -0.017889 0.000000 -0.001071 0.000000
# 2 -0.010663 0.016534 0.008272 0.000000 -0.002414 0.000000
# 3 -0.017889 0.008272 0.028492 0.000000 -0.009457 0.000000
# 4 0.000000 0.000000 0.000000 0.043706 0.000000 0.001025
# 5 -0.001071 -0.002414 -0.009457 0.000000 0.029965 0.000000
# 6 0.000000 0.000000 0.000000 0.001025 0.000000 0.080062
#
#
# Mechanical properties :
#
#
# Convention : Reuss Voigt Hill
#
# Bulk Modulus (GPa) = 29.41261 38.58383 33.99822
# Shear Modulus (GPa) = 17.84524 25.94210 21.89367
#
# Velocity S-wave (km/s) = 2.71771 3.27675 3.01024
# Velocity P-wave (km/s) = 4.69270 5.50323 5.11405
#
# Compressibility (1/GPa) = 0.03399902
#
# Stress axis : x y z
#
# Youngs Moduli (GPa) = 33.85871 60.48148 35.09789
#
# Poissons Ratio (x) = 0.64492 0.62787
# Poissons Ratio (y) = 0.36104 -0.29032
# Poissons Ratio (z) = 0.60570 -0.50029
#
# Static dielectric constant tensor:
#      x y z
#    x 1.848130 0.000000 -0.009310 
#    y 0.000000 1.873930 0.000000 
#    z -0.009310 0.000000 1.893470 
# 
# From -- ./inp_files/230315.got.cif
#   From: 2010.05.17/outbox.cif.g08.bks.cpg/sg12_116_cif.got.tgz:230315.got - 2010.06.03 13:09:07.
