data_PCOD9189547
_publ_section_title
;
Structure prediction by ZEFSAII (Michael W. Deem and Ramdas Pophale) SiO2 
 PCOD9189547
Probable space group: C 2/M
;
_chemical_formula_sum "Si O2"
_cell_formula_units_Z 40
_cell_length_a 14.584397
_cell_length_b 18.906335
_cell_length_c 14.107953
_cell_angle_alpha 90.000000
_cell_angle_beta 31.070859
_cell_angle_gamma 90.000000
_cell_volume 2007.667571
_symmetry_space_group_name_H-M "C 2/M"
_symmetry_group_IT_number 12
_symmetry_cell_setting 'monoclinic'
loop_
_space_group_symop_operation_xyz
x,y,z
-x,y,-z
-x,-y,-z
x,-y,z
1/2+x,1/2+y,z
1/2-x,1/2+y,-z
1/2-x,1/2-y,-z
1/2+x,1/2-y,z
loop_
_atom_site_type_symbol
_atom_site_label
_atom_site_fract_x
_atom_site_fract_y
_atom_site_fract_z
Si Si1 0.998384 0.704126 0.614318
Si Si2 0.496172 0.356218 0.699214
Si Si3 0.085769 0.799464 0.024418
Si Si4 0.586136 0.868199 0.024076
Si Si5 0.852795 0.578145 0.400086
O O1 0.053634 0.781556 0.601598
O O2 0.000000 0.703454 0.500000
O O3 0.112399 0.640961 0.556511
O O4 0.797258 0.693834 0.828400
O O5 0.476799 0.342243 0.828942
O O6 0.651587 0.411345 0.542540
O O7 0.299509 0.375678 0.836446
O O8 0.047966 0.715900 0.073339
O O9 0.000000 0.820312 0.000000
O O10 0.490506 0.909728 0.192716
O O11 0.500000 0.887590 0.000000
O O12 0.876611 0.500000 0.419694
#
# Coordination Sequence:
#
# PCOD9189547 Si02
#       5
#     8   8   8   8   8
#     4  11  22  39  68  97 124 163 212 270 311 365
#     4  11  22  41  66  97 123 164 216 263 311 367
#     4  10  19  37  66 101 122 155 209 268 323 361
#     4  10  22  40  65  92 125 160 211 264 315 368
#     4  12  26  41  61  92 132 174 207 253 319 379
#
# _framework density 19.923617
#
# number of rings (size 3 to 8) (size 9 to 14) (size 15 to 20)
#    0.000    1.200    4.000    3.000    8.400    1.600 
#    0.000    1.000    0.000    2.400    0.000    0.000 
#    0.000    0.000    0.000    0.000    0.000    0.000 
#
# Total GULP energy -111835.908276 kJ/mol
# GULP energy per Si atom -5591.795414 kJ/mol
# Density = 1.987827 g / cm^3
# Si number density = 19.923617 Si / 1000 Ang^3
#
#
#
# Elastic Constant Matrix: (Units=GPa)
#
#
# Indices 1 2 3 4 5 6 
#
# 1 102.6438 29.3791 13.1638 0.0041 0.6190 -0.0041
# 2 29.3791 59.6605 41.2141 0.0095 -3.1497 -0.0086
# 3 13.1638 41.2141 63.6431 0.0100 0.4257 -0.0122
# 4 0.0041 0.0095 0.0100 3.1912 -0.0055 4.6630
# 5 0.6190 -3.1497 0.4257 -0.0055 29.8113 0.0048
# 6 -0.0041 -0.0086 -0.0122 4.6630 0.0048 -6.5076
#
#
#
# Elastic Compliance Matrix: (Units=1/GPa)
#
#
# Indices 1 2 3 4 5 6 
#
# 1 0.011563 -0.007424 0.002423 0.000001 -0.001059 -0.000002
# 2 -0.007424 0.035462 -0.021457 -0.000011 0.004207 -0.000007
# 3 0.002423 -0.021457 0.029125 0.000004 -0.002733 -0.000027
# 4 0.000001 -0.000011 0.000004 0.153084 0.000009 0.109690
# 5 -0.001059 0.004207 -0.002733 0.000009 0.034050 0.000032
# 6 -0.000002 -0.000007 -0.000027 0.109690 0.000032 -0.075068
#
#
# Mechanical properties :
#
#
# Convention : Reuss Voigt Hill
#
# Bulk Modulus (GPa) = 43.04032 43.71792 43.37912
# Shear Modulus (GPa) = 20.09028 14.77833 17.43430
#
# Velocity S-wave (km/s) = 3.17892 2.72646 2.96135
# Velocity P-wave (km/s) = 5.92652 5.64817 5.78902
#
# Compressibility (1/GPa) = 0.02323403
#
# Stress axis : x y z
#
# Youngs Moduli (GPa) = 86.48335 28.19900 34.33461
#
# Poissons Ratio (x) = 0.20934 -0.08319
# Poissons Ratio (y) = 0.64202 0.73673
# Poissons Ratio (z) = -0.20954 0.60508
#
# Static dielectric constant tensor:
#      x y z
#    x 1.721920 0.000000 -0.018590 
#    y 0.000000 1.679160 0.000000 
#    z -0.018590 0.000000 1.698940 
# 
# From -- ./inp_files/60853.got.cif
#   From: 2010.05.17/outbox.cif.g08.bks.cpg/sg12_31_cif.got.tgz:60853.got - 2010.06.03 13:09:07.
