data_PCOD9189155
_publ_section_title
;
Structure prediction by ZEFSAII (Michael W. Deem and Ramdas Pophale) SiO2 
 PCOD9189155
Probable space group: C 2/M
;
_chemical_formula_sum "Si O2"
_cell_formula_units_Z 56
_cell_length_a 22.951120
_cell_length_b 12.584923
_cell_length_c 20.046667
_cell_angle_alpha 90.000000
_cell_angle_beta 148.429981
_cell_angle_gamma 90.000000
_cell_volume 3031.423539
_symmetry_space_group_name_H-M "C 2/M"
_symmetry_group_IT_number 12
_symmetry_cell_setting 'monoclinic'
loop_
_space_group_symop_operation_xyz
x,y,z
-x,y,-z
-x,-y,-z
x,-y,z
1/2+x,1/2+y,z
1/2-x,1/2+y,-z
1/2-x,1/2-y,-z
1/2+x,1/2-y,z
loop_
_atom_site_type_symbol
_atom_site_label
_atom_site_fract_x
_atom_site_fract_y
_atom_site_fract_z
Si Si1 0.531246 0.882479 0.616058
Si Si2 0.817884 0.265730 0.675399
Si Si3 0.215981 0.876066 0.814327
Si Si4 0.643126 0.624376 0.410741
Si Si5 0.557745 0.873243 0.901006
Si Si6 0.921298 0.260951 0.214847
Si Si7 0.663926 0.771492 0.645753
O O1 0.555001 0.862296 0.715631
O O2 0.641674 0.863057 0.679446
O O3 0.442889 0.793401 0.505893
O O4 0.486365 0.000000 0.561420
O O5 0.735182 0.346665 0.556096
O O6 0.820054 0.166610 0.626186
O O7 0.767038 0.231174 0.696428
O O8 0.938258 0.320700 0.799548
O O9 0.162722 0.809933 0.823508
O O10 0.170941 0.831248 0.700169
O O11 0.189476 0.000000 0.795979
O O12 0.349324 0.862812 0.950848
O O13 0.621786 0.500000 0.389444
O O14 0.532630 0.691222 0.317871
O O15 0.604452 0.807831 0.882701
O O16 0.545797 0.000000 0.875380
#
# Coordination Sequence:
#
# PCOD9189155 Si02
#       7
#     8   8   8   8   8   8   8
#     4  10  20  36  59  86 113 144 185 231 283 335
#     4  10  21  36  52  81 113 147 188 227 274 331
#     4  10  22  37  56  82 113 152 189 227 276 330
#     4  10  20  34  54  81 114 146 178 228 289 337
#     4  10  21  37  58  82 110 150 194 230 271 326
#     4  10  19  37  58  87 114 139 182 238 286 330
#     4  10  20  36  52  80 113 145 182 225 275 327
#
# _framework density 18.47317
#
# number of rings (size 3 to 8) (size 9 to 14) (size 15 to 20)
#    0.000    2.000    1.429    2.571    0.000    2.857 
#    0.000    3.571    0.000   12.000    0.000   13.000 
#    0.000    0.000    0.000    0.000    0.000    0.000 
#
# Total GULP energy -155914.615428 kJ/mol
# GULP energy per Si atom -5568.379122 kJ/mol
# Density = 1.843112 g / cm^3
# Si number density = 18.473170 Si / 1000 Ang^3
#
#
#
# Elastic Constant Matrix: (Units=GPa)
#
#
# Indices 1 2 3 4 5 6 
#
# 1 103.9263 29.6028 27.1388 0.0000 5.1862 0.0000
# 2 29.6028 90.7281 36.6384 0.0000 -2.6849 0.0000
# 3 27.1388 36.6384 71.4050 0.0000 3.3775 0.0000
# 4 0.0000 0.0000 0.0000 22.5709 0.0000 -0.4038
# 5 5.1862 -2.6849 3.3775 0.0000 19.2700 0.0000
# 6 0.0000 0.0000 0.0000 -0.4038 0.0000 5.7437
#
#
#
# Elastic Compliance Matrix: (Units=1/GPa)
#
#
# Indices 1 2 3 4 5 6 
#
# 1 0.011244 -0.002629 -0.002787 0.000000 -0.002904 0.000000
# 2 -0.002629 0.014718 -0.006739 0.000000 0.003939 0.000000
# 3 -0.002787 -0.006739 0.018685 0.000000 -0.003464 0.000000
# 4 0.000000 0.000000 0.000000 0.044361 0.000000 0.003118
# 5 -0.002904 0.003939 -0.003464 0.000000 0.053832 0.000000
# 6 0.000000 0.000000 0.000000 0.003118 0.000000 0.174323
#
#
# Mechanical properties :
#
#
# Convention : Reuss Voigt Hill
#
# Bulk Modulus (GPa) = 49.17146 50.31324 49.74235
# Shear Modulus (GPa) = 14.35746 21.02888 17.69317
#
# Velocity S-wave (km/s) = 2.79087 3.37760 3.09815
# Velocity P-wave (km/s) = 6.08776 6.51965 6.30740
#
# Compressibility (1/GPa) = 0.02033700
#
# Stress axis : x y z
#
# Youngs Moduli (GPa) = 88.93799 67.94557 53.51746
#
# Poissons Ratio (x) = 0.17863 0.14916
# Poissons Ratio (y) = 0.23382 0.36065
# Poissons Ratio (z) = 0.24788 0.45787
#
# Static dielectric constant tensor:
#      x y z
#    x 1.658360 0.000000 0.009860 
#    y 0.000000 1.614460 0.000000 
#    z 0.009860 0.000000 1.642200 
# 
# From -- ./inp_files/325187.got.cif
#   From: 2010.05.17/outbox.cif.g08.bks.cpg/sg12_163_cif.got.tgz:325187.got - 2010.06.03 13:09:07.
