data_PCOD9189758
_publ_section_title
;
Structure prediction by ZEFSAII (Michael W. Deem and Ramdas Pophale) SiO2 
 PCOD9189758
Probable space group: C 2/M
;
_chemical_formula_sum "Si O2"
_cell_formula_units_Z 56
_cell_length_a 25.881620
_cell_length_b 11.848972
_cell_length_c 26.068499
_cell_angle_alpha 90.000000
_cell_angle_beta 159.391643
_cell_angle_gamma 90.000000
_cell_volume 2813.869106
_symmetry_space_group_name_H-M "C 2/M"
_symmetry_group_IT_number 12
_symmetry_cell_setting 'monoclinic'
loop_
_space_group_symop_operation_xyz
x,y,z
-x,y,-z
-x,-y,-z
x,-y,z
1/2+x,1/2+y,z
1/2-x,1/2+y,-z
1/2-x,1/2-y,-z
1/2+x,1/2-y,z
loop_
_atom_site_type_symbol
_atom_site_label
_atom_site_fract_x
_atom_site_fract_y
_atom_site_fract_z
Si Si1 0.563637 0.131643 0.195276
Si Si2 0.806631 0.876646 0.785390
Si Si3 0.690973 0.628884 0.420094
Si Si4 0.323341 0.799465 0.436894
Si Si5 0.598523 0.869329 0.743503
Si Si6 0.111419 0.791771 0.035902
Si Si7 0.922295 0.731756 0.166442
O O1 0.724526 0.187625 0.341911
O O2 0.490128 0.171087 0.180075
O O3 0.574117 0.000000 0.202632
O O4 0.460477 0.180388 0.054373
O O5 0.695619 0.855637 0.636128
O O6 0.814250 0.788209 0.838946
O O7 0.781305 0.000000 0.784972
O O8 0.968647 0.870821 0.910536
O O9 0.723246 0.500000 0.470062
O O10 0.750000 0.750000 0.500000
O O11 0.748500 0.633197 0.414893
O O12 0.516428 0.653198 0.259706
O O13 0.491975 0.793069 0.609640
O O14 0.767000 0.839590 0.889306
O O15 0.558262 0.842931 0.764615
O O16 0.571483 0.000000 0.706424
O O17 0.750000 0.750000 0.000000
#
# Coordination Sequence:
#
# PCOD9189758 Si02
#       7
#     8   8   8   8   8   8   8
#     4  10  22  42  63  85 123 169 211 256 305 363
#     4  10  19  38  62  88 122 159 198 254 311 371
#     4  11  23  40  63  91 126 168 208 250 307 374
#     4  10  23  39  58  90 124 161 210 248 306 371
#     4  12  22  37  60  91 128 159 195 257 315 368
#     4  10  21  37  59  91 118 153 206 247 307 371
#     4  11  23  41  57  91 125 161 209 252 308 368
#
# _framework density 19.901423000000001
#
# number of rings (size 3 to 8) (size 9 to 14) (size 15 to 20)
#    0.000    1.429    2.857    3.429    0.000    4.000 
#    0.000    7.857    0.000    0.000    0.000   10.000 
#    0.000    0.000    0.000    0.000    0.000    0.000 
#
# Total GULP energy -156157.055941 kJ/mol
# GULP energy per Si atom -5577.037712 kJ/mol
# Density = 1.985613 g / cm^3
# Si number density = 19.901423 Si / 1000 Ang^3
#
#
#
# Elastic Constant Matrix: (Units=GPa)
#
#
# Indices 1 2 3 4 5 6 
#
# 1 60.4857 27.2796 10.9054 0.0012 -13.8370 0.0005
# 2 27.2796 137.5314 38.9625 0.0027 -8.5153 0.0011
# 3 10.9054 38.9625 83.8351 0.0042 -12.3412 0.0021
# 4 0.0012 0.0027 0.0042 13.6255 0.0011 -2.3167
# 5 -13.8370 -8.5153 -12.3412 0.0011 40.9837 0.0003
# 6 0.0005 0.0011 0.0021 -2.3167 0.0003 12.2474
#
#
#
# Elastic Compliance Matrix: (Units=1/GPa)
#
#
# Indices 1 2 3 4 5 6 
#
# 1 0.019445 -0.003481 -0.000054 -0.000002 0.005826 -0.000001
# 2 -0.003481 0.009011 -0.003801 0.000000 -0.000448 0.000000
# 3 -0.000054 -0.003801 0.014213 -0.000004 0.003472 -0.000003
# 4 -0.000002 0.000000 -0.000004 0.075831 -0.000004 0.014344
# 5 0.005826 -0.000448 0.003472 -0.000004 0.027319 -0.000002
# 6 -0.000001 0.000000 -0.000003 0.014344 -0.000002 0.084363
#
#
# Mechanical properties :
#
#
# Convention : Reuss Voigt Hill
#
# Bulk Modulus (GPa) = 35.71836 48.46080 42.08958
# Shear Modulus (GPa) = 19.67065 27.01829 23.34447
#
# Velocity S-wave (km/s) = 3.14730 3.68857 3.42863
# Velocity P-wave (km/s) = 5.58515 6.52258 6.07198
#
# Compressibility (1/GPa) = 0.02799681
#
# Stress axis : x y z
#
# Youngs Moduli (GPa) = 51.42650 110.98089 70.35957
#
# Poissons Ratio (x) = 0.38632 0.00381
# Poissons Ratio (y) = 0.17901 0.26742
# Poissons Ratio (z) = 0.00278 0.42181
#
# Static dielectric constant tensor:
#      x y z
#    x 1.725920 0.000000 -0.024500 
#    y 0.000000 1.679170 0.000000 
#    z -0.024500 0.000000 1.756170 
# 
# From -- ./inp_files/369426.got.cif
#   From: 2010.05.17/outbox.cif.g08.bks.cpg/sg12_185_cif.got.tgz:369426.got - 2010.06.03 13:09:07.
