data_PCOD9189735
_publ_section_title
;
Structure prediction by ZEFSAII (Michael W. Deem and Ramdas Pophale) SiO2 
 PCOD9189735
Probable space group: C 2/M
;
_chemical_formula_sum "Si O2"
_cell_formula_units_Z 58
_cell_length_a 25.417933
_cell_length_b 19.106938
_cell_length_c 9.178642
_cell_angle_alpha 90.000000
_cell_angle_beta 145.470387
_cell_angle_gamma 90.000000
_cell_volume 2526.761189
_symmetry_space_group_name_H-M "C 2/M"
_symmetry_group_IT_number 12
_symmetry_cell_setting 'monoclinic'
loop_
_space_group_symop_operation_xyz
x,y,z
-x,y,-z
-x,-y,-z
x,-y,z
1/2+x,1/2+y,z
1/2-x,1/2+y,-z
1/2-x,1/2-y,-z
1/2+x,1/2-y,z
loop_
_atom_site_type_symbol
_atom_site_label
_atom_site_fract_x
_atom_site_fract_y
_atom_site_fract_z
Si Si1 0.500000 0.000000 0.500000
Si Si2 0.680982 0.902532 0.973210
Si Si3 0.073148 0.921731 0.975253
Si Si4 0.401464 0.757431 0.222239
Si Si5 0.242486 0.861476 0.555607
Si Si6 0.680118 0.209164 0.533244
Si Si7 0.818995 0.878022 0.054776
Si Si8 0.495778 0.278444 0.818012
O O1 0.416689 0.059780 0.281093
O O2 0.669983 0.819080 0.924502
O O3 0.761774 0.920580 0.042640
O O4 0.715459 0.907948 0.218668
O O5 0.155277 0.896747 0.273097
O O6 0.119127 0.919771 0.919301
O O7 0.042116 0.000000 0.937116
O O8 0.993258 0.862708 0.797483
O O9 0.500000 0.783126 0.500000
O O10 0.417160 0.740458 0.085677
O O11 0.381917 0.684848 0.260461
O O12 0.318676 0.840098 0.607224
O O13 0.208863 0.786857 0.544649
O O14 0.748289 0.168516 0.796116
O O15 0.586421 0.225168 0.405956
O O16 0.500000 0.266208 0.000000
#
# Coordination Sequence:
#
# PCOD9189735 Si02
#       8
#     2   8   8   8   8   8   8   8
#     4  12  32  44  60  94 138 174 224 258 318 388
#     4  12  24  44  64  90 130 174 215 265 321 387
#     4  10  23  42  61  90 129 173 213 252 322 402
#     4  11  22  37  64 100 126 155 210 276 324 377
#     4  10  21  38  67  93 124 161 214 268 317 392
#     4  10  19  38  62 100 129 153 210 273 336 374
#     4  10  23  40  69  93 123 171 212 271 333 382
#     4  11  21  35  60  94 131 162 198 271 321 377
#
# _framework density 22.954287000000001
#
# number of rings (size 3 to 8) (size 9 to 14) (size 15 to 20)
#    0.000    1.379    3.448    2.069    3.862    0.276 
#    0.000    0.000    0.000    9.931    0.000    0.000 
#    0.000    0.000    0.000    0.000    0.000    0.000 
#
# Total GULP energy -161637.904967 kJ/mol
# GULP energy per Si atom -5573.720861 kJ/mol
# Density = 2.290204 g / cm^3
# Si number density = 22.954287 Si / 1000 Ang^3
#
#
#
# Elastic Constant Matrix: (Units=GPa)
#
#
# Indices 1 2 3 4 5 6 
#
# 1 141.6131 13.5405 21.5227 0.0000 -5.7144 0.0000
# 2 13.5405 91.6711 -1.6757 0.0000 -3.2704 0.0000
# 3 21.5227 -1.6757 47.1391 0.0000 -10.1174 0.0000
# 4 0.0000 0.0000 0.0000 17.4492 0.0000 8.3352
# 5 -5.7144 -3.2704 -10.1174 0.0000 33.0312 0.0000
# 6 0.0000 0.0000 0.0000 8.3352 0.0000 -1.1831
#
#
#
# Elastic Compliance Matrix: (Units=1/GPa)
#
#
# Indices 1 2 3 4 5 6 
#
# 1 0.007719 -0.001200 -0.003539 0.000000 0.000133 0.000000
# 2 -0.001200 0.011153 0.001217 0.000000 0.001269 0.000000
# 3 -0.003539 0.001217 0.024369 0.000000 0.006973 0.000000
# 4 0.000000 0.000000 0.000000 0.013128 0.000000 0.092490
# 5 0.000133 0.001269 0.006973 0.000000 0.032559 0.000000
# 6 0.000000 0.000000 0.000000 0.092490 0.000000 -0.193622
#
#
# Mechanical properties :
#
#
# Convention : Reuss Voigt Hill
#
# Bulk Modulus (GPa) = 27.62575 38.57760 33.10167
# Shear Modulus (GPa) = -58.42283 26.32852 -16.04716
#
# Velocity S-wave (km/s) = -5.05045 3.39041 -2.64690
# Velocity P-wave (km/s) = 4.68489 5.67180 2.26065
#
# Compressibility (1/GPa) = 0.03619811
#
# Stress axis : x y z
#
# Youngs Moduli (GPa) = 129.54328 89.65902 41.03528
#
# Poissons Ratio (x) = 0.10761 0.14521
# Poissons Ratio (y) = 0.15547 -0.04994
# Poissons Ratio (z) = 0.45841 -0.10911
#
# Static dielectric constant tensor:
#      x y z
#    x 1.881310 0.000000 -0.013890 
#    y 0.000000 1.861590 0.000000 
#    z -0.013890 0.000000 1.997990 
# 
# From -- ./inp_files/99308.got.cif
#   From: 2010.05.17/outbox.cif.g08.bks.cpg/sg12_50_cif.got.tgz:99308.got - 2010.06.03 13:09:07.
