data_PCOD9189493
_publ_section_title
;
Structure prediction by ZEFSAII (Michael W. Deem and Ramdas Pophale) SiO2 
 PCOD9189493
Probable space group: C 2/M
;
_chemical_formula_sum "Si O2"
_cell_formula_units_Z 40
_cell_length_a 9.891342
_cell_length_b 24.409347
_cell_length_c 18.441468
_cell_angle_alpha 90.000000
_cell_angle_beta 21.358133
_cell_angle_gamma 90.000000
_cell_volume 1621.595222
_symmetry_space_group_name_H-M "C 2/M"
_symmetry_group_IT_number 12
_symmetry_cell_setting 'monoclinic'
loop_
_space_group_symop_operation_xyz
x,y,z
-x,y,-z
-x,-y,-z
x,-y,z
1/2+x,1/2+y,z
1/2-x,1/2+y,-z
1/2-x,1/2-y,-z
1/2+x,1/2-y,z
loop_
_atom_site_type_symbol
_atom_site_label
_atom_site_fract_x
_atom_site_fract_y
_atom_site_fract_z
Si Si1 0.237244 0.000000 0.201524
Si Si2 0.166322 0.883333 0.588544
Si Si3 0.887759 0.805227 0.850926
Si Si4 0.619084 0.187752 0.764308
Si Si5 0.887977 0.610862 0.763378
Si Si6 0.439086 0.000000 0.800422
O O1 0.996091 0.055675 0.320804
O O2 0.477337 0.000000 0.155986
O O3 0.500000 0.000000 0.000000
O O4 0.555221 0.888050 0.351043
O O5 0.092963 0.849345 0.698456
O O6 0.924404 0.847432 0.653080
O O7 0.142274 0.752722 0.741382
O O8 0.500000 0.790113 0.000000
O O9 0.735335 0.822341 0.005818
O O10 0.559511 0.163776 0.715113
O O11 0.088976 0.555071 0.688978
O O12 0.500000 0.607943 0.000000
O O13 0.000000 0.000000 0.000000
#
# Coordination Sequence:
#
# PCOD9189493 Si02
#       6
#     4   8   8   8   8   4
#     4  12  23  41  76 110 139 178 228 295 352 417
#     4  11  23  39  66 101 130 172 236 284 337 418
#     4   9  20  38  60  93 131 170 217 280 346 406
#     4  10  19  37  64  89 127 171 216 279 341 410
#     4  11  23  40  62  91 133 178 224 280 342 408
#     4  10  23  41  67 100 140 181 227 276 357 416
#
# _framework density 24.667068
#
# number of rings (size 3 to 8) (size 9 to 14) (size 15 to 20)
#    0.000    1.600    2.000    3.600    0.000    1.600 
#    0.000    5.000    0.000    2.400    0.000    0.000 
#    0.000    0.000    0.000    0.000    0.000    0.000 
#
# Total GULP energy -111704.620408 kJ/mol
# GULP energy per Si atom -5585.231020 kJ/mol
# Density = 2.461092 g / cm^3
# Si number density = 24.667068 Si / 1000 Ang^3
#
#
#
# Elastic Constant Matrix: (Units=GPa)
#
#
# Indices 1 2 3 4 5 6 
#
# 1 92.1308 63.3182 49.7590 -0.2189 40.5076 0.0329
# 2 63.3182 152.1223 77.6335 -0.1097 29.5929 0.0439
# 3 49.7590 77.6335 160.4928 -0.8435 49.4210 0.0454
# 4 -0.2189 -0.1097 -0.8435 9.4843 0.1201 17.9774
# 5 40.5076 29.5929 49.4210 0.1201 58.9261 -0.0282
# 6 0.0329 0.0439 0.0454 17.9774 -0.0282 40.3811
#
#
#
# Elastic Compliance Matrix: (Units=1/GPa)
#
#
# Indices 1 2 3 4 5 6 
#
# 1 0.019695 -0.006231 0.000183 0.003616 -0.010571 -0.001626
# 2 -0.006231 0.010760 -0.003968 -0.002556 0.002214 0.001137
# 3 0.000183 -0.003968 0.010188 0.006224 -0.006691 -0.002783
# 4 0.003616 -0.002556 0.006224 0.679963 -0.007952 -0.302727
# 5 -0.010571 0.002214 -0.006691 -0.007952 0.028755 0.003574
# 6 -0.001626 0.001137 -0.002783 -0.302727 0.003574 0.159542
#
#
# Mechanical properties :
#
#
# Convention : Reuss Voigt Hill
#
# Bulk Modulus (GPa) = 48.52440 87.35194 67.93817
# Shear Modulus (GPa) = 5.34299 36.02732 20.68515
#
# Velocity S-wave (km/s) = 1.47334 3.82585 2.89896
# Velocity P-wave (km/s) = 4.75487 7.41656 6.22953
#
# Compressibility (1/GPa) = 0.02060819
#
# Stress axis : x y z
#
# Youngs Moduli (GPa) = 50.77408 92.94003 98.15918
#
# Poissons Ratio (x) = 0.57915 -0.01792
# Poissons Ratio (y) = 0.31640 0.38951
# Poissons Ratio (z) = -0.00927 0.36880
#
# Static dielectric constant tensor:
#      x y z
#    x 1.957730 -0.000060 -0.075280 
#    y -0.000060 2.028660 0.000550 
#    z -0.075280 0.000550 2.051740 
# 
# From -- ./inp_files/307192.got.cif
#   From: 2010.05.17/outbox.cif.g08.bks.cpg/sg12_154_cif.got.tgz:307192.got - 2010.06.03 13:09:07.
