data_PCOD9189514
_publ_section_title
;
Structure prediction by ZEFSAII (Michael W. Deem and Ramdas Pophale) SiO2 
 PCOD9189514
Probable space group: C 2/M
;
_chemical_formula_sum "Si O2"
_cell_formula_units_Z 40
_cell_length_a 20.262503
_cell_length_b 20.296078
_cell_length_c 6.398445
_cell_angle_alpha 90.000000
_cell_angle_beta 128.442679
_cell_angle_gamma 90.000000
_cell_volume 2060.958646
_symmetry_space_group_name_H-M "C 2/M"
_symmetry_group_IT_number 12
_symmetry_cell_setting 'monoclinic'
loop_
_space_group_symop_operation_xyz
x,y,z
-x,y,-z
-x,-y,-z
x,-y,z
1/2+x,1/2+y,z
1/2-x,1/2+y,-z
1/2-x,1/2-y,-z
1/2+x,1/2-y,z
loop_
_atom_site_type_symbol
_atom_site_label
_atom_site_fract_x
_atom_site_fract_y
_atom_site_fract_z
Si Si1 0.728389 0.500000 0.787342
Si Si2 0.900503 0.000000 0.854686
Si Si3 0.862586 0.638818 0.422232
Si Si4 0.399616 0.000000 0.287471
Si Si5 0.911426 0.754778 0.212074
Si Si6 0.000000 0.695760 0.000000
Si Si7 0.817733 0.110925 0.966517
O O1 0.665453 0.500000 0.468214
O O2 0.831023 0.500000 0.959661
O O3 0.706857 0.564120 0.886517
O O4 0.876961 0.934851 0.941236
O O5 0.000000 0.000000 0.000000
O O6 0.878339 0.567089 0.362305
O O7 0.867778 0.694018 0.249005
O O8 0.767684 0.633454 0.320553
O O9 0.937194 0.654789 0.729380
O O10 0.500000 0.000000 0.500000
O O11 0.937812 0.736614 0.028067
O O12 0.000000 0.765166 0.500000
O O13 0.860340 0.821837 0.121740
#
# Coordination Sequence:
#
# PCOD9189514 Si02
#       7
#     4   4   8   4   8   4   8
#     4   9  23  42  59  89 126 156 203 257 301 368
#     4  11  26  39  63  96 124 158 214 254 304 367
#     4  10  22  40  58  90 122 159 205 250 305 372
#     4  10  19  37  65  85 115 158 195 239 313 362
#     4  10  22  38  61  87 121 163 207 251 306 363
#     4  10  22  37  58  91 126 150 206 258 296 367
#     4  10  23  40  62  88 122 165 206 250 310 362
#
# _framework density 19.408443999999999
#
# number of rings (size 3 to 8) (size 9 to 14) (size 15 to 20)
#    0.000    2.000    0.000    3.000    4.200    8.400 
#    0.000    1.000    0.000    0.000    0.000    0.000 
#    0.000    0.000    0.000    0.000    0.000    0.000 
#
# Total GULP energy -111438.933943 kJ/mol
# GULP energy per Si atom -5571.946697 kJ/mol
# Density = 1.936427 g / cm^3
# Si number density = 19.408444 Si / 1000 Ang^3
#
#
#
# Elastic Constant Matrix: (Units=GPa)
#
#
# Indices 1 2 3 4 5 6 
#
# 1 95.1928 46.9727 25.0122 0.0000 26.8408 0.0000
# 2 46.9727 165.9346 39.3670 0.0000 7.6548 0.0000
# 3 25.0122 39.3670 65.1296 0.0000 6.0869 0.0000
# 4 0.0000 0.0000 0.0000 17.6532 0.0000 7.8488
# 5 26.8408 7.6548 6.0869 0.0000 32.9384 0.0000
# 6 0.0000 0.0000 0.0000 7.8488 0.0000 22.0394
#
#
#
# Elastic Compliance Matrix: (Units=1/GPa)
#
#
# Indices 1 2 3 4 5 6 
#
# 1 0.016349 -0.003329 -0.003148 0.000000 -0.011967 0.000000
# 2 -0.003329 0.007738 -0.003545 0.000000 0.001570 0.000000
# 3 -0.003148 -0.003545 0.018712 0.000000 -0.000069 0.000000
# 4 0.000000 0.000000 0.000000 0.067303 0.000000 -0.023969
# 5 -0.011967 0.001570 -0.000069 0.000000 0.039759 0.000000
# 6 0.000000 0.000000 0.000000 -0.023969 0.000000 0.053909
#
#
# Mechanical properties :
#
#
# Convention : Reuss Voigt Hill
#
# Bulk Modulus (GPa) = 43.94747 60.99565 52.47156
# Shear Modulus (GPa) = 21.60759 28.85322 25.23040
#
# Velocity S-wave (km/s) = 3.34025 3.85987 3.60942
# Velocity P-wave (km/s) = 6.12935 7.16662 6.66818
#
# Compressibility (1/GPa) = 0.02275444
#
# Stress axis : x y z
#
# Youngs Moduli (GPa) = 61.16488 129.24015 53.44117
#
# Poissons Ratio (x) = 0.43027 0.16823
# Poissons Ratio (y) = 0.20363 0.18945
# Poissons Ratio (z) = 0.19255 0.45816
#
# Static dielectric constant tensor:
#      x y z
#    x 1.846300 0.000000 0.036550 
#    y 0.000000 1.613130 0.000000 
#    z 0.036550 0.000000 1.728630 
# 
# From -- ./inp_files/21150.got.cif
#   From: 2010.05.17/outbox.cif.g08.bks.cpg/sg12_11_cif.got.tgz:21150.got - 2010.06.03 13:09:07.
