data_PCOD9189119
_publ_section_title
;
Structure prediction by ZEFSAII (Michael W. Deem and Ramdas Pophale) SiO2 
 PCOD9189119
Probable space group: C 2/M
;
_chemical_formula_sum "Si O2"
_cell_formula_units_Z 64
_cell_length_a 26.188708
_cell_length_b 22.676968
_cell_length_c 11.955510
_cell_angle_alpha 90.000000
_cell_angle_beta 30.143601
_cell_angle_gamma 90.000000
_cell_volume 3565.471986
_symmetry_space_group_name_H-M "C 2/M"
_symmetry_group_IT_number 12
_symmetry_cell_setting 'monoclinic'
loop_
_space_group_symop_operation_xyz
x,y,z
-x,y,-z
-x,-y,-z
x,-y,z
1/2+x,1/2+y,z
1/2-x,1/2+y,-z
1/2-x,1/2-y,-z
1/2+x,1/2-y,z
loop_
_atom_site_type_symbol
_atom_site_label
_atom_site_fract_x
_atom_site_fract_y
_atom_site_fract_z
Si Si1 0.017813 0.434928 0.731621
Si Si2 0.401155 0.120626 0.758770
Si Si3 0.230642 0.273991 0.912682
Si Si4 0.097852 0.796975 0.580374
Si Si5 0.063522 0.676348 0.776383
Si Si6 0.727167 0.931817 0.198885
Si Si7 0.781244 0.181110 0.434636
Si Si8 0.370678 0.333932 0.025854
O O1 0.004858 0.500000 0.805731
O O2 0.004841 0.379093 0.836178
O O3 0.132003 0.429646 0.465266
O O4 0.943677 0.426647 0.766086
O O5 0.500000 0.140658 0.500000
O O6 0.319245 0.094346 0.827811
O O7 0.350746 0.174081 0.920773
O O8 0.334372 0.295503 0.658729
O O9 0.187230 0.222294 0.916996
O O10 0.250000 0.250000 0.000000
O O11 0.080588 0.729056 0.655369
O O12 0.161987 0.829423 0.556721
O O13 0.988745 0.826729 0.774493
O O14 0.171882 0.652815 0.616291
O O15 0.000000 0.702101 0.000000
O O16 0.816751 0.891099 0.075946
O O17 0.756229 0.000000 0.129896
O O18 0.750000 0.250000 0.500000
O O19 0.852156 0.168663 0.194143
#
# Coordination Sequence:
#
# PCOD9189119 Si02
#       8
#     8   8   8   8   8   8   8   8
#     4  10  20  36  59  85 114 152 197 244 293 346
#     4  10  22  36  59  86 119 155 194 238 295 357
#     4  12  24  36  57  91 126 149 185 241 300 352
#     4  11  24  37  59  88 119 156 194 235 296 360
#     4  11  21  35  60  86 120 155 190 237 299 353
#     4  10  20  39  60  83 114 156 204 246 280 341
#     4  10  19  37  57  84 117 151 192 232 287 352
#     4  12  21  38  61  87 117 153 198 240 291 350
#
# _framework density 17.949938
#
# number of rings (size 3 to 8) (size 9 to 14) (size 15 to 20)
#    0.000    1.250    5.000    3.000    5.250    1.750 
#    0.000    0.000    0.000    4.500    0.000    0.000 
#    0.000    0.000    0.000    0.000    0.000    0.000 
#
# Total GULP energy -178666.808839 kJ/mol
# GULP energy per Si atom -5583.337776 kJ/mol
# Density = 1.790908 g / cm^3
# Si number density = 17.949938 Si / 1000 Ang^3
#
#
#
# Elastic Constant Matrix: (Units=GPa)
#
#
# Indices 1 2 3 4 5 6 
#
# 1 89.9081 23.5363 43.1826 0.0000 -5.8759 0.0000
# 2 23.5363 90.4089 28.6893 0.0000 -2.4788 0.0000
# 3 43.1826 28.6893 111.5115 0.0000 0.3999 0.0000
# 4 0.0000 0.0000 0.0000 17.6134 0.0000 -1.2098
# 5 -5.8759 -2.4788 0.3999 0.0000 29.6246 0.0000
# 6 0.0000 0.0000 0.0000 -1.2098 0.0000 14.2354
#
#
#
# Elastic Compliance Matrix: (Units=1/GPa)
#
#
# Indices 1 2 3 4 5 6 
#
# 1 0.014235 -0.002046 -0.004996 0.000000 0.002720 0.000000
# 2 -0.002046 0.012371 -0.002393 0.000000 0.000662 0.000000
# 3 -0.004996 -0.002393 0.011523 0.000000 -0.001347 0.000000
# 4 0.000000 0.000000 0.000000 0.057108 0.000000 0.004853
# 5 0.002720 0.000662 -0.001347 0.000000 0.034369 0.000000
# 6 0.000000 0.000000 0.000000 0.004853 0.000000 0.070660
#
#
# Mechanical properties :
#
#
# Convention : Reuss Voigt Hill
#
# Bulk Modulus (GPa) = 51.92229 53.62720 52.77475
# Shear Modulus (GPa) = 22.16747 25.38935 23.77841
#
# Velocity S-wave (km/s) = 3.51801 3.76500 3.64360
# Velocity P-wave (km/s) = 6.74469 6.98864 6.86775
#
# Compressibility (1/GPa) = 0.01925955
#
# Stress axis : x y z
#
# Youngs Moduli (GPa) = 70.24747 80.83457 86.78427
#
# Poissons Ratio (x) = 0.16539 0.43357
# Poissons Ratio (y) = 0.14372 0.20766
# Poissons Ratio (z) = 0.35096 0.19342
#
# Static dielectric constant tensor:
#      x y z
#    x 1.655150 0.000000 -0.008330 
#    y 0.000000 1.606670 0.000000 
#    z -0.008330 0.000000 1.620590 
# 
# From -- ./inp_files/184673.got.cif
#   From: 2010.05.17/outbox.cif.g08.bks.cpg/sg12_93_cif.got.tgz:184673.got - 2010.06.03 13:09:07.
