data_PCOD9189951
_publ_section_title
;
Structure prediction by ZEFSAII (Michael W. Deem and Ramdas Pophale) SiO2 
 PCOD9189951
Probable space group: C 2/M
;
_chemical_formula_sum "Si O2"
_cell_formula_units_Z 48
_cell_length_a 19.420828
_cell_length_b 14.484420
_cell_length_c 10.000289
_cell_angle_alpha 90.000000
_cell_angle_beta 109.786632
_cell_angle_gamma 90.000000
_cell_volume 2646.990978
_symmetry_space_group_name_H-M "C 2/M"
_symmetry_group_IT_number 12
_symmetry_cell_setting 'monoclinic'
loop_
_space_group_symop_operation_xyz
x,y,z
-x,y,-z
-x,-y,-z
x,-y,z
1/2+x,1/2+y,z
1/2-x,1/2+y,-z
1/2-x,1/2-y,-z
1/2+x,1/2-y,z
loop_
_atom_site_type_symbol
_atom_site_label
_atom_site_fract_x
_atom_site_fract_y
_atom_site_fract_z
Si Si1 0.344881 0.749866 0.708031
Si Si2 0.524364 0.108504 0.167628
Si Si3 0.321676 0.299237 0.388391
Si Si4 0.423598 0.601877 0.272153
Si Si5 0.448719 0.798891 0.348306
Si Si6 0.913318 0.106634 0.955858
O O1 0.405185 0.830505 0.749692
O O2 0.340091 0.705128 0.557267
O O3 0.264420 0.789350 0.685780
O O4 0.368921 0.675265 0.833612
O O5 0.460475 0.141338 0.225457
O O6 0.538634 0.000000 0.192408
O O7 0.500000 0.126647 0.000000
O O8 0.358249 0.385232 0.335563
O O9 0.366577 0.214970 0.347492
O O10 0.457491 0.500000 0.305009
O O11 0.473022 0.692151 0.332196
O O12 0.395676 0.613575 0.101944
O O13 0.500000 0.834813 0.500000
O O14 0.902726 0.000000 0.907939
O O15 0.000000 0.127115 0.000000
#
# Coordination Sequence:
#
# PCOD9189951 Si02
#       6
#     8   8   8   8   8   8
#     4  11  20  41  59  82 121 153 194 239 289 350
#     4  11  23  39  62  87 112 154 202 242 287 341
#     4   9  23  36  58  86 116 154 194 232 294 343
#     4   9  19  35  55  84 116 145 187 232 285 341
#     4  10  19  39  57  84 117 149 195 239 287 337
#     4  10  21  35  58  88 115 150 188 233 291 347
#
# _framework density 18.133799
#
# number of rings (size 3 to 8) (size 9 to 14) (size 15 to 20)
#    1.000    1.000    1.667    2.500    0.000    2.667 
#    0.000    3.333    0.000    0.000    0.000    0.000 
#    0.000    0.000    0.000    0.000    0.000    0.000 
#
# Total GULP energy -133733.134084 kJ/mol
# GULP energy per Si atom -5572.213920 kJ/mol
# Density = 1.809253 g / cm^3
# Si number density = 18.133799 Si / 1000 Ang^3
#
#
#
# Elastic Constant Matrix: (Units=GPa)
#
#
# Indices 1 2 3 4 5 6 
#
# 1 55.4271 -1.6762 11.1435 0.0000 -5.6893 0.0000
# 2 -1.6762 55.3518 33.9187 0.0000 -1.9530 0.0000
# 3 11.1435 33.9187 85.5600 0.0000 -13.9416 0.0000
# 4 0.0000 0.0000 0.0000 -4.7679 0.0000 -7.2887
# 5 -5.6893 -1.9530 -13.9416 0.0000 28.0724 0.0000
# 6 0.0000 0.0000 0.0000 -7.2887 0.0000 17.7646
#
#
#
# Elastic Compliance Matrix: (Units=1/GPa)
#
#
# Indices 1 2 3 4 5 6 
#
# 1 0.018994 0.002549 -0.003077 0.000000 0.002499 0.000000
# 2 0.002549 0.024491 -0.010531 0.000000 -0.003010 0.000000
# 3 -0.003077 -0.010531 0.017455 0.000000 0.007312 0.000000
# 4 0.000000 0.000000 0.000000 -0.128892 0.000000 -0.052884
# 5 0.002499 -0.003010 0.007312 0.000000 0.039551 0.000000
# 6 0.000000 0.000000 0.000000 -0.052884 0.000000 0.034594
#
#
# Mechanical properties :
#
#
# Convention : Reuss Voigt Hill
#
# Bulk Modulus (GPa) = 25.75955 31.45677 28.60816
# Shear Modulus (GPa) = 121.21061 18.41069 69.81065
#
# Velocity S-wave (km/s) = 8.18459 3.18979 6.21137
# Velocity P-wave (km/s) = 10.17609 5.56336 8.20072
#
# Compressibility (1/GPa) = 0.03882056
#
# Stress axis : x y z
#
# Youngs Moduli (GPa) = 52.64842 40.83196 57.29051
#
# Poissons Ratio (x) = -0.10408 0.17629
# Poissons Ratio (y) = -0.13420 0.60334
# Poissons Ratio (z) = 0.16201 0.43001
#
# Static dielectric constant tensor:
#      x y z
#    x 1.619550 0.000000 -0.026950 
#    y 0.000000 1.621190 0.000000 
#    z -0.026950 0.000000 1.619920 
# 
# From -- ./inp_files/85956.got.cif
#   From: 2010.05.17/outbox.cif.g08.bks.cpg/sg12_43_cif.got.tgz:85956.got - 2010.06.03 13:09:07.
