data_PCOD9189483
_publ_section_title
;
Structure prediction by ZEFSAII (Michael W. Deem and Ramdas Pophale) SiO2 
 PCOD9189483
Probable space group: C 2/M
;
_chemical_formula_sum "Si O2"
_cell_formula_units_Z 48
_cell_length_a 31.305214
_cell_length_b 8.354508
_cell_length_c 19.348682
_cell_angle_alpha 90.000000
_cell_angle_beta 154.526153
_cell_angle_gamma 90.000000
_cell_volume 2176.493818
_symmetry_space_group_name_H-M "C 2/M"
_symmetry_group_IT_number 12
_symmetry_cell_setting 'monoclinic'
loop_
_space_group_symop_operation_xyz
x,y,z
-x,y,-z
-x,-y,-z
x,-y,z
1/2+x,1/2+y,z
1/2-x,1/2+y,-z
1/2-x,1/2-y,-z
1/2+x,1/2-y,z
loop_
_atom_site_type_symbol
_atom_site_label
_atom_site_fract_x
_atom_site_fract_y
_atom_site_fract_z
Si Si1 0.528196 0.813129 0.382618
Si Si2 0.762191 0.000000 0.600981
Si Si3 0.072982 0.000000 0.355282
Si Si4 0.327351 0.808542 0.168642
Si Si5 0.005027 0.000000 0.101837
Si Si6 0.653074 0.255590 0.185659
Si Si7 0.191641 0.500000 0.344485
Si Si8 0.227370 0.312331 0.760408
O O1 0.545141 0.665406 0.354214
O O2 0.434681 0.769513 0.294535
O O3 0.621518 0.817908 0.569460
O O4 0.515284 0.000000 0.336539
O O5 0.756417 0.855082 0.645592
O O6 0.698964 0.000000 0.438550
O O7 0.879275 0.000000 0.751094
O O8 0.192516 0.000000 0.512291
O O9 0.012745 0.000000 0.195397
O O10 0.291714 0.748349 0.191101
O O11 0.325993 0.000000 0.173780
O O12 0.250000 0.750000 0.000000
O O13 0.941915 0.146299 0.978458
O O14 0.701750 0.204897 0.184400
O O15 0.634445 0.142532 0.223126
O O16 0.265666 0.500000 0.816903
#
# Coordination Sequence:
#
# PCOD9189483 Si02
#       8
#     8   4   4   8   4   8   4   8
#     4  10  22  41  62  91 127 169 221 272 326 380
#     4  10  22  43  68  90 125 172 215 265 332 401
#     4  11  23  42  67  97 133 173 220 280 321 389
#     4  10  23  39  58  88 125 167 217 267 322 387
#     4  10  24  41  66  93 132 174 213 258 340 395
#     4  11  20  39  63  95 123 168 210 263 324 396
#     4  11  23  40  63 103 129 155 223 274 319 393
#     4  10  19  37  64  86 119 165 212 258 325 377
#
# _framework density 22.053819000000001
#
# number of rings (size 3 to 8) (size 9 to 14) (size 15 to 20)
#    0.000    1.667    3.333    2.000    3.500    2.000 
#    4.500    2.500    0.000    0.000    0.000    0.000 
#    0.000    0.000    0.000    0.000    0.000    0.000 
#
# Total GULP energy -133720.146126 kJ/mol
# GULP energy per Si atom -5571.672755 kJ/mol
# Density = 2.200362 g / cm^3
# Si number density = 22.053819 Si / 1000 Ang^3
#
#
#
# Elastic Constant Matrix: (Units=GPa)
#
#
# Indices 1 2 3 4 5 6 
#
# 1 156.4866 28.9539 66.7555 0.0000 -27.7469 0.0000
# 2 28.9539 65.1185 24.9148 0.0000 -23.2977 0.0000
# 3 66.7555 24.9148 117.7589 0.0000 -21.6070 0.0000
# 4 0.0000 0.0000 0.0000 21.9979 0.0000 6.8283
# 5 -27.7469 -23.2977 -21.6070 0.0000 49.6624 0.0000
# 6 0.0000 0.0000 0.0000 6.8283 0.0000 14.5175
#
#
#
# Elastic Compliance Matrix: (Units=1/GPa)
#
#
# Indices 1 2 3 4 5 6 
#
# 1 0.008928 -0.001451 -0.004308 0.000000 0.002433 0.000000
# 2 -0.001451 0.019403 -0.001914 0.000000 0.007459 0.000000
# 3 -0.004308 -0.001914 0.011664 0.000000 0.001770 0.000000
# 4 0.000000 0.000000 0.000000 0.053230 0.000000 -0.025037
# 5 0.002433 0.007459 0.001770 0.000000 0.025765 0.000000
# 6 0.000000 0.000000 0.000000 -0.025037 0.000000 0.080658
#
#
# Mechanical properties :
#
#
# Convention : Reuss Voigt Hill
#
# Bulk Modulus (GPa) = 40.56972 64.51248 52.54110
# Shear Modulus (GPa) = 22.40059 31.81822 27.10940
#
# Velocity S-wave (km/s) = 3.19050 3.80248 3.50985
# Velocity P-wave (km/s) = 5.65757 6.97096 6.34832
#
# Compressibility (1/GPa) = 0.02464893
#
# Stress axis : x y z
#
# Youngs Moduli (GPa) = 112.00973 51.53939 85.73736
#
# Poissons Ratio (x) = 0.07478 0.36932
# Poissons Ratio (y) = 0.16252 0.16410
# Poissons Ratio (z) = 0.48249 0.09865
#
# Static dielectric constant tensor:
#      x y z
#    x 1.871820 0.000000 0.043340 
#    y 0.000000 2.809640 0.000000 
#    z 0.043340 0.000000 1.750100 
# 
# From -- ./inp_files/295960.got.cif
#   From: 2010.05.17/outbox.cif.g08.bks.cpg/sg12_148_cif.got.tgz:295960.got - 2010.06.03 13:09:07.
