data_PCOD9189322
_publ_section_title
;
Structure prediction by ZEFSAII (Michael W. Deem and Ramdas Pophale) SiO2 
 PCOD9189322
Probable space group: C 2/M
;
_chemical_formula_sum "Si O2"
_cell_formula_units_Z 64
_cell_length_a 22.320010
_cell_length_b 19.835946
_cell_length_c 9.812016
_cell_angle_alpha 90.000000
_cell_angle_beta 54.150554
_cell_angle_gamma 90.000000
_cell_volume 3521.194559
_symmetry_space_group_name_H-M "C 2/M"
_symmetry_group_IT_number 12
_symmetry_cell_setting 'monoclinic'
loop_
_space_group_symop_operation_xyz
x,y,z
-x,y,-z
-x,-y,-z
x,-y,z
1/2+x,1/2+y,z
1/2-x,1/2+y,-z
1/2-x,1/2-y,-z
1/2+x,1/2-y,z
loop_
_atom_site_type_symbol
_atom_site_label
_atom_site_fract_x
_atom_site_fract_y
_atom_site_fract_z
Si Si1 0.694147 0.426457 0.914846
Si Si2 0.590838 0.305441 0.991205
Si Si3 0.327493 0.789549 0.910520
Si Si4 0.238718 0.576508 0.893585
Si Si5 0.576211 0.806156 0.482216
Si Si6 0.573005 0.689956 0.713107
Si Si7 0.800365 0.920257 0.507737
Si Si8 0.827825 0.422761 0.540108
O O1 0.664980 0.500000 0.914936
O O2 0.646572 0.367530 0.917751
O O3 0.776654 0.422230 0.744027
O O4 0.699233 0.420957 0.070672
O O5 0.590963 0.277609 0.837115
O O6 0.619662 0.251181 0.059191
O O7 0.511500 0.332112 0.147795
O O8 0.363177 0.792100 0.714557
O O9 0.250000 0.750000 0.000000
O O10 0.314923 0.863257 0.991664
O O11 0.207540 0.500000 0.939644
O O12 0.272818 0.587568 0.699655
O O13 0.500000 0.816019 0.500000
O O14 0.573110 0.743742 0.591019
O O15 0.605509 0.871267 0.526097
O O16 0.630868 0.629614 0.609547
O O17 0.731006 0.904285 0.500389
O O18 0.818438 0.000000 0.461785
O O19 0.852028 0.500000 0.484353
#
# Coordination Sequence:
#
# PCOD9189322 Si02
#       8
#     8   8   8   8   8   8   8   8
#     4  10  19  37  61  88 117 152 206 253 292 357
#     4  11  23  40  57  87 121 165 203 247 308 369
#     4  12  22  39  64  88 117 164 212 254 304 362
#     4  10  21  37  61  91 120 155 203 255 302 356
#     4  12  25  42  60  91 126 160 202 259 313 360
#     4  11  25  39  59  86 128 163 199 249 309 370
#     4  10  22  40  62  93 126 158 203 255 304 365
#     4  10  21  40  64  89 119 154 204 258 303 362
#
# _framework density 18.175650999999998
#
# number of rings (size 3 to 8) (size 9 to 14) (size 15 to 20)
#    0.000    1.250    5.000    0.750    1.750    1.250 
#    0.000    1.250    0.000    2.625    0.000    4.375 
#    0.000    0.000    0.000    0.000    0.000    0.000 
#
# Total GULP energy -178481.358063 kJ/mol
# GULP energy per Si atom -5577.542439 kJ/mol
# Density = 1.813428 g / cm^3
# Si number density = 18.175651 Si / 1000 Ang^3
#
#
#
# Elastic Constant Matrix: (Units=GPa)
#
#
# Indices 1 2 3 4 5 6 
#
# 1 91.7026 46.2876 29.8953 0.0000 9.1785 0.0000
# 2 46.2876 99.5452 30.2331 0.0000 -3.6173 0.0000
# 3 29.8953 30.2331 94.8995 0.0000 14.1259 0.0000
# 4 0.0000 0.0000 0.0000 19.7599 0.0000 9.9876
# 5 9.1785 -3.6173 14.1259 0.0000 28.6066 0.0000
# 6 0.0000 0.0000 0.0000 9.9876 0.0000 18.5450
#
#
#
# Elastic Compliance Matrix: (Units=1/GPa)
#
#
# Indices 1 2 3 4 5 6 
#
# 1 0.015446 -0.006751 -0.001997 0.000000 -0.004823 0.000000
# 2 -0.006751 0.014389 -0.003292 0.000000 0.005611 0.000000
# 3 -0.001997 -0.003292 0.013149 0.000000 -0.006268 0.000000
# 4 0.000000 0.000000 0.000000 0.069537 0.000000 -0.037450
# 5 -0.004823 0.005611 -0.006268 0.000000 0.040309 0.000000
# 6 0.000000 0.000000 0.000000 -0.037450 0.000000 0.074092
#
#
# Mechanical properties :
#
#
# Convention : Reuss Voigt Hill
#
# Bulk Modulus (GPa) = 52.90407 55.44212 54.17309
# Shear Modulus (GPa) = 19.43227 25.36438 22.39832
#
# Velocity S-wave (km/s) = 3.27331 3.73971 3.51426
# Velocity P-wave (km/s) = 6.59215 7.01548 6.80711
#
# Compressibility (1/GPa) = 0.01890214
#
# Stress axis : x y z
#
# Youngs Moduli (GPa) = 64.74019 69.49861 76.05391
#
# Poissons Ratio (x) = 0.46919 0.15189
# Poissons Ratio (y) = 0.43707 0.25041
# Poissons Ratio (z) = 0.12930 0.22882
#
# Static dielectric constant tensor:
#      x y z
#    x 1.632270 0.000000 0.023020 
#    y 0.000000 1.639700 0.000000 
#    z 0.023020 0.000000 1.624120 
# 
# From -- ./inp_files/89594.got.cif
#   From: 2010.05.17/outbox.cif.g08.bks.cpg/sg12_45_cif.got.tgz:89594.got - 2010.06.03 13:09:07.
