data_PCOD9189070
_publ_section_title
;
Structure prediction by ZEFSAII (Michael W. Deem and Ramdas Pophale) SiO2 
 PCOD9189070
Probable space group: C 2/M
;
_chemical_formula_sum "Si O2"
_cell_formula_units_Z 52
_cell_length_a 13.999372
_cell_length_b 9.473813
_cell_length_c 19.716125
_cell_angle_alpha 90.000000
_cell_angle_beta 57.561050
_cell_angle_gamma 90.000000
_cell_volume 2206.879271
_symmetry_space_group_name_H-M "C 2/M"
_symmetry_group_IT_number 12
_symmetry_cell_setting 'monoclinic'
loop_
_space_group_symop_operation_xyz
x,y,z
-x,y,-z
-x,-y,-z
x,-y,z
1/2+x,1/2+y,z
1/2-x,1/2+y,-z
1/2-x,1/2-y,-z
1/2+x,1/2-y,z
loop_
_atom_site_type_symbol
_atom_site_label
_atom_site_fract_x
_atom_site_fract_y
_atom_site_fract_z
Si Si1 0.083016 0.161339 0.409550
Si Si2 0.583613 0.338501 0.048245
Si Si3 0.335989 0.839146 0.741501
Si Si4 0.218585 0.500000 0.491599
Si Si5 0.176798 0.722927 0.615305
Si Si6 0.265777 0.160228 0.098572
Si Si7 0.915340 0.161153 0.224075
O O1 0.086864 0.255885 0.341511
O O2 0.208306 0.159830 0.394461
O O3 0.000000 0.216002 0.500000
O O4 0.048497 0.000000 0.407104
O O5 0.557529 0.500000 0.039313
O O6 0.686771 0.348088 0.062423
O O7 0.483251 0.280708 0.133812
O O8 0.625655 0.247591 0.968820
O O9 0.304848 0.746736 0.818826
O O10 0.215144 0.849214 0.748235
O O11 0.371627 0.000000 0.742966
O O12 0.153909 0.622661 0.561170
O O13 0.288775 0.376688 0.424076
O O14 0.084330 0.742420 0.709481
O O15 0.291077 0.000000 0.111580
O O16 0.956975 0.000000 0.221528
#
# Coordination Sequence:
#
# PCOD9189070 Si02
#       7
#     8   8   8   4   8   8   8
#     4  10  21  39  57  77 108 148 186 225 272 324
#     4   9  19  37  60  79 107 144 181 224 268 323
#     4  10  21  37  59  81 109 144 183 226 269 326
#     4  10  20  34  56  78 112 144 182 224 280 322
#     4  10  19  37  54  81 109 146 179 233 273 324
#     4  10  20  37  56  83 113 143 176 221 275 325
#     4   9  18  36  58  79 105 143 184 225 269 321
#
# _framework density 23.562684999999998
#
# number of rings (size 3 to 8) (size 9 to 14) (size 15 to 20)
#    0.000    2.308    1.538    0.923    1.077    1.538 
#    6.923    3.077    0.000    0.000    0.000    0.000 
#    0.000    0.000    0.000    0.000    0.000    0.000 
#
# Total GULP energy -144860.372736 kJ/mol
# GULP energy per Si atom -5571.552798 kJ/mol
# Density = 2.350905 g / cm^3
# Si number density = 23.562685 Si / 1000 Ang^3
#
#
#
# Elastic Constant Matrix: (Units=GPa)
#
#
# Indices 1 2 3 4 5 6 
#
# 1 37.3074 1.6774 15.6534 0.0000 0.1742 0.0000
# 2 1.6774 164.2522 108.9395 0.0000 30.5131 0.0000
# 3 15.6534 108.9395 252.2133 0.0000 7.2506 0.0000
# 4 0.0000 0.0000 0.0000 -3.2553 0.0000 7.2850
# 5 0.1742 30.5131 7.2506 0.0000 21.9352 0.0000
# 6 0.0000 0.0000 0.0000 7.2850 0.0000 -3.1684
#
#
#
# Elastic Compliance Matrix: (Units=1/GPa)
#
#
# Indices 1 2 3 4 5 6 
#
# 1 0.027731 0.001588 -0.002360 0.000000 -0.001650 0.000000
# 2 0.001588 0.012184 -0.004921 0.000000 -0.015335 0.000000
# 3 -0.002360 -0.004921 0.006097 0.000000 0.004848 0.000000
# 4 0.000000 0.000000 0.000000 0.074104 0.000000 0.170383
# 5 -0.001650 -0.015335 0.004848 0.000000 0.065332 0.000000
# 6 0.000000 0.000000 0.000000 0.170383 0.000000 0.076136
#
#
# Mechanical properties :
#
#
# Convention : Reuss Voigt Hill
#
# Bulk Modulus (GPa) = 28.87795 78.47929 53.67862
# Shear Modulus (GPa) = 17.57403 24.93581 21.25492
#
# Velocity S-wave (km/s) = 2.73397 3.25664 3.00669
# Velocity P-wave (km/s) = 4.71684 6.89347 5.90629
#
# Compressibility (1/GPa) = 0.03462850
#
# Stress axis : x y z
#
# Youngs Moduli (GPa) = 36.06112 82.07256 164.00610
#
# Poissons Ratio (x) = -0.13036 0.38701
# Poissons Ratio (y) = -0.05728 0.80700
# Poissons Ratio (z) = 0.08509 0.40384
#
# Static dielectric constant tensor:
#      x y z
#    x 2.000470 0.000000 -0.013370 
#    y 0.000000 1.851150 0.000000 
#    z -0.013370 0.000000 1.880400 
# 
# From -- ./inp_files/345871.got.cif
#   From: 2010.05.17/outbox.cif.g08.bks.cpg/sg12_173_cif.got.tgz:345871.got - 2010.06.03 13:09:07.
