data_PCOD9189744
_publ_section_title
;
Structure prediction by ZEFSAII (Michael W. Deem and Ramdas Pophale) SiO2 
 PCOD9189744
Probable space group: C 2/M
;
_chemical_formula_sum "Si O2"
_cell_formula_units_Z 32
_cell_length_a 5.445375
_cell_length_b 14.294691
_cell_length_c 22.576689
_cell_angle_alpha 90.000000
_cell_angle_beta 119.030769
_cell_angle_gamma 90.000000
_cell_volume 1536.571288
_symmetry_space_group_name_H-M "C 2/M"
_symmetry_group_IT_number 12
_symmetry_cell_setting 'monoclinic'
loop_
_space_group_symop_operation_xyz
x,y,z
-x,y,-z
-x,-y,-z
x,-y,z
1/2+x,1/2+y,z
1/2-x,1/2+y,-z
1/2-x,1/2-y,-z
1/2+x,1/2-y,z
loop_
_atom_site_type_symbol
_atom_site_label
_atom_site_fract_x
_atom_site_fract_y
_atom_site_fract_z
Si Si1 0.774687 0.134953 0.868756
Si Si2 0.482000 0.000000 0.746407
Si Si3 0.307932 0.500000 0.659766
Si Si4 0.835316 0.695142 0.418321
Si Si5 0.117353 0.341768 0.077846
O O1 0.592644 0.090614 0.795393
O O2 0.803795 0.247589 0.876616
O O3 0.621446 0.108826 0.911950
O O4 0.095114 0.103801 0.898380
O O5 0.632074 0.000000 0.700283
O O6 0.145176 0.000000 0.706983
O O7 0.226967 0.593370 0.614776
O O8 0.544591 0.748904 0.398868
O O9 0.000000 0.686951 0.500000
O O10 0.000000 0.313701 0.000000
#
# Coordination Sequence:
#
# PCOD9189744 Si02
#       5
#     8   4   4   8   8
#     4  10  20  37  55  81 116 155 199 258 314 377
#     4  12  26  42  56  88 136 174 214 248 320 408
#     4  12  25  46  64  98 141 182 220 268 320 382
#     4  10  22  44  73 106 135 170 225 277 326 376
#     4  10  19  38  62  84 108 151 215 266 330 389
#
# _framework density 20.825589999999998
#
# number of rings (size 3 to 8) (size 9 to 14) (size 15 to 20)
#    0.000    1.500    0.000    7.125    0.000    0.000 
#   27.000   11.875    0.000    0.000    0.000    0.000 
#    0.000    0.000    0.000    0.000    0.000    0.000 
#
# Total GULP energy -89322.156575 kJ/mol
# GULP energy per Si atom -5582.634786 kJ/mol
# Density = 2.077819 g / cm^3
# Si number density = 20.825590 Si / 1000 Ang^3
#
#
#
# Elastic Constant Matrix: (Units=GPa)
#
#
# Indices 1 2 3 4 5 6 
#
# 1 136.5987 22.9292 14.4783 0.0001 -10.9810 0.0000
# 2 22.9292 151.4741 48.5398 0.0001 -4.7467 0.0000
# 3 14.4783 48.5398 44.6298 0.0000 -6.6638 0.0000
# 4 0.0001 0.0001 0.0000 -490.0382 0.0000 -79.0670
# 5 -10.9810 -4.7467 -6.6638 0.0000 27.6383 0.0000
# 6 0.0000 0.0000 0.0000 -79.0670 0.0000 -3.2436
#
#
#
# Elastic Compliance Matrix: (Units=1/GPa)
#
#
# Indices 1 2 3 4 5 6 
#
# 1 0.007792 -0.000634 -0.001444 0.000000 0.002639 0.000000
# 2 -0.000634 0.010209 -0.011073 0.000000 -0.001168 0.000000
# 3 -0.001444 -0.011073 0.035838 0.000000 0.006165 0.000000
# 4 0.000000 0.000000 0.000000 0.000696 0.000000 -0.016959
# 5 0.002639 -0.001168 0.006165 0.000000 0.038516 0.000000
# 6 0.000000 0.000000 0.000000 -0.016959 0.000000 0.105111
#
#
# Mechanical properties :
#
#
# Convention : Reuss Voigt Hill
#
# Bulk Modulus (GPa) = 36.31313 56.06635 46.18974
# Shear Modulus (GPa) = 21.40013 -76.67833 -27.63910
#
# Velocity S-wave (km/s) = 3.20908 -6.07447 -3.64699
# Velocity P-wave (km/s) = 5.58619 4.71367 2.11978
#
# Compressibility (1/GPa) = 0.02753825
#
# Stress axis : x y z
#
# Youngs Moduli (GPa) = 128.33079 97.94948 27.90314
#
# Poissons Ratio (x) = 0.06210 0.04030
# Poissons Ratio (y) = 0.08137 0.30896
# Poissons Ratio (z) = 0.18535 1.08455
#
# Static dielectric constant tensor:
#      x y z
#    x 1.808020 0.000000 -0.002080 
#    y 0.000000 1.737760 0.000000 
#    z -0.002080 0.000000 1.702600 
# 
# From -- ./inp_files/297436.got.cif
#   From: 2010.05.17/outbox.cif.g08.bks.cpg/sg12_149_cif.got.tgz:297436.got - 2010.06.03 13:09:07.
