data_PCOD9189478
_publ_section_title
;
Structure prediction by ZEFSAII (Michael W. Deem and Ramdas Pophale) SiO2 
 PCOD9189478
Probable space group: C 2/M
;
_chemical_formula_sum "Si O2"
_cell_formula_units_Z 50
_cell_length_a 5.715021
_cell_length_b 27.880694
_cell_length_c 14.563095
_cell_angle_alpha 90.000000
_cell_angle_beta 61.979768
_cell_angle_gamma 90.000000
_cell_volume 2048.464511
_symmetry_space_group_name_H-M "C 2/M"
_symmetry_group_IT_number 12
_symmetry_cell_setting 'monoclinic'
loop_
_space_group_symop_operation_xyz
x,y,z
-x,y,-z
-x,-y,-z
x,-y,z
1/2+x,1/2+y,z
1/2-x,1/2+y,-z
1/2-x,1/2-y,-z
1/2+x,1/2-y,z
loop_
_atom_site_type_symbol
_atom_site_label
_atom_site_fract_x
_atom_site_fract_y
_atom_site_fract_z
Si Si1 0.498369 0.773426 0.876675
Si Si2 0.500000 0.000000 0.500000
Si Si3 0.268596 0.944919 0.231801
Si Si4 0.717527 0.915768 0.563832
Si Si5 0.190623 0.133429 0.703968
Si Si6 0.283193 0.125097 0.900808
Si Si7 0.699945 0.261489 0.643060
O O1 0.717164 0.753180 0.907799
O O2 0.435196 0.828500 0.910397
O O3 0.620756 0.767118 0.751479
O O4 0.707916 0.957838 0.491473
O O5 0.321944 0.941973 0.330904
O O6 0.521884 0.920669 0.135567
O O7 0.021198 0.909333 0.264285
O O8 0.219797 0.000000 0.213517
O O9 0.468312 0.881283 0.608031
O O10 0.000000 0.890736 0.500000
O O11 0.230899 0.139704 0.804902
O O12 0.113676 0.183318 0.673318
O O13 0.000000 0.116852 0.000000
O O14 0.519708 0.240336 0.594824
#
# Coordination Sequence:
#
# PCOD9189478 Si02
#       7
#     8   2   8   8   8   8   8
#     4  10  19  37  63  98 134 177 229 300 358 412
#     4  12  22  44  68 110 130 172 206 286 362 416
#     4  11  25  45  67  97 135 183 229 281 347 421
#     4  11  25  41  70 103 139 166 215 283 354 427
#     4  11  24  41  68  99 137 184 230 282 355 414
#     4  11  25  42  63  96 138 185 242 291 340 409
#     4  10  19  37  66  96 135 185 231 289 348 416
#
# _framework density 24.408528
#
# number of rings (size 3 to 8) (size 9 to 14) (size 15 to 20)
#    0.000    1.280    4.000    3.120    5.600    2.240 
#    0.000    0.800    0.000    0.960    0.000    0.000 
#    0.000    0.000    0.000    0.000    0.000    0.000 
#
# Total GULP energy -139616.655343 kJ/mol
# GULP energy per Si atom -5584.666214 kJ/mol
# Density = 2.435297 g / cm^3
# Si number density = 24.408528 Si / 1000 Ang^3
#
#
#
# Elastic Constant Matrix: (Units=GPa)
#
#
# Indices 1 2 3 4 5 6 
#
# 1 154.5533 70.3154 40.2165 0.0000 -14.5857 0.0000
# 2 70.3154 186.3914 35.5687 0.0000 -22.1243 0.0000
# 3 40.2165 35.5687 105.9103 0.0000 -36.3693 0.0000
# 4 0.0000 0.0000 0.0000 -7.0415 0.0000 -0.3680
# 5 -14.5857 -22.1243 -36.3693 0.0000 65.7648 0.0000
# 6 0.0000 0.0000 0.0000 -0.3680 0.0000 34.8423
#
#
#
# Elastic Compliance Matrix: (Units=1/GPa)
#
#
# Indices 1 2 3 4 5 6 
#
# 1 0.008287 -0.002721 -0.002365 0.000000 -0.000385 0.000000
# 2 -0.002721 0.006687 -0.000799 0.000000 0.001204 0.000000
# 3 -0.002365 -0.000799 0.012759 0.000000 0.006263 0.000000
# 4 0.000000 0.000000 0.000000 -0.141937 0.000000 -0.001499
# 5 -0.000385 0.001204 0.006263 0.000000 0.018989 0.000000
# 6 0.000000 0.000000 0.000000 -0.001499 0.000000 0.028685
#
#
# Mechanical properties :
#
#
# Convention : Reuss Voigt Hill
#
# Bulk Modulus (GPa) = 62.64609 82.11735 72.38172
# Shear Modulus (GPa) = -101.13455 38.76342 -31.18556
#
# Velocity S-wave (km/s) = -6.44392 3.98943 -3.57830
# Velocity P-wave (km/s) = 5.44463 7.41193 3.55617
#
# Compressibility (1/GPa) = 0.01596269
#
# Stress axis : x y z
#
# Youngs Moduli (GPa) = 120.66796 149.54745 78.37554
#
# Poissons Ratio (x) = 0.40687 0.18540
# Poissons Ratio (y) = 0.32830 0.06263
# Poissons Ratio (z) = 0.28544 0.11950
#
# Static dielectric constant tensor:
#      x y z
#    x 2.050070 0.000000 0.016130 
#    y 0.000000 1.906940 0.000000 
#    z 0.016130 0.000000 2.033330 
# 
# From -- ./inp_files/253573.got.cif
#   From: 2010.05.17/outbox.cif.g08.bks.cpg/sg12_127_cif.got.tgz:253573.got - 2010.06.03 13:09:07.
