data_PCOD9189243
_publ_section_title
;
Structure prediction by ZEFSAII (Michael W. Deem and Ramdas Pophale) SiO2 
 PCOD9189243
Probable space group: C 2/M
;
_chemical_formula_sum "Si O2"
_cell_formula_units_Z 58
_cell_length_a 17.919802
_cell_length_b 12.535056
_cell_length_c 19.532637
_cell_angle_alpha 90.000000
_cell_angle_beta 140.190946
_cell_angle_gamma 90.000000
_cell_volume 2809.034862
_symmetry_space_group_name_H-M "C 2/M"
_symmetry_group_IT_number 12
_symmetry_cell_setting 'monoclinic'
loop_
_space_group_symop_operation_xyz
x,y,z
-x,y,-z
-x,-y,-z
x,-y,z
1/2+x,1/2+y,z
1/2-x,1/2+y,-z
1/2-x,1/2-y,-z
1/2+x,1/2-y,z
loop_
_atom_site_type_symbol
_atom_site_label
_atom_site_fract_x
_atom_site_fract_y
_atom_site_fract_z
Si Si1 0.274424 0.218613 0.692748
Si Si2 0.500000 0.000000 0.500000
Si Si3 0.042997 0.374879 0.281912
Si Si4 0.082292 0.879980 0.124404
Si Si5 0.595557 0.184138 0.469692
Si Si6 0.654899 0.618253 0.982268
Si Si7 0.677162 0.282844 0.855578
Si Si8 0.416693 0.621983 0.347752
O O1 0.374935 0.154377 0.724295
O O2 0.325570 0.291911 0.789682
O O3 0.214663 0.295833 0.594549
O O4 0.174435 0.146207 0.655880
O O5 0.525147 0.093162 0.459906
O O6 0.011994 0.500000 0.258272
O O7 0.108442 0.349033 0.399741
O O8 0.929537 0.298648 0.203857
O O9 0.984597 0.877374 0.115140
O O10 0.132954 0.000000 0.156271
O O11 0.000000 0.865161 0.000000
O O12 0.521179 0.293030 0.422523
O O13 0.689484 0.500000 0.028816
O O14 0.695991 0.643606 0.934947
O O15 0.711088 0.706418 0.070735
O O16 0.648765 0.351764 0.769584
O O17 0.456133 0.500000 0.377867
#
# Coordination Sequence:
#
# PCOD9189243 Si02
#       8
#     8   2   8   8   8   8   8   8
#     4  12  23  41  62  94 128 167 209 257 324 383
#     4  12  20  48  66  92 126 160 220 278 308 364
#     4  11  23  40  61  92 131 165 209 261 321 382
#     4  10  22  38  60  91 126 163 211 267 324 379
#     4  11  25  42  67  95 125 168 216 265 315 379
#     4  10  19  37  60  86 118 160 210 265 312 363
#     4  10  21  38  62  89 119 162 215 259 307 375
#     4  11  24  42  64  92 127 168 209 254 314 386
#
# _framework density 20.647660999999999
#
# number of rings (size 3 to 8) (size 9 to 14) (size 15 to 20)
#    0.000    1.241    3.448    2.483    0.966    1.655 
#    0.000    0.000    0.000    1.655    0.000    0.000 
#    0.000    0.000    0.000    0.000    0.000    0.000 
#
# Total GULP energy -161757.742462 kJ/mol
# GULP energy per Si atom -5577.853188 kJ/mol
# Density = 2.060067 g / cm^3
# Si number density = 20.647661 Si / 1000 Ang^3
#
#
#
# Elastic Constant Matrix: (Units=GPa)
#
#
# Indices 1 2 3 4 5 6 
#
# 1 60.9674 14.0590 -7.5743 0.0000 -13.0274 0.0000
# 2 14.0590 129.4285 15.1087 0.0000 -5.7031 0.0000
# 3 -7.5743 15.1087 47.5450 0.0000 -13.4661 0.0000
# 4 0.0000 0.0000 0.0000 15.5392 0.0000 -9.6134
# 5 -13.0274 -5.7031 -13.4661 0.0000 24.9758 0.0000
# 6 0.0000 0.0000 0.0000 -9.6134 0.0000 11.0413
#
#
#
# Elastic Compliance Matrix: (Units=1/GPa)
#
#
# Indices 1 2 3 4 5 6 
#
# 1 0.021292 -0.002641 0.008504 0.000000 0.015088 0.000000
# 2 -0.002641 0.008358 -0.003454 0.000000 -0.001331 0.000000
# 3 0.008504 -0.003454 0.028937 0.000000 0.019249 0.000000
# 4 0.000000 0.000000 0.000000 0.139488 0.000000 0.121448
# 5 0.015088 -0.001331 0.019249 0.000000 0.057983 0.000000
# 6 0.000000 0.000000 0.000000 0.121448 0.000000 0.196311
#
#
# Mechanical properties :
#
#
# Convention : Reuss Voigt Hill
#
# Bulk Modulus (GPa) = 15.77122 31.23642 23.50382
# Shear Modulus (GPa) = 10.66819 24.73444 17.70132
#
# Velocity S-wave (km/s) = 2.27552 3.46487 2.93115
# Velocity P-wave (km/s) = 3.81560 5.58285 4.78158
#
# Compressibility (1/GPa) = 0.06340664
#
# Stress axis : x y z
#
# Youngs Moduli (GPa) = 46.96668 119.65141 34.55801
#
# Poissons Ratio (x) = 0.31597 -0.29390
# Poissons Ratio (y) = 0.12403 0.11935
# Poissons Ratio (z) = -0.39943 0.41322
#
# Static dielectric constant tensor:
#      x y z
#    x 1.755970 0.000000 0.000730 
#    y 0.000000 1.706870 0.000000 
#    z 0.000730 0.000000 1.752010 
# 
# From -- ./inp_files/315975.got.cif
#   From: 2010.05.17/outbox.cif.g08.bks.cpg/sg12_158_cif.got.tgz:315975.got - 2010.06.03 13:09:07.
