data_PCOD9189804
_publ_section_title
;
Structure prediction by ZEFSAII (Michael W. Deem and Ramdas Pophale) SiO2 
 PCOD9189804
Probable space group: C 2/M
;
_chemical_formula_sum "Si O2"
_cell_formula_units_Z 58
_cell_length_a 19.801698
_cell_length_b 7.386129
_cell_length_c 15.926652
_cell_angle_alpha 90.000000
_cell_angle_beta 97.934722
_cell_angle_gamma 90.000000
_cell_volume 2307.096920
_symmetry_space_group_name_H-M "C 2/M"
_symmetry_group_IT_number 12
_symmetry_cell_setting 'monoclinic'
loop_
_space_group_symop_operation_xyz
x,y,z
-x,y,-z
-x,-y,-z
x,-y,z
1/2+x,1/2+y,z
1/2-x,1/2+y,-z
1/2-x,1/2-y,-z
1/2+x,1/2-y,z
loop_
_atom_site_type_symbol
_atom_site_label
_atom_site_fract_x
_atom_site_fract_y
_atom_site_fract_z
Si Si1 0.451267 0.279615 0.772418
Si Si2 0.273876 0.782340 0.327371
Si Si3 0.082152 0.789897 0.880059
Si Si4 0.000000 0.500000 0.500000
Si Si5 0.088096 0.793428 0.569114
Si Si6 0.118150 0.221264 0.062936
Si Si7 0.642462 0.279414 0.397592
Si Si8 0.237195 0.717600 0.863435
O O1 0.449359 0.500000 0.764451
O O2 0.529309 0.218926 0.801673
O O3 0.413878 0.229621 0.853289
O O4 0.408763 0.217783 0.684452
O O5 0.150198 0.784825 0.644074
O O6 0.248493 0.732715 0.230773
O O7 0.218564 0.720008 0.385792
O O8 0.276445 0.000000 0.331721
O O9 0.161556 0.781736 0.870806
O O10 0.062735 0.000000 0.885022
O O11 0.078652 0.713333 0.973773
O O12 0.973465 0.658749 0.429878
O O13 0.879828 0.722168 0.513723
O O14 0.065685 0.000000 0.559596
O O15 0.197445 0.280067 0.072742
O O16 0.118013 0.000000 0.061090
O O17 0.642528 0.500000 0.399487
O O18 0.235208 0.500000 0.868417
#
# Coordination Sequence:
#
# PCOD9189804 Si02
#       8
#     8   8   8   2   8   8   8   8
#     4   9  16  31  55  85 116 152 200 259 309 371
#     4  10  19  38  63  89 122 163 212 269 324 377
#     4  10  20  31  52  85 118 151 201 257 313 368
#     4  12  26  48  64  94 140 176 208 252 320 390
#     4  11  24  42  68  98 128 172 217 261 314 380
#     4   9  16  31  54  81 112 156 204 253 308 372
#     4   9  18  35  62  91 121 160 212 265 322 378
#     4  10  20  34  56  81 116 163 203 246 312 383
#
# _framework density 25.139818000000002
#
# number of rings (size 3 to 8) (size 9 to 14) (size 15 to 20)
#    0.000    2.207    2.069    1.448    0.000    3.310 
#    1.241    1.379    0.000    2.483    0.000    0.000 
#    0.000    0.000    0.000    0.000    0.000    0.000 
#
# Total GULP energy -161969.699082 kJ/mol
# GULP energy per Si atom -5585.162037 kJ/mol
# Density = 2.508260 g / cm^3
# Si number density = 25.139818 Si / 1000 Ang^3
#
#
#
# Elastic Constant Matrix: (Units=GPa)
#
#
# Indices 1 2 3 4 5 6 
#
# 1 97.8044 3.4795 -8.8752 0.0000 19.7801 0.0000
# 2 3.4795 106.7643 5.5388 0.0000 8.2005 0.0000
# 3 -8.8752 5.5388 36.9459 0.0000 11.0659 0.0000
# 4 0.0000 0.0000 0.0000 -3.4688 0.0000 1.5167
# 5 19.7801 8.2005 11.0659 0.0000 47.5732 0.0000
# 6 0.0000 0.0000 0.0000 1.5167 0.0000 -2.4563
#
#
#
# Elastic Compliance Matrix: (Units=1/GPa)
#
#
# Indices 1 2 3 4 5 6 
#
# 1 0.011866 -0.000169 0.004670 0.000000 -0.005991 0.000000
# 2 -0.000169 0.009529 -0.001073 0.000000 -0.001323 0.000000
# 3 0.004670 -0.001073 0.031038 0.000000 -0.008976 0.000000
# 4 0.000000 0.000000 0.000000 -0.394891 0.000000 -0.243830
# 5 -0.005991 -0.001323 -0.008976 0.000000 0.025827 0.000000
# 6 0.000000 0.000000 0.000000 -0.243830 0.000000 -0.557668
#
#
# Mechanical properties :
#
#
# Convention : Reuss Voigt Hill
#
# Bulk Modulus (GPa) = 16.86635 26.86675 21.86655
# Shear Modulus (GPa) = -5.80456 24.42103 9.30824
#
# Velocity S-wave (km/s) = -1.52116 3.12012 1.92630
# Velocity P-wave (km/s) = 1.90745 4.86727 3.69653
#
# Compressibility (1/GPa) = 0.05928965
#
# Stress axis : x y z
#
# Youngs Moduli (GPa) = 84.27534 104.94060 32.21864
#
# Poissons Ratio (x) = 0.01772 -0.15046
# Poissons Ratio (y) = 0.01423 0.03457
# Poissons Ratio (z) = -0.39357 0.11259
#
# Static dielectric constant tensor:
#      x y z
#    x 2.043170 0.000000 -0.029020 
#    y 0.000000 1.972760 0.000000 
#    z -0.029020 0.000000 1.962030 
# 
# From -- ./inp_files/275400.got.cif
#   From: 2010.05.17/outbox.cif.g08.bks.cpg/sg12_138_cif.got.tgz:275400.got - 2010.06.03 13:09:07.
