data_PCOD9189488
_publ_section_title
;
Structure prediction by ZEFSAII (Michael W. Deem and Ramdas Pophale) SiO2 
 PCOD9189488
Probable space group: C 2/M
;
_chemical_formula_sum "Si O2"
_cell_formula_units_Z 64
_cell_length_a 28.155884
_cell_length_b 18.806292
_cell_length_c 10.929357
_cell_angle_alpha 90.000000
_cell_angle_beta 146.321605
_cell_angle_gamma 90.000000
_cell_volume 3209.168571
_symmetry_space_group_name_H-M "C 2/M"
_symmetry_group_IT_number 12
_symmetry_cell_setting 'monoclinic'
loop_
_space_group_symop_operation_xyz
x,y,z
-x,y,-z
-x,-y,-z
x,-y,z
1/2+x,1/2+y,z
1/2-x,1/2+y,-z
1/2-x,1/2-y,-z
1/2+x,1/2-y,z
loop_
_atom_site_type_symbol
_atom_site_label
_atom_site_fract_x
_atom_site_fract_y
_atom_site_fract_z
Si Si1 0.564720 0.651272 0.746253
Si Si2 0.247878 0.675409 0.918479
Si Si3 0.999884 0.079847 0.859635
Si Si4 0.688908 0.184760 0.331455
Si Si5 0.054996 0.305671 0.826021
Si Si6 0.871048 0.712232 0.547273
Si Si7 0.316409 0.376218 0.440341
Si Si8 0.834694 0.584254 0.067980
O O1 0.500000 0.627821 0.500000
O O2 0.543081 0.619701 0.835473
O O3 0.560460 0.736691 0.752169
O O4 0.660038 0.639425 0.900233
O O5 0.211531 0.691629 0.707654
O O6 0.181883 0.621601 0.839043
O O7 0.250000 0.750000 0.000000
O O8 0.898983 0.075529 0.615160
O O9 0.036836 0.000000 0.947144
O O10 0.000000 0.111492 0.000000
O O11 0.750000 0.250000 0.500000
O O12 0.633379 0.173415 0.332439
O O13 0.754000 0.124165 0.424563
O O14 0.625147 0.203955 0.084526
O O15 0.085158 0.376663 0.822697
O O16 0.959716 0.306259 0.673359
O O17 0.859540 0.797670 0.529836
O O18 0.251109 0.392690 0.191137
O O19 0.842494 0.500000 0.087321
#
# Coordination Sequence:
#
# PCOD9189488 Si02
#       8
#     8   8   8   8   8   8   8   8
#     4  12  24  39  68  95 127 171 218 275 324 385
#     4  12  22  40  63  93 126 162 214 269 318 376
#     4  11  26  41  60  94 135 174 213 266 333 400
#     4   9  20  33  58  97 122 158 206 264 319 370
#     4  11  22  38  63  94 128 164 211 269 323 378
#     4  11  21  35  63  96 124 158 213 276 310 374
#     4  10  19  37  64  88 124 166 209 259 319 381
#     4  11  24  42  64  90 126 171 212 258 324 395
#
# _framework density 19.942858999999999
#
# number of rings (size 3 to 8) (size 9 to 14) (size 15 to 20)
#    0.000    1.125    3.750    3.750    5.250    0.750 
#    0.000    1.250    0.000    7.500    0.000    0.000 
#    0.000    0.000    0.000    0.000    0.000    0.000 
#
# Total GULP energy -178506.283237 kJ/mol
# GULP energy per Si atom -5578.321351 kJ/mol
# Density = 1.989747 g / cm^3
# Si number density = 19.942859 Si / 1000 Ang^3
#
#
#
# Elastic Constant Matrix: (Units=GPa)
#
#
# Indices 1 2 3 4 5 6 
#
# 1 101.8026 47.3195 17.1208 0.0000 4.3078 0.0000
# 2 47.3195 89.6325 12.4070 0.0000 2.8007 0.0000
# 3 17.1208 12.4070 54.7898 0.0000 5.9593 0.0000
# 4 0.0000 0.0000 0.0000 12.2391 0.0000 3.6219
# 5 4.3078 2.8007 5.9593 0.0000 40.7494 0.0000
# 6 0.0000 0.0000 0.0000 3.6219 0.0000 13.5753
#
#
#
# Elastic Compliance Matrix: (Units=1/GPa)
#
#
# Indices 1 2 3 4 5 6 
#
# 1 0.013397 -0.006694 -0.002608 0.000000 -0.000575 0.000000
# 2 -0.006694 0.014869 -0.001261 0.000000 -0.000130 0.000000
# 3 -0.002608 -0.001261 0.019625 0.000000 -0.002508 0.000000
# 4 0.000000 0.000000 0.000000 0.088709 0.000000 -0.023668
# 5 -0.000575 -0.000130 -0.002508 0.000000 0.024977 0.000000
# 6 0.000000 0.000000 0.000000 -0.023668 0.000000 0.079978
#
#
# Mechanical properties :
#
#
# Convention : Reuss Voigt Hill
#
# Bulk Modulus (GPa) = 37.36220 44.43549 40.89885
# Shear Modulus (GPa) = 18.40919 24.60459 21.50689
#
# Velocity S-wave (km/s) = 3.04155 3.51629 3.28750
# Velocity P-wave (km/s) = 5.57763 6.23021 5.91293
#
# Compressibility (1/GPa) = 0.02676502
#
# Stress axis : x y z
#
# Youngs Moduli (GPa) = 74.64206 67.25323 50.95568
#
# Poissons Ratio (x) = 0.45018 0.13290
# Poissons Ratio (y) = 0.49964 0.06427
# Poissons Ratio (z) = 0.19467 0.08482
#
# Static dielectric constant tensor:
#      x y z
#    x 1.772690 0.000000 -0.021790 
#    y 0.000000 1.734590 0.000000 
#    z -0.021790 0.000000 1.722380 
# 
# From -- ./inp_files/190106.got.cif
#   From: 2010.05.17/outbox.cif.g08.bks.cpg/sg12_96_cif.got.tgz:190106.got - 2010.06.03 13:09:07.
