data_PCOD9189432
_publ_section_title
;
Structure prediction by ZEFSAII (Michael W. Deem and Ramdas Pophale) SiO2 
 PCOD9189432
Probable space group: C 2/M
;
_chemical_formula_sum "Si O2"
_cell_formula_units_Z 64
_cell_length_a 32.561527
_cell_length_b 13.873288
_cell_length_c 8.600719
_cell_angle_alpha 90.000000
_cell_angle_beta 120.344216
_cell_angle_gamma 90.000000
_cell_volume 3352.993489
_symmetry_space_group_name_H-M "C 2/M"
_symmetry_group_IT_number 12
_symmetry_cell_setting 'monoclinic'
loop_
_space_group_symop_operation_xyz
x,y,z
-x,y,-z
-x,-y,-z
x,-y,z
1/2+x,1/2+y,z
1/2-x,1/2+y,-z
1/2-x,1/2-y,-z
1/2+x,1/2-y,z
loop_
_atom_site_type_symbol
_atom_site_label
_atom_site_fract_x
_atom_site_fract_y
_atom_site_fract_z
Si Si1 0.019235 0.203180 0.362735
Si Si2 0.331258 0.388306 0.993059
Si Si3 0.299181 0.614758 0.283878
Si Si4 0.880570 0.388696 0.864323
Si Si5 0.079129 0.195340 0.971486
Si Si6 0.463452 0.890779 0.787077
Si Si7 0.783129 0.721318 0.706499
Si Si8 0.394613 0.614597 0.641405
O O1 0.000000 0.195485 0.500000
O O2 0.031265 0.312649 0.336258
O O3 0.065446 0.141262 0.408897
O O4 0.975330 0.174674 0.167811
O O5 0.322159 0.500000 0.939530
O O6 0.386798 0.364878 0.076290
O O7 0.304880 0.317050 0.824802
O O8 0.314763 0.368170 0.136527
O O9 0.292704 0.500000 0.290959
O O10 0.251167 0.668385 0.236931
O O11 0.342863 0.644461 0.479374
O O12 0.881234 0.500000 0.920780
O O13 0.907694 0.308831 0.021916
O O14 0.911086 0.387276 0.763611
O O15 0.827197 0.348229 0.746461
O O16 0.092264 0.166654 0.172713
O O17 0.473638 0.000000 0.756118
O O18 0.500000 0.869359 0.000000
O O19 0.750000 0.750000 0.500000
O O20 0.394076 0.500000 0.666370
#
# Coordination Sequence:
#
# PCOD9189432 Si02
#       8
#     8   8   8   8   8   8   8   8
#     4  12  24  37  57  87 123 156 194 239 295 357
#     4  10  22  39  60  86 121 159 194 239 297 352
#     4  10  21  40  62  86 118 156 195 243 301 352
#     4  10  20  36  61  87 112 147 195 246 289 336
#     4  11  21  38  59  89 114 154 200 243 291 344
#     4  10  19  37  63  85 114 152 195 242 291 347
#     4  11  23  37  60  91 119 156 201 243 286 346
#     4  11  23  39  61  85 115 155 203 248 290 346
#
# _framework density 19.087420999999999
#
# number of rings (size 3 to 8) (size 9 to 14) (size 15 to 20)
#    0.000    1.375    2.500    3.750    0.000    4.000 
#    0.000    0.000    0.000    0.000    0.000    0.000 
#    0.000    0.000    0.000    0.000    0.000    0.000 
#
# Total GULP energy -178754.081087 kJ/mol
# GULP energy per Si atom -5586.065034 kJ/mol
# Density = 1.904398 g / cm^3
# Si number density = 19.087421 Si / 1000 Ang^3
#
#
#
# Elastic Constant Matrix: (Units=GPa)
#
#
# Indices 1 2 3 4 5 6 
#
# 1 123.1764 29.3602 15.2874 0.0000 5.8345 0.0000
# 2 29.3602 76.9625 29.1203 0.0000 -3.1735 0.0000
# 3 15.2874 29.1203 44.7044 0.0000 6.7359 0.0000
# 4 0.0000 0.0000 0.0000 17.0827 0.0000 -1.3151
# 5 5.8345 -3.1735 6.7359 0.0000 32.4258 0.0000
# 6 0.0000 0.0000 0.0000 -1.3151 0.0000 29.1959
#
#
#
# Elastic Compliance Matrix: (Units=1/GPa)
#
#
# Indices 1 2 3 4 5 6 
#
# 1 0.009070 -0.003270 -0.000699 0.000000 -0.001807 0.000000
# 2 -0.003270 0.018981 -0.011990 0.000000 0.004937 0.000000
# 3 -0.000699 -0.011990 0.031564 0.000000 -0.007605 0.000000
# 4 0.000000 0.000000 0.000000 0.058742 0.000000 0.002646
# 5 -0.001807 0.004937 -0.007605 0.000000 0.033228 0.000000
# 6 0.000000 0.000000 0.000000 0.002646 0.000000 0.034371
#
#
# Mechanical properties :
#
#
# Convention : Reuss Voigt Hill
#
# Bulk Modulus (GPa) = 36.10487 43.59768 39.85128
# Shear Modulus (GPa) = 22.01608 27.14590 24.58099
#
# Velocity S-wave (km/s) = 3.39991 3.77528 3.59250
# Velocity P-wave (km/s) = 5.86252 6.47258 6.17509
#
# Compressibility (1/GPa) = 0.02769709
#
# Stress axis : x y z
#
# Youngs Moduli (GPa) = 110.25024 52.68443 31.68148
#
# Poissons Ratio (x) = 0.17228 0.02216
# Poissons Ratio (y) = 0.36053 0.37985
# Poissons Ratio (z) = 0.07711 0.63167
#
# Static dielectric constant tensor:
#      x y z
#    x 1.668400 0.000000 0.004610 
#    y 0.000000 1.673970 0.000000 
#    z 0.004610 0.000000 1.645370 
# 
# From -- ./inp_files/111693.got.cif
#   From: 2010.05.17/outbox.cif.g08.bks.cpg/sg12_56_cif.got.tgz:111693.got - 2010.06.03 13:09:07.
