data_PCOD9189058
_publ_section_title
;
Structure prediction by ZEFSAII (Michael W. Deem and Ramdas Pophale) SiO2 
 PCOD9189058
Probable space group: C 2/M
;
_chemical_formula_sum "Si O2"
_cell_formula_units_Z 52
_cell_length_a 21.040286
_cell_length_b 18.856671
_cell_length_c 15.679269
_cell_angle_alpha 90.000000
_cell_angle_beta 151.602755
_cell_angle_gamma 90.000000
_cell_volume 2958.474308
_symmetry_space_group_name_H-M "C 2/M"
_symmetry_group_IT_number 12
_symmetry_cell_setting 'monoclinic'
loop_
_space_group_symop_operation_xyz
x,y,z
-x,y,-z
-x,-y,-z
x,-y,z
1/2+x,1/2+y,z
1/2-x,1/2+y,-z
1/2-x,1/2-y,-z
1/2+x,1/2-y,z
loop_
_atom_site_type_symbol
_atom_site_label
_atom_site_fract_x
_atom_site_fract_y
_atom_site_fract_z
Si Si1 0.569084 0.921649 0.491107
Si Si2 0.815798 0.200286 0.148249
Si Si3 0.898393 0.205297 0.584353
Si Si4 0.778401 0.281865 0.280164
Si Si5 0.902496 0.581779 0.129703
Si Si6 0.876083 0.336353 0.689867
Si Si7 0.000000 0.735519 0.000000
O O1 0.500000 0.928774 0.500000
O O2 0.672745 0.858972 0.631313
O O3 0.454831 0.901987 0.287428
O O4 0.622455 0.000000 0.528779
O O5 0.827259 0.247977 0.248030
O O6 0.957108 0.177403 0.273341
O O7 0.750000 0.250000 0.000000
O O8 0.713950 0.134506 0.038766
O O9 0.835551 0.231857 0.421708
O O10 0.907622 0.273153 0.658932
O O11 0.784175 0.156358 0.492583
O O12 0.618128 0.279413 0.095002
O O13 0.861465 0.500000 0.076803
O O14 0.037363 0.596885 0.235883
O O15 0.933051 0.310885 0.847328
#
# Coordination Sequence:
#
# PCOD9189058 Si02
#       7
#     8   8   8   8   8   8   4
#     4  10  20  34  54  80 112 149 183 222 279 343
#     4  12  20  34  57  88 112 143 189 240 277 327
#     4  10  20  32  58  81 112 137 193 239 275 321
#     4  11  19  33  56  83 111 142 187 234 279 327
#     4  11  22  38  58  83 118 153 185 227 286 343
#     4  10  19  37  52  84 109 147 186 232 282 331
#     4  10  20  32  56  82 110 140 186 234 274 328
#
# _framework density 17.576626999999998
#
# number of rings (size 3 to 8) (size 9 to 14) (size 15 to 20)
#    0.000    1.385    4.615    2.308    0.000    0.000 
#    0.000    1.538    0.000    1.846    0.000    0.000 
#    0.000    0.000    0.000    0.000    0.000    0.000 
#
# Total GULP energy -144782.218176 kJ/mol
# GULP energy per Si atom -5568.546853 kJ/mol
# Density = 1.753662 g / cm^3
# Si number density = 17.576627 Si / 1000 Ang^3
#
#
#
# Elastic Constant Matrix: (Units=GPa)
#
#
# Indices 1 2 3 4 5 6 
#
# 1 76.4411 10.6371 26.4172 0.0000 10.1787 0.0000
# 2 10.6371 65.0026 24.9083 0.0000 11.3891 0.0000
# 3 26.4172 24.9083 72.1250 0.0000 8.8134 0.0000
# 4 0.0000 0.0000 0.0000 18.4072 0.0000 -0.5940
# 5 10.1787 11.3891 8.8134 0.0000 50.8606 0.0000
# 6 0.0000 0.0000 0.0000 -0.5940 0.0000 21.8655
#
#
#
# Elastic Compliance Matrix: (Units=1/GPa)
#
#
# Indices 1 2 3 4 5 6 
#
# 1 0.015199 -0.000096 -0.005276 0.000000 -0.002106 0.000000
# 2 -0.000096 0.018182 -0.005873 0.000000 -0.003034 0.000000
# 3 -0.005276 -0.005873 0.017915 0.000000 -0.000733 0.000000
# 4 0.000000 0.000000 0.000000 0.054374 0.000000 0.001477
# 5 -0.002106 -0.003034 -0.000733 0.000000 0.020890 0.000000
# 6 0.000000 0.000000 0.000000 0.001477 0.000000 0.045774
#
#
# Mechanical properties :
#
#
# Convention : Reuss Voigt Hill
#
# Bulk Modulus (GPa) = 34.71640 37.49934 36.10787
# Shear Modulus (GPa) = 24.45852 28.33374 26.39613
#
# Velocity S-wave (km/s) = 3.73438 4.01934 3.87948
# Velocity P-wave (km/s) = 6.19584 6.55143 6.37611
#
# Compressibility (1/GPa) = 0.02880483
#
# Stress axis : x y z
#
# Youngs Moduli (GPa) = 65.79260 54.99973 55.81832
#
# Poissons Ratio (x) = 0.00530 0.29452
# Poissons Ratio (y) = 0.00634 0.32782
# Poissons Ratio (z) = 0.34715 0.32301
#
# Static dielectric constant tensor:
#      x y z
#    x 1.657470 0.000000 0.020220 
#    y 0.000000 1.641060 0.000000 
#    z 0.020220 0.000000 1.637180 
# 
# From -- ./inp_files/216711.got.cif
#   From: 2010.05.17/outbox.cif.g08.bks.cpg/sg12_109_cif.got.tgz:216711.got - 2010.06.03 13:09:07.
