data_PCOD9189156
_publ_section_title
;
Structure prediction by ZEFSAII (Michael W. Deem and Ramdas Pophale) SiO2 
 PCOD9189156
Probable space group: C 2/M
;
_chemical_formula_sum "Si O2"
_cell_formula_units_Z 56
_cell_length_a 7.869855
_cell_length_b 31.150987
_cell_length_c 11.803332
_cell_angle_alpha 90.000000
_cell_angle_beta 68.098222
_cell_angle_gamma 90.000000
_cell_volume 2684.782357
_symmetry_space_group_name_H-M "C 2/M"
_symmetry_group_IT_number 12
_symmetry_cell_setting 'monoclinic'
loop_
_space_group_symop_operation_xyz
x,y,z
-x,y,-z
-x,-y,-z
x,-y,z
1/2+x,1/2+y,z
1/2-x,1/2+y,-z
1/2-x,1/2-y,-z
1/2+x,1/2-y,z
loop_
_atom_site_type_symbol
_atom_site_label
_atom_site_fract_x
_atom_site_fract_y
_atom_site_fract_z
Si Si1 0.286222 0.095058 0.363937
Si Si2 0.578279 0.179556 0.780489
Si Si3 0.397393 0.590962 0.350901
Si Si4 0.331708 0.050702 0.796743
Si Si5 0.657602 0.742515 0.146510
Si Si6 0.218137 0.375604 0.036940
Si Si7 0.033298 0.159946 0.823416
O O1 0.332687 0.145542 0.328193
O O2 0.228210 0.086798 0.507701
O O3 0.469445 0.068854 0.289480
O O4 0.107259 0.081516 0.334972
O O5 0.423987 0.214102 0.780027
O O6 0.721366 0.211250 0.805518
O O7 0.472534 0.148356 0.894700
O O8 0.313673 0.565147 0.264852
O O9 0.397711 0.640633 0.310584
O O10 0.293161 0.074694 0.926062
O O11 0.331127 0.000000 0.807410
O O12 0.489157 0.710326 0.162214
O O13 0.750000 0.750000 0.000000
O O14 0.335933 0.356150 0.110939
O O15 0.338515 0.363343 0.899311
#
# Coordination Sequence:
#
# PCOD9189156 Si02
#       7
#     8   8   8   8   8   8   8
#     4  10  22  41  64  88 122 165 208 249 301 370
#     4  11  22  37  53  87 120 156 202 252 307 345
#     4  10  21  40  65  88 120 166 204 246 303 369
#     4  10  22  41  66  96 123 154 201 257 310 367
#     4  12  22  31  56  89 117 149 203 256 289 349
#     4   9  20  36  59  85 120 158 192 243 312 373
#     4  10  19  37  58  87 118 159 203 243 305 360
#
# _framework density 20.858301999999998
#
# number of rings (size 3 to 8) (size 9 to 14) (size 15 to 20)
#    0.000    1.714    2.857    1.714    2.000    1.714 
#    0.000    7.857    0.000    0.857    0.000    0.000 
#    0.000    0.000    0.000    0.000    0.000    0.000 
#
# Total GULP energy -156169.113305 kJ/mol
# GULP energy per Si atom -5577.468332 kJ/mol
# Density = 2.081083 g / cm^3
# Si number density = 20.858302 Si / 1000 Ang^3
#
#
#
# Elastic Constant Matrix: (Units=GPa)
#
#
# Indices 1 2 3 4 5 6 
#
# 1 90.6433 26.6092 -2.5919 0.0000 -11.7711 0.0000
# 2 26.6092 165.9877 18.8581 0.0000 -4.1319 0.0000
# 3 -2.5919 18.8581 37.7302 0.0000 -3.1295 0.0000
# 4 0.0000 0.0000 0.0000 11.6858 0.0000 -1.4623
# 5 -11.7711 -4.1319 -3.1295 0.0000 18.6896 0.0000
# 6 0.0000 0.0000 0.0000 -1.4623 0.0000 24.2811
#
#
#
# Elastic Compliance Matrix: (Units=1/GPa)
#
#
# Indices 1 2 3 4 5 6 
#
# 1 0.012777 -0.002146 0.002615 0.000000 0.008011 0.000000
# 2 -0.002146 0.006762 -0.003565 0.000000 -0.000453 0.000000
# 3 0.002615 -0.003565 0.028939 0.000000 0.005704 0.000000
# 4 0.000000 0.000000 0.000000 0.086224 0.000000 0.005193
# 5 0.008011 -0.000453 0.005704 0.000000 0.059406 0.000000
# 6 0.000000 0.000000 0.000000 0.005193 0.000000 0.041497
#
#
# Mechanical properties :
#
#
# Convention : Reuss Voigt Hill
#
# Bulk Modulus (GPa) = 23.64852 42.23465 32.94158
# Shear Modulus (GPa) = 19.53946 27.69704 23.61825
#
# Velocity S-wave (km/s) = 3.06399 3.64794 3.36865
# Velocity P-wave (km/s) = 4.88669 6.16730 5.56396
#
# Compressibility (1/GPa) = 0.04228595
#
# Stress axis : x y z
#
# Youngs Moduli (GPa) = 78.26386 147.87903 34.55596
#
# Poissons Ratio (x) = 0.31734 -0.09036
# Poissons Ratio (y) = 0.16795 0.12319
# Poissons Ratio (z) = -0.20464 0.52718
#
# Static dielectric constant tensor:
#      x y z
#    x 1.940510 0.000000 -0.016380 
#    y 0.000000 1.746150 0.000000 
#    z -0.016380 0.000000 1.755120 
# 
# From -- ./inp_files/125617.got.cif
#   From: 2010.05.17/outbox.cif.g08.bks.cpg/sg12_63_cif.got.tgz:125617.got - 2010.06.03 13:09:07.
