data_PCOD9189624
_publ_section_title
;
Structure prediction by ZEFSAII (Michael W. Deem and Ramdas Pophale) SiO2 
 PCOD9189624
Probable space group: C 2/M
;
_chemical_formula_sum "Si O2"
_cell_formula_units_Z 38
_cell_length_a 26.774186
_cell_length_b 14.050332
_cell_length_c 5.106897
_cell_angle_alpha 90.000000
_cell_angle_beta 104.701586
_cell_angle_gamma 90.000000
_cell_volume 1858.247326
_symmetry_space_group_name_H-M "C 2/M"
_symmetry_group_IT_number 12
_symmetry_cell_setting 'monoclinic'
loop_
_space_group_symop_operation_xyz
x,y,z
-x,y,-z
-x,-y,-z
x,-y,z
1/2+x,1/2+y,z
1/2-x,1/2+y,-z
1/2-x,1/2-y,-z
1/2+x,1/2-y,z
loop_
_atom_site_type_symbol
_atom_site_label
_atom_site_fract_x
_atom_site_fract_y
_atom_site_fract_z
Si Si1 0.303677 0.712016 0.462505
Si Si2 0.941003 0.168412 0.200889
Si Si3 0.083726 0.707655 0.336587
Si Si4 0.500000 0.500000 0.000000
Si Si5 0.175080 0.895374 0.005437
Si Si6 0.963217 0.500000 0.700828
O O1 0.250000 0.750000 0.500000
O O2 0.354198 0.778957 0.555593
O O3 0.299090 0.678843 0.157716
O O4 0.317410 0.626318 0.679469
O O5 0.942582 0.228671 0.470518
O O6 0.885570 0.114951 0.132708
O O7 0.935464 0.246208 0.960716
O O8 0.980463 0.085417 0.176982
O O9 0.069150 0.597596 0.340023
O O10 0.194003 0.000000 0.967774
O O11 0.000000 0.500000 0.500000
O O12 0.000000 0.500000 0.000000
#
# Coordination Sequence:
#
# PCOD9189624 Si02
#       6
#     8   8   8   2   8   4
#     4  10  21  39  66  87 124 158 202 259 324 376
#     4  10  23  38  63  91 127 162 199 264 305 376
#     4  10  24  44  62  92 129 160 216 269 312 377
#     4  12  24  38  64  96 126 162 220 230 324 388
#     4  10  19  38  57  90 122 159 195 241 315 382
#     4  12  26  44  68  88 123 180 226 268 322 359
#
# _framework density 20.449377999999999
#
# number of rings (size 3 to 8) (size 9 to 14) (size 15 to 20)
#    0.000    1.684    1.053    2.526    4.421    1.684 
#    3.789    0.000    0.000    0.000    0.000    0.000 
#    0.000    0.000    0.000    0.000    0.000    0.000 
#
# Total GULP energy -105855.506798 kJ/mol
# GULP energy per Si atom -5571.342463 kJ/mol
# Density = 2.040283 g / cm^3
# Si number density = 20.449378 Si / 1000 Ang^3
#
#
#
# Elastic Constant Matrix: (Units=GPa)
#
#
# Indices 1 2 3 4 5 6 
#
# 1 112.4197 59.6196 23.1483 0.0000 -17.3054 0.0000
# 2 59.6196 163.1190 31.2964 0.0000 -5.3612 0.0000
# 3 23.1483 31.2964 101.2059 0.0000 -24.5518 0.0000
# 4 0.0000 0.0000 0.0000 3.7453 0.0000 -7.1364
# 5 -17.3054 -5.3612 -24.5518 0.0000 28.2613 0.0000
# 6 0.0000 0.0000 0.0000 -7.1364 0.0000 4.6835
#
#
#
# Elastic Compliance Matrix: (Units=1/GPa)
#
#
# Indices 1 2 3 4 5 6 
#
# 1 0.012162 -0.004257 0.000184 0.000000 0.006799 0.000000
# 2 -0.004257 0.008017 -0.002241 0.000000 -0.003033 0.000000
# 3 0.000184 -0.002241 0.013248 0.000000 0.011197 0.000000
# 4 0.000000 0.000000 0.000000 -0.140277 0.000000 -0.213746
# 5 0.006799 -0.003033 0.011197 0.000000 0.048699 0.000000
# 6 0.000000 0.000000 0.000000 -0.213746 0.000000 -0.112176
#
#
# Mechanical properties :
#
#
# Convention : Reuss Voigt Hill
#
# Bulk Modulus (GPa) = 48.08001 67.20815 57.64408
# Shear Modulus (GPa) = -33.16367 24.85001 -4.15683
#
# Velocity S-wave (km/s) = -4.03146 3.48975 -1.42729
# Velocity P-wave (km/s) = 1.37571 7.01247 5.05308
#
# Compressibility (1/GPa) = 0.02079866
#
# Stress axis : x y z
#
# Youngs Moduli (GPa) = 82.22638 124.73980 75.48304
#
# Poissons Ratio (x) = 0.53100 -0.01391
# Poissons Ratio (y) = 0.35003 0.16917
# Poissons Ratio (z) = -0.01515 0.27956
#
# Static dielectric constant tensor:
#      x y z
#    x 1.748750 0.000000 0.019890 
#    y 0.000000 1.684560 0.000000 
#    z 0.019890 0.000000 1.747850 
# 
# From -- ./inp_files/27440.got.cif
#   From: 2010.05.17/outbox.cif.g08.bks.cpg/sg12_14_cif.got.tgz:27440.got - 2010.06.03 13:09:07.
