data_PCOD9189693
_publ_section_title
;
Structure prediction by ZEFSAII (Michael W. Deem and Ramdas Pophale) SiO2 
 PCOD9189693
Probable space group: C 2/M
;
_chemical_formula_sum "Si O2"
_cell_formula_units_Z 58
_cell_length_a 23.338598
_cell_length_b 22.823699
_cell_length_c 12.949633
_cell_angle_alpha 90.000000
_cell_angle_beta 25.931919
_cell_angle_gamma 90.000000
_cell_volume 3016.480829
_symmetry_space_group_name_H-M "C 2/M"
_symmetry_group_IT_number 12
_symmetry_cell_setting 'monoclinic'
loop_
_space_group_symop_operation_xyz
x,y,z
-x,y,-z
-x,-y,-z
x,-y,z
1/2+x,1/2+y,z
1/2-x,1/2+y,-z
1/2-x,1/2-y,-z
1/2+x,1/2-y,z
loop_
_atom_site_type_symbol
_atom_site_label
_atom_site_fract_x
_atom_site_fract_y
_atom_site_fract_z
Si Si1 0.500000 0.500000 0.000000
Si Si2 0.941359 0.329159 0.289926
Si Si3 0.952837 0.067133 0.458680
Si Si4 0.693011 0.605706 0.695010
Si Si5 0.610708 0.703784 0.678236
Si Si6 0.246981 0.665700 0.754632
Si Si7 0.124437 0.717656 0.372231
Si Si8 0.363874 0.359942 0.986373
O O1 0.608205 0.551594 0.793044
O O2 0.847312 0.384898 0.423445
O O3 0.893427 0.273112 0.301116
O O4 0.916931 0.307093 0.447683
O O5 0.093252 0.339273 0.022956
O O6 0.823414 0.106057 0.655463
O O7 0.000000 0.068147 0.500000
O O8 0.933486 0.000000 0.457436
O O9 0.064423 0.097897 0.209196
O O10 0.633230 0.664946 0.742518
O O11 0.676352 0.605219 0.845495
O O12 0.716104 0.683552 0.422021
O O13 0.471621 0.686724 0.851168
O O14 0.311147 0.718555 0.716919
O O15 0.238205 0.674284 0.147864
O O16 0.000000 0.720185 0.500000
#
# Coordination Sequence:
#
# PCOD9189693 Si02
#       8
#     2   8   8   8   8   8   8   8
#     4  12  24  40  68  86 120 160 214 246 304 352
#     4  10  22  38  57  92 129 157 202 245 312 375
#     4  10  23  40  61  85 115 165 215 244 291 358
#     4  11  23  38  62  91 117 161 202 255 296 358
#     4  10  19  38  60  89 121 158 201 246 310 368
#     4  10  21  37  59  88 124 160 197 250 309 363
#     4  10  21  35  60  94 126 157 199 258 314 364
#     4  10  20  38  62  90 119 156 202 252 306 357
#
# _framework density 19.227705
#
# number of rings (size 3 to 8) (size 9 to 14) (size 15 to 20)
#    0.000    1.793    2.759    0.828    2.897    1.103 
#    3.724    0.000    0.000    1.241    0.000    0.000 
#    0.000    0.000    0.000    0.000    0.000    0.000 
#
# Total GULP energy -161707.974656 kJ/mol
# GULP energy per Si atom -5576.137057 kJ/mol
# Density = 1.918394 g / cm^3
# Si number density = 19.227705 Si / 1000 Ang^3
#
#
#
# Elastic Constant Matrix: (Units=GPa)
#
#
# Indices 1 2 3 4 5 6 
#
# 1 65.1850 29.9800 32.0030 -0.0013 -17.8089 0.0009
# 2 29.9800 121.0036 63.2727 -0.0006 -8.3678 0.0011
# 3 32.0030 63.2727 169.1809 -0.0009 -26.2869 0.0019
# 4 -0.0013 -0.0006 -0.0009 27.9205 0.0006 -2.5867
# 5 -17.8089 -8.3678 -26.2869 0.0006 26.4931 -0.0009
# 6 0.0009 0.0011 0.0019 -2.5867 -0.0009 0.3977
#
#
#
# Elastic Compliance Matrix: (Units=1/GPa)
#
#
# Indices 1 2 3 4 5 6 
#
# 1 0.020779 -0.004028 -0.000534 0.000000 0.012166 -0.000006
# 2 -0.004028 0.011064 -0.003847 -0.000002 -0.003030 -0.000026
# 3 -0.000534 -0.003847 0.008519 -0.000003 0.006879 -0.000034
# 4 0.000000 -0.000002 -0.000003 0.090137 0.000014 0.586325
# 5 0.012166 -0.003030 0.006879 0.000014 0.051793 0.000152
# 6 -0.000006 -0.000026 -0.000034 0.586325 0.000152 6.328657
#
#
# Mechanical properties :
#
#
# Convention : Reuss Voigt Hill
#
# Bulk Modulus (GPa) = 42.47039 67.32007 54.89523
# Shear Modulus (GPa) = 0.76504 26.30319 13.53411
#
# Velocity S-wave (km/s) = 0.63146 3.70264 2.65596
# Velocity P-wave (km/s) = 4.76106 7.30530 6.16584
#
# Compressibility (1/GPa) = 0.02354582
#
# Stress axis : x y z
#
# Youngs Moduli (GPa) = 48.12448 90.38252 117.37956
#
# Poissons Ratio (x) = 0.36404 0.06268
# Poissons Ratio (y) = 0.19383 0.45153
# Poissons Ratio (z) = 0.02570 0.34768
#
# Static dielectric constant tensor:
#      x y z
#    x 1.700320 0.000000 -0.000090 
#    y 0.000000 1.653190 0.000000 
#    z -0.000090 0.000000 1.695190 
# 
# From -- ./inp_files/247270.got.cif
#   From: 2010.05.17/outbox.cif.g08.bks.cpg/sg12_124_cif.got.tgz:247270.got - 2010.06.03 13:09:07.
