data_PCOD9189755
_publ_section_title
;
Structure prediction by ZEFSAII (Michael W. Deem and Ramdas Pophale) SiO2 
 PCOD9189755
Probable space group: C 2/M
;
_chemical_formula_sum "Si O2"
_cell_formula_units_Z 48
_cell_length_a 12.731839
_cell_length_b 24.307941
_cell_length_c 11.193350
_cell_angle_alpha 90.000000
_cell_angle_beta 134.627657
_cell_angle_gamma 90.000000
_cell_volume 2465.405988
_symmetry_space_group_name_H-M "C 2/M"
_symmetry_group_IT_number 12
_symmetry_cell_setting 'monoclinic'
loop_
_space_group_symop_operation_xyz
x,y,z
-x,y,-z
-x,-y,-z
x,-y,z
1/2+x,1/2+y,z
1/2-x,1/2+y,-z
1/2-x,1/2-y,-z
1/2+x,1/2-y,z
loop_
_atom_site_type_symbol
_atom_site_label
_atom_site_fract_x
_atom_site_fract_y
_atom_site_fract_z
Si Si1 0.496696 0.563319 0.859821
Si Si2 0.325649 0.351322 0.564085
Si Si3 0.994912 0.339882 0.740487
Si Si4 0.788432 0.646488 0.780523
Si Si5 0.438144 0.266759 0.316457
Si Si6 0.827388 0.436621 0.020949
O O1 0.444680 0.500000 0.814887
O O2 0.394556 0.602300 0.700317
O O3 0.500000 0.581154 0.000000
O O4 0.661332 0.564817 0.938323
O O5 0.154842 0.339942 0.457879
O O6 0.684132 0.369369 0.583734
O O7 0.430028 0.297931 0.648715
O O8 0.928843 0.329712 0.820787
O O9 0.094547 0.290865 0.772591
O O10 0.072164 0.398720 0.813187
O O11 0.699993 0.692119 0.783988
O O12 0.823909 0.594546 0.890840
O O13 0.500000 0.257994 0.500000
O O14 0.875781 0.500000 0.051523
#
# Coordination Sequence:
#
# PCOD9189755 Si02
#       6
#     8   8   8   8   8   8
#     4  10  22  41  61  84 122 164 207 253 299 361
#     4   9  20  38  61  88 120 157 203 247 298 366
#     4  10  23  36  61  95 123 158 201 248 310 357
#     4   9  21  38  62  91 127 154 203 251 303 363
#     4  10  19  38  62  87 125 159 201 251 299 363
#     4  11  23  42  61  89 128 160 200 259 305 350
#
# _framework density 19.469408999999999
#
# number of rings (size 3 to 8) (size 9 to 14) (size 15 to 20)
#    1.000    1.167    1.667    1.000    0.000    4.667 
#    0.000    1.667    0.000    3.500    0.000    0.000 
#    0.000    0.000    0.000    0.000    0.000    0.000 
#
# Total GULP energy -133786.233082 kJ/mol
# GULP energy per Si atom -5574.426378 kJ/mol
# Density = 1.942510 g / cm^3
# Si number density = 19.469409 Si / 1000 Ang^3
#
#
#
# Elastic Constant Matrix: (Units=GPa)
#
#
# Indices 1 2 3 4 5 6 
#
# 1 35.6797 38.3285 22.4288 0.0000 -7.9554 0.0000
# 2 38.3285 148.1334 52.8977 0.0000 -7.6773 0.0000
# 3 22.4288 52.8977 43.1715 0.0000 -5.9705 0.0000
# 4 0.0000 0.0000 0.0000 37.9787 0.0000 -5.5769
# 5 -7.9554 -7.6773 -5.9705 0.0000 23.5107 0.0000
# 6 0.0000 0.0000 0.0000 -5.5769 0.0000 26.9093
#
#
#
# Elastic Compliance Matrix: (Units=1/GPa)
#
#
# Indices 1 2 3 4 5 6 
#
# 1 0.046303 -0.005985 -0.015365 0.000000 0.009811 0.000000
# 2 -0.005985 0.012777 -0.012695 0.000000 -0.001077 0.000000
# 3 -0.015365 -0.012695 0.047061 0.000000 0.002607 0.000000
# 4 0.000000 0.000000 0.000000 0.027157 0.000000 0.005628
# 5 0.009811 -0.001077 0.002607 0.000000 0.046164 0.000000
# 6 0.000000 0.000000 0.000000 0.005628 0.000000 0.038328
#
#
# Mechanical properties :
#
#
# Convention : Reuss Voigt Hill
#
# Bulk Modulus (GPa) = 26.28058 50.47717 38.37888
# Shear Modulus (GPa) = 16.74686 25.23505 20.99095
#
# Velocity S-wave (km/s) = 2.93603 3.60410 3.28708
# Velocity P-wave (km/s) = 5.00214 6.58043 5.84480
#
# Compressibility (1/GPa) = 0.03805091
#
# Stress axis : x y z
#
# Youngs Moduli (GPa) = 21.59688 78.26758 21.24903
#
# Poissons Ratio (x) = 0.46846 0.32649
# Poissons Ratio (y) = 0.12926 0.26975
# Poissons Ratio (z) = 0.33184 0.99357
#
# Static dielectric constant tensor:
#      x y z
#    x 1.700410 0.000000 0.023160 
#    y 0.000000 1.655450 0.000000 
#    z 0.023160 0.000000 1.714730 
# 
# From -- ./inp_files/135529.got.cif
#   From: 2010.05.17/outbox.cif.g08.bks.cpg/sg12_68_cif.got.tgz:135529.got - 2010.06.03 13:09:07.
