data_PCOD9189925
_publ_section_title
;
Structure prediction by ZEFSAII (Michael W. Deem and Ramdas Pophale) SiO2 
 PCOD9189925
Probable space group: C 2/M
;
_chemical_formula_sum "Si O2"
_cell_formula_units_Z 44
_cell_length_a 8.448505
_cell_length_b 28.512359
_cell_length_c 9.585142
_cell_angle_alpha 90.000000
_cell_angle_beta 109.962878
_cell_angle_gamma 90.000000
_cell_volume 2170.199676
_symmetry_space_group_name_H-M "C 2/M"
_symmetry_group_IT_number 12
_symmetry_cell_setting 'monoclinic'
loop_
_space_group_symop_operation_xyz
x,y,z
-x,y,-z
-x,-y,-z
x,-y,z
1/2+x,1/2+y,z
1/2-x,1/2+y,-z
1/2-x,1/2-y,-z
1/2+x,1/2-y,z
loop_
_atom_site_type_symbol
_atom_site_label
_atom_site_fract_x
_atom_site_fract_y
_atom_site_fract_z
Si Si1 0.840029 0.231793 0.889819
Si Si2 0.103822 0.326094 0.252452
Si Si3 0.125660 0.054216 0.904455
Si Si4 0.970938 0.130414 0.341890
Si Si5 0.282596 0.799599 0.428483
Si Si6 0.000000 0.400555 0.000000
O O1 0.914479 0.276288 0.828692
O O2 0.711842 0.210432 0.737111
O O3 0.750000 0.250000 0.000000
O O4 0.000000 0.202631 0.000000
O O5 0.298836 0.340554 0.286126
O O6 0.094976 0.323291 0.418175
O O7 0.007114 0.366253 0.137838
O O8 0.039011 0.090548 0.774249
O O9 0.127350 0.000000 0.859025
O O10 0.324339 0.070665 0.967739
O O11 0.000000 0.056098 0.000000
O O12 0.118183 0.168053 0.376230
O O13 0.000000 0.106882 0.500000
O O14 0.250000 0.750000 0.500000
#
# Coordination Sequence:
#
# PCOD9189925 Si02
#       6
#     8   8   8   8   8   4
#     4  11  21  33  52  78 112 155 210 255 302 364
#     4   9  18  35  56  79 116 158 202 256 305 371
#     4  10  22  39  65  96 126 160 208 270 330 394
#     4   9  18  35  60  84 120 160 207 257 315 384
#     4   9  19  34  54  83 119 163 205 253 308 363
#     4  10  19  38  68  92 126 162 212 262 323 392
#
# _framework density 20.274630999999999
#
# number of rings (size 3 to 8) (size 9 to 14) (size 15 to 20)
#    0.000    2.364    0.909    1.364    0.000    5.455 
#    0.000    2.727    4.000    3.273    0.000   24.182 
#    0.000    0.000    0.000    0.000    0.000    0.000 
#
# Total GULP energy -122475.079940 kJ/mol
# GULP energy per Si atom -5567.049088 kJ/mol
# Density = 2.022849 g / cm^3
# Si number density = 20.274631 Si / 1000 Ang^3
#
#
#
# Elastic Constant Matrix: (Units=GPa)
#
#
# Indices 1 2 3 4 5 6 
#
# 1 77.4647 38.3442 61.4660 0.0000 5.5871 0.0000
# 2 38.3442 106.0465 56.1763 0.0000 10.2136 0.0000
# 3 61.4660 56.1763 162.7619 0.0000 -0.7375 0.0000
# 4 0.0000 0.0000 0.0000 12.0620 0.0000 7.5977
# 5 5.5871 10.2136 -0.7375 0.0000 48.6233 0.0000
# 6 0.0000 0.0000 0.0000 7.5977 0.0000 10.0191
#
#
#
# Elastic Compliance Matrix: (Units=1/GPa)
#
#
# Indices 1 2 3 4 5 6 
#
# 1 0.019778 -0.003718 -0.006193 0.000000 -0.001586 0.000000
# 2 -0.003718 0.012547 -0.002937 0.000000 -0.002253 0.000000
# 3 -0.006193 -0.002937 0.009503 0.000000 0.001473 0.000000
# 4 0.000000 0.000000 0.000000 0.158719 0.000000 -0.120360
# 5 -0.001586 -0.002253 0.001473 0.000000 0.021244 0.000000
# 6 0.000000 0.000000 0.000000 -0.120360 0.000000 0.191081
#
#
# Mechanical properties :
#
#
# Convention : Reuss Voigt Hill
#
# Bulk Modulus (GPa) = 61.98668 73.13846 67.56257
# Shear Modulus (GPa) = 11.26270 26.82664 19.04467
#
# Velocity S-wave (km/s) = 2.35948 3.64148 3.06818
# Velocity P-wave (km/s) = 6.16950 7.33707 6.77847
#
# Compressibility (1/GPa) = 0.01613250
#
# Stress axis : x y z
#
# Youngs Moduli (GPa) = 50.56206 79.70210 105.23134
#
# Poissons Ratio (x) = 0.29632 0.65169
# Poissons Ratio (y) = 0.18798 0.30902
# Poissons Ratio (z) = 0.31313 0.23405
#
# Static dielectric constant tensor:
#      x y z
#    x 1.843830 0.000000 0.000830 
#    y 0.000000 1.698510 0.000000 
#    z 0.000830 0.000000 1.785970 
# 
# From -- ./inp_files/41797.got.cif
#   From: 2010.05.17/outbox.cif.g08.bks.cpg/sg12_21_cif.got.tgz:41797.got - 2010.06.03 13:09:07.
