data_PCOD9189903
_publ_section_title
;
Structure prediction by ZEFSAII (Michael W. Deem and Ramdas Pophale) SiO2 
 PCOD9189903
Probable space group: C 2/M
;
_chemical_formula_sum "Si O2"
_cell_formula_units_Z 36
_cell_length_a 11.048046
_cell_length_b 19.304397
_cell_length_c 9.813995
_cell_angle_alpha 90.000000
_cell_angle_beta 68.975891
_cell_angle_gamma 90.000000
_cell_volume 1953.750453
_symmetry_space_group_name_H-M "C 2/M"
_symmetry_group_IT_number 12
_symmetry_cell_setting 'monoclinic'
loop_
_space_group_symop_operation_xyz
x,y,z
-x,y,-z
-x,-y,-z
x,-y,z
1/2+x,1/2+y,z
1/2-x,1/2+y,-z
1/2-x,1/2-y,-z
1/2+x,1/2-y,z
loop_
_atom_site_type_symbol
_atom_site_label
_atom_site_fract_x
_atom_site_fract_y
_atom_site_fract_z
Si Si1 0.860723 0.580605 0.503191
Si Si2 0.000000 0.135706 0.500000
Si Si3 0.675433 0.299065 0.635442
Si Si4 0.657675 0.784945 0.920784
Si Si5 0.744980 0.078888 0.742937
O O1 0.838699 0.500000 0.544697
O O2 0.753225 0.629238 0.612090
O O3 0.855612 0.587298 0.341722
O O4 0.000000 0.602380 0.500000
O O5 0.956301 0.182591 0.390139
O O6 0.881099 0.091702 0.608477
O O7 0.750000 0.250000 0.500000
O O8 0.670416 0.261662 0.780259
O O9 0.714527 0.861311 0.863124
O O10 0.500000 0.789859 0.000000
O O11 0.750000 0.750000 0.000000
O O12 0.740275 0.000000 0.796486
#
# Coordination Sequence:
#
# PCOD9189903 Si02
#       5
#     8   4   8   8   8
#     4   9  19  34  61  94 120 149 204 263 305 356
#     4  10  19  38  66  98 117 154 216 274 309 364
#     4  11  22  37  66  87 119 162 211 257 310 364
#     4  12  27  43  61  94 134 171 212 261 318 385
#     4  10  21  39  63  91 123 166 207 256 319 377
#
# _framework density 18.426099000000001
#
# number of rings (size 3 to 8) (size 9 to 14) (size 15 to 20)
#    0.000    1.556    4.444    1.667    4.667    1.333 
#    0.000    1.111    0.000    2.667    0.000    0.000 
#    0.000    0.000    0.000    0.000    0.000    0.000 
#
# Total GULP energy -100344.319520 kJ/mol
# GULP energy per Si atom -5574.684418 kJ/mol
# Density = 1.838416 g / cm^3
# Si number density = 18.426099 Si / 1000 Ang^3
#
#
#
# Elastic Constant Matrix: (Units=GPa)
#
#
# Indices 1 2 3 4 5 6 
#
# 1 118.3660 46.2356 49.1455 0.0000 16.9766 0.0000
# 2 46.2356 107.7433 56.4561 0.0000 9.9102 0.0000
# 3 49.1455 56.4561 97.9840 0.0000 7.4622 0.0000
# 4 0.0000 0.0000 0.0000 32.2028 0.0000 4.4250
# 5 16.9766 9.9102 7.4622 0.0000 28.2208 0.0000
# 6 0.0000 0.0000 0.0000 4.4250 0.0000 15.2270
#
#
#
# Elastic Compliance Matrix: (Units=1/GPa)
#
#
# Indices 1 2 3 4 5 6 
#
# 1 0.011869 -0.002441 -0.004152 0.000000 -0.005185 0.000000
# 2 -0.002441 0.014002 -0.006716 0.000000 -0.001673 0.000000
# 3 -0.004152 -0.006716 0.016112 0.000000 0.000596 0.000000
# 4 0.000000 0.000000 0.000000 0.032345 0.000000 -0.009399
# 5 -0.005185 -0.001673 0.000596 0.000000 0.038984 0.000000
# 6 0.000000 0.000000 0.000000 -0.009399 0.000000 0.068404
#
#
# Mechanical properties :
#
#
# Convention : Reuss Voigt Hill
#
# Bulk Modulus (GPa) = 65.07866 69.75199 67.41533
# Shear Modulus (GPa) = 23.42406 26.61387 25.01897
#
# Velocity S-wave (km/s) = 3.56932 3.80459 3.68883
# Velocity P-wave (km/s) = 7.23755 7.56552 7.40335
#
# Compressibility (1/GPa) = 0.01536602
#
# Stress axis : x y z
#
# Youngs Moduli (GPa) = 84.25000 71.42039 62.06429
#
# Poissons Ratio (x) = 0.17434 0.25769
# Poissons Ratio (y) = 0.20565 0.41681
# Poissons Ratio (z) = 0.34981 0.47964
#
# Static dielectric constant tensor:
#      x y z
#    x 1.713180 0.000000 -0.008680 
#    y 0.000000 1.657940 0.000000 
#    z -0.008680 0.000000 1.591480 
# 
# From -- ./inp_files/46812.got.cif
#   From: 2010.05.17/outbox.cif.g08.bks.cpg/sg12_24_cif.got.tgz:46812.got - 2010.06.03 13:09:07.
