data_PCOD9189500
_publ_section_title
;
Structure prediction by ZEFSAII (Michael W. Deem and Ramdas Pophale) SiO2 
 PCOD9189500
Probable space group: C 2/M
;
_chemical_formula_sum "Si O2"
_cell_formula_units_Z 40
_cell_length_a 19.708571
_cell_length_b 8.696097
_cell_length_c 25.614770
_cell_angle_alpha 90.000000
_cell_angle_beta 27.927129
_cell_angle_gamma 90.000000
_cell_volume 2056.074481
_symmetry_space_group_name_H-M "C 2/M"
_symmetry_group_IT_number 12
_symmetry_cell_setting 'monoclinic'
loop_
_space_group_symop_operation_xyz
x,y,z
-x,y,-z
-x,-y,-z
x,-y,z
1/2+x,1/2+y,z
1/2-x,1/2+y,-z
1/2-x,1/2-y,-z
1/2+x,1/2-y,z
loop_
_atom_site_type_symbol
_atom_site_label
_atom_site_fract_x
_atom_site_fract_y
_atom_site_fract_z
Si Si1 0.665268 0.683121 0.905424
Si Si2 0.668618 0.686042 0.719778
Si Si3 0.204467 0.313851 0.474846
Si Si4 0.863214 0.318129 0.963785
Si Si5 0.880183 0.313147 0.666174
O O1 0.684196 0.500000 0.901295
O O2 0.773782 0.731042 0.785796
O O3 0.500000 0.707473 0.000000
O O4 0.686822 0.770725 0.944515
O O5 0.662545 0.500000 0.725724
O O6 0.691831 0.731944 0.643845
O O7 0.521602 0.749245 0.844296
O O8 0.804949 0.734859 0.663132
O O9 0.204525 0.500000 0.477629
O O10 0.250000 0.250000 0.500000
O O11 0.042759 0.262591 0.568062
O O12 0.869438 0.500000 0.954592
O O13 0.750000 0.250000 0.000000
O O14 0.884343 0.500000 0.661706
#
# Coordination Sequence:
#
# PCOD9189500 Si02
#       5
#     8   8   8   8   8
#     4  10  19  37  64  92 122 156 195 242 298 362
#     4  10  20  40  64  87 116 157 207 248 293 355
#     4  10  22  38  60  89 120 156 200 249 298 353
#     4  12  26  41  60  88 124 160 200 249 302 360
#     4   9  18  36  63  89 117 156 200 241 289 352
#
# _framework density 19.454547999999999
#
# number of rings (size 3 to 8) (size 9 to 14) (size 15 to 20)
#    0.000    1.800    2.000    2.400    2.800    3.600 
#    0.000    1.000    0.000    2.400    0.000    0.000 
#    0.000    0.000    0.000    0.000    0.000    0.000 
#
# Total GULP energy -111726.346334 kJ/mol
# GULP energy per Si atom -5586.317317 kJ/mol
# Density = 1.941027 g / cm^3
# Si number density = 19.454548 Si / 1000 Ang^3
#
#
#
# Elastic Constant Matrix: (Units=GPa)
#
#
# Indices 1 2 3 4 5 6 
#
# 1 142.0505 32.0862 24.5321 -0.0001 15.6971 0.0001
# 2 32.0862 21.6978 0.6622 0.0001 7.4907 0.0001
# 3 24.5321 0.6622 38.2389 0.0001 14.3877 0.0002
# 4 -0.0001 0.0001 0.0001 15.7140 0.0000 6.5056
# 5 15.6971 7.4907 14.3877 0.0000 37.1530 0.0000
# 6 0.0001 0.0001 0.0002 6.5056 0.0000 31.5433
#
#
#
# Elastic Compliance Matrix: (Units=1/GPa)
#
#
# Indices 1 2 3 4 5 6 
#
# 1 0.012577 -0.018950 -0.008403 0.000000 0.001761 0.000000
# 2 -0.018950 0.078467 0.016081 -0.000001 -0.014042 0.000000
# 3 -0.008403 0.016081 0.036460 0.000000 -0.013812 0.000000
# 4 0.000000 -0.000001 0.000000 0.069579 0.000000 -0.014350
# 5 0.001761 -0.014042 -0.013812 0.000000 0.034351 0.000000
# 6 0.000000 0.000000 0.000000 -0.014350 0.000000 0.034662
#
#
# Mechanical properties :
#
#
# Convention : Reuss Voigt Hill
#
# Bulk Modulus (GPa) = 9.52729 35.17203 22.34966
# Shear Modulus (GPa) = 15.44997 26.52916 20.98957
#
# Velocity S-wave (km/s) = 2.82114 3.69677 3.28823
# Velocity P-wave (km/s) = 3.93949 6.02825 5.09212
#
# Compressibility (1/GPa) = 0.10496161
#
# Stress axis : x y z
#
# Youngs Moduli (GPa) = 79.51245 12.74428 27.42695
#
# Poissons Ratio (x) = 0.24150 0.23047
# Poissons Ratio (y) = 1.50673 -0.44107
# Poissons Ratio (z) = 0.66814 -0.20495
#
# Static dielectric constant tensor:
#      x y z
#    x 1.672660 0.000000 0.006620 
#    y 0.000000 1.661160 0.000000 
#    z 0.006620 0.000000 1.669830 
# 
# From -- ./inp_files/151840.got.cif
#   From: 2010.05.17/outbox.cif.g08.bks.cpg/sg12_76_cif.got.tgz:151840.got - 2010.06.03 13:09:07.
