data_PCOD9189110
_publ_section_title
;
Structure prediction by ZEFSAII (Michael W. Deem and Ramdas Pophale) SiO2 
 PCOD9189110
Probable space group: C 2/M
;
_chemical_formula_sum "Si O2"
_cell_formula_units_Z 64
_cell_length_a 15.382946
_cell_length_b 18.377268
_cell_length_c 11.703461
_cell_angle_alpha 90.000000
_cell_angle_beta 77.086915
_cell_angle_gamma 90.000000
_cell_volume 3224.855654
_symmetry_space_group_name_H-M "C 2/M"
_symmetry_group_IT_number 12
_symmetry_cell_setting 'monoclinic'
loop_
_space_group_symop_operation_xyz
x,y,z
-x,y,-z
-x,-y,-z
x,-y,z
1/2+x,1/2+y,z
1/2-x,1/2+y,-z
1/2-x,1/2-y,-z
1/2+x,1/2-y,z
loop_
_atom_site_type_symbol
_atom_site_label
_atom_site_fract_x
_atom_site_fract_y
_atom_site_fract_z
Si Si1 0.751419 0.864429 0.699495
Si Si2 0.584070 0.229637 0.053890
Si Si3 0.381169 0.413648 0.272398
Si Si4 0.837133 0.714290 0.742158
Si Si5 0.305495 0.363791 0.067676
Si Si6 0.726190 0.830164 0.460164
Si Si7 0.330567 0.919879 0.054800
Si Si8 0.955278 0.913051 0.629071
O O1 0.769446 0.782126 0.740353
O O2 0.711380 0.870542 0.584189
O O3 0.690955 0.906327 0.806802
O O4 0.853193 0.891595 0.666625
O O5 0.656744 0.290379 0.998731
O O6 0.612409 0.148577 0.005856
O O7 0.500000 0.248364 0.000000
O O8 0.582827 0.232043 0.193448
O O9 0.366961 0.500000 0.297418
O O10 0.371386 0.398186 0.140791
O O11 0.308480 0.368454 0.368409
O O12 0.479332 0.392393 0.287183
O O13 0.779419 0.656801 0.829917
O O14 0.851168 0.681680 0.611644
O O15 0.265457 0.413685 0.980675
O O16 0.750000 0.750000 0.500000
O O17 0.368608 0.000000 0.022511
O O18 0.000000 0.883217 0.500000
O O19 0.957308 0.000000 0.622139
#
# Coordination Sequence:
#
# PCOD9189110 Si02
#       8
#     8   8   8   8   8   8   8   8
#     4  11  18  33  54  80 109 144 184 231 275 329
#     4  11  22  38  60  83 114 150 187 236 288 338
#     4  10  20  33  51  79 115 152 189 229 278 336
#     4   9  18  36  55  78 106 140 187 230 271 326
#     4  10  19  37  57  80 110 147 189 233 276 336
#     4   9  19  32  55  77 107 150 191 231 271 326
#     4  11  22  37  59  85 112 147 190 237 284 334
#     4  10  20  32  46  75 117 151 177 215 274 338
#
# _framework density 19.845849999999999
#
# number of rings (size 3 to 8) (size 9 to 14) (size 15 to 20)
#    0.000    1.875    3.750    1.500    1.750    0.750 
#    0.000    0.000    0.000    3.000    0.000    0.875 
#    0.000    0.000    0.000    0.000    0.000    0.000 
#
# Total GULP energy -178230.582182 kJ/mol
# GULP energy per Si atom -5569.705693 kJ/mol
# Density = 1.980068 g / cm^3
# Si number density = 19.845850 Si / 1000 Ang^3
#
#
#
# Elastic Constant Matrix: (Units=GPa)
#
#
# Indices 1 2 3 4 5 6 
#
# 1 29.5725 -0.5126 25.7031 0.0000 24.1013 0.0000
# 2 -0.5126 79.4794 11.6646 0.0000 -3.9526 0.0000
# 3 25.7031 11.6646 131.0580 0.0000 41.8491 0.0000
# 4 0.0000 0.0000 0.0000 17.3602 0.0000 1.1016
# 5 24.1013 -3.9526 41.8491 0.0000 32.5887 0.0000
# 6 0.0000 0.0000 0.0000 1.1016 0.0000 32.5468
#
#
#
# Elastic Compliance Matrix: (Units=1/GPa)
#
#
# Indices 1 2 3 4 5 6 
#
# 1 0.089085 -0.004192 0.006953 0.000000 -0.075321 0.000000
# 2 -0.004192 0.013464 -0.003200 0.000000 0.008842 0.000000
# 3 0.006953 -0.003200 0.014098 0.000000 -0.023635 0.000000
# 4 0.000000 0.000000 0.000000 0.057727 0.000000 -0.001954
# 5 -0.075321 0.008842 -0.023635 0.000000 0.117813 0.000000
# 6 0.000000 0.000000 0.000000 -0.001954 0.000000 0.030791
#
#
# Mechanical properties :
#
#
# Convention : Reuss Voigt Hill
#
# Bulk Modulus (GPa) = 8.63775 34.86887 21.75331
# Shear Modulus (GPa) = 13.79517 30.04944 21.92231
#
# Velocity S-wave (km/s) = 2.63937 3.89542 3.32720
# Velocity P-wave (km/s) = 3.69462 6.15145 5.07398
#
# Compressibility (1/GPa) = 0.11577082
#
# Stress axis : x y z
#
# Youngs Moduli (GPa) = 11.22525 74.27132 70.93003
#
# Poissons Ratio (x) = 0.31132 -0.49318
# Poissons Ratio (y) = 0.04705 0.22695
# Poissons Ratio (z) = -0.07805 0.23764
#
# Static dielectric constant tensor:
#      x y z
#    x 1.726910 0.000000 0.054740 
#    y 0.000000 1.734500 0.000000 
#    z 0.054740 0.000000 1.766960 
# 
# From -- ./inp_files/157865.got.cif
#   From: 2010.05.17/outbox.cif.g08.bks.cpg/sg12_79_cif.got.tgz:157865.got - 2010.06.03 13:09:07.
