data_PCOD9189898
_publ_section_title
;
Structure prediction by ZEFSAII (Michael W. Deem and Ramdas Pophale) SiO2 
 PCOD9189898
Probable space group: C 2/M
;
_chemical_formula_sum "Si O2"
_cell_formula_units_Z 56
_cell_length_a 20.827990
_cell_length_b 8.495021
_cell_length_c 28.311581
_cell_angle_alpha 90.000000
_cell_angle_beta 34.459509
_cell_angle_gamma 90.000000
_cell_volume 2834.373390
_symmetry_space_group_name_H-M "C 2/M"
_symmetry_group_IT_number 12
_symmetry_cell_setting 'monoclinic'
loop_
_space_group_symop_operation_xyz
x,y,z
-x,y,-z
-x,-y,-z
x,-y,z
1/2+x,1/2+y,z
1/2-x,1/2+y,-z
1/2-x,1/2-y,-z
1/2+x,1/2-y,z
loop_
_atom_site_type_symbol
_atom_site_label
_atom_site_fract_x
_atom_site_fract_y
_atom_site_fract_z
Si Si1 0.716701 0.187323 0.968688
Si Si2 0.441340 0.182017 0.581602
Si Si3 0.112209 0.688594 0.214638
Si Si4 0.732023 0.807447 0.239647
Si Si5 0.867208 0.175339 0.481371
Si Si6 0.012109 0.809692 0.937286
Si Si7 0.364211 0.321560 0.369413
O O1 0.801423 0.258647 0.878246
O O2 0.726230 0.000000 0.962245
O O3 0.750000 0.250000 0.000000
O O4 0.589963 0.237641 0.030660
O O5 0.500000 0.255924 0.500000
O O6 0.331409 0.249380 0.674595
O O7 0.541085 0.196137 0.559509
O O8 0.415385 0.000000 0.585848
O O9 0.106200 0.500000 0.219422
O O10 0.162787 0.742363 0.234746
O O11 0.986947 0.755905 0.281754
O O12 0.862901 0.761275 0.155740
O O13 0.728639 0.000000 0.242052
O O14 0.745142 0.218314 0.577173
O O15 0.860858 0.174690 0.428609
O O16 0.903089 0.000000 0.474337
O O17 0.004083 0.000000 0.939279
O O18 0.000000 0.767429 0.000000
O O19 0.350004 0.500000 0.360544
#
# Coordination Sequence:
#
# PCOD9189898 Si02
#       7
#     8   8   8   8   8   8   8
#     4  12  26  44  64  91 127 166 206 255 314 375
#     4  10  20  36  57  82 116 158 202 250 303 365
#     4  11  20  37  64  90 118 155 198 250 310 371
#     4   9  18  34  60  89 117 155 201 248 306 370
#     4  10  20  34  54  80 113 153 195 245 298 351
#     4  10  19  38  66  94 123 161 207 256 314 381
#     4  10  20  34  55  85 114 148 194 246 297 354
#
# _framework density 19.757455
#
# number of rings (size 3 to 8) (size 9 to 14) (size 15 to 20)
#    0.000    1.714    2.857    2.571    0.000    1.714 
#    2.571    0.714    0.000    0.000    0.000    0.000 
#    0.000    0.000    0.000    0.000    0.000    0.000 
#
# Total GULP energy -156272.171842 kJ/mol
# GULP energy per Si atom -5581.148994 kJ/mol
# Density = 1.971249 g / cm^3
# Si number density = 19.757455 Si / 1000 Ang^3
#
#
#
# Elastic Constant Matrix: (Units=GPa)
#
#
# Indices 1 2 3 4 5 6 
#
# 1 47.0630 1.8493 32.4990 -0.0003 6.2234 0.0007
# 2 1.8493 37.5891 9.9384 -0.0005 4.8373 0.0011
# 3 32.4990 9.9384 177.1256 -0.0001 0.1700 0.0003
# 4 -0.0003 -0.0005 -0.0001 14.4161 0.0000 -4.2846
# 5 6.2234 4.8373 0.1700 0.0000 33.7151 -0.0001
# 6 0.0007 0.0011 0.0003 -4.2846 -0.0001 22.9508
#
#
#
# Elastic Compliance Matrix: (Units=1/GPa)
#
#
# Indices 1 2 3 4 5 6 
#
# 1 0.025036 0.000593 -0.004622 0.000000 -0.004683 -0.000001
# 2 0.000593 0.027532 -0.001650 0.000001 -0.004051 -0.000001
# 3 -0.004622 -0.001650 0.006585 0.000000 0.001057 0.000000
# 4 0.000000 0.000001 0.000000 0.073442 0.000000 0.013710
# 5 -0.004683 -0.004051 0.001057 0.000000 0.031101 0.000000
# 6 -0.000001 -0.000001 0.000000 0.013710 0.000000 0.046131
#
#
# Mechanical properties :
#
#
# Convention : Reuss Voigt Hill
#
# Bulk Modulus (GPa) = 20.92258 38.92788 29.92523
# Shear Modulus (GPa) = 21.08670 28.71581 24.90126
#
# Velocity S-wave (km/s) = 3.27047 3.81651 3.55399
# Velocity P-wave (km/s) = 4.98738 6.25832 5.65865
#
# Compressibility (1/GPa) = 0.04779525
#
# Stress axis : x y z
#
# Youngs Moduli (GPa) = 39.94235 36.32157 151.85147
#
# Poissons Ratio (x) = -0.02154 0.70192
# Poissons Ratio (y) = -0.02369 0.25051
# Poissons Ratio (z) = 0.18463 0.05992
#
# Static dielectric constant tensor:
#      x y z
#    x 1.693250 0.000000 0.015080 
#    y 0.000000 1.696760 0.000000 
#    z 0.015080 0.000000 1.695950 
# 
# From -- ./inp_files/380637.got.cif
#   From: 2010.05.17/outbox.cif.g08.bks.cpg/sg12_191_cif.got.tgz:380637.got - 2010.06.03 13:09:07.
