data_PCOD9189789
_publ_section_title
;
Structure prediction by ZEFSAII (Michael W. Deem and Ramdas Pophale) SiO2 
 PCOD9189789
Probable space group: C 2/M
;
_chemical_formula_sum "Si O2"
_cell_formula_units_Z 52
_cell_length_a 15.338255
_cell_length_b 10.222259
_cell_length_c 22.286241
_cell_angle_alpha 90.000000
_cell_angle_beta 126.316005
_cell_angle_gamma 90.000000
_cell_volume 2815.573778
_symmetry_space_group_name_H-M "C 2/M"
_symmetry_group_IT_number 12
_symmetry_cell_setting 'monoclinic'
loop_
_space_group_symop_operation_xyz
x,y,z
-x,y,-z
-x,-y,-z
x,-y,z
1/2+x,1/2+y,z
1/2-x,1/2+y,-z
1/2-x,1/2-y,-z
1/2+x,1/2-y,z
loop_
_atom_site_type_symbol
_atom_site_label
_atom_site_fract_x
_atom_site_fract_y
_atom_site_fract_z
Si Si1 0.912116 0.147276 0.725082
Si Si2 0.248708 0.846749 0.443490
Si Si3 0.118002 0.853526 0.577640
Si Si4 0.264710 0.000000 0.913692
Si Si5 0.640717 0.764751 0.827439
Si Si6 0.637246 0.000000 0.914798
Si Si7 0.115778 0.500000 0.154871
Si Si8 0.734874 0.264040 0.738342
O O1 0.864271 0.157092 0.638494
O O2 0.812052 0.172358 0.729429
O O3 0.011535 0.244172 0.773649
O O4 0.951982 0.000000 0.750528
O O5 0.250000 0.750000 0.500000
O O6 0.330397 0.772734 0.432638
O O7 0.273195 0.000000 0.465832
O O8 0.140907 0.825185 0.657307
O O9 0.000000 0.860499 0.500000
O O10 0.167075 0.000000 0.585783
O O11 0.196015 0.871025 0.869860
O O12 0.366629 0.000000 0.909657
O O13 0.301157 0.000000 0.997096
O O14 0.683503 0.795026 0.777709
O O15 0.666121 0.875034 0.886163
O O16 0.508526 0.000000 0.876458
O O17 0.182293 0.376952 0.207378
#
# Coordination Sequence:
#
# PCOD9189789 Si02
#       8
#     8   8   8   4   8   4   4   8
#     4  10  21  39  62  83 120 164 202 248 301 362
#     4  10  22  39  57  85 120 158 204 255 306 363
#     4  10  21  36  59  87 118 159 202 254 302 360
#     4  10  23  42  63  89 126 162 195 248 306 381
#     4  11  23  39  65  91 121 160 202 249 301 368
#     4  12  23  40  63  97 121 153 201 257 310 355
#     4  10  19  38  63  86 118 159 199 245 299 361
#     4  10  21  38  59  88 121 157 205 248 297 360
#
# _framework density 18.468703999999999
#
# number of rings (size 3 to 8) (size 9 to 14) (size 15 to 20)
#    0.000    1.692    3.077    1.154    3.231    0.308 
#    1.385    0.000    0.000    0.923    0.000    0.000 
#    0.000    0.000    0.000    0.000    0.000    0.000 
#
# Total GULP energy -144855.557081 kJ/mol
# GULP energy per Si atom -5571.367580 kJ/mol
# Density = 1.842667 g / cm^3
# Si number density = 18.468704 Si / 1000 Ang^3
#
#
#
# Elastic Constant Matrix: (Units=GPa)
#
#
# Indices 1 2 3 4 5 6 
#
# 1 81.2222 23.6377 46.2232 0.0000 -14.9249 0.0000
# 2 23.6377 104.7269 37.6500 0.0000 -18.9682 0.0000
# 3 46.2232 37.6500 115.9138 0.0000 -22.6814 0.0000
# 4 0.0000 0.0000 0.0000 18.8681 0.0000 -8.0149
# 5 -14.9249 -18.9682 -22.6814 0.0000 30.5235 0.0000
# 6 0.0000 0.0000 0.0000 -8.0149 0.0000 20.4590
#
#
#
# Elastic Compliance Matrix: (Units=1/GPa)
#
#
# Indices 1 2 3 4 5 6 
#
# 1 0.016380 -0.001127 -0.005541 0.000000 0.003191 0.000000
# 2 -0.001127 0.011527 -0.002341 0.000000 0.004873 0.000000
# 3 -0.005541 -0.002341 0.012617 0.000000 0.005211 0.000000
# 4 0.000000 0.000000 0.000000 0.063580 0.000000 0.024908
# 5 0.003191 0.004873 0.005211 0.000000 0.041222 0.000000
# 6 0.000000 0.000000 0.000000 0.024908 0.000000 0.058636
#
#
# Mechanical properties :
#
#
# Convention : Reuss Voigt Hill
#
# Bulk Modulus (GPa) = 44.43500 57.43165 50.93332
# Shear Modulus (GPa) = 21.78814 26.92692 24.35753
#
# Velocity S-wave (km/s) = 3.43845 3.82249 3.63554
# Velocity P-wave (km/s) = 6.31473 7.11661 6.72763
#
# Compressibility (1/GPa) = 0.02250478
#
# Stress axis : x y z
#
# Youngs Moduli (GPa) = 61.05074 86.75090 79.25832
#
# Poissons Ratio (x) = 0.09776 0.43920
# Poissons Ratio (y) = 0.06880 0.18557
# Poissons Ratio (z) = 0.33830 0.20311
#
# Static dielectric constant tensor:
#      x y z
#    x 1.673120 0.000000 -0.029890 
#    y 0.000000 1.652530 0.000000 
#    z -0.029890 0.000000 1.647880 
# 
# From -- ./inp_files/314951.got.cif
#   From: 2010.05.17/outbox.cif.g08.bks.cpg/sg12_158_cif.got.tgz:314951.got - 2010.06.03 13:09:07.
