data_PCOD9189124
_publ_section_title
;
Structure prediction by ZEFSAII (Michael W. Deem and Ramdas Pophale) SiO2 
 PCOD9189124
Probable space group: C 2/M
;
_chemical_formula_sum "Si O2"
_cell_formula_units_Z 64
_cell_length_a 14.800478
_cell_length_b 33.414443
_cell_length_c 10.061064
_cell_angle_alpha 90.000000
_cell_angle_beta 39.447144
_cell_angle_gamma 90.000000
_cell_volume 3161.388947
_symmetry_space_group_name_H-M "C 2/M"
_symmetry_group_IT_number 12
_symmetry_cell_setting 'monoclinic'
loop_
_space_group_symop_operation_xyz
x,y,z
-x,y,-z
-x,-y,-z
x,-y,z
1/2+x,1/2+y,z
1/2-x,1/2+y,-z
1/2-x,1/2-y,-z
1/2+x,1/2-y,z
loop_
_atom_site_type_symbol
_atom_site_label
_atom_site_fract_x
_atom_site_fract_y
_atom_site_fract_z
Si Si1 0.101260 0.331700 0.573860
Si Si2 0.844907 0.852950 0.691311
Si Si3 0.695189 0.603123 0.534828
Si Si4 0.407620 0.907688 0.721660
Si Si5 0.888714 0.879109 0.940766
Si Si6 0.777897 0.204376 0.137422
Si Si7 0.375418 0.210406 0.977132
Si Si8 0.958228 0.452335 0.198287
O O1 0.226162 0.359372 0.487554
O O2 0.165572 0.305605 0.381115
O O3 0.979335 0.364009 0.668925
O O4 0.032964 0.304816 0.766962
O O5 0.830225 0.884242 0.589281
O O6 0.850455 0.873995 0.827907
O O7 0.000000 0.832214 0.500000
O O8 0.716950 0.821726 0.837177
O O9 0.540732 0.600046 0.777952
O O10 0.805989 0.566799 0.409963
O O11 0.500000 0.926699 0.500000
O O12 0.427583 0.933004 0.831619
O O13 0.248556 0.902126 0.849880
O O14 0.881100 0.834025 0.006109
O O15 0.695356 0.209500 0.090732
O O16 0.859635 0.246103 0.058385
O O17 0.955743 0.500000 0.211476
O O18 0.000000 0.441144 0.000000
#
# Coordination Sequence:
#
# PCOD9189124 Si02
#       8
#     8   8   8   8   8   8   8   8
#     4  11  20  36  55  85 113 155 203 246 299 355
#     4   9  18  34  52  81 111 149 207 245 287 350
#     4  10  23  36  61  84 118 156 189 244 297 361
#     4  11  19  37  67  90 118 155 206 247 280 363
#     4  10  19  37  57  86 114 155 203 240 290 348
#     4  10  20  34  55  80 115 150 205 249 298 341
#     4  10  20  33  56  79 110 158 199 258 293 344
#     4  10  23  42  65  95 125 154 189 240 305 363
#
# _framework density 20.244266
#
# number of rings (size 3 to 8) (size 9 to 14) (size 15 to 20)
#    0.000    1.875    3.750    1.125    1.750    4.750 
#    0.000    4.375    0.000    5.625    0.000    0.000 
#    0.000    0.000    0.000    0.000    0.000    0.000 
#
# Total GULP energy -178705.764126 kJ/mol
# GULP energy per Si atom -5584.555129 kJ/mol
# Density = 2.019819 g / cm^3
# Si number density = 20.244266 Si / 1000 Ang^3
#
#
#
# Elastic Constant Matrix: (Units=GPa)
#
#
# Indices 1 2 3 4 5 6 
#
# 1 36.0418 12.2458 9.7290 0.0000 -11.7850 0.0000
# 2 12.2458 65.0280 32.4914 0.0000 -2.9174 0.0000
# 3 9.7290 32.4914 114.2826 0.0000 -16.3587 0.0000
# 4 0.0000 0.0000 0.0000 23.9024 0.0000 4.9600
# 5 -11.7850 -2.9174 -16.3587 0.0000 31.1879 0.0000
# 6 0.0000 0.0000 0.0000 4.9600 0.0000 16.0218
#
#
#
# Elastic Compliance Matrix: (Units=1/GPa)
#
#
# Indices 1 2 3 4 5 6 
#
# 1 0.033743 -0.006123 0.000661 0.000000 0.012524 0.000000
# 2 -0.006123 0.019069 -0.005380 0.000000 -0.003352 0.000000
# 3 0.000661 -0.005380 0.011014 0.000000 0.005524 0.000000
# 4 0.000000 0.000000 0.000000 0.044709 0.000000 -0.013841
# 5 0.012524 -0.003352 0.005524 0.000000 0.039380 0.000000
# 6 0.000000 0.000000 0.000000 -0.013841 0.000000 0.066700
#
#
# Mechanical properties :
#
#
# Convention : Reuss Voigt Hill
#
# Bulk Modulus (GPa) = 23.72915 36.03165 29.88040
# Shear Modulus (GPa) = 19.97247 24.94819 22.46033
#
# Velocity S-wave (km/s) = 3.14439 3.51430 3.33448
# Velocity P-wave (km/s) = 4.99297 5.85698 5.44215
#
# Compressibility (1/GPa) = 0.04214225
#
# Stress axis : x y z
#
# Youngs Moduli (GPa) = 29.63612 52.44200 90.79199
#
# Poissons Ratio (x) = 0.32108 -0.06001
# Poissons Ratio (y) = 0.18145 0.48845
# Poissons Ratio (z) = -0.01959 0.28213
#
# Static dielectric constant tensor:
#      x y z
#    x 1.765400 0.000000 0.001910 
#    y 0.000000 1.676860 0.000000 
#    z 0.001910 0.000000 1.776050 
# 
# From -- ./inp_files/161186.got.cif
#   From: 2010.05.17/outbox.cif.g08.bks.cpg/sg12_81_cif.got.tgz:161186.got - 2010.06.03 13:09:07.
