data_PCOD9189964
_publ_section_title
;
Structure prediction by ZEFSAII (Michael W. Deem and Ramdas Pophale) SiO2 
 PCOD9189964
Probable space group: C 2/M
;
_chemical_formula_sum "Si O2"
_cell_formula_units_Z 56
_cell_length_a 14.929117
_cell_length_b 28.514323
_cell_length_c 9.753139
_cell_angle_alpha 90.000000
_cell_angle_beta 133.286634
_cell_angle_gamma 90.000000
_cell_volume 3022.267109
_symmetry_space_group_name_H-M "C 2/M"
_symmetry_group_IT_number 12
_symmetry_cell_setting 'monoclinic'
loop_
_space_group_symop_operation_xyz
x,y,z
-x,y,-z
-x,-y,-z
x,-y,z
1/2+x,1/2+y,z
1/2-x,1/2+y,-z
1/2-x,1/2-y,-z
1/2+x,1/2-y,z
loop_
_atom_site_type_symbol
_atom_site_label
_atom_site_fract_x
_atom_site_fract_y
_atom_site_fract_z
Si Si1 0.647241 0.053907 0.678076
Si Si2 0.322893 0.741763 0.435108
Si Si3 0.362709 0.689602 0.886396
Si Si4 0.510363 0.176962 0.351500
Si Si5 0.640399 0.366439 0.606622
Si Si6 0.747127 0.117088 0.553471
Si Si7 0.264043 0.866051 0.020377
O O1 0.500000 0.056768 0.500000
O O2 0.711406 0.072525 0.606880
O O3 0.693107 0.089089 0.845248
O O4 0.677896 0.000000 0.739985
O O5 0.250000 0.750000 0.500000
O O6 0.240795 0.770309 0.238779
O O7 0.449678 0.769202 0.595336
O O8 0.342275 0.688591 0.413656
O O9 0.330461 0.651220 0.735231
O O10 0.340957 0.662375 0.005993
O O11 0.500000 0.706891 0.000000
O O12 0.500000 0.161045 0.500000
O O13 0.621182 0.147157 0.401917
O O14 0.383696 0.167208 0.144670
O O15 0.500000 0.375167 0.500000
O O16 0.687085 0.392748 0.520035
O O17 0.720941 0.377742 0.824106
#
# Coordination Sequence:
#
# PCOD9189964 Si02
#       7
#     8   8   8   8   8   8   8
#     4  10  19  39  72 101 120 144 192 250 315 383
#     4  11  22  37  55  79 118 163 211 262 287 340
#     4  10  20  36  56  78 113 161 211 248 288 350
#     4  11  17  38  59  81 119 156 198 251 300 349
#     4  12  26  40  57  84 123 172 209 248 304 356
#     4  10  19  39  60  83 124 157 186 247 308 355
#     4  11  22  37  62  90 118 164 193 256 308 359
#
# _framework density 18.529138
#
# number of rings (size 3 to 8) (size 9 to 14) (size 15 to 20)
#    0.000    1.286    8.571    1.286    0.000    2.286 
#    0.000    0.714    0.000   18.000    0.000    0.000 
#    0.000    0.000    0.000    0.000    0.000    0.000 
#
# Total GULP energy -156352.601828 kJ/mol
# GULP energy per Si atom -5584.021494 kJ/mol
# Density = 1.848696 g / cm^3
# Si number density = 18.529138 Si / 1000 Ang^3
#
#
#
# Elastic Constant Matrix: (Units=GPa)
#
#
# Indices 1 2 3 4 5 6 
#
# 1 116.2080 16.3745 39.9113 0.0000 -9.2223 0.0000
# 2 16.3745 83.2029 12.5912 0.0000 0.2608 0.0000
# 3 39.9113 12.5912 74.7275 0.0000 -3.7249 0.0000
# 4 0.0000 0.0000 0.0000 9.6204 0.0000 4.8206
# 5 -9.2223 0.2608 -3.7249 0.0000 34.1069 0.0000
# 6 0.0000 0.0000 0.0000 4.8206 0.0000 16.8103
#
#
#
# Elastic Compliance Matrix: (Units=1/GPa)
#
#
# Indices 1 2 3 4 5 6 
#
# 1 0.010851 -0.001317 -0.005457 0.000000 0.002348 0.000000
# 2 -0.001317 0.012497 -0.001432 0.000000 -0.000608 0.000000
# 3 -0.005457 -0.001432 0.016555 0.000000 0.000343 0.000000
# 4 0.000000 0.000000 0.000000 0.121388 0.000000 -0.034810
# 5 0.002348 -0.000608 0.000343 0.000000 0.029997 0.000000
# 6 0.000000 0.000000 0.000000 -0.034810 0.000000 0.069469
#
#
# Mechanical properties :
#
#
# Convention : Reuss Voigt Hill
#
# Bulk Modulus (GPa) = 42.57071 45.76582 44.16826
# Shear Modulus (GPa) = 17.54392 25.79163 21.66777
#
# Velocity S-wave (km/s) = 3.08040 3.73493 3.42334
# Velocity P-wave (km/s) = 5.97300 6.58427 6.28607
#
# Compressibility (1/GPa) = 0.02349033
#
# Stress axis : x y z
#
# Youngs Moduli (GPa) = 92.15525 80.02103 60.40571
#
# Poissons Ratio (x) = 0.10540 0.32961
# Poissons Ratio (y) = 0.12138 0.08653
# Poissons Ratio (z) = 0.50285 0.11463
#
# Static dielectric constant tensor:
#      x y z
#    x 1.688470 0.000000 -0.002530 
#    y 0.000000 1.633390 0.000000 
#    z -0.002530 0.000000 1.643750 
# 
# From -- ./inp_files/68120.got.cif
#   From: 2010.05.17/outbox.cif.g08.bks.cpg/sg12_35_cif.got.tgz:68120.got - 2010.06.03 13:09:07.
