data_PCOD9189429
_publ_section_title
;
Structure prediction by ZEFSAII (Michael W. Deem and Ramdas Pophale) SiO2 
 PCOD9189429
Probable space group: C 2/M
;
_chemical_formula_sum "Si O2"
_cell_formula_units_Z 64
_cell_length_a 28.981399
_cell_length_b 7.725191
_cell_length_c 18.884341
_cell_angle_alpha 90.000000
_cell_angle_beta 45.044548
_cell_angle_gamma 90.000000
_cell_volume 2991.939543
_symmetry_space_group_name_H-M "C 2/M"
_symmetry_group_IT_number 12
_symmetry_cell_setting 'monoclinic'
loop_
_space_group_symop_operation_xyz
x,y,z
-x,y,-z
-x,-y,-z
x,-y,z
1/2+x,1/2+y,z
1/2-x,1/2+y,-z
1/2-x,1/2-y,-z
1/2+x,1/2-y,z
loop_
_atom_site_type_symbol
_atom_site_label
_atom_site_fract_x
_atom_site_fract_y
_atom_site_fract_z
Si Si1 0.921131 0.208656 0.393784
Si Si2 0.544440 0.208215 0.804309
Si Si3 0.331038 0.204337 0.727637
Si Si4 0.722319 0.294225 0.953369
Si Si5 0.845614 0.712845 0.204218
Si Si6 0.298702 0.299432 0.608087
Si Si7 0.973915 0.209328 0.605221
Si Si8 0.900365 0.705273 0.994643
O O1 0.936722 0.249951 0.296280
O O2 0.851097 0.276871 0.496792
O O3 0.978055 0.270826 0.384998
O O4 0.919313 0.000000 0.403207
O O5 0.599561 0.267558 0.799369
O O6 0.472360 0.276111 0.901616
O O7 0.542448 0.000000 0.812627
O O8 0.271909 0.273979 0.839498
O O9 0.331230 0.291484 0.650614
O O10 0.399496 0.232037 0.692414
O O11 0.321807 0.000000 0.725893
O O12 0.721680 0.500000 0.947846
O O13 0.750000 0.250000 0.000000
O O14 0.649779 0.231564 0.015110
O O15 0.843317 0.500000 0.205199
O O16 0.773723 0.775410 0.304358
O O17 0.866766 0.772605 0.102982
O O18 0.289436 0.500000 0.598014
O O19 0.000000 0.266807 0.500000
O O20 0.974028 0.000000 0.605399
O O21 0.907848 0.500000 0.997084
#
# Coordination Sequence:
#
# PCOD9189429 Si02
#       8
#     8   8   8   8   8   8   8   8
#     4  10  22  38  56  84 118 155 198 237 282 345
#     4  10  22  38  58  88 120 150 192 242 294 344
#     4  11  23  37  56  86 118 146 187 242 294 338
#     4  11  25  41  58  86 121 153 190 234 288 347
#     4   9  18  36  64  89 110 147 196 244 290 344
#     4  10  19  37  63  85 112 154 201 236 279 346
#     4  10  20  37  59  81 110 153 197 229 270 340
#     4  10  20  38  64  88 115 152 195 240 288 345
#
# _framework density 21.390806999999999
#
# number of rings (size 3 to 8) (size 9 to 14) (size 15 to 20)
#    0.000    1.875    2.500    1.125    1.750    5.250 
#    0.000    1.250    0.000    1.500    0.000    0.000 
#    0.000    0.000    0.000    0.000    0.000    0.000 
#
# Total GULP energy -178807.942992 kJ/mol
# GULP energy per Si atom -5587.748219 kJ/mol
# Density = 2.134212 g / cm^3
# Si number density = 21.390807 Si / 1000 Ang^3
#
#
#
# Elastic Constant Matrix: (Units=GPa)
#
#
# Indices 1 2 3 4 5 6 
#
# 1 162.2972 -6.8223 82.4836 -0.0065 -19.3791 -0.0079
# 2 -6.8223 34.1253 0.4447 -0.0424 -4.9596 0.0066
# 3 82.4836 0.4447 122.8607 -0.0353 -31.4516 0.0003
# 4 -0.0065 -0.0424 -0.0353 18.9268 0.0035 5.6030
# 5 -19.3791 -4.9596 -31.4516 0.0035 39.1694 0.0079
# 6 -0.0079 0.0066 0.0003 5.6030 0.0079 10.8565
#
#
#
# Elastic Compliance Matrix: (Units=1/GPa)
#
#
# Indices 1 2 3 4 5 6 
#
# 1 0.009486 0.001947 -0.006433 -0.000007 -0.000226 0.000010
# 2 0.001947 0.030368 -0.000235 0.000087 0.004620 -0.000065
# 3 -0.006433 -0.000235 0.014648 0.000031 0.008549 -0.000027
# 4 -0.000007 0.000087 0.000031 0.062364 0.000033 -0.032186
# 5 -0.000226 0.004620 0.008549 0.000033 0.032868 -0.000044
# 6 0.000010 -0.000065 -0.000027 -0.032186 -0.000044 0.108721
#
#
# Mechanical properties :
#
#
# Convention : Reuss Voigt Hill
#
# Bulk Modulus (GPa) = 22.19240 52.38836 37.29038
# Shear Modulus (GPa) = 17.67311 30.00236 23.83774
#
# Velocity S-wave (km/s) = 2.87749 3.74917 3.34187
# Velocity P-wave (km/s) = 4.63003 6.57920 5.68872
#
# Compressibility (1/GPa) = 0.04506047
#
# Stress axis : x y z
#
# Youngs Moduli (GPa) = 105.41789 32.92968 68.26954
#
# Poissons Ratio (x) = -0.06413 0.43921
# Poissons Ratio (y) = -0.20529 0.01601
# Poissons Ratio (z) = 0.67820 0.00772
#
# Static dielectric constant tensor:
#      x y z
#    x 1.727390 -0.000010 -0.023760 
#    y -0.000010 1.818380 0.000000 
#    z -0.023760 0.000000 1.770250 
# 
# From -- ./inp_files/295568.got.cif
#   From: 2010.05.17/outbox.cif.g08.bks.cpg/sg12_148_cif.got.tgz:295568.got - 2010.06.03 13:09:07.
