data_PCOD9189490
_publ_section_title
;
Structure prediction by ZEFSAII (Michael W. Deem and Ramdas Pophale) SiO2 
 PCOD9189490
Probable space group: C 2/M
;
_chemical_formula_sum "Si O2"
_cell_formula_units_Z 48
_cell_length_a 14.492201
_cell_length_b 13.834147
_cell_length_c 14.694595
_cell_angle_alpha 90.000000
_cell_angle_beta 48.947208
_cell_angle_gamma 90.000000
_cell_volume 2221.652063
_symmetry_space_group_name_H-M "C 2/M"
_symmetry_group_IT_number 12
_symmetry_cell_setting 'monoclinic'
loop_
_space_group_symop_operation_xyz
x,y,z
-x,y,-z
-x,-y,-z
x,-y,z
1/2+x,1/2+y,z
1/2-x,1/2+y,-z
1/2-x,1/2-y,-z
1/2+x,1/2-y,z
loop_
_atom_site_type_symbol
_atom_site_label
_atom_site_fract_x
_atom_site_fract_y
_atom_site_fract_z
Si Si1 0.151781 0.386676 0.199354
Si Si2 0.939409 0.720219 0.447400
Si Si3 0.410265 0.611279 0.130483
Si Si4 0.856663 0.613529 0.995999
Si Si5 0.847122 0.386612 0.202992
Si Si6 0.316256 0.289151 0.353644
O O1 0.118163 0.500000 0.210241
O O2 0.274475 0.382462 0.178541
O O3 0.179666 0.347314 0.079682
O O4 0.041297 0.335725 0.323674
O O5 0.817895 0.661917 0.558555
O O6 0.873351 0.788128 0.416625
O O7 0.000000 0.760226 0.500000
O O8 0.446034 0.500000 0.117774
O O9 0.411077 0.658911 0.226998
O O10 0.500000 0.658876 0.000000
O O11 0.821159 0.500000 0.020886
O O12 0.004818 0.616557 0.895979
O O13 0.810069 0.649667 0.124976
O O14 0.813084 0.500000 0.237419
O O15 0.803442 0.315931 0.311862
#
# Coordination Sequence:
#
# PCOD9189490 Si02
#       6
#     8   8   8   8   8   8
#     4  10  19  37  64  89 117 154 201 261 306 346
#     4  11  23  40  56  87 119 155 212 258 286 356
#     4  10  23  42  62  90 124 157 197 245 308 376
#     4   8  15  29  54  88 117 143 187 245 300 353
#     4   9  17  32  55  88 124 151 189 243 300 362
#     4  11  23  38  63  87 122 165 199 253 308 346
#
# _framework density 21.605543999999998
#
# number of rings (size 3 to 8) (size 9 to 14) (size 15 to 20)
#    0.000    2.167    3.333    1.000    2.333    1.000 
#    3.000    4.167    0.000    1.000    0.000    0.000 
#    0.000    0.000    0.000    0.000    0.000    0.000 
#
# Total GULP energy -133789.206327 kJ/mol
# GULP energy per Si atom -5574.550264 kJ/mol
# Density = 2.155637 g / cm^3
# Si number density = 21.605544 Si / 1000 Ang^3
#
#
#
# Elastic Constant Matrix: (Units=GPa)
#
#
# Indices 1 2 3 4 5 6 
#
# 1 80.9586 -0.7256 36.7094 0.0000 38.5635 0.0000
# 2 -0.7256 59.5577 26.3971 0.0000 9.9909 0.0000
# 3 36.7094 26.3971 129.9874 0.0000 27.0830 0.0000
# 4 0.0000 0.0000 0.0000 -13.2502 0.0000 -5.9392
# 5 38.5635 9.9909 27.0830 0.0000 48.4539 0.0000
# 6 0.0000 0.0000 0.0000 -5.9392 0.0000 7.6053
#
#
#
# Elastic Compliance Matrix: (Units=1/GPa)
#
#
# Indices 1 2 3 4 5 6 
#
# 1 0.021816 0.004639 -0.003719 0.000000 -0.016240 0.000000
# 2 0.004639 0.019599 -0.004164 0.000000 -0.005406 0.000000
# 3 -0.003719 -0.004164 0.009952 0.000000 -0.001744 0.000000
# 4 0.000000 0.000000 0.000000 -0.055902 0.000000 -0.043656
# 5 -0.016240 -0.005406 -0.001744 0.000000 0.035653 0.000000
# 6 0.000000 0.000000 0.000000 -0.043656 0.000000 0.097395
#
#
# Mechanical properties :
#
#
# Convention : Reuss Voigt Hill
#
# Bulk Modulus (GPa) = 22.28236 43.91839 33.10038
# Shear Modulus (GPa) = 33.34189 22.43666 27.88928
#
# Velocity S-wave (km/s) = 3.93263 3.22602 3.59672
# Velocity P-wave (km/s) = 5.56385 5.85216 5.70983
#
# Compressibility (1/GPa) = 0.04487854
#
# Stress axis : x y z
#
# Youngs Moduli (GPa) = 45.83815 51.02245 100.47880
#
# Poissons Ratio (x) = -0.23667 0.37370
# Poissons Ratio (y) = -0.21262 0.41837
# Poissons Ratio (z) = 0.17048 0.21245
#
# Static dielectric constant tensor:
#      x y z
#    x 1.812710 0.000000 0.026920 
#    y 0.000000 1.816030 0.000000 
#    z 0.026920 0.000000 1.857010 
# 
# From -- ./inp_files/214650.got.cif
#   From: 2010.05.17/outbox.cif.g08.bks.cpg/sg12_108_cif.got.tgz:214650.got - 2010.06.03 13:09:07.
