data_PCOD9189950
_publ_section_title
;
Structure prediction by ZEFSAII (Michael W. Deem and Ramdas Pophale) SiO2 
 PCOD9189950
Probable space group: C 2/M
;
_chemical_formula_sum "Si O2"
_cell_formula_units_Z 64
_cell_length_a 15.259003
_cell_length_b 24.547801
_cell_length_c 10.253737
_cell_angle_alpha 90.000000
_cell_angle_beta 117.863223
_cell_angle_gamma 90.000000
_cell_volume 3395.513941
_symmetry_space_group_name_H-M "C 2/M"
_symmetry_group_IT_number 12
_symmetry_cell_setting 'monoclinic'
loop_
_space_group_symop_operation_xyz
x,y,z
-x,y,-z
-x,-y,-z
x,-y,z
1/2+x,1/2+y,z
1/2-x,1/2+y,-z
1/2-x,1/2-y,-z
1/2+x,1/2-y,z
loop_
_atom_site_type_symbol
_atom_site_label
_atom_site_fract_x
_atom_site_fract_y
_atom_site_fract_z
Si Si1 0.077892 0.264630 0.939659
Si Si2 0.300849 0.131634 0.597256
Si Si3 0.052815 0.278493 0.402866
Si Si4 0.613492 0.064887 0.567740
Si Si5 0.754845 0.565549 0.094040
Si Si6 0.289511 0.860892 0.887425
Si Si7 0.595121 0.641049 0.883131
Si Si8 0.930078 0.148940 0.573630
O O1 0.099856 0.200245 0.952576
O O2 0.026998 0.281069 0.768767
O O3 0.169179 0.303951 0.030849
O O4 0.000000 0.274857 0.000000
O O5 0.352188 0.185640 0.571196
O O6 0.345347 0.083888 0.541505
O O7 0.326288 0.129044 0.767866
O O8 0.182201 0.129030 0.505912
O O9 0.078074 0.214713 0.433929
O O10 0.000000 0.295541 0.500000
O O11 0.500000 0.083504 0.500000
O O12 0.684663 0.083382 0.735643
O O13 0.613194 0.000000 0.575819
O O14 0.747775 0.500000 0.083249
O O15 0.810486 0.591068 0.005949
O O16 0.647014 0.594964 0.007786
O O17 0.170415 0.855897 0.811930
O O18 0.487679 0.632249 0.746584
O O19 0.000000 0.132459 0.500000
#
# Coordination Sequence:
#
# PCOD9189950 Si02
#       8
#     8   8   8   8   8   8   8   8
#     4  11  21  37  58  90 128 160 209 251 309 379
#     4  12  22  37  62  91 121 161 212 252 301 372
#     4  10  23  36  57  86 127 166 204 250 306 370
#     4  10  24  45  65  90 124 157 200 261 315 361
#     4   9  21  42  66  89 118 160 209 256 309 368
#     4  10  22  37  60  88 123 161 202 251 308 371
#     4   9  21  38  62  85 123 169 200 254 313 360
#     4  10  19  39  56  86 127 164 202 253 304 357
#
# _framework density 18.848399000000001
#
# number of rings (size 3 to 8) (size 9 to 14) (size 15 to 20)
#    0.750    1.125    2.500    1.125    3.500    2.500 
#    2.250    0.625    0.000    6.000    0.000    0.000 
#    0.000    0.000    0.000    0.000    0.000    0.000 
#
# Total GULP energy -178334.967231 kJ/mol
# GULP energy per Si atom -5572.967726 kJ/mol
# Density = 1.880550 g / cm^3
# Si number density = 18.848399 Si / 1000 Ang^3
#
#
#
# Elastic Constant Matrix: (Units=GPa)
#
#
# Indices 1 2 3 4 5 6 
#
# 1 55.0844 -3.1196 17.4913 0.0000 0.0886 0.0000
# 2 -3.1196 42.8385 26.8659 0.0000 14.7634 0.0000
# 3 17.4913 26.8659 84.8170 0.0000 -1.2664 0.0000
# 4 0.0000 0.0000 0.0000 22.5370 0.0000 3.1138
# 5 0.0886 14.7634 -1.2664 0.0000 28.3427 0.0000
# 6 0.0000 0.0000 0.0000 3.1138 0.0000 9.6710
#
#
#
# Elastic Compliance Matrix: (Units=1/GPa)
#
#
# Indices 1 2 3 4 5 6 
#
# 1 0.020624 0.006962 -0.006518 0.000000 -0.003982 0.000000
# 2 0.006962 0.040504 -0.014590 0.000000 -0.021772 0.000000
# 3 -0.006518 -0.014590 0.017881 0.000000 0.008419 0.000000
# 4 0.000000 0.000000 0.000000 0.046437 0.000000 -0.014952
# 5 -0.003982 -0.021772 0.008419 0.000000 0.047012 0.000000
# 6 0.000000 0.000000 0.000000 -0.014952 0.000000 0.108216
#
#
# Mechanical properties :
#
#
# Convention : Reuss Voigt Hill
#
# Bulk Modulus (GPa) = 19.71733 29.46837 24.59285
# Shear Modulus (GPa) = 15.34341 21.54364 18.44352
#
# Velocity S-wave (km/s) = 2.85624 3.38449 3.13152
# Velocity P-wave (km/s) = 4.62182 5.56250 5.11383
#
# Compressibility (1/GPa) = 0.05071682
#
# Stress axis : x y z
#
# Youngs Moduli (GPa) = 48.48651 24.68897 55.92374
#
# Poissons Ratio (x) = -0.17188 0.36450
# Poissons Ratio (y) = -0.33756 0.81595
# Poissons Ratio (z) = 0.31603 0.36022
#
# Static dielectric constant tensor:
#      x y z
#    x 1.718830 0.000000 0.069840 
#    y 0.000000 1.636130 0.000000 
#    z 0.069840 0.000000 1.727540 
# 
# From -- ./inp_files/67021.got.cif
#   From: 2010.05.17/outbox.cif.g08.bks.cpg/sg12_34_cif.got.tgz:67021.got - 2010.06.03 13:09:07.
