data_PCOD9189517
_publ_section_title
;
Structure prediction by ZEFSAII (Michael W. Deem and Ramdas Pophale) SiO2 
 PCOD9189517
Probable space group: C 2/M
;
_chemical_formula_sum "Si O2"
_cell_formula_units_Z 64
_cell_length_a 17.905751
_cell_length_b 15.003369
_cell_length_c 24.559852
_cell_angle_alpha 90.000000
_cell_angle_beta 31.207196
_cell_angle_gamma 90.000000
_cell_volume 3418.609791
_symmetry_space_group_name_H-M "C 2/M"
_symmetry_group_IT_number 12
_symmetry_cell_setting 'monoclinic'
loop_
_space_group_symop_operation_xyz
x,y,z
-x,y,-z
-x,-y,-z
x,-y,z
1/2+x,1/2+y,z
1/2-x,1/2+y,-z
1/2-x,1/2-y,-z
1/2+x,1/2-y,z
loop_
_atom_site_type_symbol
_atom_site_label
_atom_site_fract_x
_atom_site_fract_y
_atom_site_fract_z
Si Si1 0.037207 0.396526 0.811857
Si Si2 0.339336 0.307969 0.598122
Si Si3 0.200747 0.685079 0.482709
Si Si4 0.705837 0.659572 0.752852
Si Si5 0.146784 0.271354 0.151525
Si Si6 0.523869 0.214924 0.048731
Si Si7 0.917873 0.400595 0.707753
Si Si8 0.945999 0.899627 0.263564
O O1 0.010134 0.500000 0.820167
O O2 0.924948 0.334513 0.849260
O O3 0.016484 0.368206 0.887579
O O4 0.199349 0.371181 0.690621
O O5 0.500000 0.348329 0.500000
O O6 0.330760 0.250020 0.548516
O O7 0.312728 0.236014 0.662763
O O8 0.250000 0.750000 0.500000
O O9 0.325471 0.619300 0.384309
O O10 0.065782 0.628586 0.587125
O O11 0.583171 0.707874 0.864221
O O12 0.797320 0.599613 0.736075
O O13 0.631573 0.614946 0.746659
O O14 0.119991 0.325405 0.224149
O O15 0.062356 0.177881 0.199902
O O16 0.314416 0.249100 0.041559
O O17 0.500000 0.196854 0.000000
O O18 0.929151 0.500000 0.724910
O O19 0.002663 0.000000 0.231505
#
# Coordination Sequence:
#
# PCOD9189517 Si02
#       8
#     8   8   8   8   8   8   8   8
#     4  11  24  43  65  94 127 164 212 257 309 377
#     4  10  19  37  65  88 123 172 204 248 312 367
#     4  11  20  37  61  89 128 166 201 253 312 364
#     4  10  21  41  62  92 126 158 204 264 316 369
#     4  12  23  42  66  89 129 169 204 260 316 367
#     4  11  23  43  69  87 121 168 208 262 319 365
#     4  12  23  37  64  97 127 165 208 252 314 379
#     4  11  23  40  64  95 125 162 210 252 308 377
#
# _framework density 18.721060000000001
#
# number of rings (size 3 to 8) (size 9 to 14) (size 15 to 20)
#    0.000    1.000    7.500    1.500    0.000    1.000 
#    0.000    5.000    0.000    0.000    0.000    0.000 
#    0.000    0.000    0.000    0.000    0.000    0.000 
#
# Total GULP energy -178664.642789 kJ/mol
# GULP energy per Si atom -5583.270087 kJ/mol
# Density = 1.867845 g / cm^3
# Si number density = 18.721060 Si / 1000 Ang^3
#
#
#
# Elastic Constant Matrix: (Units=GPa)
#
#
# Indices 1 2 3 4 5 6 
#
# 1 89.4438 43.0501 47.8295 0.0002 -5.0928 0.0000
# 2 43.0501 136.3924 43.5636 0.0004 -8.5877 0.0000
# 3 47.8295 43.5636 120.1389 0.0004 -13.2936 -0.0001
# 4 0.0002 0.0004 0.0004 10.1899 0.0000 2.1943
# 5 -5.0928 -8.5877 -13.2936 0.0000 32.7443 0.0000
# 6 0.0000 0.0000 -0.0001 2.1943 0.0000 12.4212
#
#
#
# Elastic Compliance Matrix: (Units=1/GPa)
#
#
# Indices 1 2 3 4 5 6 
#
# 1 0.015411 -0.003300 -0.004993 0.000000 -0.000496 0.000000
# 2 -0.003300 0.009030 -0.001838 0.000000 0.001109 0.000000
# 3 -0.004993 -0.001838 0.011349 0.000000 0.003349 0.000000
# 4 0.000000 0.000000 0.000000 0.102017 0.000000 -0.018022
# 5 -0.000496 0.001109 0.003349 0.000000 0.032113 0.000000
# 6 0.000000 0.000000 0.000000 -0.018022 0.000000 0.083691
#
#
# Mechanical properties :
#
#
# Convention : Reuss Voigt Hill
#
# Bulk Modulus (GPa) = 64.40684 68.31797 66.36241
# Shear Modulus (GPa) = 17.91799 25.17321 21.54560
#
# Velocity S-wave (km/s) = 3.09707 3.67092 3.39614
# Velocity P-wave (km/s) = 6.87511 7.38508 7.13465
#
# Compressibility (1/GPa) = 0.01552630
#
# Stress axis : x y z
#
# Youngs Moduli (GPa) = 64.88999 110.73765 88.11655
#
# Poissons Ratio (x) = 0.36549 0.44000
# Poissons Ratio (y) = 0.21417 0.16194
# Poissons Ratio (z) = 0.32402 0.20351
#
# Static dielectric constant tensor:
#      x y z
#    x 1.667630 0.000000 -0.001530 
#    y 0.000000 1.629290 0.000000 
#    z -0.001530 0.000000 1.645910 
# 
# From -- ./inp_files/344036.got.cif
#   From: 2010.05.17/outbox.cif.g08.bks.cpg/sg12_173_cif.got.tgz:344036.got - 2010.06.03 13:09:07.
