data_PCOD9189004
_publ_section_title
;
Structure prediction by ZEFSAII (Michael W. Deem and Ramdas Pophale) SiO2 
 PCOD9189004
Probable space group: C 2/M
;
_chemical_formula_sum "Si O2"
_cell_formula_units_Z 32
_cell_length_a 10.638566
_cell_length_b 19.025825
_cell_length_c 9.958673
_cell_angle_alpha 90.000000
_cell_angle_beta 41.023900
_cell_angle_gamma 90.000000
_cell_volume 1323.059242
_symmetry_space_group_name_H-M "C 2/M"
_symmetry_group_IT_number 12
_symmetry_cell_setting 'monoclinic'
loop_
_space_group_symop_operation_xyz
x,y,z
-x,y,-z
-x,-y,-z
x,-y,z
1/2+x,1/2+y,z
1/2-x,1/2+y,-z
1/2-x,1/2-y,-z
1/2+x,1/2-y,z
loop_
_atom_site_type_symbol
_atom_site_label
_atom_site_fract_x
_atom_site_fract_y
_atom_site_fract_z
Si Si1 0.073700 0.693568 0.796734
Si Si2 0.553650 0.325055 0.649108
Si Si3 0.230578 0.419638 0.309002
Si Si4 0.726439 0.918286 0.000566
O O1 0.300379 0.688355 0.589958
O O2 0.995064 0.748894 0.751359
O O3 0.000000 0.718650 0.000000
O O4 0.978519 0.618046 0.850453
O O5 0.683367 0.362431 0.660575
O O6 0.374219 0.376615 0.788255
O O7 0.287161 0.500000 0.302733
O O8 0.000000 0.416560 0.500000
O O9 0.286609 0.409379 0.108156
O O10 0.720128 0.000000 0.975158
#
# Coordination Sequence:
#
# PCOD9189004 Si02
#       4
#     8   8   8   8
#     4  11  25  43  61  90 125 166 205 253 301 364
#     4  11  23  41  66  92 122 162 205 253 310 366
#     4  10  19  36  64  95 124 155 198 255 312 357
#     4  11  23  40  65  93 125 162 205 255 305 363
#
# _framework density 24.186371999999999
#
# number of rings (size 3 to 8) (size 9 to 14) (size 15 to 20)
#    0.000    1.250    2.500    3.750    0.000    4.500 
#    0.000    1.250    0.000    0.000    0.000    0.000 
#    0.000    0.000    0.000    0.000    0.000    0.000 
#
# Total GULP energy -89645.484459 kJ/mol
# GULP energy per Si atom -5602.842779 kJ/mol
# Density = 2.413132 g / cm^3
# Si number density = 24.186372 Si / 1000 Ang^3
#
#
#
# Elastic Constant Matrix: (Units=GPa)
#
#
# Indices 1 2 3 4 5 6 
#
# 1 20.6659 8.9173 17.8505 -0.0001 7.5565 0.0000
# 2 8.9173 118.3986 61.2649 0.0000 6.1023 0.0000
# 3 17.8505 61.2649 186.8361 -0.0001 2.7388 0.0000
# 4 -0.0001 0.0000 -0.0001 29.7010 0.0001 -21.0948
# 5 7.5565 6.1023 2.7388 0.0001 38.8156 0.0000
# 6 0.0000 0.0000 0.0000 -21.0948 0.0000 16.4930
#
#
#
# Elastic Compliance Matrix: (Units=1/GPa)
#
#
# Indices 1 2 3 4 5 6 
#
# 1 0.057001 -0.001217 -0.004892 0.000001 -0.010560 0.000001
# 2 -0.001217 0.010271 -0.003235 0.000000 -0.001149 0.000000
# 3 -0.004892 -0.003235 0.006866 0.000000 0.000976 0.000000
# 4 0.000001 0.000000 0.000000 0.367601 -0.000001 0.470168
# 5 -0.010560 -0.001149 0.000976 -0.000001 0.027930 -0.000001
# 6 0.000001 0.000000 0.000000 0.470168 -0.000001 0.661984
#
#
# Mechanical properties :
#
#
# Convention : Reuss Voigt Hill
#
# Bulk Modulus (GPa) = 18.03436 55.77399 36.90417
# Shear Modulus (GPa) = 4.27780 32.85977 18.56879
#
# Velocity S-wave (km/s) = 1.33136 3.68993 2.77381
# Velocity P-wave (km/s) = 3.13623 6.42372 5.05471
#
# Compressibility (1/GPa) = 0.05544972
#
# Stress axis : x y z
#
# Youngs Moduli (GPa) = 17.54351 97.36373 145.64458
#
# Poissons Ratio (x) = 0.11854 0.71248
# Poissons Ratio (y) = 0.02136 0.47111
# Poissons Ratio (z) = 0.08582 0.31494
#
# Static dielectric constant tensor:
#      x y z
#    x 1.993090 0.000000 0.003840 
#    y 0.000000 1.845770 0.000000 
#    z 0.003840 0.000000 1.937460 
# 
# From -- ./inp_files/130734.got.cif
#   From: 2010.05.17/outbox.cif.g08.bks.cpg/sg12_66_cif.got.tgz:130734.got - 2010.06.03 13:09:07.
