data_PCOD9189227
_publ_section_title
;
Structure prediction by ZEFSAII (Michael W. Deem and Ramdas Pophale) SiO2 
 PCOD9189227
Probable space group: C 2/M
;
_chemical_formula_sum "Si O2"
_cell_formula_units_Z 64
_cell_length_a 21.838569
_cell_length_b 9.684058
_cell_length_c 14.691357
_cell_angle_alpha 90.000000
_cell_angle_beta 78.625626
_cell_angle_gamma 90.000000
_cell_volume 3045.992463
_symmetry_space_group_name_H-M "C 2/M"
_symmetry_group_IT_number 12
_symmetry_cell_setting 'monoclinic'
loop_
_space_group_symop_operation_xyz
x,y,z
-x,y,-z
-x,-y,-z
x,-y,z
1/2+x,1/2+y,z
1/2-x,1/2+y,-z
1/2-x,1/2-y,-z
1/2+x,1/2-y,z
loop_
_atom_site_type_symbol
_atom_site_label
_atom_site_fract_x
_atom_site_fract_y
_atom_site_fract_z
Si Si1 0.453380 0.160363 0.708837
Si Si2 0.257138 0.838353 0.161021
Si Si3 0.763048 0.661678 0.652679
Si Si4 0.132281 0.157183 0.617127
Si Si5 0.956600 0.839706 0.192426
Si Si6 0.097879 0.338563 0.466948
Si Si7 0.400966 0.839750 0.055354
Si Si8 0.847437 0.658387 0.882550
O O1 0.494654 0.260458 0.757724
O O2 0.444857 0.202564 0.606291
O O3 0.385354 0.161274 0.777062
O O4 0.475167 0.000000 0.706506
O O5 0.246425 0.762127 0.259733
O O6 0.329233 0.826627 0.110590
O O7 0.210141 0.761434 0.106346
O O8 0.241852 0.000000 0.171553
O O9 0.757492 0.500000 0.683186
O O10 0.705679 0.688715 0.601048
O O11 0.830579 0.678267 0.588096
O O12 0.106121 0.165417 0.727272
O O13 0.094665 0.255190 0.560810
O O14 0.124092 0.000000 0.587941
O O15 0.943475 0.759127 0.103204
O O16 0.973071 0.000000 0.173374
O O17 0.086433 0.500000 0.487040
O O18 0.420342 0.000000 0.061306
O O19 0.395353 0.807975 0.949991
O O20 0.826263 0.500000 0.905125
#
# Coordination Sequence:
#
# PCOD9189227 Si02
#       8
#     8   8   8   8   8   8   8   8
#     4  10  22  41  62  83 112 154 200 242 287 343
#     4  11  21  33  57  93 123 150 189 239 289 338
#     4  10  19  37  60  84 118 156 192 229 287 358
#     4  10  22  38  59  86 117 154 189 233 294 349
#     4  11  24  41  61  84 115 155 195 244 297 342
#     4  10  21  37  61  88 114 151 194 237 285 342
#     4  10  22  39  61  89 118 154 196 237 286 346
#     4  10  21  40  63  85 118 159 194 233 288 352
#
# _framework density 21.011213000000001
#
# number of rings (size 3 to 8) (size 9 to 14) (size 15 to 20)
#    0.000    1.750    2.500    1.500    0.000    5.000 
#    0.000    5.000    0.000    0.000    0.000    0.000 
#    0.000    0.000    0.000    0.000    0.000    0.000 
#
# Total GULP energy -178875.918095 kJ/mol
# GULP energy per Si atom -5589.872440 kJ/mol
# Density = 2.096339 g / cm^3
# Si number density = 21.011213 Si / 1000 Ang^3
#
#
#
# Elastic Constant Matrix: (Units=GPa)
#
#
# Indices 1 2 3 4 5 6 
#
# 1 72.2404 45.1953 6.5995 0.0000 21.9065 0.0000
# 2 45.1953 88.5651 52.1468 0.0000 35.8611 0.0000
# 3 6.5995 52.1468 97.8872 0.0000 28.8833 0.0000
# 4 0.0000 0.0000 0.0000 30.0781 0.0000 9.7974
# 5 21.9065 35.8611 28.8833 0.0000 40.6252 0.0000
# 6 0.0000 0.0000 0.0000 9.7974 0.0000 30.4642
#
#
#
# Elastic Compliance Matrix: (Units=1/GPa)
#
#
# Indices 1 2 3 4 5 6 
#
# 1 0.023909 -0.014502 0.007771 0.000000 -0.005615 0.000000
# 2 -0.014502 0.029749 -0.011932 0.000000 -0.009957 0.000000
# 3 0.007771 -0.011932 0.017941 0.000000 -0.006412 0.000000
# 4 0.000000 0.000000 0.000000 0.037137 0.000000 -0.011943
# 5 -0.005615 -0.009957 -0.006412 0.000000 0.040991 0.000000
# 6 0.000000 0.000000 0.000000 -0.011943 0.000000 0.036666
#
#
# Mechanical properties :
#
#
# Convention : Reuss Voigt Hill
#
# Bulk Modulus (GPa) = 29.17961 51.84177 40.51069
# Shear Modulus (GPa) = 21.26347 30.55024 25.90686
#
# Velocity S-wave (km/s) = 3.18465 3.81727 3.51522
# Velocity P-wave (km/s) = 5.23837 6.64497 5.98315
#
# Compressibility (1/GPa) = 0.03427050
#
# Stress axis : x y z
#
# Youngs Moduli (GPa) = 41.82584 33.61442 55.73911
#
# Poissons Ratio (x) = 0.48749 -0.43314
# Poissons Ratio (y) = 0.60657 0.66510
# Poissons Ratio (z) = -0.32502 0.40110
#
# Static dielectric constant tensor:
#      x y z
#    x 1.781120 0.000000 -0.017150 
#    y 0.000000 1.706660 0.000000 
#    z -0.017150 0.000000 1.756520 
# 
# From -- ./inp_files/238726.got.cif
#   From: 2010.05.17/outbox.cif.g08.bks.cpg/sg12_120_cif.got.tgz:238726.got - 2010.06.03 13:09:07.
