data_PCOD9189536
_publ_section_title
;
Structure prediction by ZEFSAII (Michael W. Deem and Ramdas Pophale) SiO2 
 PCOD9189536
Probable space group: C 2/M
;
_chemical_formula_sum "Si O2"
_cell_formula_units_Z 44
_cell_length_a 7.753693
_cell_length_b 19.670384
_cell_length_c 12.170857
_cell_angle_alpha 90.000000
_cell_angle_beta 85.498545
_cell_angle_gamma 90.000000
_cell_volume 1850.550234
_symmetry_space_group_name_H-M "C 2/M"
_symmetry_group_IT_number 12
_symmetry_cell_setting 'monoclinic'
loop_
_space_group_symop_operation_xyz
x,y,z
-x,y,-z
-x,-y,-z
x,-y,z
1/2+x,1/2+y,z
1/2-x,1/2+y,-z
1/2-x,1/2-y,-z
1/2+x,1/2-y,z
loop_
_atom_site_type_symbol
_atom_site_label
_atom_site_fract_x
_atom_site_fract_y
_atom_site_fract_z
Si Si1 0.690592 0.500000 0.740965
Si Si2 0.816658 0.578850 0.116504
Si Si3 0.782287 0.378444 0.886550
Si Si4 0.808618 0.392506 0.547739
Si Si5 0.328440 0.643432 0.672598
Si Si6 0.311064 0.284113 0.298026
O O1 0.678655 0.439661 0.835114
O O2 0.733956 0.441439 0.644504
O O3 0.817013 0.500000 0.083549
O O4 0.706062 0.588893 0.231348
O O5 0.014921 0.599743 0.132420
O O6 0.749073 0.623472 0.018306
O O7 0.746626 0.310782 0.818850
O O8 0.692819 0.389312 0.444847
O O9 0.811886 0.318057 0.603632
O O10 0.000000 0.412991 0.500000
O O11 0.505240 0.682871 0.683401
O O12 0.188517 0.703550 0.693524
#
# Coordination Sequence:
#
# PCOD9189536 Si02
#       6
#     4   8   8   8   8   8
#     4  10  19  37  65  95 129 169 213 259 313 390
#     4  11  22  40  70  99 135 169 219 267 320 395
#     4  10  20  42  68  97 128 174 219 266 321 384
#     4  11  23  39  67  97 131 173 217 269 322 392
#     4  12  25  43  65  98 133 174 221 271 326 387
#     4  11  25  45  66  94 134 175 220 269 327 384
#
# _framework density 23.776713000000001
#
# number of rings (size 3 to 8) (size 9 to 14) (size 15 to 20)
#    0.000    1.091    1.818    6.273    1.273    1.455 
#    6.545    4.545    0.000    0.000    0.000    0.000 
#    0.000    0.000    0.000    0.000    0.000    0.000 
#
# Total GULP energy -122701.032664 kJ/mol
# GULP energy per Si atom -5577.319667 kJ/mol
# Density = 2.372260 g / cm^3
# Si number density = 23.776713 Si / 1000 Ang^3
#
#
#
# Elastic Constant Matrix: (Units=GPa)
#
#
# Indices 1 2 3 4 5 6 
#
# 1 77.4104 -5.8047 13.3844 0.0000 18.1184 0.0000
# 2 -5.8047 30.8942 6.0203 0.0000 -4.1026 0.0000
# 3 13.3844 6.0203 108.3731 0.0000 22.7332 0.0000
# 4 0.0000 0.0000 0.0000 18.2573 0.0000 0.1999
# 5 18.1184 -4.1026 22.7332 0.0000 20.0843 0.0000
# 6 0.0000 0.0000 0.0000 0.1999 0.0000 -7.0602
#
#
#
# Elastic Compliance Matrix: (Units=1/GPa)
#
#
# Indices 1 2 3 4 5 6 
#
# 1 0.016556 0.000684 0.001339 0.000000 -0.016311 0.000000
# 2 0.000684 0.034896 -0.004444 0.000000 0.011541 0.000000
# 3 0.001339 -0.004444 0.012789 0.000000 -0.016592 0.000000
# 4 0.000000 0.000000 0.000000 0.054756 0.000000 0.001550
# 5 -0.016311 0.011541 -0.016592 0.000000 0.085642 0.000000
# 6 0.000000 0.000000 0.000000 0.001550 0.000000 -0.141594
#
#
# Mechanical properties :
#
#
# Convention : Reuss Voigt Hill
#
# Bulk Modulus (GPa) = 16.83564 27.09752 21.96658
# Shear Modulus (GPa) = 57.02174 19.79478 38.40826
#
# Velocity S-wave (km/s) = 4.90247 2.88849 4.02353
# Velocity P-wave (km/s) = 6.25634 4.74825 5.55372
#
# Compressibility (1/GPa) = 0.05939779
#
# Stress axis : x y z
#
# Youngs Moduli (GPa) = 60.40253 28.65694 78.19039
#
# Poissons Ratio (x) = -0.01959 -0.10469
# Poissons Ratio (y) = -0.04130 0.34747
# Poissons Ratio (z) = -0.08087 0.12735
#
# Static dielectric constant tensor:
#      x y z
#    x 2.021800 0.000000 -0.026000 
#    y 0.000000 1.870840 0.000000 
#    z -0.026000 0.000000 1.852500 
# 
# From -- ./inp_files/120702.got.cif
#   From: 2010.05.17/outbox.cif.g08.bks.cpg/sg12_61_cif.got.tgz:120702.got - 2010.06.03 13:09:07.
