data_PCOD9189639
_publ_section_title
;
Structure prediction by ZEFSAII (Michael W. Deem and Ramdas Pophale) SiO2 
 PCOD9189639
Probable space group: C 2/M
;
_chemical_formula_sum "Si O2"
_cell_formula_units_Z 52
_cell_length_a 12.029005
_cell_length_b 24.351085
_cell_length_c 9.946389
_cell_angle_alpha 90.000000
_cell_angle_beta 77.022907
_cell_angle_gamma 90.000000
_cell_volume 2839.078787
_symmetry_space_group_name_H-M "C 2/M"
_symmetry_group_IT_number 12
_symmetry_cell_setting 'monoclinic'
loop_
_space_group_symop_operation_xyz
x,y,z
-x,y,-z
-x,-y,-z
x,-y,z
1/2+x,1/2+y,z
1/2-x,1/2+y,-z
1/2-x,1/2-y,-z
1/2+x,1/2-y,z
loop_
_atom_site_type_symbol
_atom_site_label
_atom_site_fract_x
_atom_site_fract_y
_atom_site_fract_z
Si Si1 0.869472 0.692411 0.564260
Si Si2 0.669120 0.000000 0.857431
Si Si3 0.279196 0.896625 0.796599
Si Si4 0.027160 0.937507 0.788444
Si Si5 0.289503 0.612069 0.885187
Si Si6 0.074569 0.500000 0.189666
Si Si7 0.000000 0.898953 0.500000
Si Si8 0.802473 0.815116 0.633014
O O1 0.814233 0.652017 0.688369
O O2 0.857900 0.754901 0.619617
O O3 0.801438 0.687894 0.442668
O O4 0.000000 0.678715 0.500000
O O5 0.742198 0.944246 0.829752
O O6 0.562099 0.000000 0.785324
O O7 0.620122 0.000000 0.023046
O O8 0.153034 0.918631 0.795376
O O9 0.370514 0.945980 0.759894
O O10 0.271571 0.879955 0.955597
O O11 0.018178 0.933350 0.629526
O O12 0.924489 0.899285 0.869566
O O13 0.008091 0.000000 0.837978
O O14 0.270782 0.661937 0.788124
O O15 0.107517 0.859168 0.448127
#
# Coordination Sequence:
#
# PCOD9189639 Si02
#       8
#     8   4   8   8   8   4   4   8
#     4  11  24  42  63  83 114 162 199 242 292 350
#     4   9  18  37  54  86 120 160 189 224 291 354
#     4  11  22  38  60  90 121 151 198 242 292 344
#     4  11  20  35  60  92 123 154 191 238 297 353
#     4  10  22  36  62  92 118 154 192 245 291 351
#     4   9  20  35  57  79 123 161 189 231 284 345
#     4  10  19  38  58  86 118 157 190 246 282 352
#     4  10  22  41  62  84 116 152 201 240 295 346
#
# _framework density 18.315801
#
# number of rings (size 3 to 8) (size 9 to 14) (size 15 to 20)
#    0.000    1.692    3.846    0.692    2.154    1.231 
#    0.000    1.154    0.000    0.000    0.000    0.000 
#    0.000    0.000    0.000    0.000    0.000    0.000 
#
# Total GULP energy -145165.792139 kJ/mol
# GULP energy per Si atom -5583.299698 kJ/mol
# Density = 1.827411 g / cm^3
# Si number density = 18.315801 Si / 1000 Ang^3
#
#
#
# Elastic Constant Matrix: (Units=GPa)
#
#
# Indices 1 2 3 4 5 6 
#
# 1 89.0510 15.2585 6.4049 0.0000 8.7001 0.0000
# 2 15.2585 78.6728 31.8031 0.0000 9.1439 0.0000
# 3 6.4049 31.8031 79.4929 0.0000 5.9166 0.0000
# 4 0.0000 0.0000 0.0000 -13.6981 0.0000 3.9006
# 5 8.7001 9.1439 5.9166 0.0000 14.1885 0.0000
# 6 0.0000 0.0000 0.0000 3.9006 0.0000 21.4904
#
#
#
# Elastic Compliance Matrix: (Units=1/GPa)
#
#
# Indices 1 2 3 4 5 6 
#
# 1 0.012133 -0.001675 0.000171 0.000000 -0.006431 0.000000
# 2 -0.001675 0.016203 -0.005828 0.000000 -0.006985 0.000000
# 3 0.000171 -0.005828 0.015094 0.000000 -0.002644 0.000000
# 4 0.000000 0.000000 0.000000 -0.069415 0.000000 0.012599
# 5 -0.006431 -0.006985 -0.002644 0.000000 0.080028 0.000000
# 6 0.000000 0.000000 0.000000 0.012599 0.000000 0.044246
#
#
# Mechanical properties :
#
#
# Convention : Reuss Voigt Hill
#
# Bulk Modulus (GPa) = 34.76143 39.34996 37.05569
# Shear Modulus (GPa) = 40.80312 17.31285 29.05799
#
# Velocity S-wave (km/s) = 4.72503 3.07781 3.98741
# Velocity P-wave (km/s) = 6.98484 5.84477 6.44009
#
# Compressibility (1/GPa) = 0.02876752
#
# Stress axis : x y z
#
# Youngs Moduli (GPa) = 82.42313 61.71546 66.25051
#
# Poissons Ratio (x) = 0.10336 -0.01134
# Poissons Ratio (y) = 0.13804 0.38609
# Poissons Ratio (z) = -0.01411 0.35966
#
# Static dielectric constant tensor:
#      x y z
#    x 1.623520 0.000000 0.009030 
#    y 0.000000 1.600210 0.000000 
#    z 0.009030 0.000000 1.627830 
# 
# From -- ./inp_files/52576.got.cif
#   From: 2010.05.17/outbox.cif.g08.bks.cpg/sg12_27_cif.got.tgz:52576.got - 2010.06.03 13:09:07.
