data_PCOD9189627
_publ_section_title
;
Structure prediction by ZEFSAII (Michael W. Deem and Ramdas Pophale) SiO2 
 PCOD9189627
Probable space group: C 2/M
;
_chemical_formula_sum "Si O2"
_cell_formula_units_Z 36
_cell_length_a 7.995160
_cell_length_b 18.640865
_cell_length_c 12.085602
_cell_angle_alpha 90.000000
_cell_angle_beta 60.684112
_cell_angle_gamma 90.000000
_cell_volume 1570.525128
_symmetry_space_group_name_H-M "C 2/M"
_symmetry_group_IT_number 12
_symmetry_cell_setting 'monoclinic'
loop_
_space_group_symop_operation_xyz
x,y,z
-x,y,-z
-x,-y,-z
x,-y,z
1/2+x,1/2+y,z
1/2-x,1/2+y,-z
1/2-x,1/2-y,-z
1/2+x,1/2-y,z
loop_
_atom_site_type_symbol
_atom_site_label
_atom_site_fract_x
_atom_site_fract_y
_atom_site_fract_z
Si Si1 0.719286 0.000000 0.987158
Si Si2 0.311621 0.343164 0.918198
Si Si3 0.761013 0.500000 0.751224
Si Si4 0.046987 0.371356 0.602207
Si Si5 0.034927 0.286772 0.823487
Si Si6 0.838192 0.000000 0.460454
O O1 0.750337 0.000000 0.110669
O O2 0.500000 0.000000 0.000000
O O3 0.822517 0.072280 0.916244
O O4 0.505023 0.297437 0.856731
O O5 0.203852 0.317858 0.842778
O O6 0.162732 0.320902 0.063662
O O7 0.625895 0.500000 0.683776
O O8 0.881396 0.427073 0.691543
O O9 0.219163 0.427415 0.525522
O O10 0.000000 0.336653 0.500000
O O11 0.068958 0.312275 0.689030
O O12 0.000000 0.000000 0.500000
#
# Coordination Sequence:
#
# PCOD9189627 Si02
#       6
#     4   8   4   8   8   4
#     4  12  17  33  63 100 118 172 213 262 308 392
#     4  10  21  34  65  86 131 165 216 256 317 380
#     4   9  16  31  56  90 129 159 212 259 321 386
#     4   9  17  33  61  87 122 169 212 260 325 392
#     4  10  19  38  57  91 120 173 205 266 316 382
#     4   9  19  34  58  94 131 168 209 272 330 380
#
# _framework density 22.922267999999999
#
# number of rings (size 3 to 8) (size 9 to 14) (size 15 to 20)
#    0.000    2.222    4.444    1.333    0.000    0.889 
#    0.000    5.556    9.778   14.667    0.000    0.778 
#    0.000    0.000    0.000    1.000    0.000    0.000 
#
# Total GULP energy -100462.754289 kJ/mol
# GULP energy per Si atom -5581.264127 kJ/mol
# Density = 2.287010 g / cm^3
# Si number density = 22.922268 Si / 1000 Ang^3
#
#
#
# Elastic Constant Matrix: (Units=GPa)
#
#
# Indices 1 2 3 4 5 6 
#
# 1 87.1870 26.9816 79.7078 0.0000 49.4845 0.0000
# 2 26.9816 146.1087 49.6304 0.0000 14.3024 0.0000
# 3 79.7078 49.6304 139.5500 0.0000 46.3057 0.0000
# 4 0.0000 0.0000 0.0000 31.2992 0.0000 6.2696
# 5 49.4845 14.3024 46.3057 0.0000 38.6238 0.0000
# 6 0.0000 0.0000 0.0000 6.2696 0.0000 18.9986
#
#
#
# Elastic Compliance Matrix: (Units=1/GPa)
#
#
# Indices 1 2 3 4 5 6 
#
# 1 0.053079 -0.000322 -0.012749 0.000000 -0.052600 0.000000
# 2 -0.000322 0.007799 -0.002936 0.000000 0.001046 0.000000
# 3 -0.012749 -0.002936 0.016127 0.000000 -0.001913 0.000000
# 4 0.000000 0.000000 0.000000 0.034211 0.000000 -0.011290
# 5 -0.052600 0.001046 -0.001913 0.000000 0.095188 0.000000
# 6 0.000000 0.000000 0.000000 -0.011290 0.000000 0.056361
#
#
# Mechanical properties :
#
#
# Convention : Reuss Voigt Hill
#
# Bulk Modulus (GPa) = 22.22763 76.16506 49.19635
# Shear Modulus (GPa) = 16.14065 32.21939 24.18002
#
# Velocity S-wave (km/s) = 2.65646 3.75319 3.25140
# Velocity P-wave (km/s) = 4.37345 7.21676 5.96694
#
# Compressibility (1/GPa) = 0.04498905
#
# Stress axis : x y z
#
# Youngs Moduli (GPa) = 18.83995 128.22389 62.00786
#
# Poissons Ratio (x) = 0.04135 0.79053
# Poissons Ratio (y) = 0.00607 0.18208
# Poissons Ratio (z) = 0.24019 0.37652
#
# Static dielectric constant tensor:
#      x y z
#    x 1.901230 0.000000 -0.014860 
#    y 0.000000 1.797780 0.000000 
#    z -0.014860 0.000000 1.846850 
# 
# From -- ./inp_files/118831.got.cif
#   From: 2010.05.17/outbox.cif.g08.bks.cpg/sg12_60_cif.got.tgz:118831.got - 2010.06.03 13:09:07.
