data_PCOD9189194
_publ_section_title
;
Structure prediction by ZEFSAII (Michael W. Deem and Ramdas Pophale) SiO2 
 PCOD9189194
Probable space group: C 2/M
;
_chemical_formula_sum "Si O2"
_cell_formula_units_Z 64
_cell_length_a 32.665935
_cell_length_b 14.540011
_cell_length_c 8.840546
_cell_angle_alpha 90.000000
_cell_angle_beta 44.460152
_cell_angle_gamma 90.000000
_cell_volume 2940.987255
_symmetry_space_group_name_H-M "C 2/M"
_symmetry_group_IT_number 12
_symmetry_cell_setting 'monoclinic'
loop_
_space_group_symop_operation_xyz
x,y,z
-x,y,-z
-x,-y,-z
x,-y,z
1/2+x,1/2+y,z
1/2-x,1/2+y,-z
1/2-x,1/2-y,-z
1/2+x,1/2-y,z
loop_
_atom_site_type_symbol
_atom_site_label
_atom_site_fract_x
_atom_site_fract_y
_atom_site_fract_z
Si Si1 0.473438 0.275157 0.211690
Si Si2 0.762567 0.600378 0.716931
Si Si3 0.789609 0.859094 0.822518
Si Si4 0.951671 0.890919 0.760433
Si Si5 0.861699 0.325162 0.634925
Si Si6 0.169929 0.605171 0.968253
Si Si7 0.660799 0.295112 0.847560
Si Si8 0.622011 0.600982 0.658673
O O1 0.522206 0.318949 0.188342
O O2 0.423452 0.218053 0.428440
O O3 0.440489 0.362101 0.224347
O O4 0.500000 0.220817 0.000000
O O5 0.756907 0.500000 0.660546
O O6 0.829643 0.621959 0.582381
O O7 0.726470 0.673945 0.716542
O O8 0.730930 0.600045 0.964960
O O9 0.814150 0.756722 0.788189
O O10 0.842797 0.901922 0.590344
O O11 0.736031 0.873307 0.848540
O O12 0.000000 0.884402 0.500000
O O13 0.949647 0.000000 0.803282
O O14 0.885079 0.852512 0.923420
O O15 0.865001 0.381857 0.781149
O O16 0.165433 0.500000 0.926714
O O17 0.152805 0.687176 0.900494
O O18 0.648243 0.327907 0.710345
O O19 0.621982 0.500000 0.727175
#
# Coordination Sequence:
#
# PCOD9189194 Si02
#       8
#     8   8   8   8   8   8   8   8
#     4  11  23  41  63  89 123 176 213 254 311 387
#     4  11  20  36  64  94 129 163 206 260 315 380
#     4  10  19  37  59  90 125 167 209 244 307 379
#     4  11  24  40  62  95 130 167 212 265 316 375
#     4  10  19  38  63  90 122 163 213 261 318 366
#     4  11  21  39  65  91 125 164 212 265 317 377
#     4  12  23  39  59  93 131 168 207 259 317 376
#     4  11  23  37  58  91 133 173 205 245 307 385
#
# _framework density 21.761399000000001
#
# number of rings (size 3 to 8) (size 9 to 14) (size 15 to 20)
#    0.000    1.125    3.750    5.250    1.750    1.000 
#    0.000    0.000    0.000    8.625    0.000    0.000 
#    0.000    0.000    0.000    0.000    0.000    0.000 
#
# Total GULP energy -178657.899029 kJ/mol
# GULP energy per Si atom -5583.059345 kJ/mol
# Density = 2.171187 g / cm^3
# Si number density = 21.761399 Si / 1000 Ang^3
#
#
#
# Elastic Constant Matrix: (Units=GPa)
#
#
# Indices 1 2 3 4 5 6 
#
# 1 57.5737 15.5599 -17.6487 0.0000 -4.9876 0.0000
# 2 15.5599 135.2810 -2.6051 0.0000 0.4256 0.0000
# 3 -17.6487 -2.6051 48.3555 0.0000 -12.9280 0.0000
# 4 0.0000 0.0000 0.0000 -19.9619 0.0000 -3.3775
# 5 -4.9876 0.4256 -12.9280 0.0000 22.1026 0.0000
# 6 0.0000 0.0000 0.0000 -3.3775 0.0000 15.4723
#
#
#
# Elastic Compliance Matrix: (Units=1/GPa)
#
#
# Indices 1 2 3 4 5 6 
#
# 1 0.022456 -0.002404 0.011182 0.000000 0.011654 0.000000
# 2 -0.002404 0.007657 -0.000770 0.000000 -0.001140 0.000000
# 3 0.011182 -0.000770 0.030107 0.000000 0.020148 0.000000
# 4 0.000000 0.000000 0.000000 -0.048311 0.000000 -0.010546
# 5 0.011654 -0.001140 0.020148 0.000000 0.059680 0.000000
# 6 0.000000 0.000000 0.000000 -0.010546 0.000000 0.062329
#
#
# Mechanical properties :
#
#
# Convention : Reuss Voigt Hill
#
# Bulk Modulus (GPa) = 13.11701 25.75805 19.43753
# Shear Modulus (GPa) = 34.88831 19.91620 27.40226
#
# Velocity S-wave (km/s) = 4.00837 3.02852 3.55239
# Velocity P-wave (km/s) = 5.24055 4.90831 5.07715
#
# Compressibility (1/GPa) = 0.07623688
#
# Stress axis : x y z
#
# Youngs Moduli (GPa) = 44.53093 130.59402 33.21530
#
# Poissons Ratio (x) = 0.31398 -0.37143
# Poissons Ratio (y) = 0.10706 0.02557
# Poissons Ratio (z) = -0.49796 0.10053
#
# Static dielectric constant tensor:
#      x y z
#    x 1.779260 0.000000 0.028620 
#    y 0.000000 1.840260 0.000000 
#    z 0.028620 0.000000 1.850410 
# 
# From -- ./inp_files/111956.got.cif
#   From: 2010.05.17/outbox.cif.g08.bks.cpg/sg12_56_cif.got.tgz:111956.got - 2010.06.03 13:09:07.
