data_PCOD9189944
_publ_section_title
;
Structure prediction by ZEFSAII (Michael W. Deem and Ramdas Pophale) SiO2 
 PCOD9189944
Probable space group: C 2/M
;
_chemical_formula_sum "Si O2"
_cell_formula_units_Z 32
_cell_length_a 14.423506
_cell_length_b 17.715060
_cell_length_c 10.000041
_cell_angle_alpha 90.000000
_cell_angle_beta 148.613885
_cell_angle_gamma 90.000000
_cell_volume 1330.725660
_symmetry_space_group_name_H-M "C 2/M"
_symmetry_group_IT_number 12
_symmetry_cell_setting 'monoclinic'
loop_
_space_group_symop_operation_xyz
x,y,z
-x,y,-z
-x,-y,-z
x,-y,z
1/2+x,1/2+y,z
1/2-x,1/2+y,-z
1/2-x,1/2-y,-z
1/2+x,1/2-y,z
loop_
_atom_site_type_symbol
_atom_site_label
_atom_site_fract_x
_atom_site_fract_y
_atom_site_fract_z
Si Si1 0.854117 0.803688 0.230794
Si Si2 0.357286 0.090984 0.508157
Si Si3 0.231984 0.089355 0.072709
Si Si4 0.789980 0.586167 0.718381
O O1 0.745498 0.616697 0.241826
O O2 0.764743 0.853865 0.236784
O O3 0.750000 0.750000 0.000000
O O4 0.910311 0.869049 0.194892
O O5 0.500000 0.261317 0.500000
O O6 0.568569 0.103034 0.742756
O O7 0.284948 0.117482 0.560551
O O8 0.340811 0.000000 0.491137
O O9 0.202581 0.000000 0.035492
O O10 0.713416 0.500000 0.637833
O O11 0.000000 0.576247 0.000000
#
# Coordination Sequence:
#
# PCOD9189944 Si02
#       4
#     8   8   8   8
#     4  12  28  44  61  91 136 183 223 269 330 395
#     4   8  15  30  64 103 124 153 200 262 325 383
#     4   9  17  35  66  97 126 161 208 266 327 386
#     4  10  19  38  71 104 128 162 220 280 330 386
#
# _framework density 24.047029999999999
#
# number of rings (size 3 to 8) (size 9 to 14) (size 15 to 20)
#    0.000    2.250    2.500    2.250    3.500    2.000 
#    0.000    6.250    0.000    4.500    0.000    0.000 
#    0.000    0.000    0.000    0.000    0.000    0.000 
#
# Total GULP energy -89230.392776 kJ/mol
# GULP energy per Si atom -5576.899549 kJ/mol
# Density = 2.399230 g / cm^3
# Si number density = 24.047030 Si / 1000 Ang^3
#
#
#
# Elastic Constant Matrix: (Units=GPa)
#
#
# Indices 1 2 3 4 5 6 
#
# 1 73.6723 26.3896 61.9381 0.0000 -33.0072 0.0000
# 2 26.3896 96.7059 60.6782 0.0000 -14.6852 0.0000
# 3 61.9381 60.6782 244.6330 0.0000 -44.6979 0.0000
# 4 0.0000 0.0000 0.0000 41.4894 0.0000 3.0923
# 5 -33.0072 -14.6852 -44.6979 0.0000 43.9488 0.0000
# 6 0.0000 0.0000 0.0000 3.0923 0.0000 9.3761
#
#
#
# Elastic Compliance Matrix: (Units=1/GPa)
#
#
# Indices 1 2 3 4 5 6 
#
# 1 0.022790 -0.002480 -0.002676 0.000000 0.013565 0.000000
# 2 -0.002480 0.012571 -0.002534 0.000000 -0.000239 0.000000
# 3 -0.002676 -0.002534 0.005984 0.000000 0.003229 0.000000
# 4 0.000000 0.000000 0.000000 0.024710 0.000000 -0.008149
# 5 0.013565 -0.000239 0.003229 0.000000 0.036146 0.000000
# 6 0.000000 0.000000 0.000000 -0.008149 0.000000 0.109341
#
#
# Mechanical properties :
#
#
# Convention : Reuss Voigt Hill
#
# Bulk Modulus (GPa) = 38.51428 79.22477 58.86953
# Shear Modulus (GPa) = 21.22453 36.69657 28.96055
#
# Velocity S-wave (km/s) = 2.97412 3.91069 3.47411
# Velocity P-wave (km/s) = 5.27683 7.30812 6.37391
#
# Compressibility (1/GPa) = 0.02596440
#
# Stress axis : x y z
#
# Youngs Moduli (GPa) = 43.87971 79.54873 167.11512
#
# Poissons Ratio (x) = 0.19725 0.44727
# Poissons Ratio (y) = 0.10881 0.42345
# Poissons Ratio (z) = 0.11744 0.20157
#
# Static dielectric constant tensor:
#      x y z
#    x 1.969150 0.000000 0.072990 
#    y 0.000000 2.031890 0.000000 
#    z 0.072990 0.000000 2.006060 
# 
# From -- ./inp_files/71615.got.cif
#   From: 2010.05.17/outbox.cif.g08.bks.cpg/sg12_36_cif.got.tgz:71615.got - 2010.06.03 13:09:07.
