data_PCOD9189550
_publ_section_title
;
Structure prediction by ZEFSAII (Michael W. Deem and Ramdas Pophale) SiO2 
 PCOD9189550
Probable space group: C 2/M
;
_chemical_formula_sum "Si O2"
_cell_formula_units_Z 44
_cell_length_a 23.415051
_cell_length_b 10.001457
_cell_length_c 27.662584
_cell_angle_alpha 90.000000
_cell_angle_beta 159.925196
_cell_angle_gamma 90.000000
_cell_volume 2223.604201
_symmetry_space_group_name_H-M "C 2/M"
_symmetry_group_IT_number 12
_symmetry_cell_setting 'monoclinic'
loop_
_space_group_symop_operation_xyz
x,y,z
-x,y,-z
-x,-y,-z
x,-y,z
1/2+x,1/2+y,z
1/2-x,1/2+y,-z
1/2-x,1/2-y,-z
1/2+x,1/2-y,z
loop_
_atom_site_type_symbol
_atom_site_label
_atom_site_fract_x
_atom_site_fract_y
_atom_site_fract_z
Si Si1 0.644698 0.500000 0.298234
Si Si2 0.287126 0.159735 0.236799
Si Si3 0.263260 0.745119 0.911144
Si Si4 0.223202 0.000000 0.014691
Si Si5 0.875690 0.652340 0.814674
Si Si6 0.403264 0.500000 0.189542
Si Si7 0.108258 0.722913 0.540637
O O1 0.578209 0.500000 0.300311
O O2 0.755639 0.624621 0.372541
O O3 0.475810 0.500000 0.132761
O O4 0.236025 0.178594 0.140891
O O5 0.166382 0.240037 0.176977
O O6 0.464806 0.233507 0.386770
O O7 0.297166 0.000000 0.255495
O O8 0.211724 0.634702 0.909578
O O9 0.135738 0.867806 0.811954
O O10 0.447916 0.803777 0.067318
O O11 0.225849 0.000000 0.958992
O O12 0.888800 0.500000 0.843267
O O13 0.720440 0.661640 0.653812
O O14 0.000000 0.667394 0.500000
#
# Coordination Sequence:
#
# PCOD9189550 Si02
#       7
#     4   8   8   4   8   4   8
#     4  10  19  37  66  89 111 158 216 251 295 357
#     4  11  25  37  63  94 128 159 206 253 311 369
#     4  12  22  41  61  94 126 160 204 263 307 362
#     4  10  22  36  67  88 113 156 219 254 296 356
#     4  11  24  39  61  93 129 165 202 249 311 375
#     4  10  24  39  63  88 121 164 209 255 313 357
#     4  10  21  38  66  90 122 159 207 249 302 367
#
# _framework density 19.787694999999999
#
# number of rings (size 3 to 8) (size 9 to 14) (size 15 to 20)
#    0.545    0.727    4.545    1.364    6.364    4.727 
#    0.000    0.909    0.000    0.000    0.000    0.000 
#    0.000    0.000    0.000    0.000    0.000    0.000 
#
# Total GULP energy -122594.554329 kJ/mol
# GULP energy per Si atom -5572.479742 kJ/mol
# Density = 1.974266 g / cm^3
# Si number density = 19.787695 Si / 1000 Ang^3
#
#
#
# Elastic Constant Matrix: (Units=GPa)
#
#
# Indices 1 2 3 4 5 6 
#
# 1 42.4056 33.0774 6.1509 -0.0010 4.7980 0.0001
# 2 33.0774 90.1206 4.5421 0.0203 8.5723 -0.0032
# 3 6.1509 4.5421 56.2698 0.0173 2.7446 -0.0029
# 4 -0.0010 0.0203 0.0173 -0.9340 0.0000 -22.1831
# 5 4.7980 8.5723 2.7446 0.0000 33.8730 -0.0005
# 6 0.0001 -0.0032 -0.0029 -22.1831 -0.0005 32.6263
#
#
#
# Elastic Compliance Matrix: (Units=1/GPa)
#
#
# Indices 1 2 3 4 5 6 
#
# 1 0.033511 -0.012026 -0.002620 -0.000018 -0.001491 -0.000014
# 2 -0.012026 0.015720 0.000157 0.000019 -0.002288 0.000014
# 3 -0.002620 0.000157 0.018101 0.000018 -0.001135 0.000014
# 4 -0.000018 0.000019 0.000018 -0.062435 -0.000004 -0.042450
# 5 -0.001491 -0.002288 -0.001135 -0.000004 0.030404 -0.000003
# 6 -0.000014 0.000014 0.000014 -0.042450 -0.000003 0.001787
#
#
# Mechanical properties :
#
#
# Convention : Reuss Voigt Hill
#
# Bulk Modulus (GPa) = 26.07236 30.70408 28.38822
# Shear Modulus (GPa) = 63.41228 22.78143 43.09685
#
# Velocity S-wave (km/s) = 5.66709 3.39675 4.67193
# Velocity P-wave (km/s) = 7.48504 5.56186 6.59394
#
# Compressibility (1/GPa) = 0.03835479
#
# Stress axis : x y z
#
# Youngs Moduli (GPa) = 29.84110 63.61410 55.24689
#
# Poissons Ratio (x) = 0.76501 0.14473
# Poissons Ratio (y) = 0.35886 -0.00869
# Poissons Ratio (z) = 0.07817 -0.01000
#
# Static dielectric constant tensor:
#      x y z
#    x 1.683950 0.000000 -0.039050 
#    y 0.000000 1.691350 0.000000 
#    z -0.039050 0.000000 1.741180 
# 
# From -- ./inp_files/382628.got.cif
#   From: 2010.05.17/outbox.cif.g08.bks.cpg/sg12_192_cif.got.tgz:382628.got - 2010.06.03 13:09:07.
