data_PCOD9189309
_publ_section_title
;
Structure prediction by ZEFSAII (Michael W. Deem and Ramdas Pophale) SiO2 
 PCOD9189309
Probable space group: C 2/M
;
_chemical_formula_sum "Si O2"
_cell_formula_units_Z 64
_cell_length_a 33.691674
_cell_length_b 9.188707
_cell_length_c 16.727823
_cell_angle_alpha 90.000000
_cell_angle_beta 137.933262
_cell_angle_gamma 90.000000
_cell_volume 3469.672434
_symmetry_space_group_name_H-M "C 2/M"
_symmetry_group_IT_number 12
_symmetry_cell_setting 'monoclinic'
loop_
_space_group_symop_operation_xyz
x,y,z
-x,y,-z
-x,-y,-z
x,-y,z
1/2+x,1/2+y,z
1/2-x,1/2+y,-z
1/2-x,1/2-y,-z
1/2+x,1/2-y,z
loop_
_atom_site_type_symbol
_atom_site_label
_atom_site_fract_x
_atom_site_fract_y
_atom_site_fract_z
Si Si1 0.577719 0.831743 0.317001
Si Si2 0.878040 0.325642 0.997828
Si Si3 0.014848 0.826434 0.931179
Si Si4 0.400376 0.825584 0.215451
Si Si5 0.247320 0.174314 0.736312
Si Si6 0.461637 0.829756 0.557903
Si Si7 0.638870 0.673630 0.691381
Si Si8 0.281933 0.172767 0.473972
O O1 0.538522 0.727232 0.204586
O O2 0.560063 0.815365 0.383241
O O3 0.647416 0.805928 0.412654
O O4 0.564772 0.000000 0.275481
O O5 0.887591 0.500000 0.007510
O O6 0.811461 0.294632 0.869816
O O7 0.925830 0.247678 0.013494
O O8 0.887882 0.283282 0.105144
O O9 0.020944 0.000000 0.936530
O O10 0.000000 0.784528 0.000000
O O11 0.468999 0.792540 0.338962
O O12 0.359955 0.746062 0.219780
O O13 0.392938 0.000000 0.210275
O O14 0.195101 0.213130 0.720285
O O15 0.238373 0.257957 0.640069
O O16 0.243594 0.000000 0.716267
O O17 0.419759 0.733280 0.440336
O O18 0.455298 0.000000 0.524882
O O19 0.636747 0.500000 0.695147
O O20 0.250000 0.250000 0.500000
O O21 0.270268 0.000000 0.456939
#
# Coordination Sequence:
#
# PCOD9189309 Si02
#       8
#     8   8   8   8   8   8   8   8
#     4  10  21  40  65  90 117 160 206 241 290 357
#     4  10  22  43  65  85 115 160 208 247 289 357
#     4  11  25  41  60  92 127 156 192 248 307 353
#     4  10  21  38  61  86 114 153 201 249 293 350
#     4  10  23  42  62  87 121 160 202 248 298 351
#     4  10  19  37  61  87 117 153 201 246 289 351
#     4  11  23  37  57  89 124 155 192 244 304 356
#     4  11  24  41  64  92 123 158 202 248 297 355
#
# _framework density 18.445544999999999
#
# number of rings (size 3 to 8) (size 9 to 14) (size 15 to 20)
#    0.000    1.625    2.500    1.500    1.750    6.500 
#    0.000    0.000    0.000    0.000    0.000    0.000 
#    0.000    0.000    0.000    0.000    0.000    0.000 
#
# Total GULP energy -178844.482982 kJ/mol
# GULP energy per Si atom -5588.890093 kJ/mol
# Density = 1.840356 g / cm^3
# Si number density = 18.445545 Si / 1000 Ang^3
#
#
#
# Elastic Constant Matrix: (Units=GPa)
#
#
# Indices 1 2 3 4 5 6 
#
# 1 177.6599 76.4473 82.1079 0.0000 -16.0245 0.0000
# 2 76.4473 56.8728 72.4220 0.0000 -7.6702 0.0000
# 3 82.1079 72.4220 149.7712 0.0000 -16.4962 0.0000
# 4 0.0000 0.0000 0.0000 28.9931 0.0000 -5.1225
# 5 -16.0245 -7.6702 -16.4962 0.0000 27.5827 0.0000
# 6 0.0000 0.0000 0.0000 -5.1225 0.0000 35.2050
#
#
#
# Elastic Compliance Matrix: (Units=1/GPa)
#
#
# Indices 1 2 3 4 5 6 
#
# 1 0.014560 -0.024540 0.004351 0.000000 0.004237 0.000000
# 2 -0.024540 0.087130 -0.029525 0.000000 -0.007686 0.000000
# 3 0.004351 -0.029525 0.019208 0.000000 0.005805 0.000000
# 4 0.000000 0.000000 0.000000 0.035401 0.000000 0.005151
# 5 0.004237 -0.007686 0.005805 0.000000 0.040051 0.000000
# 6 0.000000 0.000000 0.000000 0.005151 0.000000 0.029155
#
#
# Mechanical properties :
#
#
# Convention : Reuss Voigt Hill
#
# Bulk Modulus (GPa) = 46.57773 94.02870 70.30321
# Shear Modulus (GPa) = 15.05632 28.57795 21.81713
#
# Velocity S-wave (km/s) = 2.86012 3.94040 3.44290
# Velocity P-wave (km/s) = 6.01775 8.47286 7.34856
#
# Compressibility (1/GPa) = 0.02146949
#
# Stress axis : x y z
#
# Youngs Moduli (GPa) = 68.68366 11.47716 52.06270
#
# Poissons Ratio (x) = 0.28165 -0.22653
# Poissons Ratio (y) = 1.68549 1.53714
# Poissons Ratio (z) = -0.29885 0.33886
#
# Static dielectric constant tensor:
#      x y z
#    x 1.623260 0.000000 -0.001710 
#    y 0.000000 1.619070 0.000000 
#    z -0.001710 0.000000 1.608970 
# 
# From -- ./inp_files/250004.got.cif
#   From: 2010.05.17/outbox.cif.g08.bks.cpg/sg12_126_cif.got.tgz:250004.got - 2010.06.03 13:09:07.
