data_PCOD9189400
_publ_section_title
;
Structure prediction by ZEFSAII (Michael W. Deem and Ramdas Pophale) SiO2 
 PCOD9189400
Probable space group: C 2/M
;
_chemical_formula_sum "Si O2"
_cell_formula_units_Z 48
_cell_length_a 14.417405
_cell_length_b 10.979298
_cell_length_c 30.574509
_cell_angle_alpha 90.000000
_cell_angle_beta 148.849499
_cell_angle_gamma 90.000000
_cell_volume 2503.533690
_symmetry_space_group_name_H-M "C 2/M"
_symmetry_group_IT_number 12
_symmetry_cell_setting 'monoclinic'
loop_
_space_group_symop_operation_xyz
x,y,z
-x,y,-z
-x,-y,-z
x,-y,z
1/2+x,1/2+y,z
1/2-x,1/2+y,-z
1/2-x,1/2-y,-z
1/2+x,1/2-y,z
loop_
_atom_site_type_symbol
_atom_site_label
_atom_site_fract_x
_atom_site_fract_y
_atom_site_fract_z
Si Si1 0.747493 0.360427 0.201081
Si Si2 0.742292 0.285713 0.704797
Si Si3 0.130394 0.359631 0.838154
Si Si4 0.334872 0.357091 0.005217
Si Si5 0.850558 0.861863 0.564723
Si Si6 0.196787 0.643835 0.596239
O O1 0.803574 0.500000 0.232267
O O2 0.756292 0.293310 0.250554
O O3 0.859109 0.302552 0.205878
O O4 0.544528 0.358725 0.100797
O O5 0.557530 0.359710 0.633704
O O6 0.736403 0.210363 0.657361
O O7 0.933814 0.351674 0.779541
O O8 0.174073 0.500000 0.847398
O O9 0.277297 0.320538 0.932839
O O10 0.272842 0.500000 0.986893
O O11 0.250000 0.250000 0.000000
O O12 0.750000 0.750000 0.500000
O O13 0.826740 0.838591 0.607051
O O14 0.777151 0.000000 0.526771
O O15 0.190673 0.500000 0.602844
O O16 0.000000 0.682568 0.500000
#
# Coordination Sequence:
#
# PCOD9189400 Si02
#       6
#     8   8   8   8   8   8
#     4  10  21  36  60  91 120 159 207 241 286 361
#     4  12  21  37  62  88 118 153 199 255 303 346
#     4  10  21  37  58  86 123 158 195 246 299 352
#     4  10  19  37  62  88 121 165 202 240 293 352
#     4  11  24  42  63  88 118 156 202 248 305 366
#     4  10  21  39  60  82 114 157 197 240 302 364
#
# _framework density 19.172901
#
# number of rings (size 3 to 8) (size 9 to 14) (size 15 to 20)
#    0.000    1.500    3.333    2.500    0.000    2.667 
#    0.000    2.500    0.000    4.000    0.000    0.000 
#    0.000    0.000    0.000    0.000    0.000    0.000 
#
# Total GULP energy -133729.302915 kJ/mol
# GULP energy per Si atom -5572.054288 kJ/mol
# Density = 1.912926 g / cm^3
# Si number density = 19.172901 Si / 1000 Ang^3
#
#
#
# Elastic Constant Matrix: (Units=GPa)
#
#
# Indices 1 2 3 4 5 6 
#
# 1 118.7627 45.1809 26.8841 0.0003 -18.7884 0.0001
# 2 45.1809 77.5915 37.2862 0.0001 -19.2881 0.0000
# 3 26.8841 37.2862 84.9509 0.0000 -20.6417 0.0001
# 4 0.0003 0.0001 0.0000 -418.2449 0.0002 -148.3695
# 5 -18.7884 -19.2881 -20.6417 0.0002 41.9187 0.0001
# 6 0.0001 0.0000 0.0001 -148.3695 0.0001 -17.5473
#
#
#
# Elastic Compliance Matrix: (Units=1/GPa)
#
#
# Indices 1 2 3 4 5 6 
#
# 1 0.011015 -0.005656 -0.000495 0.000000 0.002090 0.000000
# 2 -0.005656 0.020030 -0.006109 0.000000 0.003673 0.000000
# 3 -0.000495 -0.006109 0.015758 0.000000 0.004727 0.000000
# 4 0.000000 0.000000 0.000000 0.001196 0.000000 -0.010111
# 5 0.002090 0.003673 0.004727 0.000000 0.028810 0.000000
# 6 0.000000 0.000000 0.000000 -0.010111 0.000000 0.028502
#
#
# Mechanical properties :
#
#
# Convention : Reuss Voigt Hill
#
# Bulk Modulus (GPa) = 44.87894 55.55638 50.21766
# Shear Modulus (GPa) = 36.42741 -67.31109 -15.44184
#
# Velocity S-wave (km/s) = 4.36356 -5.93158 -2.84103
# Velocity P-wave (km/s) = 6.98898 4.22754 3.93534
#
# Compressibility (1/GPa) = 0.02228217
#
# Stress axis : x y z
#
# Youngs Moduli (GPa) = 90.78743 49.92435 63.45931
#
# Poissons Ratio (x) = 0.28238 0.03143
# Poissons Ratio (y) = 0.51351 0.38768
# Poissons Ratio (z) = 0.04497 0.30499
#
# Static dielectric constant tensor:
#      x y z
#    x 1.706630 0.000000 0.003090 
#    y 0.000000 1.656410 0.000000 
#    z 0.003090 0.000000 1.684330 
# 
# From -- ./inp_files/212525.got.cif
#   From: 2010.05.17/outbox.cif.g08.bks.cpg/sg12_107_cif.got.tgz:212525.got - 2010.06.03 13:09:07.
