data_PCOD9189769
_publ_section_title
;
Structure prediction by ZEFSAII (Michael W. Deem and Ramdas Pophale) SiO2 
 PCOD9189769
Probable space group: C 2/M
;
_chemical_formula_sum "Si O2"
_cell_formula_units_Z 56
_cell_length_a 19.795655
_cell_length_b 24.822457
_cell_length_c 5.326631
_cell_angle_alpha 90.000000
_cell_angle_beta 61.155413
_cell_angle_gamma 90.000000
_cell_volume 2292.648152
_symmetry_space_group_name_H-M "C 2/M"
_symmetry_group_IT_number 12
_symmetry_cell_setting 'monoclinic'
loop_
_space_group_symop_operation_xyz
x,y,z
-x,y,-z
-x,-y,-z
x,-y,z
1/2+x,1/2+y,z
1/2-x,1/2+y,-z
1/2-x,1/2-y,-z
1/2+x,1/2-y,z
loop_
_atom_site_type_symbol
_atom_site_label
_atom_site_fract_x
_atom_site_fract_y
_atom_site_fract_z
Si Si1 0.591381 0.873790 0.320342
Si Si2 0.572585 0.612255 0.054984
Si Si3 0.342703 0.688627 0.792886
Si Si4 0.779908 0.000000 0.486421
Si Si5 0.619975 0.500000 0.188068
Si Si6 0.231255 0.119731 0.445002
Si Si7 0.093528 0.437948 0.818267
Si Si8 0.300803 0.789524 0.644959
O O1 0.500000 0.861986 0.500000
O O2 0.610805 0.914750 0.511312
O O3 0.641728 0.821181 0.275090
O O4 0.612447 0.900373 0.020626
O O5 0.581112 0.663708 0.224665
O O6 0.575017 0.555410 0.201082
O O7 0.500000 0.614022 0.000000
O O8 0.651450 0.616734 0.749533
O O9 0.295719 0.636171 0.783194
O O10 0.341176 0.730900 0.564675
O O11 0.286354 0.716923 0.094335
O O12 0.740571 0.941663 0.589935
O O13 0.846222 0.000000 0.589123
O O14 0.812402 0.000000 0.144053
O O15 0.285171 0.167817 0.451060
O O16 0.113761 0.500000 0.811563
O O17 0.000000 0.437203 0.000000
#
# Coordination Sequence:
#
# PCOD9189769 Si02
#       8
#     8   8   8   4   4   8   8   8
#     4  10  21  39  60  93 125 159 207 265 322 377
#     4  10  21  38  60  96 127 166 213 263 324 387
#     4  10  21  42  64  84 121 166 223 259 315 386
#     4  10  20  38  65  92 133 163 208 268 316 375
#     4  10  19  38  62  94 134 170 203 255 325 391
#     4  10  21  40  62  90 123 167 210 263 318 388
#     4   9  18  36  62  88 123 161 199 249 316 390
#     4  10  23  40  63  86 118 171 216 260 320 382
#
# _framework density 24.425903000000002
#
# number of rings (size 3 to 8) (size 9 to 14) (size 15 to 20)
#    0.000    2.143    1.429    1.071    2.000    2.286 
#    5.143    2.143    0.000    0.000    0.000    0.000 
#    0.000    0.000    0.000    0.000    0.000    0.000 
#
# Total GULP energy -156379.867928 kJ/mol
# GULP energy per Si atom -5584.995283 kJ/mol
# Density = 2.437031 g / cm^3
# Si number density = 24.425903 Si / 1000 Ang^3
#
#
#
# Elastic Constant Matrix: (Units=GPa)
#
#
# Indices 1 2 3 4 5 6 
#
# 1 134.8583 71.7767 27.0344 0.0000 24.8976 0.0000
# 2 71.7767 166.5298 22.8825 0.0000 13.7525 0.0000
# 3 27.0344 22.8825 81.6267 0.0000 2.6188 0.0000
# 4 0.0000 0.0000 0.0000 15.2595 0.0000 8.1798
# 5 24.8976 13.7525 2.6188 0.0000 39.7381 0.0000
# 6 0.0000 0.0000 0.0000 8.1798 0.0000 40.1182
#
#
#
# Elastic Compliance Matrix: (Units=1/GPa)
#
#
# Indices 1 2 3 4 5 6 
#
# 1 0.010989 -0.003971 -0.002355 0.000000 -0.005356 0.000000
# 2 -0.003971 0.007852 -0.000880 0.000000 -0.000171 0.000000
# 3 -0.002355 -0.000880 0.013248 0.000000 0.000907 0.000000
# 4 0.000000 0.000000 0.000000 0.073574 0.000000 -0.015001
# 5 -0.005356 -0.000171 0.000907 0.000000 0.028520 0.000000
# 6 0.000000 0.000000 0.000000 -0.015001 0.000000 0.027985
#
#
# Mechanical properties :
#
#
# Convention : Reuss Voigt Hill
#
# Bulk Modulus (GPa) = 56.56849 69.60022 63.08436
# Shear Modulus (GPa) = 27.40128 36.44456 31.92292
#
# Velocity S-wave (km/s) = 3.35298 3.86689 3.61907
# Velocity P-wave (km/s) = 6.18057 6.96372 6.58380
#
# Compressibility (1/GPa) = 0.01767769
#
# Stress axis : x y z
#
# Youngs Moduli (GPa) = 90.99658 127.36413 75.48035
#
# Poissons Ratio (x) = 0.50573 0.17773
# Poissons Ratio (y) = 0.36132 0.06646
# Poissons Ratio (z) = 0.21427 0.11214
#
# Static dielectric constant tensor:
#      x y z
#    x 2.031580 0.000000 -0.038080 
#    y 0.000000 1.949390 0.000000 
#    z -0.038080 0.000000 1.951540 
# 
# From -- ./inp_files/21864.got.cif
#   From: 2010.05.17/outbox.cif.g08.bks.cpg/sg12_11_cif.got.tgz:21864.got - 2010.06.03 13:09:07.
