data_PCOD9189484
_publ_section_title
;
Structure prediction by ZEFSAII (Michael W. Deem and Ramdas Pophale) SiO2 
 PCOD9189484
Probable space group: C 2/M
;
_chemical_formula_sum "Si O2"
_cell_formula_units_Z 54
_cell_length_a 22.500659
_cell_length_b 15.347547
_cell_length_c 20.536267
_cell_angle_alpha 90.000000
_cell_angle_beta 159.983379
_cell_angle_gamma 90.000000
_cell_volume 2427.467262
_symmetry_space_group_name_H-M "C 2/M"
_symmetry_group_IT_number 12
_symmetry_cell_setting 'monoclinic'
loop_
_space_group_symop_operation_xyz
x,y,z
-x,y,-z
-x,-y,-z
x,-y,z
1/2+x,1/2+y,z
1/2-x,1/2+y,-z
1/2-x,1/2-y,-z
1/2+x,1/2-y,z
loop_
_atom_site_type_symbol
_atom_site_label
_atom_site_fract_x
_atom_site_fract_y
_atom_site_fract_z
Si Si1 0.397770 0.091697 0.705657
Si Si2 0.937710 0.280492 0.561046
Si Si3 0.000000 0.500000 0.000000
Si Si4 0.943034 0.764276 0.176448
Si Si5 0.830131 0.398271 0.277369
Si Si6 0.212751 0.349271 0.271419
Si Si7 0.500000 0.302440 0.000000
Si Si8 0.342581 0.402807 0.669490
O O1 0.508452 0.177291 0.811773
O O2 0.305173 0.099500 0.679309
O O3 0.269392 0.090418 0.512268
O O4 0.498111 0.000000 0.808442
O O5 0.891626 0.205334 0.461349
O O6 0.784366 0.352220 0.411962
O O7 0.950019 0.236962 0.645210
O O8 0.107923 0.334460 0.716821
O O9 0.848403 0.421522 0.843175
O O10 0.993843 0.845967 0.184446
O O11 0.750000 0.750000 0.000000
O O12 0.808305 0.500000 0.236878
O O13 0.000000 0.394251 0.500000
O O14 0.655362 0.360043 0.129964
O O15 0.079357 0.267872 0.132001
O O16 0.383862 0.500000 0.735306
#
# Coordination Sequence:
#
# PCOD9189484 Si02
#       8
#     8   8   2   8   8   8   4   8
#     4  10  19  37  64  87 120 169 213 267 334 393
#     4  11  21  41  65  92 130 177 219 274 347 398
#     4  10  24  36  66 110 122 166 234 292 332 406
#     4  11  23  37  59  95 133 170 219 269 330 409
#     4  11  24  43  66  96 131 171 224 281 338 412
#     4  11  20  39  66  92 129 169 220 280 340 398
#     4  11  25  41  65  96 128 172 227 279 345 409
#     4  10  20  37  63  94 124 169 221 264 328 414
#
# _framework density 22.245408999999999
#
# number of rings (size 3 to 8) (size 9 to 14) (size 15 to 20)
#    0.000    1.333    5.185    1.556    2.074    1.185 
#    0.000    1.481    0.000    7.111    0.000    0.000 
#    0.000    0.000    0.000    0.000    0.000    0.000 
#
# Total GULP energy -150320.689374 kJ/mol
# GULP energy per Si atom -5567.432940 kJ/mol
# Density = 2.219478 g / cm^3
# Si number density = 22.245409 Si / 1000 Ang^3
#
#
#
# Elastic Constant Matrix: (Units=GPa)
#
#
# Indices 1 2 3 4 5 6 
#
# 1 59.9844 27.9451 16.2426 -0.0022 15.2680 0.0004
# 2 27.9451 177.8908 64.6769 -0.0159 21.1767 -0.0043
# 3 16.2426 64.6769 66.6439 -0.0124 30.9892 -0.0026
# 4 -0.0022 -0.0159 -0.0124 10.7130 -0.0085 -4.0119
# 5 15.2680 21.1767 30.9892 -0.0085 36.7823 -0.0003
# 6 0.0004 -0.0043 -0.0026 -4.0119 -0.0003 8.5245
#
#
#
# Elastic Compliance Matrix: (Units=1/GPa)
#
#
# Indices 1 2 3 4 5 6 
#
# 1 0.019500 -0.002665 0.001454 -0.000006 -0.007785 -0.000005
# 2 -0.002665 0.009326 -0.010553 0.000007 0.004628 0.000005
# 3 0.001454 -0.010553 0.036742 0.000010 -0.025483 0.000010
# 4 -0.000006 0.000007 0.000010 0.113316 0.000017 0.053330
# 5 -0.007785 0.004628 -0.025483 0.000017 0.049223 0.000005
# 6 -0.000005 0.000005 0.000010 0.053330 0.000005 0.142407
#
#
# Mechanical properties :
#
#
# Convention : Reuss Voigt Hill
#
# Bulk Modulus (GPa) = 23.78740 58.02761 40.90750
# Shear Modulus (GPa) = 12.25316 24.24760 18.25038
#
# Velocity S-wave (km/s) = 2.34950 3.30510 2.86739
# Velocity P-wave (km/s) = 4.25165 6.38019 5.42141
#
# Compressibility (1/GPa) = 0.04203907
#
# Stress axis : x y z
#
# Youngs Moduli (GPa) = 51.28077 107.22580 27.21665
#
# Poissons Ratio (x) = 0.28577 -0.03956
# Poissons Ratio (y) = 0.13667 0.28723
# Poissons Ratio (z) = -0.07455 1.13160
#
# Static dielectric constant tensor:
#      x y z
#    x 1.925410 -0.000010 -0.079020 
#    y -0.000010 1.822090 0.000000 
#    z -0.079020 0.000000 1.893470 
# 
# From -- ./inp_files/349842.got.cif
#   From: 2010.05.17/outbox.cif.g08.bks.cpg/sg12_175_cif.got.tgz:349842.got - 2010.06.03 13:09:07.
