data_PCOD9189198
_publ_section_title
;
Structure prediction by ZEFSAII (Michael W. Deem and Ramdas Pophale) SiO2 
 PCOD9189198
Probable space group: C 2/M
;
_chemical_formula_sum "Si O2"
_cell_formula_units_Z 32
_cell_length_a 11.810044
_cell_length_b 18.426745
_cell_length_c 9.120576
_cell_angle_alpha 90.000000
_cell_angle_beta 124.239818
_cell_angle_gamma 90.000000
_cell_volume 1640.835192
_symmetry_space_group_name_H-M "C 2/M"
_symmetry_group_IT_number 12
_symmetry_cell_setting 'monoclinic'
loop_
_space_group_symop_operation_xyz
x,y,z
-x,y,-z
-x,-y,-z
x,-y,z
1/2+x,1/2+y,z
1/2-x,1/2+y,-z
1/2-x,1/2-y,-z
1/2+x,1/2-y,z
loop_
_atom_site_type_symbol
_atom_site_label
_atom_site_fract_x
_atom_site_fract_y
_atom_site_fract_z
Si Si1 0.829342 0.860421 0.959482
Si Si2 0.851705 0.789275 0.452535
Si Si3 0.137763 0.306650 0.034786
Si Si4 0.908582 0.082921 0.709148
O O1 0.886910 0.778098 0.022899
O O2 0.827517 0.883749 0.789950
O O3 0.684728 0.853324 0.931328
O O4 0.934379 0.911745 0.120871
O O5 0.750000 0.750000 0.500000
O O6 0.757423 0.802659 0.242264
O O7 0.889608 0.864649 0.558716
O O8 0.000000 0.757896 0.500000
O O9 0.000000 0.336779 0.000000
O O10 0.870699 0.000000 0.654660
#
# Coordination Sequence:
#
# PCOD9189198 Si02
#       4
#     8   8   8   8
#     4  10  19  37  59  93 120 158 212 257 311 363
#     4  12  24  41  64  99 128 163 214 269 318 369
#     4  11  21  36  64  92 128 159 210 266 316 366
#     4  11  22  40  64  90 126 169 212 258 312 382
#
# _framework density 19.502264
#
# number of rings (size 3 to 8) (size 9 to 14) (size 15 to 20)
#    0.000    1.000    7.500    1.500    3.500    0.500 
#    0.000    0.000    0.000   12.000    0.000    0.000 
#    0.000    0.000    0.000    0.000    0.000    0.000 
#
# Total GULP energy -89195.227461 kJ/mol
# GULP energy per Si atom -5574.701716 kJ/mol
# Density = 1.945788 g / cm^3
# Si number density = 19.502264 Si / 1000 Ang^3
#
#
#
# Elastic Constant Matrix: (Units=GPa)
#
#
# Indices 1 2 3 4 5 6 
#
# 1 181.0588 29.2120 4.7120 0.0000 -6.2925 0.0000
# 2 29.2120 76.4602 18.1890 0.0000 -18.4948 0.0000
# 3 4.7120 18.1890 56.2392 0.0000 2.8963 0.0000
# 4 0.0000 0.0000 0.0000 18.8485 0.0000 4.0365
# 5 -6.2925 -18.4948 2.8963 0.0000 25.0713 0.0000
# 6 0.0000 0.0000 0.0000 4.0365 0.0000 12.5874
#
#
#
# Elastic Compliance Matrix: (Units=1/GPa)
#
#
# Indices 1 2 3 4 5 6 
#
# 1 0.005891 -0.002401 0.000300 0.000000 -0.000327 0.000000
# 2 -0.002401 0.019021 -0.006682 0.000000 0.014200 0.000000
# 3 0.000300 -0.006682 0.020288 0.000000 -0.007197 0.000000
# 4 0.000000 0.000000 0.000000 0.056967 0.000000 -0.018268
# 5 -0.000327 0.014200 -0.007197 0.000000 0.051111 0.000000
# 6 0.000000 0.000000 0.000000 -0.018268 0.000000 0.085303
#
#
# Mechanical properties :
#
#
# Convention : Reuss Voigt Hill
#
# Bulk Modulus (GPa) = 36.18834 46.44268 41.31551
# Shear Modulus (GPa) = 18.84250 28.74447 23.79348
#
# Velocity S-wave (km/s) = 3.11170 3.84331 3.49669
# Velocity P-wave (km/s) = 5.61306 6.60003 6.12645
#
# Compressibility (1/GPa) = 0.02763321
#
# Stress axis : x y z
#
# Youngs Moduli (GPa) = 169.74138 52.57457 49.29082
#
# Poissons Ratio (x) = 0.12625 -0.01478
# Poissons Ratio (y) = 0.40761 0.32935
# Poissons Ratio (z) = -0.05091 0.35129
#
# Static dielectric constant tensor:
#      x y z
#    x 1.820570 0.000000 -0.029920 
#    y 0.000000 1.673950 0.000000 
#    z -0.029920 0.000000 1.671950 
# 
# From -- ./inp_files/46422.got.cif
#   From: 2010.05.17/outbox.cif.g08.bks.cpg/sg12_24_cif.got.tgz:46422.got - 2010.06.03 13:09:07.
