data_PCOD9189454
_publ_section_title
;
Structure prediction by ZEFSAII (Michael W. Deem and Ramdas Pophale) SiO2 
 PCOD9189454
Probable space group: C 2/M
;
_chemical_formula_sum "Si O2"
_cell_formula_units_Z 52
_cell_length_a 23.368503
_cell_length_b 16.096448
_cell_length_c 16.829379
_cell_angle_alpha 90.000000
_cell_angle_beta 22.182248
_cell_angle_gamma 90.000000
_cell_volume 2390.055583
_symmetry_space_group_name_H-M "C 2/M"
_symmetry_group_IT_number 12
_symmetry_cell_setting 'monoclinic'
loop_
_space_group_symop_operation_xyz
x,y,z
-x,y,-z
-x,-y,-z
x,-y,z
1/2+x,1/2+y,z
1/2-x,1/2+y,-z
1/2-x,1/2-y,-z
1/2+x,1/2-y,z
loop_
_atom_site_type_symbol
_atom_site_label
_atom_site_fract_x
_atom_site_fract_y
_atom_site_fract_z
Si Si1 0.750004 0.842971 0.431569
Si Si2 0.441273 0.000000 0.699313
Si Si3 0.702211 0.500000 0.731813
Si Si4 0.589514 0.853250 0.139602
Si Si5 0.156475 0.000000 0.970190
Si Si6 0.168703 0.266068 0.815016
Si Si7 0.170141 0.097037 0.301409
Si Si8 0.555269 0.318442 0.121937
O O1 0.821405 0.921301 0.293563
O O2 0.581321 0.865783 0.676810
O O3 0.739897 0.779671 0.371243
O O4 0.875395 0.814358 0.333357
O O5 0.402980 0.086351 0.794691
O O6 0.621633 0.000000 0.468757
O O7 0.336223 0.000000 0.757456
O O8 0.622612 0.500000 0.919404
O O9 0.599851 0.752528 0.128341
O O10 0.718767 0.886241 0.915234
O O11 0.093541 0.914314 0.088092
O O12 0.257511 0.348402 0.722824
O O13 0.142546 0.210378 0.928305
O O14 0.000000 0.282684 0.000000
O O15 0.000000 0.124565 0.500000
O O16 0.166418 0.000000 0.325282
#
# Coordination Sequence:
#
# PCOD9189454 Si02
#       8
#     8   4   4   8   4   8   8   8
#     4  10  19  37  63  89 120 151 196 247 306 364
#     4  10  23  40  59  82 120 160 209 249 288 358
#     4  10  20  36  59  90 119 161 190 244 305 358
#     4  10  21  42  61  84 116 160 201 250 303 352
#     4  12  22  38  55  90 128 157 202 237 300 366
#     4   9  19  37  60  91 120 154 197 243 303 368
#     4  10  21  41  63  83 114 159 207 255 304 359
#     4  10  21  36  61  89 122 158 193 245 301 366
#
# _framework density 21.756816000000001
#
# number of rings (size 3 to 8) (size 9 to 14) (size 15 to 20)
#    0.000    2.000    2.308    1.154    0.000    1.538 
#   13.846    0.000    0.000    0.000    0.000    0.000 
#    0.000    0.000    0.000    0.000    0.000    0.000 
#
# Total GULP energy -145158.702836 kJ/mol
# GULP energy per Si atom -5583.027032 kJ/mol
# Density = 2.170730 g / cm^3
# Si number density = 21.756816 Si / 1000 Ang^3
#
#
#
# Elastic Constant Matrix: (Units=GPa)
#
#
# Indices 1 2 3 4 5 6 
#
# 1 42.7515 36.2429 20.8593 -0.0003 -2.9531 0.0001
# 2 36.2429 138.9082 10.9213 -0.0003 -0.4326 0.0000
# 3 20.8593 10.9213 118.5676 -0.0005 -3.4286 0.0000
# 4 -0.0003 -0.0003 -0.0005 27.9996 0.0003 -11.2605
# 5 -2.9531 -0.4326 -3.4286 0.0003 20.3473 0.0000
# 6 0.0001 0.0000 0.0000 -11.2605 0.0000 23.2480
#
#
#
# Elastic Compliance Matrix: (Units=1/GPa)
#
#
# Indices 1 2 3 4 5 6 
#
# 1 0.033032 -0.008218 -0.004945 0.000000 0.003786 0.000000
# 2 -0.008218 0.009296 0.000563 0.000000 -0.000900 0.000000
# 3 -0.004945 0.000563 0.009277 0.000000 0.000857 0.000000
# 4 0.000000 0.000000 0.000000 0.044355 -0.000001 0.021484
# 5 0.003786 -0.000900 0.000857 -0.000001 0.049822 0.000000
# 6 0.000000 0.000000 0.000000 0.021484 0.000000 0.053420
#
#
# Mechanical properties :
#
#
# Convention : Reuss Voigt Hill
#
# Bulk Modulus (GPa) = 37.86961 48.47492 43.17226
# Shear Modulus (GPa) = 21.44062 29.79923 25.61993
#
# Velocity S-wave (km/s) = 3.14262 3.70489 3.43528
# Velocity P-wave (km/s) = 5.53279 6.37419 5.96834
#
# Compressibility (1/GPa) = 0.02640640
#
# Stress axis : x y z
#
# Youngs Moduli (GPa) = 30.27371 107.57271 107.79542
#
# Poissons Ratio (x) = 0.88402 0.53303
# Poissons Ratio (y) = 0.24879 -0.06074
# Poissons Ratio (z) = 0.14970 -0.06061
#
# Static dielectric constant tensor:
#      x y z
#    x 1.763150 0.000000 0.026020 
#    y 0.000000 1.885740 0.000000 
#    z 0.026020 0.000000 1.818060 
# 
# From -- ./inp_files/328326.got.cif
#   From: 2010.05.17/outbox.cif.g08.bks.cpg/sg12_165_cif.got.tgz:328326.got - 2010.06.03 13:09:07.
