data_PCOD9189444
_publ_section_title
;
Structure prediction by ZEFSAII (Michael W. Deem and Ramdas Pophale) SiO2 
 PCOD9189444
Probable space group: C 2/M
;
_chemical_formula_sum "Si O2"
_cell_formula_units_Z 48
_cell_length_a 18.271764
_cell_length_b 14.621387
_cell_length_c 16.891916
_cell_angle_alpha 90.000000
_cell_angle_beta 147.271831
_cell_angle_gamma 90.000000
_cell_volume 2439.873806
_symmetry_space_group_name_H-M "C 2/M"
_symmetry_group_IT_number 12
_symmetry_cell_setting 'monoclinic'
loop_
_space_group_symop_operation_xyz
x,y,z
-x,y,-z
-x,-y,-z
x,-y,z
1/2+x,1/2+y,z
1/2-x,1/2+y,-z
1/2-x,1/2-y,-z
1/2+x,1/2-y,z
loop_
_atom_site_type_symbol
_atom_site_label
_atom_site_fract_x
_atom_site_fract_y
_atom_site_fract_z
Si Si1 0.427696 0.685069 0.589783
Si Si2 0.050358 0.000000 0.638873
Si Si3 0.691892 0.799075 0.258817
Si Si4 0.715821 0.895203 0.917841
Si Si5 0.542895 0.249827 0.853192
Si Si6 0.662687 0.000000 0.158209
Si Si7 0.609846 0.170631 0.660470
O O1 0.487214 0.586644 0.624245
O O2 0.279814 0.694624 0.419027
O O3 0.444731 0.711900 0.695683
O O4 0.523838 0.751791 0.626971
O O5 0.213945 0.000000 0.793263
O O6 0.000000 0.000000 0.500000
O O7 0.540977 0.769627 0.144295
O O8 0.691705 0.902151 0.225760
O O9 0.769568 0.725270 0.274534
O O10 0.611456 0.843073 0.881782
O O11 0.661281 0.892574 0.778005
O O12 0.741755 0.000000 0.964525
O O13 0.844199 0.827609 0.034254
O O14 0.500000 0.000000 0.000000
O O15 0.500000 0.128218 0.500000
#
# Coordination Sequence:
#
# PCOD9189444 Si02
#       7
#     8   4   8   8   8   4   8
#     4  10  19  37  63  87 121 164 199 244 306 374
#     4  12  18  38  62  92 124 162 205 244 304 378
#     4  11  21  39  59  91 123 152 208 258 311 355
#     4  10  23  43  60  84 120 166 206 241 309 374
#     4  10  24  38  62  89 122 160 198 257 309 361
#     4  12  26  32  58  98 128 159 200 267 316 354
#     4   9  19  37  64  86 114 157 200 251 301 360
#
# _framework density 19.673147
#
# number of rings (size 3 to 8) (size 9 to 14) (size 15 to 20)
#    0.000    1.667    3.333    1.000    4.667    1.667 
#    0.000    1.667    0.000    1.000    0.000    0.000 
#    0.000    0.000    0.000    0.000    0.000    0.000 
#
# Total GULP energy -133894.200884 kJ/mol
# GULP energy per Si atom -5578.925037 kJ/mol
# Density = 1.962837 g / cm^3
# Si number density = 19.673147 Si / 1000 Ang^3
#
#
#
# Elastic Constant Matrix: (Units=GPa)
#
#
# Indices 1 2 3 4 5 6 
#
# 1 85.9003 33.8608 27.8160 0.0000 16.6241 0.0000
# 2 33.8608 114.5311 22.0271 0.0000 10.0703 0.0000
# 3 27.8160 22.0271 61.4758 0.0001 13.5205 0.0000
# 4 0.0000 0.0000 0.0001 3.1032 0.0000 0.3659
# 5 16.6241 10.0703 13.5205 0.0000 27.7875 0.0000
# 6 0.0000 0.0000 0.0000 0.3659 0.0000 -29.3311
#
#
#
# Elastic Compliance Matrix: (Units=1/GPa)
#
#
# Indices 1 2 3 4 5 6 
#
# 1 0.015525 -0.003189 -0.004584 0.000000 -0.005902 0.000000
# 2 -0.003189 0.010130 -0.002014 0.000000 -0.000783 0.000000
# 3 -0.004584 -0.002014 0.020492 0.000000 -0.006498 0.000000
# 4 0.000000 0.000000 0.000000 0.321771 0.000000 0.004014
# 5 -0.005902 -0.000783 -0.006498 0.000000 0.042964 0.000000
# 6 0.000000 0.000000 0.000000 0.004014 0.000000 -0.034043
#
#
# Mechanical properties :
#
#
# Convention : Reuss Voigt Hill
#
# Bulk Modulus (GPa) = 37.63411 47.70165 42.66788
# Shear Modulus (GPa) = 12.33740 12.19214 12.26477
#
# Velocity S-wave (km/s) = 2.50695 2.49215 2.49956
# Velocity P-wave (km/s) = 5.24890 5.70796 5.48324
#
# Compressibility (1/GPa) = 0.02657164
#
# Stress axis : x y z
#
# Youngs Moduli (GPa) = 64.41165 98.71198 48.80052
#
# Poissons Ratio (x) = 0.31484 0.22370
# Poissons Ratio (y) = 0.20544 0.09831
# Poissons Ratio (z) = 0.29526 0.19885
#
# Static dielectric constant tensor:
#      x y z
#    x 1.675190 0.000000 -0.041050 
#    y 0.000000 1.627050 0.000000 
#    z -0.041050 0.000000 1.772210 
# 
# From -- ./inp_files/85984.got.cif
#   From: 2010.05.17/outbox.cif.g08.bks.cpg/sg12_43_cif.got.tgz:85984.got - 2010.06.03 13:09:07.
