data_PCOD9189450
_publ_section_title
;
Structure prediction by ZEFSAII (Michael W. Deem and Ramdas Pophale) SiO2 
 PCOD9189450
Probable space group: C 2/M
;
_chemical_formula_sum "Si O2"
_cell_formula_units_Z 64
_cell_length_a 19.315265
_cell_length_b 7.745366
_cell_length_c 32.323264
_cell_angle_alpha 90.000000
_cell_angle_beta 37.583084
_cell_angle_gamma 90.000000
_cell_volume 2949.337339
_symmetry_space_group_name_H-M "C 2/M"
_symmetry_group_IT_number 12
_symmetry_cell_setting 'monoclinic'
loop_
_space_group_symop_operation_xyz
x,y,z
-x,y,-z
-x,-y,-z
x,-y,z
1/2+x,1/2+y,z
1/2-x,1/2+y,-z
1/2-x,1/2-y,-z
1/2+x,1/2-y,z
loop_
_atom_site_type_symbol
_atom_site_label
_atom_site_fract_x
_atom_site_fract_y
_atom_site_fract_z
Si Si1 0.164128 0.292498 0.327120
Si Si2 0.822573 0.703215 0.402774
Si Si3 0.913350 0.290011 0.447982
Si Si4 0.626430 0.791892 0.712994
Si Si5 0.623515 0.208647 0.167683
Si Si6 0.459518 0.302115 0.062168
Si Si7 0.221333 0.289070 0.208300
Si Si8 0.187087 0.698717 0.988132
O O1 0.157691 0.500000 0.327997
O O2 0.269201 0.251151 0.306814
O O3 0.184809 0.227105 0.270641
O O4 0.039498 0.233940 0.400733
O O5 0.850394 0.500000 0.388233
O O6 0.886326 0.770030 0.413644
O O7 0.689116 0.725298 0.475174
O O8 0.853354 0.775012 0.343294
O O9 0.907496 0.500000 0.451207
O O10 0.501702 0.733324 0.786885
O O11 0.621510 0.000000 0.713324
O O12 0.643611 0.258281 0.206020
O O13 0.725983 0.273495 0.090839
O O14 0.628449 0.000000 0.163142
O O15 0.426515 0.500000 0.067404
O O16 0.348495 0.229199 0.136531
O O17 0.500000 0.217868 0.000000
O O18 0.570850 0.301363 0.037315
O O19 0.219784 0.500000 0.211197
O O20 0.154043 0.500000 0.005661
O O21 0.250000 0.750000 0.000000
#
# Coordination Sequence:
#
# PCOD9189450 Si02
#       8
#     8   8   8   8   8   8   8   8
#     4  10  21  36  55  82 114 149 188 229 276 334
#     4   9  18  35  58  83 110 144 185 228 276 329
#     4   9  18  34  57  83 109 143 189 232 271 323
#     4  10  22  37  56  82 114 148 185 231 281 334
#     4  10  20  40  63  83 109 148 193 233 281 339
#     4  10  19  37  63  89 114 146 190 235 286 345
#     4   9  18  35  61  84 108 146 188 230 278 337
#     4  12  26  41  59  85 118 153 191 236 287 340
#
# _framework density 21.699791000000001
#
# number of rings (size 3 to 8) (size 9 to 14) (size 15 to 20)
#    0.000    2.125    1.250    1.875    1.750    5.250 
#    0.000    3.125    0.000    3.000    0.000    0.000 
#    0.000    0.000    0.000    0.000    0.000    0.000 
#
# Total GULP energy -178705.856289 kJ/mol
# GULP energy per Si atom -5584.558009 kJ/mol
# Density = 2.165040 g / cm^3
# Si number density = 21.699791 Si / 1000 Ang^3
#
#
#
# Elastic Constant Matrix: (Units=GPa)
#
#
# Indices 1 2 3 4 5 6 
#
# 1 81.6514 -10.7262 15.3425 -0.0010 -23.5448 0.0507
# 2 -10.7262 36.0829 -4.6867 0.0160 3.8708 0.0380
# 3 15.3425 -4.6867 56.0813 -0.0023 -19.6510 0.0213
# 4 -0.0010 0.0160 -0.0023 15.0748 -0.0018 -1.0640
# 5 -23.5448 3.8708 -19.6510 -0.0018 41.6013 -0.0019
# 6 0.0507 0.0380 0.0213 -1.0640 -0.0019 22.3749
#
#
#
# Elastic Compliance Matrix: (Units=1/GPa)
#
#
# Indices 1 2 3 4 5 6 
#
# 1 0.015147 0.003527 -0.001151 -0.000005 0.007701 -0.000039
# 2 0.003527 0.028952 0.001450 -0.000035 -0.000013 -0.000060
# 3 -0.001151 0.001450 0.021560 0.000001 0.009398 -0.000020
# 4 -0.000005 -0.000035 0.000001 0.066559 0.000004 0.003165
# 5 0.007701 -0.000013 0.009398 0.000004 0.032837 -0.000023
# 6 -0.000039 -0.000060 -0.000020 0.003165 -0.000023 0.044844
#
#
# Mechanical properties :
#
#
# Convention : Reuss Voigt Hill
#
# Bulk Modulus (GPa) = 13.64003 19.29720 16.46862
# Shear Modulus (GPa) = 22.05710 27.40259 24.72984
#
# Velocity S-wave (km/s) = 3.19166 3.55745 3.37951
# Velocity P-wave (km/s) = 4.45889 5.07800 4.77848
#
# Compressibility (1/GPa) = 0.07331362
#
# Stress axis : x y z
#
# Youngs Moduli (GPa) = 66.01756 34.53960 46.38132
#
# Poissons Ratio (x) = -0.12183 0.05337
# Poissons Ratio (y) = -0.23286 -0.06726
# Poissons Ratio (z) = 0.07597 -0.05009
#
# Static dielectric constant tensor:
#      x y z
#    x 1.754650 0.000070 0.013390 
#    y 0.000070 1.830460 -0.000060 
#    z 0.013390 -0.000060 1.767630 
# 
# From -- ./inp_files/378077.got.cif
#   From: 2010.05.17/outbox.cif.g08.bks.cpg/sg12_190_cif.got.tgz:378077.got - 2010.06.03 13:09:07.
