data_PCOD9189314
_publ_section_title
;
Structure prediction by ZEFSAII (Michael W. Deem and Ramdas Pophale) SiO2 
 PCOD9189314
Probable space group: C 2/M
;
_chemical_formula_sum "Si O2"
_cell_formula_units_Z 64
_cell_length_a 29.481417
_cell_length_b 9.260535
_cell_length_c 16.546720
_cell_angle_alpha 90.000000
_cell_angle_beta 138.975571
_cell_angle_gamma 90.000000
_cell_volume 2965.187676
_symmetry_space_group_name_H-M "C 2/M"
_symmetry_group_IT_number 12
_symmetry_cell_setting 'monoclinic'
loop_
_space_group_symop_operation_xyz
x,y,z
-x,y,-z
-x,-y,-z
x,-y,z
1/2+x,1/2+y,z
1/2-x,1/2+y,-z
1/2-x,1/2-y,-z
1/2+x,1/2-y,z
loop_
_atom_site_type_symbol
_atom_site_label
_atom_site_fract_x
_atom_site_fract_y
_atom_site_fract_z
Si Si1 0.330046 0.330228 0.701556
Si Si2 0.417307 0.669933 0.984233
Si Si3 0.580775 0.171490 0.700045
Si Si4 0.195311 0.166486 0.771368
Si Si5 0.659983 0.172912 0.974091
Si Si6 0.549139 0.833386 0.210854
Si Si7 0.201486 0.167727 0.594074
Si Si8 0.557798 0.168026 0.408504
O O1 0.323522 0.500000 0.675041
O O2 0.372388 0.313752 0.842816
O O3 0.378315 0.248117 0.702717
O O4 0.255989 0.256598 0.614641
O O5 0.430228 0.500000 0.013490
O O6 0.376136 0.737164 0.003968
O O7 0.490087 0.752573 0.081533
O O8 0.626500 0.242141 0.692149
O O9 0.623645 0.200398 0.840002
O O10 0.502363 0.219390 0.611969
O O11 0.577812 0.000000 0.683693
O O12 0.223429 0.176061 0.717926
O O13 0.177879 0.000000 0.764145
O O14 0.258849 0.210279 0.913829
O O15 0.654162 0.000000 0.983060
O O16 0.528135 0.831326 0.277030
O O17 0.556126 0.000000 0.195205
O O18 0.125627 0.236004 0.494852
O O19 0.200206 0.000000 0.568301
O O20 0.575106 0.000000 0.450179
#
# Coordination Sequence:
#
# PCOD9189314 Si02
#       8
#     8   8   8   8   8   8   8   8
#     4  11  24  41  62  92 126 157 198 248 299 358
#     4  11  22  36  60  93 126 158 195 244 300 356
#     4  10  21  38  62  89 120 159 200 242 298 361
#     4  10  22  38  60  90 123 156 197 248 298 356
#     4  10  19  37  61  87 123 159 197 244 296 363
#     4  11  23  41  65  90 122 162 201 243 299 360
#     4  11  24  42  64  88 117 159 206 251 302 356
#     4  10  23  43  63  86 118 158 204 253 299 352
#
# _framework density 21.583796
#
# number of rings (size 3 to 8) (size 9 to 14) (size 15 to 20)
#    0.000    1.500    2.500    2.250    0.000    7.500 
#    0.000    2.500    0.000    0.000    0.000    0.000 
#    0.000    0.000    0.000    0.000    0.000    0.000 
#
# Total GULP energy -178990.552828 kJ/mol
# GULP energy per Si atom -5593.454776 kJ/mol
# Density = 2.153467 g / cm^3
# Si number density = 21.583796 Si / 1000 Ang^3
#
#
#
# Elastic Constant Matrix: (Units=GPa)
#
#
# Indices 1 2 3 4 5 6 
#
# 1 113.4716 47.1579 11.9426 0.0000 32.3680 0.0000
# 2 47.1579 80.3550 33.4793 0.0000 25.6516 0.0000
# 3 11.9426 33.4793 73.9947 0.0000 25.3440 0.0000
# 4 0.0000 0.0000 0.0000 25.3302 0.0000 9.7866
# 5 32.3680 25.6516 25.3440 0.0000 43.9875 0.0000
# 6 0.0000 0.0000 0.0000 9.7866 0.0000 38.1126
#
#
#
# Elastic Compliance Matrix: (Units=1/GPa)
#
#
# Indices 1 2 3 4 5 6 
#
# 1 0.013629 -0.006961 0.003731 0.000000 -0.008119 0.000000
# 2 -0.006961 0.020360 -0.007196 0.000000 -0.002604 0.000000
# 3 0.003731 -0.007196 0.019524 0.000000 -0.009798 0.000000
# 4 0.000000 0.000000 0.000000 0.043827 0.000000 -0.011254
# 5 -0.008119 -0.002604 -0.009798 0.000000 0.035872 0.000000
# 6 0.000000 0.000000 0.000000 -0.011254 0.000000 0.029128
#
#
# Mechanical properties :
#
#
# Convention : Reuss Voigt Hill
#
# Bulk Modulus (GPa) = 30.61882 50.33122 40.47502
# Shear Modulus (GPa) = 25.76269 33.16882 29.46576
#
# Velocity S-wave (km/s) = 3.45862 3.92439 3.69884
# Velocity P-wave (km/s) = 5.49238 6.62601 6.08565
#
# Compressibility (1/GPa) = 0.03265966
#
# Stress axis : x y z
#
# Youngs Moduli (GPa) = 73.37271 49.11675 51.21850
#
# Poissons Ratio (x) = 0.34190 -0.19108
# Poissons Ratio (y) = 0.51075 0.36858
# Poissons Ratio (z) = -0.27373 0.35346
#
# Static dielectric constant tensor:
#      x y z
#    x 1.777980 0.000000 -0.028380 
#    y 0.000000 1.723720 0.000000 
#    z -0.028380 0.000000 1.818440 
# 
# From -- ./inp_files/295804.got.cif
#   From: 2010.05.17/outbox.cif.g08.bks.cpg/sg12_148_cif.got.tgz:295804.got - 2010.06.03 13:09:07.
