data_PCOD9189876
_publ_section_title
;
Structure prediction by ZEFSAII (Michael W. Deem and Ramdas Pophale) SiO2 
 PCOD9189876
Probable space group: C 2/M
;
_chemical_formula_sum "Si O2"
_cell_formula_units_Z 58
_cell_length_a 29.499263
_cell_length_b 14.823383
_cell_length_c 21.274898
_cell_angle_alpha 90.000000
_cell_angle_beta 18.292614
_cell_angle_gamma 90.000000
_cell_volume 2919.953105
_symmetry_space_group_name_H-M "C 2/M"
_symmetry_group_IT_number 12
_symmetry_cell_setting 'monoclinic'
loop_
_space_group_symop_operation_xyz
x,y,z
-x,y,-z
-x,-y,-z
x,-y,z
1/2+x,1/2+y,z
1/2-x,1/2+y,-z
1/2-x,1/2-y,-z
1/2+x,1/2-y,z
loop_
_atom_site_type_symbol
_atom_site_label
_atom_site_fract_x
_atom_site_fract_y
_atom_site_fract_z
Si Si1 0.000000 0.500000 0.000000
Si Si2 0.083121 0.729680 0.554588
Si Si3 0.598753 0.901924 0.116285
Si Si4 0.648920 0.606533 0.553696
Si Si5 0.597641 0.669423 0.028384
Si Si6 0.307998 0.740820 0.851699
Si Si7 0.660678 0.600185 0.815828
Si Si8 0.018274 0.360311 0.863236
O O1 0.971607 0.420137 0.983873
O O2 0.104763 0.829158 0.554180
O O3 0.231779 0.678725 0.346643
O O4 0.999918 0.668267 0.715508
O O5 0.976402 0.736921 0.635334
O O6 0.534352 0.904563 0.131918
O O7 0.598142 0.000000 0.147241
O O8 0.759242 0.860610 0.900006
O O9 0.655668 0.500000 0.529302
O O10 0.534419 0.626060 0.759361
O O11 0.808037 0.637856 0.364326
O O12 0.542457 0.758892 0.063871
O O13 0.718441 0.698368 0.920534
O O14 0.653546 0.604715 0.900545
O O15 0.250000 0.750000 0.000000
O O16 0.710487 0.500000 0.729689
O O17 0.500000 0.612986 0.000000
#
# Coordination Sequence:
#
# PCOD9189876 Si02
#       8
#     2   8   8   8   8   8   8   8
#     4  12  24  40  60 100 136 162 240 264 338 424
#     4  11  23  42  63  93 136 173 223 268 335 393
#     4  10  19  38  65  94 123 172 224 269 328 394
#     4  12  23  38  62  97 130 172 225 276 324 403
#     4  11  23  42  67  90 131 175 219 277 341 383
#     4   9  19  41  62  91 125 167 225 271 319 391
#     4  11  26  44  65 100 136 175 215 275 337 405
#     4  11  23  38  61  91 130 172 215 277 332 396
#
# _framework density 19.863333999999998
#
# number of rings (size 3 to 8) (size 9 to 14) (size 15 to 20)
#    0.000    1.241    5.517    2.069    4.828    1.103 
#    0.000    2.759    0.000    0.000    0.000    4.828 
#    0.000    0.000    0.000    0.000    0.000    0.000 
#
# Total GULP energy -161537.062048 kJ/mol
# GULP energy per Si atom -5570.243519 kJ/mol
# Density = 1.981812 g / cm^3
# Si number density = 19.863334 Si / 1000 Ang^3
#
#
#
# Elastic Constant Matrix: (Units=GPa)
#
#
# Indices 1 2 3 4 5 6 
#
# 1 112.6018 36.4960 27.7428 0.0002 -20.9610 0.0001
# 2 36.4960 107.5559 35.4783 0.0005 -17.9767 0.0000
# 3 27.7428 35.4783 55.8283 0.0008 -16.5817 0.0001
# 4 0.0002 0.0005 0.0008 -252.1559 -0.0004 21.1963
# 5 -20.9610 -17.9767 -16.5817 -0.0004 24.4975 -0.0001
# 6 0.0001 0.0000 0.0001 21.1963 -0.0001 16.9737
#
#
#
# Elastic Compliance Matrix: (Units=1/GPa)
#
#
# Indices 1 2 3 4 5 6 
#
# 1 0.011344 -0.001937 -0.002435 0.000000 0.006637 0.000000
# 2 -0.001937 0.012499 -0.005943 0.000000 0.003492 0.000000
# 3 -0.002435 -0.005943 0.026265 0.000000 0.011333 0.000000
# 4 0.000000 0.000000 0.000000 -0.003589 0.000000 0.004482
# 5 0.006637 0.003492 0.011333 0.000000 0.056733 0.000000
# 6 0.000000 0.000000 0.000000 0.004482 0.000000 0.053318
#
#
# Mechanical properties :
#
#
# Convention : Reuss Voigt Hill
#
# Bulk Modulus (GPa) = 33.92411 52.82446 43.37429
# Shear Modulus (GPa) = 26.73428 -30.38568 -1.82570
#
# Velocity S-wave (km/s) = 3.67265 -3.91543 -0.95975
# Velocity P-wave (km/s) = 5.92455 2.49217 4.54484
#
# Compressibility (1/GPa) = 0.02947756
#
# Stress axis : x y z
#
# Youngs Moduli (GPa) = 88.15216 80.00827 38.07319
#
# Poissons Ratio (x) = 0.15495 0.09272
# Poissons Ratio (y) = 0.17073 0.22628
# Poissons Ratio (z) = 0.21467 0.47551
#
# Static dielectric constant tensor:
#      x y z
#    x 1.704190 0.000000 0.007330 
#    y 0.000000 1.707330 0.000000 
#    z 0.007330 0.000000 1.738350 
# 
# From -- ./inp_files/328396.got.cif
#   From: 2010.05.17/outbox.cif.g08.bks.cpg/sg12_165_cif.got.tgz:328396.got - 2010.06.03 13:09:07.
