data_PCOD9189255
_publ_section_title
;
Structure prediction by ZEFSAII (Michael W. Deem and Ramdas Pophale) SiO2 
 PCOD9189255
Probable space group: C 2/M
;
_chemical_formula_sum "Si O2"
_cell_formula_units_Z 40
_cell_length_a 17.814250
_cell_length_b 18.837239
_cell_length_c 8.793210
_cell_angle_alpha 90.000000
_cell_angle_beta 44.661245
_cell_angle_gamma 90.000000
_cell_volume 2074.121905
_symmetry_space_group_name_H-M "C 2/M"
_symmetry_group_IT_number 12
_symmetry_cell_setting 'monoclinic'
loop_
_space_group_symop_operation_xyz
x,y,z
-x,y,-z
-x,-y,-z
x,-y,z
1/2+x,1/2+y,z
1/2-x,1/2+y,-z
1/2-x,1/2-y,-z
1/2+x,1/2-y,z
loop_
_atom_site_type_symbol
_atom_site_label
_atom_site_fract_x
_atom_site_fract_y
_atom_site_fract_z
Si Si1 0.627494 0.351660 0.104479
Si Si2 0.000000 0.745921 0.500000
Si Si3 0.858702 0.623236 0.666678
Si Si4 0.152693 0.000000 0.238697
Si Si5 0.594799 0.000000 0.166281
Si Si6 0.135702 0.000000 0.613221
Si Si7 0.000000 0.887779 0.000000
Si Si8 0.857841 0.500000 0.429690
O O1 0.575188 0.295112 0.291269
O O2 0.619830 0.430174 0.191377
O O3 0.752407 0.344010 0.892338
O O4 0.567011 0.347515 0.030977
O O5 0.928348 0.689484 0.511312
O O6 0.909116 0.570986 0.723248
O O7 0.834104 0.568903 0.567297
O O8 0.108702 0.000000 0.473467
O O9 0.282791 0.000000 0.066467
O O10 0.487041 0.000000 0.219192
O O11 0.082830 0.934824 0.781223
O O12 0.264652 0.000000 0.440050
#
# Coordination Sequence:
#
# PCOD9189255 Si02
#       8
#     8   4   8   4   4   4   4   4
#     4  11  23  39  62  86 119 151 196 244 286 347
#     4  12  22  36  62  86 120 158 192 236 284 348
#     4  10  19  37  60  90 112 156 199 231 289 348
#     4  10  22  40  59  97 112 144 200 246 291 341
#     4   9  18  34  66  84 119 146 194 247 285 340
#     4  11  21  33  63  89 122 144 188 251 296 337
#     4  11  22  38  58  88 114 157 192 240 298 337
#     4  11  17  36  64  90 113 151 193 247 280 352
#
# _framework density 19.285270000000001
#
# number of rings (size 3 to 8) (size 9 to 14) (size 15 to 20)
#    0.000    1.400    4.000    4.200    0.000    1.600 
#    0.000    1.000    8.800    0.000    0.000    0.000 
#    0.000    0.000    0.000    0.000    0.000    0.000 
#
# Total GULP energy -111493.955537 kJ/mol
# GULP energy per Si atom -5574.697777 kJ/mol
# Density = 1.924138 g / cm^3
# Si number density = 19.285270 Si / 1000 Ang^3
#
#
#
# Elastic Constant Matrix: (Units=GPa)
#
#
# Indices 1 2 3 4 5 6 
#
# 1 71.5212 6.7666 25.2586 0.0000 -11.7312 0.0000
# 2 6.7666 100.7685 38.2990 0.0000 -9.4791 0.0000
# 3 25.2586 38.2990 83.2877 0.0000 -15.9436 0.0000
# 4 0.0000 0.0000 0.0000 25.5385 0.0000 -9.0956
# 5 -11.7312 -9.4791 -15.9436 0.0000 41.8139 0.0000
# 6 0.0000 0.0000 0.0000 -9.0956 0.0000 25.3042
#
#
#
# Elastic Compliance Matrix: (Units=1/GPa)
#
#
# Indices 1 2 3 4 5 6 
#
# 1 0.016050 0.001011 -0.004775 0.000000 0.002911 0.000000
# 2 0.001011 0.012106 -0.005711 0.000000 0.000851 0.000000
# 3 -0.004775 -0.005711 0.016803 0.000000 0.003773 0.000000
# 4 0.000000 0.000000 0.000000 0.044905 0.000000 0.016141
# 5 0.002911 0.000851 0.003773 0.000000 0.026364 0.000000
# 6 0.000000 0.000000 0.000000 0.016141 0.000000 0.045321
#
#
# Mechanical properties :
#
#
# Convention : Reuss Voigt Hill
#
# Bulk Modulus (GPa) = 38.44716 44.02508 41.23612
# Shear Modulus (GPa) = 26.43137 30.88152 28.65645
#
# Velocity S-wave (km/s) = 3.70611 4.00597 3.85895
# Velocity P-wave (km/s) = 6.18813 6.65394 6.42526
#
# Compressibility (1/GPa) = 0.02600972
#
# Stress axis : x y z
#
# Youngs Moduli (GPa) = 62.30473 82.60128 59.51344
#
# Poissons Ratio (x) = -0.08351 0.28418
# Poissons Ratio (y) = -0.06299 0.33987
# Poissons Ratio (z) = 0.29751 0.47172
#
# Static dielectric constant tensor:
#      x y z
#    x 1.699340 0.000000 -0.063070 
#    y 0.000000 1.638170 0.000000 
#    z -0.063070 0.000000 1.706600 
# 
# From -- ./inp_files/75034.got.cif
#   From: 2010.05.17/outbox.cif.g08.bks.cpg/sg12_38_cif.got.tgz:75034.got - 2010.06.03 13:09:07.
