data_PCOD9189895
_publ_section_title
;
Structure prediction by ZEFSAII (Michael W. Deem and Ramdas Pophale) SiO2 
 PCOD9189895
Probable space group: C 2/M
;
_chemical_formula_sum "Si O2"
_cell_formula_units_Z 48
_cell_length_a 30.333310
_cell_length_b 8.629391
_cell_length_c 15.476886
_cell_angle_alpha 90.000000
_cell_angle_beta 39.726904
_cell_angle_gamma 90.000000
_cell_volume 2589.238631
_symmetry_space_group_name_H-M "C 2/M"
_symmetry_group_IT_number 12
_symmetry_cell_setting 'monoclinic'
loop_
_space_group_symop_operation_xyz
x,y,z
-x,y,-z
-x,-y,-z
x,-y,z
1/2+x,1/2+y,z
1/2-x,1/2+y,-z
1/2-x,1/2-y,-z
1/2+x,1/2-y,z
loop_
_atom_site_type_symbol
_atom_site_label
_atom_site_fract_x
_atom_site_fract_y
_atom_site_fract_z
Si Si1 0.077931 0.813629 0.603056
Si Si2 0.924385 0.811638 0.893285
Si Si3 0.673047 0.184311 0.610770
Si Si4 0.579641 0.686670 0.904031
Si Si5 0.422347 0.185868 0.587830
Si Si6 0.672863 0.313692 0.117067
O O1 0.133103 0.752813 0.588386
O O2 0.090342 0.749877 0.488697
O O3 0.001320 0.763226 0.749420
O O4 0.079246 0.000000 0.599964
O O5 0.869314 0.761828 0.904742
O O6 0.924855 0.000000 0.893303
O O7 0.908481 0.762843 0.015020
O O8 0.750000 0.250000 0.500000
O O9 0.630067 0.234827 0.759969
O O10 0.675104 0.000000 0.601194
O O11 0.588679 0.500000 0.884574
O O12 0.500000 0.718959 0.000000
O O13 0.500000 0.229951 0.500000
O O14 0.368889 0.253970 0.737098
O O15 0.417673 0.000000 0.594608
O O16 0.674031 0.500000 0.116100
O O17 0.750000 0.250000 0.000000
#
# Coordination Sequence:
#
# PCOD9189895 Si02
#       6
#     8   8   8   8   8   8
#     4  11  21  40  67  94 121 162 213 259 313 376
#     4   9  19  36  63  92 120 158 206 253 307 370
#     4  12  26  43  62  92 130 168 208 259 315 372
#     4  10  19  38  66  93 121 160 206 255 310 373
#     4  11  23  39  62  95 129 165 209 259 311 373
#     4  11  23  41  62  90 127 168 210 261 317 372
#
# _framework density 18.538267000000001
#
# number of rings (size 3 to 8) (size 9 to 14) (size 15 to 20)
#    0.000    1.333    3.333    3.000    0.000    2.333 
#    0.000    6.667    0.000    0.000    0.000    0.000 
#    0.000    0.000    0.000    0.000    0.000    0.000 
#
# Total GULP energy -134177.506233 kJ/mol
# GULP energy per Si atom -5590.729426 kJ/mol
# Density = 1.849607 g / cm^3
# Si number density = 18.538267 Si / 1000 Ang^3
#
#
#
# Elastic Constant Matrix: (Units=GPa)
#
#
# Indices 1 2 3 4 5 6 
#
# 1 205.1992 55.2518 116.9970 -0.0001 9.7792 0.0000
# 2 55.2518 70.1838 60.6139 -0.0011 -1.6231 0.0002
# 3 116.9970 60.6139 168.2989 -0.0004 4.1990 0.0001
# 4 -0.0001 -0.0011 -0.0004 31.2215 0.0000 -0.1994
# 5 9.7792 -1.6231 4.1990 0.0000 43.4144 0.0000
# 6 0.0000 0.0002 0.0001 -0.1994 0.0000 27.9951
#
#
#
# Elastic Compliance Matrix: (Units=1/GPa)
#
#
# Indices 1 2 3 4 5 6 
#
# 1 0.008408 -0.002378 -0.004951 0.000000 -0.001504 0.000000
# 2 -0.002378 0.021451 -0.006121 0.000001 0.001930 0.000000
# 3 -0.004951 -0.006121 0.011594 0.000000 -0.000235 0.000000
# 4 0.000000 0.000001 0.000000 0.032031 0.000000 0.000228
# 5 -0.001504 0.001930 -0.000235 0.000000 0.023467 0.000000
# 6 0.000000 0.000000 0.000000 0.000228 0.000000 0.035722
#
#
# Mechanical properties :
#
#
# Convention : Reuss Voigt Hill
#
# Bulk Modulus (GPa) = 68.71220 101.04528 84.87874
# Shear Modulus (GPa) = 30.40896 34.58081 32.49489
#
# Velocity S-wave (km/s) = 4.05450 4.32368 4.19125
# Velocity P-wave (km/s) = 7.68532 8.91910 8.32510
#
# Compressibility (1/GPa) = 0.01455346
#
# Stress axis : x y z
#
# Youngs Moduli (GPa) = 118.92974 46.61741 86.25097
#
# Poissons Ratio (x) = 0.11086 0.42705
# Poissons Ratio (y) = 0.28282 0.52792
# Poissons Ratio (z) = 0.58885 0.28533
#
# Static dielectric constant tensor:
#      x y z
#    x 1.623440 0.000000 0.005350 
#    y 0.000000 1.627460 0.000000 
#    z 0.005350 0.000000 1.603660 
# 
# From -- ./inp_files/244691.got.cif
#   From: 2010.05.17/outbox.cif.g08.bks.cpg/sg12_123_cif.got.tgz:244691.got - 2010.06.03 13:09:07.
