data_PCOD9189648
_publ_section_title
;
Structure prediction by ZEFSAII (Michael W. Deem and Ramdas Pophale) SiO2 
 PCOD9189648
Probable space group: C 2/M
;
_chemical_formula_sum "Si O2"
_cell_formula_units_Z 56
_cell_length_a 12.751523
_cell_length_b 31.676403
_cell_length_c 14.909941
_cell_angle_alpha 90.000000
_cell_angle_beta 29.191685
_cell_angle_gamma 90.000000
_cell_volume 2937.351766
_symmetry_space_group_name_H-M "C 2/M"
_symmetry_group_IT_number 12
_symmetry_cell_setting 'monoclinic'
loop_
_space_group_symop_operation_xyz
x,y,z
-x,y,-z
-x,-y,-z
x,-y,z
1/2+x,1/2+y,z
1/2-x,1/2+y,-z
1/2-x,1/2-y,-z
1/2+x,1/2-y,z
loop_
_atom_site_type_symbol
_atom_site_label
_atom_site_fract_x
_atom_site_fract_y
_atom_site_fract_z
Si Si1 0.298316 0.267965 0.586982
Si Si2 0.455391 0.305453 0.283873
Si Si3 0.612981 0.404764 0.657166
Si Si4 0.977872 0.549426 0.730911
Si Si5 0.128752 0.421767 0.991717
Si Si6 0.554612 0.177662 0.061431
Si Si7 0.244811 0.548058 0.278228
O O1 0.500000 0.268392 0.500000
O O2 0.396615 0.280840 0.418389
O O3 0.175583 0.223244 0.687588
O O4 0.127323 0.303628 0.740160
O O5 0.383722 0.354059 0.342879
O O6 0.711901 0.306256 0.082529
O O7 0.813215 0.423525 0.452443
O O8 0.630169 0.422327 0.746143
O O9 0.385965 0.420109 0.785803
O O10 0.024006 0.500000 0.678971
O O11 0.919246 0.555379 0.878445
O O12 0.788256 0.560775 0.801035
O O13 0.059108 0.373031 0.058599
O O14 0.000000 0.437567 0.000000
O O15 0.500000 0.190705 0.000000
O O16 0.328915 0.500000 0.220142
O O17 0.000000 0.547579 0.500000
#
# Coordination Sequence:
#
# PCOD9189648 Si02
#       7
#     8   8   8   8   8   8   8
#     4  11  21  35  58  84 112 146 192 233 284 342
#     4  10  22  36  55  85 113 148 186 237 286 337
#     4  10  20  38  60  83 115 150 189 235 290 339
#     4  10  21  38  60  86 116 150 188 235 290 344
#     4  10  23  38  56  84 113 153 201 237 275 336
#     4  10  19  38  59  76 110 153 191 234 281 335
#     4   8  16  33  59  84 108 143 183 226 282 345
#
# _framework density 19.064791
#
# number of rings (size 3 to 8) (size 9 to 14) (size 15 to 20)
#    0.000    2.143    1.429    2.571    0.000    4.286 
#    0.000    2.143    3.143    0.000    0.000    0.000 
#    0.000    0.000    0.000    0.000    0.000    0.000 
#
# Total GULP energy -156195.461771 kJ/mol
# GULP energy per Si atom -5578.409349 kJ/mol
# Density = 1.902140 g / cm^3
# Si number density = 19.064791 Si / 1000 Ang^3
#
#
#
# Elastic Constant Matrix: (Units=GPa)
#
#
# Indices 1 2 3 4 5 6 
#
# 1 92.6426 31.7119 13.5532 0.0000 -8.7953 0.0000
# 2 31.7119 51.1760 12.7535 0.0000 -23.9500 0.0000
# 3 13.5532 12.7535 37.9582 0.0000 -13.5668 0.0000
# 4 0.0000 0.0000 0.0000 36.7316 0.0000 -23.0267
# 5 -8.7953 -23.9500 -13.5668 0.0000 29.2921 0.0000
# 6 0.0000 0.0000 0.0000 -23.0267 0.0000 33.0670
#
#
#
# Elastic Compliance Matrix: (Units=1/GPa)
#
#
# Indices 1 2 3 4 5 6 
#
# 1 0.014525 -0.011075 -0.003766 0.000000 -0.006438 0.000000
# 2 -0.011075 0.040184 0.001207 0.000000 0.030089 0.000000
# 3 -0.003766 0.001207 0.032635 0.000000 0.014971 0.000000
# 4 0.000000 0.000000 0.000000 0.048317 0.000000 0.033646
# 5 -0.006438 0.030089 0.014971 0.000000 0.063742 0.000000
# 6 0.000000 0.000000 0.000000 0.033646 0.000000 0.053672
#
#
# Mechanical properties :
#
#
# Convention : Reuss Voigt Hill
#
# Bulk Modulus (GPa) = 16.64566 33.09047 24.86807
# Shear Modulus (GPa) = 16.64628 28.06869 22.35748
#
# Velocity S-wave (km/s) = 2.95810 3.84119 3.42820
# Velocity P-wave (km/s) = 4.51854 6.08831 5.36119
#
# Compressibility (1/GPa) = 0.06007570
#
# Stress axis : x y z
#
# Youngs Moduli (GPa) = 68.84687 24.88557 30.64214
#
# Poissons Ratio (x) = 0.27561 0.11541
# Poissons Ratio (y) = 0.76249 -0.03700
# Poissons Ratio (z) = 0.25930 -0.03005
#
# Static dielectric constant tensor:
#      x y z
#    x 1.631660 0.000000 0.019470 
#    y 0.000000 1.646980 0.000000 
#    z 0.019470 0.000000 1.647980 
# 
# From -- ./inp_files/209983.got.cif
#   From: 2010.05.17/outbox.cif.g08.bks.cpg/sg12_105_cif.got.tgz:209983.got - 2010.06.03 13:09:07.
