data_PCOD9189756
_publ_section_title
;
Structure prediction by ZEFSAII (Michael W. Deem and Ramdas Pophale) SiO2 
 PCOD9189756
Probable space group: C 2/M
;
_chemical_formula_sum "Si O2"
_cell_formula_units_Z 36
_cell_length_a 9.011561
_cell_length_b 12.084956
_cell_length_c 12.268967
_cell_angle_alpha 90.000000
_cell_angle_beta 71.603439
_cell_angle_gamma 90.000000
_cell_volume 1267.859814
_symmetry_space_group_name_H-M "C 2/M"
_symmetry_group_IT_number 12
_symmetry_cell_setting 'monoclinic'
loop_
_space_group_symop_operation_xyz
x,y,z
-x,y,-z
-x,-y,-z
x,-y,z
1/2+x,1/2+y,z
1/2-x,1/2+y,-z
1/2-x,1/2-y,-z
1/2+x,1/2-y,z
loop_
_atom_site_type_symbol
_atom_site_label
_atom_site_fract_x
_atom_site_fract_y
_atom_site_fract_z
Si Si1 0.141599 0.000000 0.691761
Si Si2 0.646136 0.255658 0.416981
Si Si3 0.762738 0.500000 0.889114
Si Si4 0.726409 0.500000 0.424304
Si Si5 0.500000 0.316760 0.000000
Si Si6 0.120859 0.500000 0.834460
Si Si7 0.120338 0.184233 0.195871
O O1 0.266594 0.000000 0.757957
O O2 0.027378 0.894505 0.736930
O O3 0.226114 0.000000 0.555412
O O4 0.500000 0.192816 0.500000
O O5 0.750000 0.250000 0.500000
O O6 0.636224 0.389163 0.412107
O O7 0.658915 0.233030 0.286119
O O8 0.649307 0.603461 0.944648
O O9 0.935897 0.500000 0.899998
O O10 0.864459 0.500000 0.302532
O O11 0.557103 0.260789 0.099114
O O12 0.227204 0.604768 0.850108
#
# Coordination Sequence:
#
# PCOD9189756 Si02
#       7
#     4   8   4   4   4   4   8
#     4   9  15  31  59  80 116 170 212 235 300 389
#     4  11  22  40  63  92 126 167 209 259 318 376
#     4   9  17  29  46  89 127 160 202 265 308 368
#     4  10  19  38  62  87 127 174 205 247 310 394
#     4   9  18  32  54  78 118 169 220 238 302 395
#     4   9  18  27  49  88 131 153 197 267 324 344
#     4   9  18  33  56  85 116 165 208 252 304 373
#
# _framework density 28.394307999999999
#
# number of rings (size 3 to 8) (size 9 to 14) (size 15 to 20)
#    0.000    2.444    2.222    3.000    0.000    2.222 
#    8.000    0.000    0.000    1.333    0.000    0.000 
#    0.000    0.889    0.000    0.000    0.000    0.000 
#
# Total GULP energy -100454.635801 kJ/mol
# GULP energy per Si atom -5580.813100 kJ/mol
# Density = 2.832968 g / cm^3
# Si number density = 28.394308 Si / 1000 Ang^3
#
#
#
# Elastic Constant Matrix: (Units=GPa)
#
#
# Indices 1 2 3 4 5 6 
#
# 1 255.6825 26.5167 105.4844 0.0000 36.5009 0.0000
# 2 26.5167 97.0220 27.8705 0.0000 -1.7083 0.0000
# 3 105.4844 27.8705 194.4195 0.0000 55.7477 0.0000
# 4 0.0000 0.0000 0.0000 62.3330 0.0000 13.4319
# 5 36.5009 -1.7083 55.7477 0.0000 82.0876 0.0000
# 6 0.0000 0.0000 0.0000 13.4319 0.0000 32.4707
#
#
#
# Elastic Compliance Matrix: (Units=1/GPa)
#
#
# Indices 1 2 3 4 5 6 
#
# 1 0.005097 -0.000685 -0.002500 0.000000 -0.000583 0.000000
# 2 -0.000685 0.011009 -0.001688 0.000000 0.001680 0.000000
# 3 -0.002500 -0.001688 0.007989 0.000000 -0.004349 0.000000
# 4 0.000000 0.000000 0.000000 0.017613 0.000000 -0.007286
# 5 -0.000583 0.001680 -0.004349 0.000000 0.015430 0.000000
# 6 0.000000 0.000000 0.000000 -0.007286 0.000000 0.033811
#
#
# Mechanical properties :
#
#
# Convention : Reuss Voigt Hill
#
# Bulk Modulus (GPa) = 69.69694 96.31857 83.00776
# Shear Modulus (GPa) = 47.40372 61.19510 54.29941
#
# Velocity S-wave (km/s) = 4.09036 4.64744 4.37777
# Velocity P-wave (km/s) = 6.84890 7.92425 7.40612
#
# Compressibility (1/GPa) = 0.01434783
#
# Stress axis : x y z
#
# Youngs Moduli (GPa) = 196.20394 90.83712 125.17306
#
# Poissons Ratio (x) = 0.06223 0.31293
# Poissons Ratio (y) = 0.13442 0.21132
# Poissons Ratio (z) = 0.49051 0.15335
#
# Static dielectric constant tensor:
#      x y z
#    x 2.144230 0.000000 -0.030890 
#    y 0.000000 2.331470 0.000000 
#    z -0.030890 0.000000 2.406950 
# 
# From -- ./inp_files/118853.got.cif
#   From: 2010.05.17/outbox.cif.g08.bks.cpg/sg12_60_cif.got.tgz:118853.got - 2010.06.03 13:09:07.
