data_PCOD9189069
_publ_section_title
;
Structure prediction by ZEFSAII (Michael W. Deem and Ramdas Pophale) SiO2 
 PCOD9189069
Probable space group: C 2/M
;
_chemical_formula_sum "Si O2"
_cell_formula_units_Z 48
_cell_length_a 22.583075
_cell_length_b 14.963425
_cell_length_c 13.178462
_cell_angle_alpha 90.000000
_cell_angle_beta 147.109112
_cell_angle_gamma 90.000000
_cell_volume 2418.306643
_symmetry_space_group_name_H-M "C 2/M"
_symmetry_group_IT_number 12
_symmetry_cell_setting 'monoclinic'
loop_
_space_group_symop_operation_xyz
x,y,z
-x,y,-z
-x,-y,-z
x,-y,z
1/2+x,1/2+y,z
1/2-x,1/2+y,-z
1/2-x,1/2-y,-z
1/2+x,1/2-y,z
loop_
_atom_site_type_symbol
_atom_site_label
_atom_site_fract_x
_atom_site_fract_y
_atom_site_fract_z
Si Si1 0.542166 0.500000 0.885558
Si Si2 0.332385 0.500000 0.719782
Si Si3 0.704710 0.274976 0.682458
Si Si4 0.130293 0.403843 0.691851
Si Si5 0.183798 0.678067 0.970477
Si Si6 0.505797 0.688670 0.242859
Si Si7 0.826381 0.802606 0.686173
O O1 0.417683 0.500000 0.748156
O O2 0.555786 0.592723 0.844592
O O3 0.608134 0.500000 0.085731
O O4 0.279630 0.402817 0.634183
O O5 0.671610 0.181862 0.689408
O O6 0.743012 0.341847 0.825830
O O7 0.605427 0.307441 0.467914
O O8 0.810177 0.249853 0.766886
O O9 0.169215 0.500000 0.707115
O O10 0.000000 0.401078 0.500000
O O11 0.159750 0.396423 0.852997
O O12 0.250000 0.750000 0.000000
O O13 0.074445 0.729813 0.848322
O O14 0.558120 0.694057 0.204863
O O15 0.750000 0.750000 0.500000
#
# Coordination Sequence:
#
# PCOD9189069 Si02
#       7
#     4   4   8   8   8   8   8
#     4   9  18  30  54  81 104 153 177 227 282 319
#     4   9  16  30  50  80 119 138 195 228 260 341
#     4  10  20  35  58  83 112 149 182 230 290 336
#     4  10  20  37  59  79 104 145 194 241 277 322
#     4  10  21  36  56  80 107 146 186 226 284 330
#     4  10  19  37  54  80 123 143 184 233 274 343
#     4   9  19  32  54  87 115 154 186 226 290 333
#
# _framework density 19.848597999999999
#
# number of rings (size 3 to 8) (size 9 to 14) (size 15 to 20)
#    0.000    2.333    1.667    1.000    1.167    2.000 
#    7.500    0.000    0.000    4.000    0.000    1.167 
#    0.000    0.000    0.000    0.000    0.000    0.000 
#
# Total GULP energy -133718.313999 kJ/mol
# GULP energy per Si atom -5571.596417 kJ/mol
# Density = 1.980342 g / cm^3
# Si number density = 19.848598 Si / 1000 Ang^3
#
#
#
# Elastic Constant Matrix: (Units=GPa)
#
#
# Indices 1 2 3 4 5 6 
#
# 1 68.8866 -2.6564 11.4691 0.0000 -8.0119 0.0000
# 2 -2.6564 75.9388 17.3558 0.0000 -12.4115 0.0000
# 3 11.4691 17.3558 87.3200 0.0000 -21.5812 0.0000
# 4 0.0000 0.0000 0.0000 -2.8191 0.0000 -10.8783
# 5 -8.0119 -12.4115 -21.5812 0.0000 30.3828 0.0000
# 6 0.0000 0.0000 0.0000 -10.8783 0.0000 24.3553
#
#
#
# Elastic Compliance Matrix: (Units=1/GPa)
#
#
# Indices 1 2 3 4 5 6 
#
# 1 0.015224 0.001442 -0.001393 0.000000 0.003614 0.000000
# 2 0.001442 0.014452 -0.001830 0.000000 0.004984 0.000000
# 3 -0.001393 -0.001830 0.014220 0.000000 0.008985 0.000000
# 4 0.000000 0.000000 0.000000 -0.130243 0.000000 -0.058173
# 5 0.003614 0.004984 0.008985 0.000000 0.042285 0.000000
# 6 0.000000 0.000000 0.000000 -0.058173 0.000000 0.015076
#
#
# Mechanical properties :
#
#
# Convention : Reuss Voigt Hill
#
# Bulk Modulus (GPa) = 24.79356 31.60917 28.20137
# Shear Modulus (GPa) = -417.37945 24.11559 -196.63193
#
# Velocity S-wave (km/s) = -14.51682 3.48943 -9.96398
# Velocity P-wave (km/s) = 16.38492 5.67403 10.86902
#
# Compressibility (1/GPa) = 0.04033305
#
# Stress axis : x y z
#
# Youngs Moduli (GPa) = 65.68374 69.19580 70.32553
#
# Poissons Ratio (x) = -0.09975 0.09796
# Poissons Ratio (y) = -0.09469 0.12870
# Poissons Ratio (z) = 0.09150 0.12663
#
# Static dielectric constant tensor:
#      x y z
#    x 1.764700 0.000000 0.012440 
#    y 0.000000 1.710600 0.000000 
#    z 0.012440 0.000000 1.725850 
# 
# From -- ./inp_files/167667.got.cif
#   From: 2010.05.17/outbox.cif.g08.bks.cpg/sg12_84_cif.got.tgz:167667.got - 2010.06.03 13:09:07.
