data_PCOD9189749
_publ_section_title
;
Structure prediction by ZEFSAII (Michael W. Deem and Ramdas Pophale) SiO2 
 PCOD9189749
Probable space group: C 2/M
;
_chemical_formula_sum "Si O2"
_cell_formula_units_Z 48
_cell_length_a 14.527478
_cell_length_b 29.938341
_cell_length_c 9.904141
_cell_angle_alpha 90.000000
_cell_angle_beta 144.871035
_cell_angle_gamma 90.000000
_cell_volume 2478.670538
_symmetry_space_group_name_H-M "C 2/M"
_symmetry_group_IT_number 12
_symmetry_cell_setting 'monoclinic'
loop_
_space_group_symop_operation_xyz
x,y,z
-x,y,-z
-x,-y,-z
x,-y,z
1/2+x,1/2+y,z
1/2-x,1/2+y,-z
1/2-x,1/2-y,-z
1/2+x,1/2-y,z
loop_
_atom_site_type_symbol
_atom_site_label
_atom_site_fract_x
_atom_site_fract_y
_atom_site_fract_z
Si Si1 0.927518 0.625199 0.061167
Si Si2 0.629025 0.772101 0.962283
Si Si3 0.157613 0.051123 0.776470
Si Si4 0.144885 0.269423 0.561379
Si Si5 0.152142 0.951653 0.086428
Si Si6 0.141455 0.629116 0.561910
O O1 0.867543 0.674041 0.037912
O O2 0.791065 0.587922 0.905303
O O3 0.000000 0.629774 0.000000
O O4 0.068033 0.612962 0.333214
O O5 0.706180 0.758246 0.198951
O O6 0.750000 0.750000 0.000000
O O7 0.451482 0.758421 0.693521
O O8 0.000000 0.059487 0.500000
O O9 0.212553 0.000000 0.814341
O O10 0.114160 0.053079 0.882748
O O11 0.204356 0.320575 0.621490
O O12 0.000000 0.266998 0.500000
O O13 0.244921 0.908180 0.243492
O O14 0.238763 0.000000 0.204948
O O15 0.000000 0.953720 0.000000
O O16 0.000000 0.633081 0.500000
#
# Coordination Sequence:
#
# PCOD9189749 Si02
#       6
#     8   8   8   8   8   8
#     4  11  24  40  61  93 127 161 205 255 308 372
#     4   9  18  35  58  83 115 158 199 245 302 358
#     4  10  23  42  62  89 126 165 204 253 312 371
#     4   8  16  31  55  80 110 148 192 244 295 353
#     4  10  22  39  61  89 120 156 205 256 304 368
#     4  10  19  38  62  86 118 156 203 254 306 356
#
# _framework density 19.365219
#
# number of rings (size 3 to 8) (size 9 to 14) (size 15 to 20)
#    0.000    2.333    1.667    1.000    2.333    3.333 
#    0.000    4.167    0.000    0.000    0.000    0.000 
#    0.000    0.000    0.000    0.000    0.000    0.000 
#
# Total GULP energy -133748.043052 kJ/mol
# GULP energy per Si atom -5572.835127 kJ/mol
# Density = 1.932114 g / cm^3
# Si number density = 19.365219 Si / 1000 Ang^3
#
#
#
# Elastic Constant Matrix: (Units=GPa)
#
#
# Indices 1 2 3 4 5 6 
#
# 1 62.9038 17.6611 8.9855 0.0000 -20.3600 0.0000
# 2 17.6611 96.1480 70.8352 0.0000 7.0917 0.0000
# 3 8.9855 70.8352 157.3167 0.0000 -10.8735 0.0000
# 4 0.0000 0.0000 0.0000 40.0331 0.0000 3.6917
# 5 -20.3600 7.0917 -10.8735 0.0000 20.3538 0.0000
# 6 0.0000 0.0000 0.0000 3.6917 0.0000 28.8814
#
#
#
# Elastic Compliance Matrix: (Units=1/GPa)
#
#
# Indices 1 2 3 4 5 6 
#
# 1 0.032339 -0.014593 0.007591 0.000000 0.041489 0.000000
# 2 -0.014593 0.024153 -0.012079 0.000000 -0.029466 0.000000
# 3 0.007591 -0.012079 0.012644 0.000000 0.018557 0.000000
# 4 0.000000 0.000000 0.000000 0.025277 0.000000 -0.003231
# 5 0.041489 -0.029466 0.018557 0.000000 0.110813 0.000000
# 6 0.000000 0.000000 0.000000 -0.003231 0.000000 0.035037
#
#
# Mechanical properties :
#
#
# Convention : Reuss Voigt Hill
#
# Bulk Modulus (GPa) = 32.28351 56.81468 44.54910
# Shear Modulus (GPa) = 17.31602 32.44609 24.88106
#
# Velocity S-wave (km/s) = 2.99353 4.09771 3.58834
# Velocity P-wave (km/s) = 5.35307 7.19656 6.34215
#
# Compressibility (1/GPa) = 0.03097556
#
# Stress axis : x y z
#
# Youngs Moduli (GPa) = 30.92262 41.40220 79.08687
#
# Poissons Ratio (x) = 0.60419 -0.60038
# Poissons Ratio (y) = 0.45126 0.95526
# Poissons Ratio (z) = -0.23475 0.50008
#
# Static dielectric constant tensor:
#      x y z
#    x 1.629310 0.000000 -0.005900 
#    y 0.000000 1.690570 0.000000 
#    z -0.005900 0.000000 1.700960 
# 
# From -- ./inp_files/67342.got.cif
#   From: 2010.05.17/outbox.cif.g08.bks.cpg/sg12_34_cif.got.tgz:67342.got - 2010.06.03 13:09:07.
