data_PCOD9189472
_publ_section_title
;
Structure prediction by ZEFSAII (Michael W. Deem and Ramdas Pophale) SiO2 
 PCOD9189472
Probable space group: C 2/M
;
_chemical_formula_sum "Si O2"
_cell_formula_units_Z 48
_cell_length_a 10.773019
_cell_length_b 19.867374
_cell_length_c 11.598229
_cell_angle_alpha 90.000000
_cell_angle_beta 55.433433
_cell_angle_gamma 90.000000
_cell_volume 2044.165598
_symmetry_space_group_name_H-M "C 2/M"
_symmetry_group_IT_number 12
_symmetry_cell_setting 'monoclinic'
loop_
_space_group_symop_operation_xyz
x,y,z
-x,y,-z
-x,-y,-z
x,-y,z
1/2+x,1/2+y,z
1/2-x,1/2+y,-z
1/2-x,1/2-y,-z
1/2+x,1/2-y,z
loop_
_atom_site_type_symbol
_atom_site_label
_atom_site_fract_x
_atom_site_fract_y
_atom_site_fract_z
Si Si1 0.943055 0.218092 0.257247
Si Si2 0.331158 0.707566 0.686347
Si Si3 0.351534 0.425399 0.285625
Si Si4 0.235449 0.423732 0.608309
Si Si5 0.872767 0.675882 0.991347
Si Si6 0.377221 0.076845 0.799224
O O1 0.769839 0.241164 0.333469
O O2 0.954050 0.139958 0.217378
O O3 0.003745 0.227339 0.356024
O O4 0.035718 0.265108 0.120740
O O5 0.317251 0.634035 0.637582
O O6 0.246416 0.702090 0.854891
O O7 0.417709 0.500000 0.228209
O O8 0.296573 0.423325 0.446320
O O9 0.208421 0.417732 0.276468
O O10 0.256447 0.500000 0.643371
O O11 0.056179 0.408756 0.697884
O O12 0.809552 0.628211 0.926406
O O13 0.000000 0.637363 0.000000
O O14 0.360917 0.000000 0.847176
#
# Coordination Sequence:
#
# PCOD9189472 Si02
#       6
#     8   8   8   8   8   8
#     4  11  23  40  63  89 127 162 209 257 307 373
#     4  11  24  41  64  96 123 168 207 257 319 368
#     4  10  23  41  63  90 125 169 210 256 311 367
#     4  10  21  40  64  92 127 164 208 255 308 375
#     4  10  20  39  62  94 122 165 209 255 317 366
#     4  10  19  37  63  93 127 162 207 258 309 370
#
# _framework density 23.481462000000001
#
# number of rings (size 3 to 8) (size 9 to 14) (size 15 to 20)
#    0.000    1.667    3.333    2.000    0.000    7.667 
#    0.000    1.667    0.000    6.500    0.000    0.000 
#    0.000    0.000    0.000    0.000    0.000    0.000 
#
# Total GULP energy -134255.815059 kJ/mol
# GULP energy per Si atom -5593.992294 kJ/mol
# Density = 2.342802 g / cm^3
# Si number density = 23.481462 Si / 1000 Ang^3
#
#
#
# Elastic Constant Matrix: (Units=GPa)
#
#
# Indices 1 2 3 4 5 6 
#
# 1 96.9326 71.6106 42.6707 0.0000 20.5296 0.0000
# 2 71.6106 141.2892 43.2188 0.0000 19.8148 0.0000
# 3 42.6707 43.2188 48.0811 0.0000 10.4419 0.0000
# 4 0.0000 0.0000 0.0000 19.0093 0.0000 15.3747
# 5 20.5296 19.8148 10.4419 0.0000 33.6375 0.0000
# 6 0.0000 0.0000 0.0000 15.3747 0.0000 39.2181
#
#
#
# Elastic Compliance Matrix: (Units=1/GPa)
#
#
# Indices 1 2 3 4 5 6 
#
# 1 0.021635 -0.006451 -0.012181 0.000000 -0.005623 0.000000
# 2 -0.006451 0.012027 -0.004720 0.000000 -0.001682 0.000000
# 3 -0.012181 -0.004720 0.036064 0.000000 -0.000980 0.000000
# 4 0.000000 0.000000 0.000000 0.077030 0.000000 -0.030198
# 5 -0.005623 -0.001682 -0.000980 0.000000 0.034456 0.000000
# 6 0.000000 0.000000 0.000000 -0.030198 0.000000 0.037337
#
#
# Mechanical properties :
#
#
# Convention : Reuss Voigt Hill
#
# Bulk Modulus (GPa) = 43.43644 66.81143 55.12394
# Shear Modulus (GPa) = 18.31979 26.95984 22.63982
#
# Velocity S-wave (km/s) = 2.79620 3.39209 3.10846
# Velocity P-wave (km/s) = 5.38176 6.62241 6.03405
#
# Compressibility (1/GPa) = 0.02302215
#
# Stress axis : x y z
#
# Youngs Moduli (GPa) = 46.22081 83.14539 27.72812
#
# Poissons Ratio (x) = 0.53637 0.33776
# Poissons Ratio (y) = 0.29817 0.13089
# Poissons Ratio (z) = 0.56301 0.39248
#
# Static dielectric constant tensor:
#      x y z
#    x 1.968350 0.000000 -0.024980 
#    y 0.000000 1.883110 0.000000 
#    z -0.024980 0.000000 1.866190 
# 
# From -- ./inp_files/131676.got.cif
#   From: 2010.05.17/outbox.cif.g08.bks.cpg/sg12_66_cif.got.tgz:131676.got - 2010.06.03 13:09:07.
