data_PCOD9189669
_publ_section_title
;
Structure prediction by ZEFSAII (Michael W. Deem and Ramdas Pophale) SiO2 
 PCOD9189669
Probable space group: C 2/M
;
_chemical_formula_sum "Si O2"
_cell_formula_units_Z 64
_cell_length_a 14.486195
_cell_length_b 25.025437
_cell_length_c 12.655623
_cell_angle_alpha 90.000000
_cell_angle_beta 41.824927
_cell_angle_gamma 90.000000
_cell_volume 3059.511333
_symmetry_space_group_name_H-M "C 2/M"
_symmetry_group_IT_number 12
_symmetry_cell_setting 'monoclinic'
loop_
_space_group_symop_operation_xyz
x,y,z
-x,y,-z
-x,-y,-z
x,-y,z
1/2+x,1/2+y,z
1/2-x,1/2+y,-z
1/2-x,1/2-y,-z
1/2+x,1/2-y,z
loop_
_atom_site_type_symbol
_atom_site_label
_atom_site_fract_x
_atom_site_fract_y
_atom_site_fract_z
Si Si1 0.686923 0.437257 0.161729
Si Si2 0.438776 0.847776 0.669901
Si Si3 0.349077 0.336033 0.180407
Si Si4 0.657452 0.785901 0.826225
Si Si5 0.446889 0.725610 0.667604
Si Si6 0.756472 0.603542 0.327786
Si Si7 0.980446 0.439349 0.800041
Si Si8 0.567072 0.624086 0.679228
O O1 0.659645 0.500000 0.194755
O O2 0.684246 0.410500 0.279365
O O3 0.572587 0.409255 0.187391
O O4 0.838892 0.429875 0.984067
O O5 0.500000 0.853330 0.500000
O O6 0.272896 0.850421 0.795718
O O7 0.471778 0.787123 0.678271
O O8 0.490959 0.893831 0.702193
O O9 0.329466 0.273868 0.229715
O O10 0.346960 0.370705 0.287546
O O11 0.500000 0.340318 0.000000
O O12 0.781276 0.786043 0.807711
O O13 0.693660 0.834960 0.719977
O O14 0.500000 0.792784 0.000000
O O15 0.500000 0.719575 0.500000
O O16 0.522288 0.682724 0.675945
O O17 0.654176 0.597015 0.512287
O O18 0.890989 0.567678 0.230886
O O19 0.978305 0.500000 0.759675
#
# Coordination Sequence:
#
# PCOD9189669 Si02
#       8
#     8   8   8   8   8   8   8   8
#     4  11  24  43  64  90 128 162 202 258 311 368
#     4  10  22  42  64  90 122 165 209 260 306 354
#     4  10  23  41  59  88 128 163 204 254 300 358
#     4  10  20  36  56  88 127 160 197 241 301 367
#     4  10  19  38  59  92 129 158 199 251 310 373
#     4  12  23  38  62  94 126 160 197 255 310 375
#     4  11  25  43  64  90 120 166 214 253 309 366
#     4  12  23  39  65  93 124 167 205 249 308 369
#
# _framework density 20.918372000000002
#
# number of rings (size 3 to 8) (size 9 to 14) (size 15 to 20)
#    0.000    1.250    2.500    3.375    1.750    3.250 
#    0.000    3.125    0.000    2.250    0.000    0.000 
#    0.000    0.000    0.000    0.000    0.000    0.000 
#
# Total GULP energy -178952.204472 kJ/mol
# GULP energy per Si atom -5592.256390 kJ/mol
# Density = 2.087076 g / cm^3
# Si number density = 20.918372 Si / 1000 Ang^3
#
#
#
# Elastic Constant Matrix: (Units=GPa)
#
#
# Indices 1 2 3 4 5 6 
#
# 1 36.0968 2.9694 -8.6549 0.0000 -7.6568 0.0000
# 2 2.9694 57.1524 13.9801 0.0000 6.8101 0.0000
# 3 -8.6549 13.9801 32.1048 0.0000 -11.5161 0.0000
# 4 0.0000 0.0000 0.0000 22.5143 0.0000 6.2424
# 5 -7.6568 6.8101 -11.5161 0.0000 28.6940 0.0000
# 6 0.0000 0.0000 0.0000 6.2424 0.0000 10.7412
#
#
#
# Elastic Compliance Matrix: (Units=1/GPa)
#
#
# Indices 1 2 3 4 5 6 
#
# 1 0.038583 -0.010135 0.022628 0.000000 0.021783 0.000000
# 2 -0.010135 0.024702 -0.019347 0.000000 -0.016332 0.000000
# 3 0.022628 -0.019347 0.057808 0.000000 0.033831 0.000000
# 4 0.000000 0.000000 0.000000 0.052948 0.000000 -0.030772
# 5 0.021783 -0.016332 0.033831 0.000000 0.058117 0.000000
# 6 0.000000 0.000000 0.000000 -0.030772 0.000000 0.110983
#
#
# Mechanical properties :
#
#
# Convention : Reuss Voigt Hill
#
# Bulk Modulus (GPa) = 9.31228 15.77147 12.54187
# Shear Modulus (GPa) = 12.73411 20.19387 16.46399
#
# Velocity S-wave (km/s) = 2.46997 3.11040 2.80850
# Velocity P-wave (km/s) = 3.54904 4.52276 4.06516
#
# Compressibility (1/GPa) = 0.10738508
#
# Stress axis : x y z
#
# Youngs Moduli (GPa) = 25.91803 40.48197 17.29854
#
# Poissons Ratio (x) = 0.41030 -0.39144
# Poissons Ratio (y) = 0.26269 0.33468
# Poissons Ratio (z) = -0.58648 0.78322
#
# Static dielectric constant tensor:
#      x y z
#    x 1.749710 0.000000 -0.024950 
#    y 0.000000 1.739790 0.000000 
#    z -0.024950 0.000000 1.752300 
# 
# From -- ./inp_files/149763.got.cif
#   From: 2010.05.17/outbox.cif.g08.bks.cpg/sg12_75_cif.got.tgz:149763.got - 2010.06.03 13:09:07.
