data_PCOD9189830
_publ_section_title
;
Structure prediction by ZEFSAII (Michael W. Deem and Ramdas Pophale) SiO2 
 PCOD9189830
Probable space group: C 2/M
;
_chemical_formula_sum "Si O2"
_cell_formula_units_Z 52
_cell_length_a 16.146767
_cell_length_b 12.866836
_cell_length_c 25.796260
_cell_angle_alpha 90.000000
_cell_angle_beta 155.977364
_cell_angle_gamma 90.000000
_cell_volume 2181.788031
_symmetry_space_group_name_H-M "C 2/M"
_symmetry_group_IT_number 12
_symmetry_cell_setting 'monoclinic'
loop_
_space_group_symop_operation_xyz
x,y,z
-x,y,-z
-x,-y,-z
x,-y,z
1/2+x,1/2+y,z
1/2-x,1/2+y,-z
1/2-x,1/2-y,-z
1/2+x,1/2-y,z
loop_
_atom_site_type_symbol
_atom_site_label
_atom_site_fract_x
_atom_site_fract_y
_atom_site_fract_z
Si Si1 0.428076 0.168809 0.821199
Si Si2 0.649454 0.390066 0.371071
Si Si3 0.877643 0.886232 0.049997
Si Si4 0.280860 0.886566 0.158915
Si Si5 0.370588 0.500000 0.532843
Si Si6 0.731661 0.836082 0.384034
Si Si7 0.705501 0.159750 0.145551
O O1 0.658782 0.124483 0.953274
O O2 0.317728 0.148093 0.704370
O O3 0.307740 0.127204 0.802295
O O4 0.475488 0.292458 0.851176
O O5 0.708390 0.500000 0.379120
O O6 0.674736 0.410883 0.446933
O O7 0.750737 0.285900 0.408006
O O8 0.403934 0.375454 0.227913
O O9 0.812716 0.878748 0.952275
O O10 0.963217 0.000000 0.109315
O O11 0.522997 0.878353 0.291672
O O12 0.213148 0.785055 0.150226
O O13 0.229115 0.000000 0.151184
O O14 0.396587 0.408467 0.503970
O O15 0.500000 0.126931 0.000000
#
# Coordination Sequence:
#
# PCOD9189830 Si02
#       7
#     8   8   8   8   4   8   8
#     4  10  21  33  52  86 117 155 190 233 289 337
#     4   9  23  39  60  91 113 147 202 231 294 361
#     4   9  18  33  52  79 114 153 200 234 272 336
#     4   9  17  32  57  86 111 152 203 232 275 350
#     4  10  20  42  68  86 103 154 195 262 289 328
#     4  10  19  38  64  88 113 141 200 253 292 327
#     4  11  21  37  54  81 129 163 184 228 287 355
#
# _framework density 23.833663000000001
#
# number of rings (size 3 to 8) (size 9 to 14) (size 15 to 20)
#    0.462    1.846    2.308    0.462    3.231    2.462 
#    0.000    1.538    0.000    0.000    0.000    2.154 
#    0.000    0.000    0.000    0.000    0.000    0.000 
#
# Total GULP energy -144811.460599 kJ/mol
# GULP energy per Si atom -5569.671562 kJ/mol
# Density = 2.377942 g / cm^3
# Si number density = 23.833663 Si / 1000 Ang^3
#
#
#
# Elastic Constant Matrix: (Units=GPa)
#
#
# Indices 1 2 3 4 5 6 
#
# 1 44.4823 -5.6198 8.5084 -0.0011 3.4381 0.0002
# 2 -5.6198 138.6799 10.1418 0.0024 6.5542 0.0008
# 3 8.5084 10.1418 77.4396 0.0016 -15.1938 0.0040
# 4 -0.0011 0.0024 0.0016 -28.9447 -0.0001 -11.7514
# 5 3.4381 6.5542 -15.1938 -0.0001 29.8327 0.0003
# 6 0.0002 0.0008 0.0040 -11.7514 0.0003 1.6796
#
#
#
# Elastic Compliance Matrix: (Units=1/GPa)
#
#
# Indices 1 2 3 4 5 6 
#
# 1 0.023777 0.001476 -0.003785 -0.000001 -0.004992 0.000000
# 2 0.001476 0.007519 -0.001671 0.000000 -0.002673 0.000001
# 3 -0.003785 -0.001671 0.015227 0.000004 0.008559 -0.000008
# 4 -0.000001 0.000000 0.000004 -0.008996 0.000003 -0.062939
# 5 -0.004992 -0.002673 0.008559 0.000003 0.039042 -0.000006
# 6 0.000000 0.000001 -0.000008 -0.062939 -0.000006 0.155024
#
#
# Mechanical properties :
#
#
# Convention : Reuss Voigt Hill
#
# Bulk Modulus (GPa) = 25.93167 31.85142 28.89154
# Shear Modulus (GPa) = 19.80913 17.01830 18.41372
#
# Velocity S-wave (km/s) = 2.88608 2.67506 2.78257
# Velocity P-wave (km/s) = 4.69146 4.78898 4.74047
#
# Compressibility (1/GPa) = 0.03856288
#
# Stress axis : x y z
#
# Youngs Moduli (GPa) = 42.05704 132.99179 65.67150
#
# Poissons Ratio (x) = -0.19634 0.24859
# Poissons Ratio (y) = -0.06209 0.10977
# Poissons Ratio (z) = 0.15920 0.22229
#
# Static dielectric constant tensor:
#      x y z
#    x 1.905620 0.000000 0.043560 
#    y 0.000000 1.905400 0.000000 
#    z 0.043560 0.000000 1.955790 
# 
# From -- ./inp_files/343713.got.cif
#   From: 2010.05.17/outbox.cif.g08.bks.cpg/sg12_172_cif.got.tgz:343713.got - 2010.06.03 13:09:07.
