data_PCOD9189443
_publ_section_title
;
Structure prediction by ZEFSAII (Michael W. Deem and Ramdas Pophale) SiO2 
 PCOD9189443
Probable space group: C 2/M
;
_chemical_formula_sum "Si O2"
_cell_formula_units_Z 64
_cell_length_a 20.150684
_cell_length_b 7.947795
_cell_length_c 30.629690
_cell_angle_alpha 90.000000
_cell_angle_beta 38.137551
_cell_angle_gamma 90.000000
_cell_volume 3029.369336
_symmetry_space_group_name_H-M "C 2/M"
_symmetry_group_IT_number 12
_symmetry_cell_setting 'monoclinic'
loop_
_space_group_symop_operation_xyz
x,y,z
-x,y,-z
-x,-y,-z
x,-y,z
1/2+x,1/2+y,z
1/2-x,1/2+y,-z
1/2-x,1/2-y,-z
1/2+x,1/2-y,z
loop_
_atom_site_type_symbol
_atom_site_label
_atom_site_fract_x
_atom_site_fract_y
_atom_site_fract_z
Si Si1 0.034840 0.300641 0.616111
Si Si2 0.490804 0.806024 0.221138
Si Si3 0.193897 0.705531 0.232025
Si Si4 0.915347 0.706361 0.507271
Si Si5 0.395697 0.304334 0.181154
Si Si6 0.769743 0.703736 0.885994
Si Si7 0.038635 0.697702 0.027729
Si Si8 0.323864 0.695749 0.379135
O O1 0.019300 0.500000 0.619597
O O2 0.053329 0.236344 0.557716
O O3 0.132764 0.274540 0.598579
O O4 0.925290 0.233973 0.694724
O O5 0.440018 0.792058 0.199817
O O6 0.613569 0.743581 0.156723
O O7 0.414519 0.717232 0.295479
O O8 0.496434 0.000000 0.232966
O O9 0.193679 0.500000 0.231494
O O10 0.281099 0.757767 0.222628
O O11 0.230679 0.756525 0.164689
O O12 0.917771 0.500000 0.507108
O O13 0.791493 0.759915 0.577930
O O14 0.000000 0.763541 0.500000
O O15 0.384987 0.500000 0.199283
O O16 0.476922 0.288724 0.098525
O O17 0.761760 0.500000 0.892465
O O18 0.666443 0.777298 0.963313
O O19 0.012471 0.500000 0.044264
O O20 0.000000 0.759840 0.000000
O O21 0.309509 0.500000 0.396196
#
# Coordination Sequence:
#
# PCOD9189443 Si02
#       8
#     8   8   8   8   8   8   8   8
#     4  10  19  37  63  87 117 160 202 245 294 346
#     4  11  24  42  62  87 121 158 195 243 303 356
#     4   9  18  34  60  89 112 149 204 247 287 346
#     4   9  20  36  59  89 121 158 202 246 289 345
#     4  11  23  39  62  90 119 154 199 249 295 351
#     4  10  20  39  63  85 112 153 204 248 288 349
#     4  11  23  38  59  89 123 157 193 243 303 354
#     4  11  22  37  60  90 120 155 200 247 293 351
#
# _framework density 21.12651
#
# number of rings (size 3 to 8) (size 9 to 14) (size 15 to 20)
#    0.000    1.750    2.500    1.875    1.750    2.000 
#    0.000    1.875    0.000    1.875    0.000    0.000 
#    0.000    0.000    0.000    0.000    0.000    0.000 
#
# Total GULP energy -178811.375444 kJ/mol
# GULP energy per Si atom -5587.855483 kJ/mol
# Density = 2.107842 g / cm^3
# Si number density = 21.126510 Si / 1000 Ang^3
#
#
#
# Elastic Constant Matrix: (Units=GPa)
#
#
# Indices 1 2 3 4 5 6 
#
# 1 136.6989 -8.0815 35.3276 -0.0246 -16.4498 -0.0273
# 2 -8.0815 15.6346 -3.7938 0.0203 -0.8072 0.0215
# 3 35.3276 -3.7938 77.9608 -0.0043 -20.5223 -0.0042
# 4 -0.0246 0.0203 -0.0043 33.3823 -0.0008 35.8786
# 5 -16.4498 -0.8072 -20.5223 -0.0008 38.7068 -0.0001
# 6 -0.0273 0.0215 -0.0042 35.8786 -0.0001 81.0786
#
#
#
# Elastic Compliance Matrix: (Units=1/GPa)
#
#
# Indices 1 2 3 4 5 6 
#
# 1 0.008607 0.003784 -0.003176 0.000003 0.002053 0.000000
# 2 0.003784 0.066802 0.002703 -0.000038 0.004435 0.000000
# 3 -0.003176 0.002703 0.016337 -0.000001 0.007369 0.000000
# 4 0.000003 -0.000038 -0.000001 0.057125 0.000001 -0.025279
# 5 0.002053 0.004435 0.007369 0.000001 0.030707 -0.000001
# 6 0.000000 0.000000 0.000000 -0.025279 -0.000001 0.023520
#
#
# Mechanical properties :
#
#
# Convention : Reuss Voigt Hill
#
# Bulk Modulus (GPa) = 10.16571 30.79988 20.48280
# Shear Modulus (GPa) = 21.80894 44.42302 33.11598
#
# Velocity S-wave (km/s) = 3.21643 4.59051 3.96347
# Velocity P-wave (km/s) = 4.31465 6.53510 5.53731
#
# Compressibility (1/GPa) = 0.09836989
#
# Stress axis : x y z
#
# Youngs Moduli (GPa) = 116.18741 14.96966 61.20981
#
# Poissons Ratio (x) = -0.05665 0.19437
# Poissons Ratio (y) = -0.43968 -0.16547
# Poissons Ratio (z) = 0.36896 -0.04047
#
# Static dielectric constant tensor:
#      x y z
#    x 1.742620 0.000000 -0.026980 
#    y 0.000000 1.770430 0.000000 
#    z -0.026980 0.000000 1.743900 
# 
# From -- ./inp_files/378254.got.cif
#   From: 2010.05.17/outbox.cif.g08.bks.cpg/sg12_190_cif.got.tgz:378254.got - 2010.06.03 13:09:07.
