data_PCOD9189940
_publ_section_title
;
Structure prediction by ZEFSAII (Michael W. Deem and Ramdas Pophale) SiO2 
 PCOD9189940
Probable space group: C 2/M
;
_chemical_formula_sum "Si O2"
_cell_formula_units_Z 44
_cell_length_a 29.394666
_cell_length_b 7.552742
_cell_length_c 12.589782
_cell_angle_alpha 90.000000
_cell_angle_beta 138.584113
_cell_angle_gamma 90.000000
_cell_volume 1848.988702
_symmetry_space_group_name_H-M "C 2/M"
_symmetry_group_IT_number 12
_symmetry_cell_setting 'monoclinic'
loop_
_space_group_symop_operation_xyz
x,y,z
-x,y,-z
-x,-y,-z
x,-y,z
1/2+x,1/2+y,z
1/2-x,1/2+y,-z
1/2-x,1/2-y,-z
1/2+x,1/2-y,z
loop_
_atom_site_type_symbol
_atom_site_label
_atom_site_fract_x
_atom_site_fract_y
_atom_site_fract_z
Si Si1 0.587016 0.792177 0.315550
Si Si2 0.428013 0.285694 0.321103
Si Si3 0.677483 0.298922 0.278303
Si Si4 0.325712 0.793815 0.325728
Si Si5 0.752024 0.500000 0.697464
Si Si6 0.069380 0.212376 0.916045
O O1 0.627712 0.701269 0.292357
O O2 0.618224 0.741592 0.484644
O O3 0.506260 0.755507 0.173767
O O4 0.598283 0.000000 0.321877
O O5 0.500000 0.225970 0.500000
O O6 0.429394 0.500000 0.322110
O O7 0.364403 0.229479 0.282210
O O8 0.423951 0.222776 0.192769
O O9 0.698567 0.500000 0.292364
O O10 0.737359 0.156038 0.376375
O O11 0.628000 0.221107 0.097231
O O12 0.265527 0.657192 0.245039
O O13 0.307070 0.000000 0.304794
O O14 0.075601 0.000000 0.926338
#
# Coordination Sequence:
#
# PCOD9189940 Si02
#       6
#     8   8   8   8   4   8
#     4  11  23  40  65 104 135 169 216 277 338 396
#     4  10  19  38  70 101 133 169 212 275 343 392
#     4  11  25  45  66  95 134 180 225 267 329 392
#     4  11  25  43  67 101 133 171 223 277 332 386
#     4  12  26  48  68  90 134 187 229 270 313 393
#     4  10  22  39  69 101 136 169 216 276 338 399
#
# _framework density 23.796793000000001
#
# number of rings (size 3 to 8) (size 9 to 14) (size 15 to 20)
#    0.000    1.273    3.636    1.636    3.818    4.000 
#    0.000    0.909    0.000    0.000    0.000    0.000 
#    0.000    0.000    0.000    0.000    0.000    0.000 
#
# Total GULP energy -122700.263391 kJ/mol
# GULP energy per Si atom -5577.284700 kJ/mol
# Density = 2.374263 g / cm^3
# Si number density = 23.796793 Si / 1000 Ang^3
#
#
#
# Elastic Constant Matrix: (Units=GPa)
#
#
# Indices 1 2 3 4 5 6 
#
# 1 181.1934 32.8211 15.8606 0.0000 -5.4784 0.0000
# 2 32.8211 115.2277 2.1922 0.0000 -10.2438 0.0000
# 3 15.8606 2.1922 69.1391 0.0000 -0.5396 0.0000
# 4 0.0000 0.0000 0.0000 7.7354 0.0000 -9.6280
# 5 -5.4784 -10.2438 -0.5396 0.0000 22.7498 0.0000
# 6 0.0000 0.0000 0.0000 -9.6280 0.0000 34.9288
#
#
#
# Elastic Compliance Matrix: (Units=1/GPa)
#
#
# Indices 1 2 3 4 5 6 
#
# 1 0.005945 -0.001608 -0.001308 0.000000 0.000676 0.000000
# 2 -0.001608 0.009480 0.000099 0.000000 0.003884 0.000000
# 3 -0.001308 0.000099 0.014761 0.000000 0.000080 0.000000
# 4 0.000000 0.000000 0.000000 0.196793 0.000000 0.054245
# 5 0.000676 0.003884 0.000080 0.000000 0.045870 0.000000
# 6 0.000000 0.000000 0.000000 0.054245 0.000000 0.043582
#
#
# Mechanical properties :
#
#
# Convention : Reuss Voigt Hill
#
# Bulk Modulus (GPa) = 40.73038 51.92311 46.32675
# Shear Modulus (GPa) = 15.14005 34.06190 24.60097
#
# Velocity S-wave (km/s) = 2.52508 3.78744 3.21875
# Velocity P-wave (km/s) = 5.06502 6.40258 5.77267
#
# Compressibility (1/GPa) = 0.02455170
#
# Stress axis : x y z
#
# Youngs Moduli (GPa) = 168.20244 105.48537 67.74588
#
# Poissons Ratio (x) = 0.16966 0.08858
# Poissons Ratio (y) = 0.27054 -0.00669
# Poissons Ratio (z) = 0.21994 -0.01041
#
# Static dielectric constant tensor:
#      x y z
#    x 1.897430 0.000000 0.020460 
#    y 0.000000 1.905490 0.000000 
#    z 0.020460 0.000000 2.055750 
# 
# From -- ./inp_files/181274.got.cif
#   From: 2010.05.17/outbox.cif.g08.bks.cpg/sg12_91_cif.got.tgz:181274.got - 2010.06.03 13:09:07.
