data_PCOD9189257
_publ_section_title
;
Structure prediction by ZEFSAII (Michael W. Deem and Ramdas Pophale) SiO2 
 PCOD9189257
Probable space group: C 2/M
;
_chemical_formula_sum "Si O2"
_cell_formula_units_Z 42
_cell_length_a 19.887823
_cell_length_b 7.407021
_cell_length_c 12.044479
_cell_angle_alpha 90.000000
_cell_angle_beta 115.134166
_cell_angle_gamma 90.000000
_cell_volume 1606.271246
_symmetry_space_group_name_H-M "C 2/M"
_symmetry_group_IT_number 12
_symmetry_cell_setting 'monoclinic'
loop_
_space_group_symop_operation_xyz
x,y,z
-x,y,-z
-x,-y,-z
x,-y,z
1/2+x,1/2+y,z
1/2-x,1/2+y,-z
1/2-x,1/2-y,-z
1/2+x,1/2-y,z
loop_
_atom_site_type_symbol
_atom_site_label
_atom_site_fract_x
_atom_site_fract_y
_atom_site_fract_z
Si Si1 0.176193 0.283132 0.375414
Si Si2 0.552488 0.791896 0.892807
Si Si3 0.143152 0.783657 0.749543
Si Si4 0.000000 0.000000 0.000000
Si Si5 0.194292 0.280569 0.134553
Si Si6 0.931813 0.707925 0.520451
O O1 0.167400 0.500000 0.362718
O O2 0.250000 0.250000 0.500000
O O3 0.184508 0.220292 0.254919
O O4 0.105390 0.213766 0.395710
O O5 0.576632 0.776908 0.782297
O O6 0.492150 0.658985 0.898592
O O7 0.536197 0.000000 0.905733
O O8 0.626558 0.721926 0.010026
O O9 0.224056 0.722960 0.848211
O O10 0.131918 0.712119 0.618121
O O11 0.142837 0.000000 0.745450
O O12 0.192660 0.500000 0.131061
O O13 0.952209 0.500000 0.558572
O O14 0.000000 0.793614 0.500000
#
# Coordination Sequence:
#
# PCOD9189257 Si02
#       6
#     8   8   8   2   8   8
#     4  10  19  37  60  90 127 168 219 273 330 399
#     4  11  24  45  70  97 135 180 218 275 341 396
#     4  11  21  40  66  96 134 168 225 288 330 402
#     4  12  26  48  64 102 138 172 228 266 322 424
#     4   9  20  38  66  96 130 174 220 278 342 397
#     4  10  22  38  60  92 129 176 227 274 340 410
#
# _framework density 26.147511999999999
#
# number of rings (size 3 to 8) (size 9 to 14) (size 15 to 20)
#    0.000    1.714    2.857    1.429    0.000    1.905 
#    5.143    3.810    0.000    0.000    0.000    0.000 
#    0.000    0.000    0.000    0.000    0.000    0.000 
#
# Total GULP energy -117345.146293 kJ/mol
# GULP energy per Si atom -5587.864109 kJ/mol
# Density = 2.608800 g / cm^3
# Si number density = 26.147512 Si / 1000 Ang^3
#
#
#
# Elastic Constant Matrix: (Units=GPa)
#
#
# Indices 1 2 3 4 5 6 
#
# 1 121.3787 12.5048 8.5674 0.0000 -25.4889 0.0000
# 2 12.5048 144.2420 2.3216 0.0000 -10.3340 0.0000
# 3 8.5674 2.3216 99.0975 0.0000 -18.6715 0.0000
# 4 0.0000 0.0000 0.0000 14.3490 0.0000 2.7405
# 5 -25.4889 -10.3340 -18.6715 0.0000 56.9018 0.0000
# 6 0.0000 0.0000 0.0000 2.7405 0.0000 -15.2556
#
#
#
# Elastic Compliance Matrix: (Units=1/GPa)
#
#
# Indices 1 2 3 4 5 6 
#
# 1 0.009130 -0.000505 -0.000026 0.000000 0.003990 0.000000
# 2 -0.000505 0.007053 0.000082 0.000000 0.001082 0.000000
# 3 -0.000026 0.000082 0.010757 0.000000 0.003533 0.000000
# 4 0.000000 0.000000 0.000000 0.067380 0.000000 0.012104
# 5 0.003990 0.001082 0.003533 0.000000 0.020717 0.000000
# 6 0.000000 0.000000 0.000000 0.012104 0.000000 -0.063375
#
#
# Mechanical properties :
#
#
# Convention : Reuss Voigt Hill
#
# Bulk Modulus (GPa) = 38.39883 45.72287 42.06085
# Shear Modulus (GPa) = 81.64584 33.95399 57.79991
#
# Velocity S-wave (km/s) = 5.59400 3.60746 4.70673
# Velocity P-wave (km/s) = 7.51273 5.90560 6.75712
#
# Compressibility (1/GPa) = 0.02604246
#
# Stress axis : x y z
#
# Youngs Moduli (GPa) = 109.52463 141.78850 92.96202
#
# Poissons Ratio (x) = 0.07164 0.00240
# Poissons Ratio (y) = 0.05534 -0.00764
# Poissons Ratio (z) = 0.00283 -0.01166
#
# Static dielectric constant tensor:
#      x y z
#    x 2.147050 0.000000 0.045200 
#    y 0.000000 1.974410 0.000000 
#    z 0.045200 0.000000 2.042830 
# 
# From -- ./inp_files/162969.got.cif
#   From: 2010.05.17/outbox.cif.g08.bks.cpg/sg12_82_cif.got.tgz:162969.got - 2010.06.03 13:09:07.
