data_PCOD9189713
_publ_section_title
;
Structure prediction by ZEFSAII (Michael W. Deem and Ramdas Pophale) SiO2 
 PCOD9189713
Probable space group: C 2/M
;
_chemical_formula_sum "Si O2"
_cell_formula_units_Z 60
_cell_length_a 11.814503
_cell_length_b 30.643842
_cell_length_c 17.186871
_cell_angle_alpha 90.000000
_cell_angle_beta 29.525870
_cell_angle_gamma 90.000000
_cell_volume 3066.484119
_symmetry_space_group_name_H-M "C 2/M"
_symmetry_group_IT_number 12
_symmetry_cell_setting 'monoclinic'
loop_
_space_group_symop_operation_xyz
x,y,z
-x,y,-z
-x,-y,-z
x,-y,z
1/2+x,1/2+y,z
1/2-x,1/2+y,-z
1/2-x,1/2-y,-z
1/2+x,1/2-y,z
loop_
_atom_site_type_symbol
_atom_site_label
_atom_site_fract_x
_atom_site_fract_y
_atom_site_fract_z
Si Si1 0.480459 0.836004 0.319955
Si Si2 0.500000 0.762069 0.500000
Si Si3 0.688451 0.332500 0.740287
Si Si4 0.267972 0.048686 0.191000
Si Si5 0.083303 0.617820 0.791742
Si Si6 0.328190 0.271690 0.035991
Si Si7 0.646073 0.628704 0.163785
Si Si8 0.445588 0.316018 0.645530
O O1 0.607808 0.845385 0.324153
O O2 0.507119 0.873830 0.240055
O O3 0.210370 0.829775 0.490997
O O4 0.603202 0.792605 0.211029
O O5 0.283432 0.794131 0.627717
O O6 0.547357 0.731334 0.397774
O O7 0.487101 0.311803 0.912495
O O8 0.573688 0.369977 0.759411
O O9 0.327064 0.069970 0.239085
O O10 0.131225 0.087366 0.229736
O O11 0.170593 0.000000 0.253335
O O12 0.500000 0.045876 0.000000
O O13 0.283666 0.653409 0.688405
O O14 0.877848 0.626802 0.975350
O O15 0.500000 0.250609 0.000000
O O16 0.250000 0.250000 0.000000
O O17 0.649445 0.673287 0.212059
#
# Coordination Sequence:
#
# PCOD9189713 Si02
#       8
#     8   4   8   8   8   8   8   8
#     4  11  21  39  57  76 115 156 196 242 298 344
#     4  12  24  38  54  80 114 156 206 254 284 326
#     4  11  24  37  52  80 113 161 202 239 289 344
#     4   8  16  33  61  95 117 138 180 240 297 354
#     4  10  19  38  61  87 114 151 186 242 300 355
#     4  10  22  38  54  78 108 151 204 254 296 337
#     4  10  21  37  61  84 118 151 193 237 300 356
#     4  11  22  38  56  83 110 151 206 249 292 335
#
# _framework density 19.566382000000001
#
# number of rings (size 3 to 8) (size 9 to 14) (size 15 to 20)
#    0.000    1.733    2.667    2.800    0.000    4.267 
#    2.400    0.000    0.000    7.200    0.000   11.667 
#    0.000    0.000    0.000    0.000    0.000    0.000 
#
# Total GULP energy -167381.211122 kJ/mol
# GULP energy per Si atom -5579.373704 kJ/mol
# Density = 1.952185 g / cm^3
# Si number density = 19.566382 Si / 1000 Ang^3
#
#
#
# Elastic Constant Matrix: (Units=GPa)
#
#
# Indices 1 2 3 4 5 6 
#
# 1 139.9154 66.6376 8.7546 0.0000 -6.9706 0.0000
# 2 66.6376 90.1868 37.2596 0.0000 -3.1539 0.0000
# 3 8.7546 37.2596 64.6805 0.0001 -5.1862 0.0000
# 4 0.0000 0.0000 0.0001 13.2077 0.0000 -1.0472
# 5 -6.9706 -3.1539 -5.1862 0.0000 29.5914 0.0000
# 6 0.0000 0.0000 0.0000 -1.0472 0.0000 8.2778
#
#
#
# Elastic Compliance Matrix: (Units=1/GPa)
#
#
# Indices 1 2 3 4 5 6 
#
# 1 0.012159 -0.010892 0.004833 0.000000 0.002550 0.000000
# 2 -0.010892 0.024308 -0.012705 0.000000 -0.002202 0.000000
# 3 0.004833 -0.012705 0.022423 0.000000 0.003714 0.000000
# 4 0.000000 0.000000 0.000000 0.076480 0.000000 0.009675
# 5 0.002550 -0.002202 0.003714 0.000000 0.034811 0.000000
# 6 0.000000 0.000000 0.000000 0.009675 0.000000 0.122029
#
#
# Mechanical properties :
#
#
# Convention : Reuss Voigt Hill
#
# Bulk Modulus (GPa) = 46.81077 57.78736 52.29906
# Shear Modulus (GPa) = 14.84304 22.35744 18.60024
#
# Velocity S-wave (km/s) = 2.75726 3.38397 3.08656
# Velocity P-wave (km/s) = 5.84060 6.69824 6.28407
#
# Compressibility (1/GPa) = 0.02136261
#
# Stress axis : x y z
#
# Youngs Moduli (GPa) = 82.24165 41.13906 44.59699
#
# Poissons Ratio (x) = 0.44808 -0.21554
# Poissons Ratio (y) = 0.89576 0.56660
# Poissons Ratio (z) = -0.39747 0.52267
#
# Static dielectric constant tensor:
#      x y z
#    x 1.761520 0.000000 0.037130 
#    y 0.000000 1.683800 0.000000 
#    z 0.037130 0.000000 1.736780 
# 
# From -- ./inp_files/266183.got.cif
#   From: 2010.05.17/outbox.cif.g08.bks.cpg/sg12_134_cif.got.tgz:266183.got - 2010.06.03 13:09:07.
