data_PCOD9189740
_publ_section_title
;
Structure prediction by ZEFSAII (Michael W. Deem and Ramdas Pophale) SiO2 
 PCOD9189740
Probable space group: C 2/M
;
_chemical_formula_sum "Si O2"
_cell_formula_units_Z 56
_cell_length_a 22.541883
_cell_length_b 8.399177
_cell_length_c 14.231492
_cell_angle_alpha 90.000000
_cell_angle_beta 121.158762
_cell_angle_gamma 90.000000
_cell_volume 2305.778623
_symmetry_space_group_name_H-M "C 2/M"
_symmetry_group_IT_number 12
_symmetry_cell_setting 'monoclinic'
loop_
_space_group_symop_operation_xyz
x,y,z
-x,y,-z
-x,-y,-z
x,-y,z
1/2+x,1/2+y,z
1/2-x,1/2+y,-z
1/2-x,1/2-y,-z
1/2+x,1/2-y,z
loop_
_atom_site_type_symbol
_atom_site_label
_atom_site_fract_x
_atom_site_fract_y
_atom_site_fract_z
Si Si1 0.009524 0.183793 0.326485
Si Si2 0.693393 0.314329 0.777321
Si Si3 0.416272 0.310279 0.926747
Si Si4 0.740397 0.179428 0.631670
Si Si5 0.123110 0.194202 0.899342
Si Si6 0.373994 0.822305 0.695297
Si Si7 0.089245 0.317174 0.556761
O O1 0.078436 0.199235 0.320495
O O2 0.026445 0.275062 0.436625
O O3 0.948208 0.245673 0.209870
O O4 0.997845 0.000000 0.339419
O O5 0.712162 0.500000 0.790497
O O6 0.740869 0.215099 0.745150
O O7 0.683188 0.256524 0.875441
O O8 0.617342 0.293927 0.664094
O O9 0.402383 0.500000 0.901763
O O10 0.381146 0.257187 0.996161
O O11 0.500000 0.294891 0.000000
O O12 0.390426 0.209637 0.817989
O O13 0.791727 0.296737 0.621643
O O14 0.658549 0.193915 0.546371
O O15 0.763207 0.000000 0.633145
O O16 0.123368 0.000000 0.899297
O O17 0.394116 0.000000 0.683412
O O18 0.086845 0.500000 0.586765
#
# Coordination Sequence:
#
# PCOD9189740 Si02
#       7
#     8   8   8   8   8   8   8
#     4  11  21  36  58  85 114 153 193 228 278 337
#     4   9  17  35  59  83 113 147 188 235 277 326
#     4  10  19  38  62  83 113 151 189 228 277 336
#     4   9  20  39  59  79 111 152 191 230 280 336
#     4   9  19  35  59  87 113 148 191 231 276 335
#     4  12  24  37  57  86 117 146 186 237 287 334
#     4   9  20  37  55  82 116 150 190 231 280 332
#
# _framework density 24.286807
#
# number of rings (size 3 to 8) (size 9 to 14) (size 15 to 20)
#    0.857    1.286    1.429    2.571    0.000    1.429 
#    0.000    7.857    0.000    0.000    0.000    0.000 
#    0.000    0.000    0.000    0.000    0.000    0.000 
#
# Total GULP energy -156427.386734 kJ/mol
# GULP energy per Si atom -5586.692383 kJ/mol
# Density = 2.423153 g / cm^3
# Si number density = 24.286807 Si / 1000 Ang^3
#
#
#
# Elastic Constant Matrix: (Units=GPa)
#
#
# Indices 1 2 3 4 5 6 
#
# 1 47.9525 -2.6126 1.7920 0.0000 -18.8593 0.0000
# 2 -2.6126 61.8536 4.6947 0.0000 -0.0307 0.0000
# 3 1.7920 4.6947 97.5570 0.0000 -13.6172 0.0000
# 4 0.0000 0.0000 0.0000 27.5716 0.0000 -5.6393
# 5 -18.8593 -0.0307 -13.6172 0.0000 45.8120 0.0000
# 6 0.0000 0.0000 0.0000 -5.6393 0.0000 27.6893
#
#
#
# Elastic Compliance Matrix: (Units=1/GPa)
#
#
# Indices 1 2 3 4 5 6 
#
# 1 0.025039 0.000989 0.000972 0.000000 0.010597 0.000000
# 2 0.000989 0.016268 -0.000775 0.000000 0.000188 0.000000
# 3 0.000972 -0.000775 0.010773 0.000000 0.003602 0.000000
# 4 0.000000 0.000000 0.000000 0.037846 0.000000 0.007708
# 5 0.010597 0.000188 0.003602 0.000000 0.027262 0.000000
# 6 0.000000 0.000000 0.000000 0.007708 0.000000 0.037685
#
#
# Mechanical properties :
#
#
# Convention : Reuss Voigt Hill
#
# Bulk Modulus (GPa) = 18.36485 23.90126 21.13305
# Shear Modulus (GPa) = 29.29962 33.78051 31.54006
#
# Velocity S-wave (km/s) = 3.47710 3.73352 3.60759
# Velocity P-wave (km/s) = 4.86809 5.33369 5.10620
#
# Compressibility (1/GPa) = 0.05445185
#
# Stress axis : x y z
#
# Youngs Moduli (GPa) = 39.93701 61.47081 92.82842
#
# Poissons Ratio (x) = -0.06080 -0.09020
# Poissons Ratio (y) = -0.03950 0.07192
# Poissons Ratio (z) = -0.03881 0.04763
#
# Static dielectric constant tensor:
#      x y z
#    x 2.065950 0.000000 0.012210 
#    y 0.000000 1.799860 0.000000 
#    z 0.012210 0.000000 1.990810 
# 
# From -- ./inp_files/239041.got.cif
#   From: 2010.05.17/outbox.cif.g08.bks.cpg/sg12_120_cif.got.tgz:239041.got - 2010.06.03 13:09:07.
