data_PCOD9189848
_publ_section_title
;
Structure prediction by ZEFSAII (Michael W. Deem and Ramdas Pophale) SiO2 
 PCOD9189848
Probable space group: C 2/M
;
_chemical_formula_sum "Si O2"
_cell_formula_units_Z 44
_cell_length_a 23.004109
_cell_length_b 14.470253
_cell_length_c 16.566584
_cell_angle_alpha 90.000000
_cell_angle_beta 23.916654
_cell_angle_gamma 90.000000
_cell_volume 2235.661700
_symmetry_space_group_name_H-M "C 2/M"
_symmetry_group_IT_number 12
_symmetry_cell_setting 'monoclinic'
loop_
_space_group_symop_operation_xyz
x,y,z
-x,y,-z
-x,-y,-z
x,-y,z
1/2+x,1/2+y,z
1/2-x,1/2+y,-z
1/2-x,1/2-y,-z
1/2+x,1/2-y,z
loop_
_atom_site_type_symbol
_atom_site_label
_atom_site_fract_x
_atom_site_fract_y
_atom_site_fract_z
Si Si1 0.334613 0.000000 0.048434
Si Si2 0.621644 0.864510 0.154152
Si Si3 0.657602 0.500000 0.766068
Si Si4 0.393889 0.500000 0.531533
Si Si5 0.941299 0.147673 0.779356
Si Si6 0.060326 0.500000 0.512512
Si Si7 0.367599 0.000000 0.261984
Si Si8 0.199310 0.144751 0.573273
O O1 0.177121 0.000000 0.289430
O O2 0.359775 0.087987 0.957427
O O3 0.460811 0.000000 0.955729
O O4 0.578443 0.757419 0.207385
O O5 0.501476 0.914695 0.358292
O O6 0.776703 0.882895 0.998204
O O7 0.683439 0.591535 0.678205
O O8 0.770087 0.500000 0.695838
O O9 0.500000 0.500000 0.000000
O O10 0.485644 0.589576 0.386576
O O11 0.249279 0.500000 0.660580
O O12 0.048414 0.132107 0.717941
O O13 0.000000 0.500000 0.500000
O O14 0.321688 0.911491 0.371730
O O15 0.250000 0.250000 0.500000
#
# Coordination Sequence:
#
# PCOD9189848 Si02
#       8
#     4   8   4   4   8   4   4   8
#     4  11  20  37  61  85 119 154 196 246 305 348
#     4  10  22  40  61  86 121 161 207 240 306 375
#     4  11  25  39  62  98 124 152 211 262 301 363
#     4  10  21  36  60  90 119 148 198 254 296 345
#     4  10  21  39  61  89 119 160 201 246 303 370
#     4  11  24  42  64  86 127 167 204 252 312 364
#     4   9  19  34  57  86 116 156 195 239 296 370
#     4  10  19  38  65  82 121 162 201 243 306 362
#
# _framework density 19.680973999999999
#
# number of rings (size 3 to 8) (size 9 to 14) (size 15 to 20)
#    0.000    1.818    0.000    6.273    2.545    1.455 
#    6.545    9.091    0.000    0.000    0.000    0.000 
#    0.000    0.000    0.000    0.000    0.000    0.000 
#
# Total GULP energy -122652.347816 kJ/mol
# GULP energy per Si atom -5575.106719 kJ/mol
# Density = 1.963618 g / cm^3
# Si number density = 19.680974 Si / 1000 Ang^3
#
#
#
# Elastic Constant Matrix: (Units=GPa)
#
#
# Indices 1 2 3 4 5 6 
#
# 1 88.3780 20.9376 41.4138 0.0001 -16.9648 0.0000
# 2 20.9376 146.4839 40.5146 0.0001 13.9771 0.0000
# 3 41.4138 40.5146 138.3937 0.0002 -16.2216 -0.0001
# 4 0.0001 0.0001 0.0002 15.1355 -0.0001 -10.3466
# 5 -16.9648 13.9771 -16.2216 -0.0001 47.0382 0.0000
# 6 0.0000 0.0000 -0.0001 -10.3466 0.0000 9.6805
#
#
#
# Elastic Compliance Matrix: (Units=1/GPa)
#
#
# Indices 1 2 3 4 5 6 
#
# 1 0.014040 -0.001532 -0.003237 0.000000 0.004402 0.000000
# 2 -0.001532 0.008050 -0.002338 0.000000 -0.003751 0.000000
# 3 -0.003237 -0.002338 0.009195 0.000000 0.002698 0.000000
# 4 0.000000 0.000000 0.000000 0.245276 0.000000 0.262151
# 5 0.004402 -0.003751 0.002698 0.000000 0.024892 0.000000
# 6 0.000000 0.000000 0.000000 0.262151 0.000000 0.383488
#
#
# Mechanical properties :
#
#
# Convention : Reuss Voigt Hill
#
# Bulk Modulus (GPa) = 58.57535 64.33195 61.45365
# Shear Modulus (GPa) = 7.09376 32.39680 19.74528
#
# Velocity S-wave (km/s) = 1.90058 4.06161 3.17088
# Velocity P-wave (km/s) = 5.88586 7.39959 6.68570
#
# Compressibility (1/GPa) = 0.01707203
#
# Stress axis : x y z
#
# Youngs Moduli (GPa) = 71.22616 124.22166 108.75315
#
# Poissons Ratio (x) = 0.19025 0.35203
# Poissons Ratio (y) = 0.10909 0.25426
# Poissons Ratio (z) = 0.23056 0.29043
#
# Static dielectric constant tensor:
#      x y z
#    x 1.744140 0.000000 -0.031470 
#    y 0.000000 1.660830 0.000000 
#    z -0.031470 0.000000 1.673510 
# 
# From -- ./inp_files/290054.got.cif
#   From: 2010.05.17/outbox.cif.g08.bks.cpg/sg12_146_cif.got.tgz:290054.got - 2010.06.03 13:09:07.
