data_PCOD9189102
_publ_section_title
;
Structure prediction by ZEFSAII (Michael W. Deem and Ramdas Pophale) SiO2 
 PCOD9189102
Probable space group: C 2/M
;
_chemical_formula_sum "Si O2"
_cell_formula_units_Z 60
_cell_length_a 14.152336
_cell_length_b 9.499656
_cell_length_c 22.342538
_cell_angle_alpha 90.000000
_cell_angle_beta 97.121259
_cell_angle_gamma 90.000000
_cell_volume 2980.611569
_symmetry_space_group_name_H-M "C 2/M"
_symmetry_group_IT_number 12
_symmetry_cell_setting 'monoclinic'
loop_
_space_group_symop_operation_xyz
x,y,z
-x,y,-z
-x,-y,-z
x,-y,z
1/2+x,1/2+y,z
1/2-x,1/2+y,-z
1/2-x,1/2-y,-z
1/2+x,1/2-y,z
loop_
_atom_site_type_symbol
_atom_site_label
_atom_site_fract_x
_atom_site_fract_y
_atom_site_fract_z
Si Si1 0.573109 0.664082 0.771571
Si Si2 0.833803 0.836554 0.427968
Si Si3 0.118015 0.660547 0.455181
Si Si4 0.949441 0.333899 0.346987
Si Si5 0.874391 0.272439 0.040589
Si Si6 0.241278 0.500000 0.022336
Si Si7 0.449421 0.335528 0.883123
Si Si8 0.267700 0.161205 0.154425
O O1 0.584825 0.500000 0.756701
O O2 0.533199 0.754477 0.713678
O O3 0.504507 0.671644 0.823876
O O4 0.672992 0.734176 0.799121
O O5 0.883776 0.768493 0.490153
O O6 0.721468 0.828612 0.432725
O O7 0.862701 0.743783 0.373511
O O8 0.860302 0.000000 0.422139
O O9 0.108732 0.500000 0.478243
O O10 0.037820 0.682766 0.399354
O O11 0.932714 0.500000 0.336865
O O12 0.824409 0.122477 0.028493
O O13 0.983945 0.249119 0.066187
O O14 0.822313 0.339008 0.095333
O O15 0.841420 0.376977 0.986825
O O16 0.446303 0.500000 0.901529
O O17 0.340563 0.291925 0.864660
O O18 0.266835 0.000000 0.177466
#
# Coordination Sequence:
#
# PCOD9189102 Si02
#       8
#     8   8   8   8   8   4   8   8
#     4  10  22  39  58  81 109 139 181 239 284 320
#     4  10  20  35  56  83 114 147 185 229 275 327
#     4   9  20  37  55  79 114 152 185 223 275 333
#     4  11  22  37  57  80 110 147 186 227 277 337
#     4  10  19  37  56  86 115 155 178 230 268 327
#     4  10  20  34  58  82 124 150 182 222 280 308
#     4   9  19  38  61  80 107 146 188 225 273 333
#     4  10  20  38  61  82 107 148 189 222 274 338
#
# _framework density 20.130096999999999
#
# number of rings (size 3 to 8) (size 9 to 14) (size 15 to 20)
#    0.000    2.133    1.333    1.600    0.933    4.267 
#    1.200    6.667    0.000    0.000    0.000    0.000 
#    0.000    0.000    0.000    0.000    0.000    0.000 
#
# Total GULP energy -167086.436323 kJ/mol
# GULP energy per Si atom -5569.547877 kJ/mol
# Density = 2.008428 g / cm^3
# Si number density = 20.130097 Si / 1000 Ang^3
#
#
#
# Elastic Constant Matrix: (Units=GPa)
#
#
# Indices 1 2 3 4 5 6 
#
# 1 93.5183 30.9453 17.6498 0.0000 21.2905 0.0000
# 2 30.9453 141.1690 41.5396 0.0000 5.6523 0.0000
# 3 17.6498 41.5396 52.3879 0.0000 -2.5294 0.0000
# 4 0.0000 0.0000 0.0000 1.3711 0.0000 10.7921
# 5 21.2905 5.6523 -2.5294 0.0000 20.6561 0.0000
# 6 0.0000 0.0000 0.0000 10.7921 0.0000 16.7857
#
#
#
# Elastic Compliance Matrix: (Units=1/GPa)
#
#
# Indices 1 2 3 4 5 6 
#
# 1 0.015879 -0.001310 -0.005114 0.000000 -0.016634 0.000000
# 2 -0.001310 0.009598 -0.007274 0.000000 -0.002167 0.000000
# 3 -0.005114 -0.007274 0.027090 0.000000 0.010579 0.000000
# 4 0.000000 0.000000 0.000000 -0.179616 0.000000 0.115481
# 5 -0.016634 -0.002167 0.010579 0.000000 0.067445 0.000000
# 6 0.000000 0.000000 0.000000 0.115481 0.000000 -0.014672
#
#
# Mechanical properties :
#
#
# Convention : Reuss Voigt Hill
#
# Bulk Modulus (GPa) = 39.72858 51.92716 45.82787
# Shear Modulus (GPa) = -129.90343 20.89194 -54.50575
#
# Velocity S-wave (km/s) = -8.04189 3.22506 -5.20918
# Velocity P-wave (km/s) = 8.15173 6.30236 3.65588
#
# Compressibility (1/GPa) = 0.02517080
#
# Stress axis : x y z
#
# Youngs Moduli (GPa) = 62.97760 104.18896 36.91441
#
# Poissons Ratio (x) = 0.13647 0.18879
# Poissons Ratio (y) = 0.08249 0.26851
# Poissons Ratio (z) = 0.32208 0.75785
#
# Static dielectric constant tensor:
#      x y z
#    x 1.722220 0.000000 -0.016420 
#    y 0.000000 1.698130 0.000000 
#    z -0.016420 0.000000 1.733930 
# 
# From -- ./inp_files/338968.got.cif
#   From: 2010.05.17/outbox.cif.g08.bks.cpg/sg12_170_cif.got.tgz:338968.got - 2010.06.03 13:09:07.
