data_PCOD9189366
_publ_section_title
;
Structure prediction by ZEFSAII (Michael W. Deem and Ramdas Pophale) SiO2 
 PCOD9189366
Probable space group: C 2/M
;
_chemical_formula_sum "Si O2"
_cell_formula_units_Z 40
_cell_length_a 24.343964
_cell_length_b 8.056569
_cell_length_c 8.238280
_cell_angle_alpha 90.000000
_cell_angle_beta 97.390939
_cell_angle_gamma 90.000000
_cell_volume 1602.339635
_symmetry_space_group_name_H-M "C 2/M"
_symmetry_group_IT_number 12
_symmetry_cell_setting 'monoclinic'
loop_
_space_group_symop_operation_xyz
x,y,z
-x,y,-z
-x,-y,-z
x,-y,z
1/2+x,1/2+y,z
1/2-x,1/2+y,-z
1/2-x,1/2-y,-z
1/2+x,1/2-y,z
loop_
_atom_site_type_symbol
_atom_site_label
_atom_site_fract_x
_atom_site_fract_y
_atom_site_fract_z
Si Si1 0.114641 0.194866 0.111673
Si Si2 0.820058 0.202224 0.174817
Si Si3 0.217495 0.699148 0.326050
Si Si4 0.579686 0.690848 0.576376
Si Si5 0.487339 0.814570 0.747982
O O1 0.157391 0.223010 0.276408
O O2 0.054747 0.270092 0.124719
O O3 0.106654 0.000000 0.085611
O O4 0.148633 0.266570 0.972078
O O5 0.758488 0.257816 0.195653
O O6 0.860404 0.243617 0.340266
O O7 0.818772 0.000000 0.164363
O O8 0.212312 0.500000 0.319510
O O9 0.250000 0.750000 0.500000
O O10 0.580354 0.500000 0.519931
O O11 0.538951 0.700454 0.718088
O O12 0.552148 0.799425 0.426521
O O13 0.508372 0.000000 0.774238
#
# Coordination Sequence:
#
# PCOD9189366 Si02
#       5
#     8   8   8   8   8
#     4  11  22  39  59  83 114 152 191 235 284 338
#     4   9  21  38  59  84 114 148 189 234 285 342
#     4  11  22  39  61  88 116 149 189 234 283 340
#     4  10  19  37  62  86 111 150 195 237 282 339
#     4  11  22  37  56  85 118 151 190 238 286 337
#
# _framework density 24.963497
#
# number of rings (size 3 to 8) (size 9 to 14) (size 15 to 20)
#    0.000    1.600    0.000    6.600    0.000    2.400 
#    0.000   14.000    0.000    0.000    0.000    0.000 
#    0.000    0.000    0.000    0.000    0.000    0.000 
#
# Total GULP energy -111970.835432 kJ/mol
# GULP energy per Si atom -5598.541772 kJ/mol
# Density = 2.490668 g / cm^3
# Si number density = 24.963497 Si / 1000 Ang^3
#
#
#
# Elastic Constant Matrix: (Units=GPa)
#
#
# Indices 1 2 3 4 5 6 
#
# 1 131.3041 -0.0945 5.2230 0.0000 -12.9259 0.0000
# 2 -0.0945 69.8029 -6.5901 0.0000 -3.8507 0.0000
# 3 5.2230 -6.5901 72.8490 0.0000 -16.2648 0.0000
# 4 0.0000 0.0000 0.0000 20.0926 0.0000 -1.9964
# 5 -12.9259 -3.8507 -16.2648 0.0000 45.5969 0.0000
# 6 0.0000 0.0000 0.0000 -1.9964 0.0000 22.3710
#
#
#
# Elastic Compliance Matrix: (Units=1/GPa)
#
#
# Indices 1 2 3 4 5 6 
#
# 1 0.007836 0.000127 -0.000056 0.000000 0.002212 0.000000
# 2 0.000127 0.014594 0.001732 0.000000 0.001886 0.000000
# 3 -0.000056 0.001732 0.015121 0.000000 0.005524 0.000000
# 4 0.000000 0.000000 0.000000 0.050215 0.000000 0.004481
# 5 0.002212 0.001886 0.005524 0.000000 0.024688 0.000000
# 6 0.000000 0.000000 0.000000 0.004481 0.000000 0.045101
#
#
# Mechanical properties :
#
#
# Convention : Reuss Voigt Hill
#
# Bulk Modulus (GPa) = 24.29708 30.11477 27.20593
# Shear Modulus (GPa) = 29.82090 35.97324 32.89707
#
# Velocity S-wave (km/s) = 3.46002 3.80021 3.63410
# Velocity P-wave (km/s) = 5.07114 5.59868 5.34143
#
# Compressibility (1/GPa) = 0.04115721
#
# Stress axis : x y z
#
# Youngs Moduli (GPa) = 127.61618 68.52206 66.13256
#
# Poissons Ratio (x) = -0.00872 0.00373
# Poissons Ratio (y) = -0.01625 -0.11456
# Poissons Ratio (z) = 0.00720 -0.11870
#
# Static dielectric constant tensor:
#      x y z
#    x 1.928440 0.000000 -0.043380 
#    y 0.000000 1.845550 0.000000 
#    z -0.043380 0.000000 2.113260 
# 
# From -- ./inp_files/92924.got.cif
#   From: 2010.05.17/outbox.cif.g08.bks.cpg/sg12_47_cif.got.tgz:92924.got - 2010.06.03 13:09:07.
