data_PCOD9189999
_publ_section_title
;
Structure prediction by ZEFSAII (Michael W. Deem and Ramdas Pophale) SiO2 
 PCOD9189999
Probable space group: C 2/M
;
_chemical_formula_sum "Si O2"
_cell_formula_units_Z 40
_cell_length_a 9.073189
_cell_length_b 25.411947
_cell_length_c 17.160585
_cell_angle_alpha 90.000000
_cell_angle_beta 148.900939
_cell_angle_gamma 90.000000
_cell_volume 2043.697141
_symmetry_space_group_name_H-M "C 2/M"
_symmetry_group_IT_number 12
_symmetry_cell_setting 'monoclinic'
loop_
_space_group_symop_operation_xyz
x,y,z
-x,y,-z
-x,-y,-z
x,-y,z
1/2+x,1/2+y,z
1/2-x,1/2+y,-z
1/2-x,1/2-y,-z
1/2+x,1/2-y,z
loop_
_atom_site_type_symbol
_atom_site_label
_atom_site_fract_x
_atom_site_fract_y
_atom_site_fract_z
Si Si1 0.172509 0.865656 0.152563
Si Si2 0.673151 0.942082 0.360684
Si Si3 0.687569 0.560975 0.890001
Si Si4 0.604531 0.196349 0.459306
Si Si5 0.729948 0.411110 0.431800
O O1 0.416902 0.903395 0.225017
O O2 0.348718 0.824521 0.286711
O O3 0.967407 0.900929 0.116746
O O4 0.000000 0.843684 0.000000
O O5 0.659194 0.945463 0.447442
O O6 0.000000 0.923482 0.500000
O O7 0.647060 0.000000 0.312331
O O8 0.694827 0.500000 0.921285
O O9 0.506508 0.563966 0.728456
O O10 0.000000 0.576854 0.000000
O O11 0.500000 0.204845 0.500000
O O12 0.750000 0.250000 0.500000
O O13 0.829283 0.147583 0.563072
O O14 0.000000 0.402902 0.500000
#
# Coordination Sequence:
#
# PCOD9189999 Si02
#       5
#     8   8   8   8   8
#     4  11  24  43  62  94 136 166 207 268 328 375
#     4  10  21  34  56  90 127 170 217 257 306 375
#     4  11  23  38  62  93 133 178 213 253 313 379
#     4  10  21  44  70  93 116 161 215 266 325 385
#     4  10  19  39  62  86 121 166 220 263 310 369
#
# _framework density 19.572372000000001
#
# number of rings (size 3 to 8) (size 9 to 14) (size 15 to 20)
#    0.000    1.600    6.000    1.200    2.800    5.600 
#    0.000    2.000    0.000    0.000    0.000    0.000 
#    0.000    0.000    0.000    0.000    0.000    0.000 
#
# Total GULP energy -111350.124335 kJ/mol
# GULP energy per Si atom -5567.506217 kJ/mol
# Density = 1.952782 g / cm^3
# Si number density = 19.572372 Si / 1000 Ang^3
#
#
#
# Elastic Constant Matrix: (Units=GPa)
#
#
# Indices 1 2 3 4 5 6 
#
# 1 59.3967 50.4049 35.8015 -0.0011 0.6875 -0.0046
# 2 50.4049 112.6446 26.7203 0.0011 10.7619 0.0002
# 3 35.8015 26.7203 113.6247 0.0063 -5.9163 0.0273
# 4 -0.0011 0.0011 0.0063 18.5846 0.0000 19.3575
# 5 0.6875 10.7619 -5.9163 0.0000 42.1017 -0.0010
# 6 -0.0046 0.0002 0.0273 19.3575 -0.0010 59.9723
#
#
#
# Elastic Compliance Matrix: (Units=1/GPa)
#
#
# Indices 1 2 3 4 5 6 
#
# 1 0.031829 -0.012767 -0.006935 -0.000001 0.001769 0.000006
# 2 -0.012767 0.014846 0.000347 -0.000001 -0.003538 -0.000001
# 3 -0.006935 0.000347 0.010986 0.000002 0.001568 -0.000006
# 4 -0.000001 -0.000001 0.000002 0.081060 0.000000 -0.026164
# 5 0.001769 -0.003538 0.001568 0.000000 0.024848 0.000000
# 6 0.000006 -0.000001 -0.000006 -0.026164 0.000000 0.025119
#
#
# Mechanical properties :
#
#
# Convention : Reuss Voigt Hill
#
# Bulk Modulus (GPa) = 52.76242 56.83549 54.79895
# Shear Modulus (GPa) = 21.39365 35.64768 28.52066
#
# Velocity S-wave (km/s) = 3.30972 4.27233 3.82146
# Velocity P-wave (km/s) = 6.45150 7.31018 6.89422
#
# Compressibility (1/GPa) = 0.01895288
#
# Stress axis : x y z
#
# Youngs Moduli (GPa) = 31.41761 67.35925 91.02583
#
# Poissons Ratio (x) = 0.85995 0.63123
# Poissons Ratio (y) = 0.40110 -0.03161
# Poissons Ratio (z) = 0.21787 -0.02339
#
# Static dielectric constant tensor:
#      x y z
#    x 1.642970 0.000000 0.038330 
#    y 0.000000 1.772620 0.000000 
#    z 0.038330 0.000000 1.735590 
# 
# From -- ./inp_files/80368.got.cif
#   From: 2010.05.17/outbox.cif.g08.bks.cpg/sg12_41_cif.got.tgz:80368.got - 2010.06.03 13:09:07.
