data_PCOD9189941
_publ_section_title
;
Structure prediction by ZEFSAII (Michael W. Deem and Ramdas Pophale) SiO2 
 PCOD9189941
Probable space group: C 2/M
;
_chemical_formula_sum "Si O2"
_cell_formula_units_Z 44
_cell_length_a 15.093472
_cell_length_b 9.670748
_cell_length_c 17.741935
_cell_angle_alpha 90.000000
_cell_angle_beta 124.555803
_cell_angle_gamma 90.000000
_cell_volume 2132.813642
_symmetry_space_group_name_H-M "C 2/M"
_symmetry_group_IT_number 12
_symmetry_cell_setting 'monoclinic'
loop_
_space_group_symop_operation_xyz
x,y,z
-x,y,-z
-x,-y,-z
x,-y,z
1/2+x,1/2+y,z
1/2-x,1/2+y,-z
1/2-x,1/2-y,-z
1/2+x,1/2-y,z
loop_
_atom_site_type_symbol
_atom_site_label
_atom_site_fract_x
_atom_site_fract_y
_atom_site_fract_z
Si Si1 0.882336 0.347142 0.479312
Si Si2 0.190550 0.760146 0.282070
Si Si3 0.748061 0.500000 0.122559
Si Si4 0.684030 0.500000 0.926462
Si Si5 0.571333 0.336187 0.361467
Si Si6 0.679106 0.704569 0.788357
Si Si7 0.437811 0.500000 0.861977
O O1 0.865730 0.500000 0.505922
O O2 0.795451 0.326944 0.371797
O O3 0.880641 0.222518 0.537979
O O4 0.000000 0.345325 0.500000
O O5 0.117897 0.732155 0.320178
O O6 0.239540 0.664559 0.240216
O O7 0.114734 0.867288 0.202339
O O8 0.801683 0.365632 0.185161
O O9 0.620565 0.500000 0.084583
O O10 0.756108 0.500000 0.036049
O O11 0.700151 0.627559 0.877324
O O12 0.562066 0.500000 0.899188
O O13 0.598483 0.500000 0.362400
O O14 0.442305 0.325943 0.296038
#
# Coordination Sequence:
#
# PCOD9189941 Si02
#       7
#     8   8   4   4   8   8   4
#     4  11  23  37  62  92 130 169 212 258 307 364
#     4  11  20  40  60  91 127 165 213 252 307 364
#     4  10  25  38  70  98 122 160 207 265 320 383
#     4  12  21  46  65  95 127 160 208 264 321 375
#     4  12  23  42  65  91 127 172 214 260 305 366
#     4  11  23  40  67  93 124 165 207 257 318 374
#     4  10  19  38  70  89 119 166 219 247 302 384
#
# _framework density 20.630026000000001
#
# number of rings (size 3 to 8) (size 9 to 14) (size 15 to 20)
#    0.000    0.909    6.364    1.364    1.273    0.364 
#    3.273    0.000    0.000    1.091    0.000    0.000 
#    0.000    0.000    0.000    0.000    0.000    0.000 
#
# Total GULP energy -122627.856307 kJ/mol
# GULP energy per Si atom -5573.993468 kJ/mol
# Density = 2.058307 g / cm^3
# Si number density = 20.630026 Si / 1000 Ang^3
#
#
#
# Elastic Constant Matrix: (Units=GPa)
#
#
# Indices 1 2 3 4 5 6 
#
# 1 100.8410 17.6640 18.0622 0.0000 -12.2038 0.0000
# 2 17.6640 91.9697 25.6430 0.0000 -11.9045 0.0000
# 3 18.0622 25.6430 73.0155 0.0000 -23.4363 0.0000
# 4 0.0000 0.0000 0.0000 27.3488 0.0000 8.7171
# 5 -12.2038 -11.9045 -23.4363 0.0000 38.1377 0.0000
# 6 0.0000 0.0000 0.0000 8.7171 0.0000 7.8160
#
#
#
# Elastic Compliance Matrix: (Units=1/GPa)
#
#
# Indices 1 2 3 4 5 6 
#
# 1 0.010674 -0.001365 -0.001497 0.000000 0.002070 0.000000
# 2 -0.001365 0.012292 -0.003598 0.000000 0.001189 0.000000
# 3 -0.001497 -0.003598 0.018456 0.000000 0.009739 0.000000
# 4 0.000000 0.000000 0.000000 0.056732 0.000000 -0.063274
# 5 0.002070 0.001189 0.009739 0.000000 0.033239 0.000000
# 6 0.000000 0.000000 0.000000 -0.063274 0.000000 0.198512
#
#
# Mechanical properties :
#
#
# Convention : Reuss Voigt Hill
#
# Bulk Modulus (GPa) = 35.08343 43.17386 39.12864
# Shear Modulus (GPa) = 14.19142 28.29096 21.24119
#
# Velocity S-wave (km/s) = 2.62563 3.70719 3.21226
# Velocity P-wave (km/s) = 5.12200 6.26877 5.72417
#
# Compressibility (1/GPa) = 0.02850348
#
# Stress axis : x y z
#
# Youngs Moduli (GPa) = 93.68308 81.35148 54.18412
#
# Poissons Ratio (x) = 0.11103 0.08111
# Poissons Ratio (y) = 0.12787 0.19494
# Poissons Ratio (z) = 0.14023 0.29267
#
# Static dielectric constant tensor:
#      x y z
#    x 1.793860 0.000000 -0.034860 
#    y 0.000000 1.753810 0.000000 
#    z -0.034860 0.000000 1.718110 
# 
# From -- ./inp_files/267819.got.cif
#   From: 2010.05.17/outbox.cif.g08.bks.cpg/sg12_134_cif.got.tgz:267819.got - 2010.06.03 13:09:07.
