data_PCOD9189336
_publ_section_title
;
Structure prediction by ZEFSAII (Michael W. Deem and Ramdas Pophale) SiO2 
 PCOD9189336
Probable space group: C 2/M
;
_chemical_formula_sum "Si O2"
_cell_formula_units_Z 58
_cell_length_a 19.424763
_cell_length_b 7.590112
_cell_length_c 19.282055
_cell_angle_alpha 90.000000
_cell_angle_beta 128.699150
_cell_angle_gamma 90.000000
_cell_volume 2218.689736
_symmetry_space_group_name_H-M "C 2/M"
_symmetry_group_IT_number 12
_symmetry_cell_setting 'monoclinic'
loop_
_space_group_symop_operation_xyz
x,y,z
-x,y,-z
-x,-y,-z
x,-y,z
1/2+x,1/2+y,z
1/2-x,1/2+y,-z
1/2-x,1/2-y,-z
1/2+x,1/2-y,z
loop_
_atom_site_type_symbol
_atom_site_label
_atom_site_fract_x
_atom_site_fract_y
_atom_site_fract_z
Si Si1 0.879768 0.204289 0.531315
Si Si2 0.812182 0.705757 0.628279
Si Si3 0.735237 0.296754 0.255038
Si Si4 0.568422 0.706897 0.637780
Si Si5 0.089349 0.712166 0.812785
Si Si6 0.218338 0.785982 0.087776
Si Si7 0.025654 0.795830 0.914642
Si Si8 0.500000 0.000000 0.000000
O O1 0.877594 0.209848 0.613960
O O2 0.785794 0.281633 0.450029
O O3 0.970971 0.279662 0.559664
O O4 0.877546 0.000000 0.508343
O O5 0.814949 0.500000 0.612597
O O6 0.818594 0.721324 0.714648
O O7 0.709789 0.500000 0.235299
O O8 0.840982 0.283915 0.334541
O O9 0.722643 0.221790 0.170067
O O10 0.569753 0.500000 0.621995
O O11 0.573711 0.729580 0.724405
O O12 0.084780 0.500000 0.811466
O O13 0.190862 0.771072 0.891122
O O14 0.024729 0.781602 0.831109
O O15 0.220067 0.000000 0.089405
O O16 0.126261 0.733578 0.996648
O O17 0.011875 0.000000 0.925598
O O18 0.972600 0.656732 0.926197
#
# Coordination Sequence:
#
# PCOD9189336 Si02
#       8
#     8   8   8   8   8   8   8   2
#     4   9  20  38  57  78 112 150 191 237 285 348
#     4  10  20  36  57  82 109 147 194 238 285 348
#     4  10  20  37  57  84 118 148 186 242 291 341
#     4  10  20  36  57  85 116 151 190 236 293 349
#     4  10  19  37  61  90 119 145 191 248 291 344
#     4   8  18  36  61  86 113 148 191 240 292 345
#     4  11  22  42  63  84 119 164 199 239 298 349
#     4  12  26  44  56  90 124 156 202 250 288 350
#
# _framework density 26.141556000000001
#
# number of rings (size 3 to 8) (size 9 to 14) (size 15 to 20)
#    0.000    2.207    0.690    3.103    0.000    2.207 
#    9.931    2.759    0.000    0.000    0.000    0.000 
#    0.000    0.000    0.000    0.000    0.000    0.000 
#
# Total GULP energy -161995.643273 kJ/mol
# GULP energy per Si atom -5586.056665 kJ/mol
# Density = 2.608206 g / cm^3
# Si number density = 26.141556 Si / 1000 Ang^3
#
#
#
# Elastic Constant Matrix: (Units=GPa)
#
#
# Indices 1 2 3 4 5 6 
#
# 1 154.0806 9.4293 39.8502 0.0000 -8.3240 0.0000
# 2 9.4293 109.1368 -2.4368 0.0000 -15.1733 0.0000
# 3 39.8502 -2.4368 53.5380 0.0000 -7.6938 0.0000
# 4 0.0000 0.0000 0.0000 6.3116 0.0000 -8.2771
# 5 -8.3240 -15.1733 -7.6938 0.0000 59.3505 0.0000
# 6 0.0000 0.0000 0.0000 -8.2771 0.0000 4.8258
#
#
#
# Elastic Compliance Matrix: (Units=1/GPa)
#
#
# Indices 1 2 3 4 5 6 
#
# 1 0.008114 -0.000816 -0.006056 0.000000 0.000144 0.000000
# 2 -0.000816 0.009616 0.001408 0.000000 0.002526 0.000000
# 3 -0.006056 0.001408 0.023620 0.000000 0.002573 0.000000
# 4 0.000000 0.000000 0.000000 -0.126823 0.000000 -0.217524
# 5 0.000144 0.002526 0.002573 0.000000 0.017849 0.000000
# 6 0.000000 0.000000 0.000000 -0.217524 0.000000 -0.165872
#
#
# Mechanical properties :
#
#
# Convention : Reuss Voigt Hill
#
# Bulk Modulus (GPa) = 32.87086 45.60452 39.23769
# Shear Modulus (GPa) = -23.53738 32.09176 4.27719
#
# Velocity S-wave (km/s) = -3.00389 3.50753 1.28051
# Velocity P-wave (km/s) = 0.75520 5.82124 4.15073
#
# Compressibility (1/GPa) = 0.03042208
#
# Stress axis : x y z
#
# Youngs Moduli (GPa) = 123.24147 103.99298 42.33721
#
# Poissons Ratio (x) = 0.08488 0.25640
# Poissons Ratio (y) = 0.10059 -0.05962
# Poissons Ratio (z) = 0.74636 -0.14645
#
# Static dielectric constant tensor:
#      x y z
#    x 2.074980 0.000000 0.046240 
#    y 0.000000 1.963330 0.000000 
#    z 0.046240 0.000000 2.149500 
# 
# From -- ./inp_files/314829.got.cif
#   From: 2010.05.17/outbox.cif.g08.bks.cpg/sg12_158_cif.got.tgz:314829.got - 2010.06.03 13:09:07.
