data_PCOD9189359
_publ_section_title
;
Structure prediction by ZEFSAII (Michael W. Deem and Ramdas Pophale) SiO2 
 PCOD9189359
Probable space group: C 2/M
;
_chemical_formula_sum "Si O2"
_cell_formula_units_Z 56
_cell_length_a 19.478803
_cell_length_b 26.372694
_cell_length_c 12.707222
_cell_angle_alpha 90.000000
_cell_angle_beta 22.603765
_cell_angle_gamma 90.000000
_cell_volume 2509.002126
_symmetry_space_group_name_H-M "C 2/M"
_symmetry_group_IT_number 12
_symmetry_cell_setting 'monoclinic'
loop_
_space_group_symop_operation_xyz
x,y,z
-x,y,-z
-x,-y,-z
x,-y,z
1/2+x,1/2+y,z
1/2-x,1/2+y,-z
1/2-x,1/2-y,-z
1/2+x,1/2-y,z
loop_
_atom_site_type_symbol
_atom_site_label
_atom_site_fract_x
_atom_site_fract_y
_atom_site_fract_z
Si Si1 0.776213 0.906537 0.657051
Si Si2 0.328128 0.442661 0.956662
Si Si3 0.083102 0.202658 0.496307
Si Si4 0.710267 0.165146 0.099558
Si Si5 0.165237 0.309567 0.408200
Si Si6 0.806413 0.084609 0.234179
Si Si7 0.929414 0.443174 0.245583
O O1 0.812812 0.850147 0.647517
O O2 0.678877 0.906661 0.680897
O O3 0.965739 0.934094 0.370089
O O4 0.637971 0.933245 0.931556
O O5 0.272514 0.500000 0.010286
O O6 0.225718 0.394571 0.053675
O O7 0.302908 0.432407 0.117695
O O8 0.199604 0.250020 0.371156
O O9 0.000000 0.215336 0.500000
O O10 0.900610 0.191362 0.816097
O O11 0.544920 0.185291 0.265886
O O12 0.674206 0.175294 0.272857
O O13 0.283050 0.354661 0.288100
O O14 0.648522 0.061793 0.527842
O O15 0.000000 0.068248 0.000000
O O16 0.887988 0.500000 0.266651
#
# Coordination Sequence:
#
# PCOD9189359 Si02
#       7
#     8   8   8   8   8   8   8
#     4  10  22  37  59  90 115 151 200 240 284 354
#     4  10  19  37  62  84 118 152 188 241 297 346
#     4  11  22  37  64  86 113 156 195 236 296 349
#     4   9  20  37  59  87 113 149 200 235 289 355
#     4  10  21  39  60  84 119 153 189 244 291 341
#     4  11  23  37  59  91 116 151 202 240 279 352
#     4  11  22  40  63  83 118 160 195 237 293 343
#
# _framework density 22.31963
#
# number of rings (size 3 to 8) (size 9 to 14) (size 15 to 20)
#    0.000    1.714    2.857    2.571    2.000    0.571 
#    2.571    7.143    0.000    4.286    0.000    0.000 
#    0.000    0.000    0.000    0.000    0.000    0.000 
#
# Total GULP energy -156250.239604 kJ/mol
# GULP energy per Si atom -5580.365700 kJ/mol
# Density = 2.226883 g / cm^3
# Si number density = 22.319630 Si / 1000 Ang^3
#
#
#
# Elastic Constant Matrix: (Units=GPa)
#
#
# Indices 1 2 3 4 5 6 
#
# 1 17.1669 -0.0605 12.8749 -0.0104 6.2113 0.0469
# 2 -0.0605 152.1040 20.5741 -0.0327 1.7883 0.0361
# 3 12.8749 20.5741 99.3088 -0.0461 19.5745 0.0966
# 4 -0.0104 -0.0327 -0.0461 15.2799 0.0074 2.4562
# 5 6.2113 1.7883 19.5745 0.0074 18.9752 -0.0511
# 6 0.0469 0.0361 0.0966 2.4562 -0.0511 17.0807
#
#
#
# Elastic Compliance Matrix: (Units=1/GPa)
#
#
# Indices 1 2 3 4 5 6 
#
# 1 0.068622 0.001013 -0.005849 0.000074 -0.016525 -0.000218
# 2 0.001013 0.006795 -0.001691 0.000011 0.000773 -0.000007
# 3 -0.005849 -0.001691 0.013518 0.000055 -0.011872 -0.000100
# 4 0.000074 0.000011 0.000055 0.066994 -0.000134 -0.009635
# 5 -0.016525 0.000773 -0.011872 -0.000134 0.070285 0.000341
# 6 -0.000218 -0.000007 -0.000100 -0.009635 0.000341 0.059933
#
#
# Mechanical properties :
#
#
# Convention : Reuss Voigt Hill
#
# Bulk Modulus (GPa) = 13.17872 37.26185 25.22028
# Shear Modulus (GPa) = 15.40858 25.94657 20.67758
#
# Velocity S-wave (km/s) = 2.63032 3.41324 3.04703
# Velocity P-wave (km/s) = 3.89129 5.68019 4.86861
#
# Compressibility (1/GPa) = 0.07587992
#
# Stress axis : x y z
#
# Youngs Moduli (GPa) = 14.57268 147.17706 73.97333
#
# Poissons Ratio (x) = -0.14906 0.43266
# Poissons Ratio (y) = -0.01476 0.12511
# Poissons Ratio (z) = 0.08523 0.24891
#
# Static dielectric constant tensor:
#      x y z
#    x 1.811230 0.000020 0.117100 
#    y 0.000020 1.836720 -0.000060 
#    z 0.117100 -0.000060 1.403900 
# 
# From -- ./inp_files/242124.got.cif
#   From: 2010.05.17/outbox.cif.g08.bks.cpg/sg12_122_cif.got.tgz:242124.got - 2010.06.03 13:09:07.
