data_PCOD9189330
_publ_section_title
;
Structure prediction by ZEFSAII (Michael W. Deem and Ramdas Pophale) SiO2 
 PCOD9189330
Probable space group: C 2/M
;
_chemical_formula_sum "Si O2"
_cell_formula_units_Z 40
_cell_length_a 11.930464
_cell_length_b 18.870623
_cell_length_c 13.057845
_cell_angle_alpha 90.000000
_cell_angle_beta 146.858843
_cell_angle_gamma 90.000000
_cell_volume 1607.189163
_symmetry_space_group_name_H-M "C 2/M"
_symmetry_group_IT_number 12
_symmetry_cell_setting 'monoclinic'
loop_
_space_group_symop_operation_xyz
x,y,z
-x,y,-z
-x,-y,-z
x,-y,z
1/2+x,1/2+y,z
1/2-x,1/2+y,-z
1/2-x,1/2-y,-z
1/2+x,1/2-y,z
loop_
_atom_site_type_symbol
_atom_site_label
_atom_site_fract_x
_atom_site_fract_y
_atom_site_fract_z
Si Si1 0.676919 0.188214 0.699388
Si Si2 0.850922 0.687426 0.967281
Si Si3 0.355011 0.000000 0.988635
Si Si4 0.478381 0.924102 0.697932
Si Si5 0.077667 0.786182 0.294772
Si Si6 0.418047 0.500000 0.554092
O O1 0.500000 0.228555 0.500000
O O2 0.567468 0.131456 0.687263
O O3 0.796153 0.240390 0.862400
O O4 0.823541 0.165691 0.719007
O O5 0.908482 0.566995 0.104811
O O6 0.613184 0.669466 0.806905
O O7 0.000000 0.649143 0.000000
O O8 0.120397 0.000000 0.776858
O O9 0.500000 0.000000 0.000000
O O10 0.523309 0.782701 0.839423
O O11 0.237318 0.933353 0.542446
O O12 0.524262 0.000000 0.681184
O O13 0.250000 0.750000 0.500000
O O14 0.500000 0.500000 0.500000
#
# Coordination Sequence:
#
# PCOD9189330 Si02
#       6
#     8   8   4   8   8   4
#     4  11  20  38  62  92 138 168 215 283 325 395
#     4   9  20  36  60  90 118 164 223 277 328 392
#     4   9  15  36  63  86 123 180 214 265 313 391
#     4   8  21  34  57  99 130 173 216 262 332 386
#     4  10  19  37  61  89 116 173 218 268 340 389
#     4   9  15  36  63  88 120 177 219 264 320 384
#
# _framework density 24.888169999999999
#
# number of rings (size 3 to 8) (size 9 to 14) (size 15 to 20)
#    1.200    1.200    4.000    0.000    0.000    0.400 
#   10.800    0.000    0.000   24.600    0.000    0.000 
#    0.000    0.800    0.000    0.000    0.000    0.000 
#
# Total GULP energy -111439.351654 kJ/mol
# GULP energy per Si atom -5571.967583 kJ/mol
# Density = 2.483152 g / cm^3
# Si number density = 24.888170 Si / 1000 Ang^3
#
#
#
# Elastic Constant Matrix: (Units=GPa)
#
#
# Indices 1 2 3 4 5 6 
#
# 1 201.1809 51.9381 104.9398 0.0000 38.0268 0.0000
# 2 51.9381 65.5995 31.5720 0.0000 8.9455 0.0000
# 3 104.9398 31.5720 240.2948 0.0001 -7.2937 0.0000
# 4 0.0000 0.0000 0.0001 23.9797 0.0000 7.1641
# 5 38.0268 8.9455 -7.2937 0.0000 71.0771 0.0000
# 6 0.0000 0.0000 0.0000 7.1641 0.0000 31.3911
#
#
#
# Elastic Compliance Matrix: (Units=1/GPa)
#
#
# Indices 1 2 3 4 5 6 
#
# 1 0.008778 -0.004734 -0.003347 0.000000 -0.004444 0.000000
# 2 -0.004734 0.019201 -0.000453 0.000000 0.000069 0.000000
# 3 -0.003347 -0.000453 0.005757 0.000000 0.002438 0.000000
# 4 0.000000 0.000000 0.000000 0.044753 0.000000 -0.010214
# 5 -0.004444 0.000069 0.002438 0.000000 0.016688 0.000000
# 6 0.000000 0.000000 0.000000 -0.010214 0.000000 0.034187
#
#
# Mechanical properties :
#
#
# Convention : Reuss Voigt Hill
#
# Bulk Modulus (GPa) = 59.99368 98.21943 79.10655
# Shear Modulus (GPa) = 32.89745 46.53129 39.71437
#
# Velocity S-wave (km/s) = 3.63962 4.32860 3.99897
# Velocity P-wave (km/s) = 6.46684 8.03320 7.29220
#
# Compressibility (1/GPa) = 0.01666842
#
# Stress axis : x y z
#
# Youngs Moduli (GPa) = 113.91665 52.08193 173.71277
#
# Poissons Ratio (x) = 0.24653 0.58134
# Poissons Ratio (y) = 0.53923 0.07877
# Poissons Ratio (z) = 0.38123 0.02362
#
# Static dielectric constant tensor:
#      x y z
#    x 2.048760 0.000000 0.024670 
#    y 0.000000 2.158800 0.000000 
#    z 0.024670 0.000000 2.201290 
# 
# From -- ./inp_files/311804.got.cif
#   From: 2010.05.17/outbox.cif.g08.bks.cpg/sg12_156_cif.got.tgz:311804.got - 2010.06.03 13:09:07.
