data_PCOD9189196
_publ_section_title
;
Structure prediction by ZEFSAII (Michael W. Deem and Ramdas Pophale) SiO2 
 PCOD9189196
Probable space group: C 2/M
;
_chemical_formula_sum "Si O2"
_cell_formula_units_Z 64
_cell_length_a 9.187002
_cell_length_b 29.432187
_cell_length_c 17.127517
_cell_angle_alpha 90.000000
_cell_angle_beta 139.097596
_cell_angle_gamma 90.000000
_cell_volume 3032.363087
_symmetry_space_group_name_H-M "C 2/M"
_symmetry_group_IT_number 12
_symmetry_cell_setting 'monoclinic'
loop_
_space_group_symop_operation_xyz
x,y,z
-x,y,-z
-x,-y,-z
x,-y,z
1/2+x,1/2+y,z
1/2-x,1/2+y,-z
1/2-x,1/2-y,-z
1/2+x,1/2-y,z
loop_
_atom_site_type_symbol
_atom_site_label
_atom_site_fract_x
_atom_site_fract_y
_atom_site_fract_z
Si Si1 0.657403 0.051171 0.775391
Si Si2 0.047494 0.886889 0.925516
Si Si3 0.141298 0.297667 0.478281
Si Si4 0.137596 0.730137 0.875828
Si Si5 0.302135 0.296260 0.784081
Si Si6 0.502094 0.374358 0.405610
Si Si7 0.495720 0.875074 0.159327
Si Si8 0.662498 0.051329 0.502042
O O1 0.895898 0.070041 0.843199
O O2 0.561609 0.089030 0.795226
O O3 0.485006 0.049341 0.635197
O O4 0.679808 0.000000 0.817477
O O5 0.947877 0.841628 0.847166
O O6 0.000000 0.880997 0.000000
O O7 0.311934 0.890829 0.020472
O O8 0.250000 0.250000 0.500000
O O9 0.335778 0.334483 0.557831
O O10 0.000000 0.295386 0.500000
O O11 0.949859 0.309386 0.337793
O O12 0.291040 0.730160 0.861923
O O13 0.919691 0.761002 0.773588
O O14 0.076091 0.677352 0.859145
O O15 0.250000 0.750000 0.000000
O O16 0.500000 0.371493 0.500000
O O17 0.261511 0.373002 0.267436
O O18 0.619890 0.420716 0.427973
O O19 0.500000 0.073560 0.500000
O O20 0.715323 0.000000 0.549627
#
# Coordination Sequence:
#
# PCOD9189196 Si02
#       8
#     8   8   8   8   8   8   8   8
#     4  10  20  38  67  98 134 174 222 284 346 407
#     4  10  19  37  59  91 126 168 215 272 331 398
#     4  12  26  45  65  95 131 181 232 284 344 419
#     4  12  22  39  63  93 125 172 217 277 338 395
#     4  12  22  40  67  89 126 172 223 281 335 401
#     4  12  23  40  65  97 138 179 215 284 352 408
#     4  11  22  38  60  95 135 165 223 278 332 411
#     4  10  22  42  69 101 133 177 230 275 338 421
#
# _framework density 21.105651999999999
#
# number of rings (size 3 to 8) (size 9 to 14) (size 15 to 20)
#    0.000    0.875    5.000    4.125    0.000    3.000 
#    0.000    0.000    0.000    0.000    0.000    2.625 
#    0.000    0.000    0.000    0.000    0.000    0.000 
#
# Total GULP energy -178650.380689 kJ/mol
# GULP energy per Si atom -5582.824397 kJ/mol
# Density = 2.105761 g / cm^3
# Si number density = 21.105652 Si / 1000 Ang^3
#
#
#
# Elastic Constant Matrix: (Units=GPa)
#
#
# Indices 1 2 3 4 5 6 
#
# 1 94.8314 44.9484 36.1053 0.0000 24.1527 0.0000
# 2 44.9484 118.8824 32.5049 0.0000 18.3469 0.0000
# 3 36.1053 32.5049 130.2162 0.0000 45.9924 0.0000
# 4 0.0000 0.0000 0.0000 3.1042 0.0000 -3.3421
# 5 24.1527 18.3469 45.9924 0.0000 40.5568 0.0000
# 6 0.0000 0.0000 0.0000 -3.3421 0.0000 21.6672
#
#
#
# Elastic Compliance Matrix: (Units=1/GPa)
#
#
# Indices 1 2 3 4 5 6 
#
# 1 0.014360 -0.004317 -0.000956 0.000000 -0.005514 0.000000
# 2 -0.004317 0.010486 -0.001090 0.000000 -0.000937 0.000000
# 3 -0.000956 -0.001090 0.013081 0.000000 -0.013771 0.000000
# 4 0.000000 0.000000 0.000000 0.386300 0.000000 0.059586
# 5 -0.005514 -0.000937 -0.013771 0.000000 0.043982 0.000000
# 6 0.000000 0.000000 0.000000 0.059586 0.000000 0.055344
#
#
# Mechanical properties :
#
#
# Convention : Reuss Voigt Hill
#
# Bulk Modulus (GPa) = 39.68043 63.44968 51.56505
# Shear Modulus (GPa) = 9.17973 28.42375 18.80174
#
# Velocity S-wave (km/s) = 2.08779 3.67377 2.98793
# Velocity P-wave (km/s) = 4.96523 6.93712 6.03229
#
# Compressibility (1/GPa) = 0.02520134
#
# Stress axis : x y z
#
# Youngs Moduli (GPa) = 69.63977 95.36163 76.44795
#
# Poissons Ratio (x) = 0.41165 0.07311
# Poissons Ratio (y) = 0.30062 0.08330
# Poissons Ratio (z) = 0.06660 0.10391
#
# Static dielectric constant tensor:
#      x y z
#    x 1.794140 0.000000 0.032720 
#    y 0.000000 1.765030 0.000000 
#    z 0.032720 0.000000 2.257660 
# 
# From -- ./inp_files/260394.got.cif
#   From: 2010.05.17/outbox.cif.g08.bks.cpg/sg12_131_cif.got.tgz:260394.got - 2010.06.03 13:09:07.
