data_PCOD9189502
_publ_section_title
;
Structure prediction by ZEFSAII (Michael W. Deem and Ramdas Pophale) SiO2 
 PCOD9189502
Probable space group: C 2/M
;
_chemical_formula_sum "Si O2"
_cell_formula_units_Z 56
_cell_length_a 16.946580
_cell_length_b 15.022692
_cell_length_c 20.452332
_cell_angle_alpha 90.000000
_cell_angle_beta 30.766157
_cell_angle_gamma 90.000000
_cell_volume 2663.473422
_symmetry_space_group_name_H-M "C 2/M"
_symmetry_group_IT_number 12
_symmetry_cell_setting 'monoclinic'
loop_
_space_group_symop_operation_xyz
x,y,z
-x,y,-z
-x,-y,-z
x,-y,z
1/2+x,1/2+y,z
1/2-x,1/2+y,-z
1/2-x,1/2-y,-z
1/2+x,1/2-y,z
loop_
_atom_site_type_symbol
_atom_site_label
_atom_site_fract_x
_atom_site_fract_y
_atom_site_fract_z
Si Si1 0.559971 0.362000 0.130598
Si Si2 0.552505 0.399882 0.646907
Si Si3 0.184249 0.106096 0.359942
Si Si4 0.665297 0.804084 0.126550
Si Si5 0.640314 0.104573 0.628930
Si Si6 0.692504 0.273320 0.235794
Si Si7 0.642888 0.601743 0.847766
O O1 0.518582 0.400470 0.230339
O O2 0.591161 0.257619 0.123268
O O3 0.430494 0.386144 0.171442
O O4 0.725161 0.380993 0.979498
O O5 0.534403 0.500000 0.630866
O O6 0.733115 0.378919 0.517120
O O7 0.466173 0.324750 0.667207
O O8 0.274553 0.126931 0.362939
O O9 0.254037 0.162007 0.249471
O O10 0.000000 0.125432 0.500000
O O11 0.198253 0.000000 0.338314
O O12 0.517274 0.844116 0.267398
O O13 0.752635 0.741880 0.117995
O O14 0.607152 0.000000 0.654165
O O15 0.722671 0.174108 0.240474
O O16 0.692700 0.500000 0.822723
O O17 0.500000 0.619210 0.000000
#
# Coordination Sequence:
#
# PCOD9189502 Si02
#       7
#     8   8   8   8   8   8   8
#     4  10  21  40  63  86 124 164 213 265 311 377
#     4  10  21  39  64  93 124 163 206 260 324 384
#     4  10  19  37  64  92 124 163 205 249 314 386
#     4  10  22  38  60  93 122 164 213 261 313 371
#     4  10  21  38  61  92 128 163 208 257 311 383
#     4  11  21  37  63  89 123 162 204 264 309 373
#     4  11  23  40  62  85 117 168 217 258 313 375
#
# _framework density 21.025175999999998
#
# number of rings (size 3 to 8) (size 9 to 14) (size 15 to 20)
#    0.000    1.714    2.857    1.714    0.000    4.000 
#    2.571    0.000    0.000    1.286    0.000    0.000 
#    0.000    0.000    0.000    0.000    0.000    0.000 
#
# Total GULP energy -155892.476108 kJ/mol
# GULP energy per Si atom -5567.588432 kJ/mol
# Density = 2.097732 g / cm^3
# Si number density = 21.025176 Si / 1000 Ang^3
#
#
#
# Elastic Constant Matrix: (Units=GPa)
#
#
# Indices 1 2 3 4 5 6 
#
# 1 71.5349 42.2140 18.1790 -0.0001 9.7167 -0.0002
# 2 42.2140 98.8329 47.3777 0.0004 -7.7685 0.0010
# 3 18.1790 47.3777 87.7764 0.0011 4.8434 -0.0007
# 4 -0.0001 0.0004 0.0011 25.9512 -0.0003 -2.5084
# 5 9.7167 -7.7685 4.8434 -0.0003 30.6453 -0.0001
# 6 -0.0002 0.0010 -0.0007 -2.5084 -0.0001 -3.0494
#
#
#
# Elastic Compliance Matrix: (Units=1/GPa)
#
#
# Indices 1 2 3 4 5 6 
#
# 1 0.021135 -0.010726 0.001949 0.000000 -0.009729 -0.000004
# 2 -0.010726 0.019789 -0.009002 0.000001 0.009840 0.000008
# 3 0.001949 -0.009002 0.016149 -0.000001 -0.005452 -0.000006
# 4 0.000000 0.000001 -0.000001 0.035696 0.000001 -0.029363
# 5 -0.009729 0.009840 -0.005452 0.000001 0.039072 0.000003
# 6 -0.000004 0.000008 -0.000006 -0.029363 0.000003 -0.303783
#
#
# Mechanical properties :
#
#
# Convention : Reuss Voigt Hill
#
# Bulk Modulus (GPa) = 46.48287 52.63174 49.55731
# Shear Modulus (GPa) = -38.69604 20.73431 -8.98086
#
# Velocity S-wave (km/s) = -4.29471 3.14373 -2.06900
# Velocity P-wave (km/s) = 1.56095 6.18583 4.23249
#
# Compressibility (1/GPa) = 0.02151330
#
# Stress axis : x y z
#
# Youngs Moduli (GPa) = 47.31455 50.53409 61.92384
#
# Poissons Ratio (x) = 0.54205 -0.12070
# Poissons Ratio (y) = 0.50752 0.55747
# Poissons Ratio (z) = -0.09223 0.45493
#
# Static dielectric constant tensor:
#      x y z
#    x 1.793510 0.000000 0.048700 
#    y 0.000000 1.768430 0.000000 
#    z 0.048700 0.000000 1.844040 
# 
# From -- ./inp_files/316722.got.cif
#   From: 2010.05.17/outbox.cif.g08.bks.cpg/sg12_159_cif.got.tgz:316722.got - 2010.06.03 13:09:07.
