data_PCOD9189632
_publ_section_title
;
Structure prediction by ZEFSAII (Michael W. Deem and Ramdas Pophale) SiO2 
 PCOD9189632
Probable space group: C 2/M
;
_chemical_formula_sum "Si O2"
_cell_formula_units_Z 60
_cell_length_a 16.628643
_cell_length_b 12.657125
_cell_length_c 12.685294
_cell_angle_alpha 90.000000
_cell_angle_beta 99.546250
_cell_angle_gamma 90.000000
_cell_volume 2632.911723
_symmetry_space_group_name_H-M "C 2/M"
_symmetry_group_IT_number 12
_symmetry_cell_setting 'monoclinic'
loop_
_space_group_symop_operation_xyz
x,y,z
-x,y,-z
-x,-y,-z
x,-y,z
1/2+x,1/2+y,z
1/2-x,1/2+y,-z
1/2-x,1/2-y,-z
1/2+x,1/2-y,z
loop_
_atom_site_type_symbol
_atom_site_label
_atom_site_fract_x
_atom_site_fract_y
_atom_site_fract_z
Si Si1 0.377024 0.388554 0.458967
Si Si2 0.500000 0.226326 0.000000
Si Si3 0.331244 0.311506 0.892096
Si Si4 0.104771 0.824146 0.305335
Si Si5 0.562900 0.226928 0.799291
Si Si6 0.183374 0.614726 0.414361
Si Si7 0.079433 0.341448 0.583026
Si Si8 0.784049 0.876337 0.105864
O O1 0.403528 0.500000 0.417759
O O2 0.391429 0.388597 0.587039
O O3 0.279996 0.375660 0.423022
O O4 0.419278 0.285905 0.423653
O O5 0.423910 0.297782 0.949683
O O6 0.534309 0.171346 0.902119
O O7 0.338618 0.361952 0.778511
O O8 0.293072 0.193546 0.874582
O O9 0.285769 0.369059 0.977989
O O10 0.138442 0.709223 0.347485
O O11 0.013235 0.801756 0.248203
O O12 0.578169 0.144212 0.707719
O O13 0.639938 0.304557 0.836434
O O14 0.157830 0.500000 0.368845
O O15 0.156766 0.622047 0.531664
O O16 0.000000 0.377991 0.500000
O O17 0.785836 0.000000 0.137949
#
# Coordination Sequence:
#
# PCOD9189632 Si02
#       8
#     8   4   8   8   8   8   8   8
#     4  10  22  36  53  83 118 156 197 239 294 355
#     4   8  18  40  62  82 108 154 196 232 290 350
#     4   9  20  38  63  83 115 153 193 244 294 351
#     4  10  19  38  58  80 116 159 195 238 297 353
#     4  10  20  36  58  85 114 151 195 239 294 346
#     4  10  22  38  57  85 118 158 203 242 288 355
#     4  11  20  37  58  85 119 157 193 246 297 345
#     4  10  22  38  59  91 118 147 194 247 298 349
#
# _framework density 22.788457000000001
#
# number of rings (size 3 to 8) (size 9 to 14) (size 15 to 20)
#    0.000    2.133    2.667    1.600    3.733    2.667 
#    0.000   11.667    0.000   10.400    0.000    0.000 
#    0.000    0.000    0.000    0.000    0.000    0.000 
#
# Total GULP energy -167400.217619 kJ/mol
# GULP energy per Si atom -5580.007254 kJ/mol
# Density = 2.273659 g / cm^3
# Si number density = 22.788457 Si / 1000 Ang^3
#
#
#
# Elastic Constant Matrix: (Units=GPa)
#
#
# Indices 1 2 3 4 5 6 
#
# 1 59.8399 25.0352 3.5181 0.0000 1.9280 0.0000
# 2 25.0352 92.2336 7.8593 0.0000 13.9630 0.0000
# 3 3.5181 7.8593 94.9851 0.0000 -22.6453 0.0000
# 4 0.0000 0.0000 0.0000 -1.4040 0.0000 5.6924
# 5 1.9280 13.9630 -22.6453 0.0000 41.0850 0.0000
# 6 0.0000 0.0000 0.0000 5.6924 0.0000 -7.3326
#
#
#
# Elastic Compliance Matrix: (Units=1/GPa)
#
#
# Indices 1 2 3 4 5 6 
#
# 1 0.018884 -0.005252 -0.000058 0.000000 0.000867 0.000000
# 2 -0.005252 0.013287 -0.002214 0.000000 -0.005489 0.000000
# 3 -0.000058 -0.002214 0.012541 0.000000 0.007668 0.000000
# 4 0.000000 0.000000 0.000000 0.331668 0.000000 0.257476
# 5 0.000867 -0.005489 0.007668 0.000000 0.030391 0.000000
# 6 0.000000 0.000000 0.000000 0.257476 0.000000 0.063503
#
#
# Mechanical properties :
#
#
# Convention : Reuss Voigt Hill
#
# Bulk Modulus (GPa) = 33.70991 35.54265 34.62628
# Shear Modulus (GPa) = 10.09672 20.51276 15.30474
#
# Velocity S-wave (km/s) = 2.10719 3.00349 2.59434
# Velocity P-wave (km/s) = 4.55467 5.25914 4.91953
#
# Compressibility (1/GPa) = 0.02966487
#
# Stress axis : x y z
#
# Youngs Moduli (GPa) = 52.95485 75.26017 79.73657
#
# Poissons Ratio (x) = 0.39526 0.00465
# Poissons Ratio (y) = 0.27812 0.17651
# Poissons Ratio (z) = 0.00309 0.16660
#
# Static dielectric constant tensor:
#      x y z
#    x 1.853410 0.000000 -0.039280 
#    y 0.000000 1.817100 0.000000 
#    z -0.039280 0.000000 1.945320 
# 
# From -- ./inp_files/214868.got.cif
#   From: 2010.05.17/outbox.cif.g08.bks.cpg/sg12_108_cif.got.tgz:214868.got - 2010.06.03 13:09:07.
