data_PCOD9189677
_publ_section_title
;
Structure prediction by ZEFSAII (Michael W. Deem and Ramdas Pophale) SiO2 
 PCOD9189677
Probable space group: C 2/M
;
_chemical_formula_sum "Si O2"
_cell_formula_units_Z 56
_cell_length_a 12.292740
_cell_length_b 27.026655
_cell_length_c 14.084834
_cell_angle_alpha 90.000000
_cell_angle_beta 36.080734
_cell_angle_gamma 90.000000
_cell_volume 2755.830149
_symmetry_space_group_name_H-M "C 2/M"
_symmetry_group_IT_number 12
_symmetry_cell_setting 'monoclinic'
loop_
_space_group_symop_operation_xyz
x,y,z
-x,y,-z
-x,-y,-z
x,-y,z
1/2+x,1/2+y,z
1/2-x,1/2+y,-z
1/2-x,1/2-y,-z
1/2+x,1/2-y,z
loop_
_atom_site_type_symbol
_atom_site_label
_atom_site_fract_x
_atom_site_fract_y
_atom_site_fract_z
Si Si1 0.560239 0.302539 0.202827
Si Si2 0.524329 0.894103 0.745411
Si Si3 0.309911 0.107101 0.078771
Si Si4 0.208897 0.947150 0.323521
Si Si5 0.694091 0.198638 0.160551
Si Si6 0.275440 0.841631 0.657379
Si Si7 0.164745 0.554507 0.457861
O O1 0.660596 0.349356 0.180159
O O2 0.610545 0.253451 0.225513
O O3 0.344134 0.310142 0.333088
O O4 0.659476 0.299475 0.028953
O O5 0.705108 0.901428 0.680981
O O6 0.467958 0.839413 0.754714
O O7 0.567945 0.926954 0.623056
O O8 0.365110 0.908662 0.933255
O O9 0.234118 0.062656 0.195102
O O10 0.500000 0.123078 0.000000
O O11 0.000000 0.949776 0.500000
O O12 0.299766 0.000000 0.284906
O O13 0.774131 0.176433 0.201620
O O14 0.500000 0.837376 0.500000
O O15 0.225746 0.898437 0.663023
O O16 0.253864 0.500000 0.407576
O O17 0.000000 0.548824 0.500000
#
# Coordination Sequence:
#
# PCOD9189677 Si02
#       7
#     8   8   8   8   8   8   8
#     4  10  23  39  66  88 121 169 200 250 316 365
#     4  10  19  38  60  83 118 159 205 255 298 367
#     4   9  21  39  61  89 123 157 211 257 303 371
#     4  10  22  37  58  88 122 158 200 255 318 372
#     4  10  21  41  61  89 119 160 210 248 305 371
#     4  11  22  39  60  93 129 159 204 259 303 367
#     4  10  20  36  61  87 119 164 207 249 310 364
#
# _framework density 20.320557000000001
#
# number of rings (size 3 to 8) (size 9 to 14) (size 15 to 20)
#    0.000    2.000    2.857    0.857    2.000    8.286 
#    0.000    1.429    0.000    3.429    0.000    0.000 
#    0.000    0.000    0.000    0.000    0.000    0.000 
#
# Total GULP energy -155894.911282 kJ/mol
# GULP energy per Si atom -5567.675403 kJ/mol
# Density = 2.027431 g / cm^3
# Si number density = 20.320557 Si / 1000 Ang^3
#
#
#
# Elastic Constant Matrix: (Units=GPa)
#
#
# Indices 1 2 3 4 5 6 
#
# 1 64.3695 45.8728 34.4382 0.0000 14.3977 0.0000
# 2 45.8728 102.9415 32.0502 0.0000 -0.7590 0.0000
# 3 34.4382 32.0502 48.8386 0.0000 4.9805 0.0000
# 4 0.0000 0.0000 0.0000 30.0221 0.0000 9.8788
# 5 14.3977 -0.7590 4.9805 0.0000 38.8551 0.0000
# 6 0.0000 0.0000 0.0000 9.8788 0.0000 15.4492
#
#
#
# Elastic Compliance Matrix: (Units=1/GPa)
#
#
# Indices 1 2 3 4 5 6 
#
# 1 0.033693 -0.010096 -0.016050 0.000000 -0.010625 0.000000
# 2 -0.010096 0.015297 -0.003376 0.000000 0.004472 0.000000
# 3 -0.016050 -0.003376 0.033851 0.000000 0.001542 0.000000
# 4 0.000000 0.000000 0.000000 0.042185 0.000000 -0.026975
# 5 -0.010625 0.004472 0.001542 0.000000 0.029563 0.000000
# 6 0.000000 0.000000 0.000000 -0.026975 0.000000 0.081977
#
#
# Mechanical properties :
#
#
# Convention : Reuss Voigt Hill
#
# Bulk Modulus (GPa) = 42.01894 48.98578 45.50236
# Shear Modulus (GPa) = 16.47216 23.78450 20.12833
#
# Velocity S-wave (km/s) = 2.85022 3.42492 3.15070
# Velocity P-wave (km/s) = 5.61735 6.30864 5.97300
#
# Compressibility (1/GPa) = 0.02379879
#
# Stress axis : x y z
#
# Youngs Moduli (GPa) = 29.67948 65.37160 29.54113
#
# Poissons Ratio (x) = 0.65998 0.47413
# Poissons Ratio (y) = 0.29964 0.09973
# Poissons Ratio (z) = 0.47635 0.22069
#
# Static dielectric constant tensor:
#      x y z
#    x 1.779060 0.000000 0.053360 
#    y 0.000000 1.743440 0.000000 
#    z 0.053360 0.000000 1.776920 
# 
# From -- ./inp_files/209098.got.cif
#   From: 2010.05.17/outbox.cif.g08.bks.cpg/sg12_105_cif.got.tgz:209098.got - 2010.06.03 13:09:07.
