data_PCOD9189707
_publ_section_title
;
Structure prediction by ZEFSAII (Michael W. Deem and Ramdas Pophale) SiO2 
 PCOD9189707
Probable space group: C 2/M
;
_chemical_formula_sum "Si O2"
_cell_formula_units_Z 56
_cell_length_a 20.871737
_cell_length_b 8.858210
_cell_length_c 30.691371
_cell_angle_alpha 90.000000
_cell_angle_beta 33.907921
_cell_angle_gamma 90.000000
_cell_volume 3165.526553
_symmetry_space_group_name_H-M "C 2/M"
_symmetry_group_IT_number 12
_symmetry_cell_setting 'monoclinic'
loop_
_space_group_symop_operation_xyz
x,y,z
-x,y,-z
-x,-y,-z
x,-y,z
1/2+x,1/2+y,z
1/2-x,1/2+y,-z
1/2-x,1/2-y,-z
1/2+x,1/2-y,z
loop_
_atom_site_type_symbol
_atom_site_label
_atom_site_fract_x
_atom_site_fract_y
_atom_site_fract_z
Si Si1 0.919647 0.318901 0.426813
Si Si2 0.910843 0.181289 0.173362
Si Si3 0.960547 0.681233 0.238830
Si Si4 0.172648 0.682336 0.261717
Si Si5 0.923473 0.180997 0.000663
Si Si6 0.789904 0.681169 0.410755
Si Si7 0.682751 0.679904 0.159398
O O1 0.913091 0.500000 0.433531
O O2 0.867907 0.274700 0.408617
O O3 0.835372 0.248984 0.510103
O O4 0.052934 0.275008 0.352292
O O5 0.785121 0.221711 0.225834
O O6 0.938325 0.262694 0.202762
O O7 0.003408 0.217146 0.083576
O O8 0.913149 0.000000 0.178582
O O9 0.969231 0.500000 0.235473
O O10 0.076654 0.751243 0.192658
O O11 0.856034 0.727825 0.329869
O O12 0.172364 0.500000 0.255695
O O13 0.177881 0.757020 0.211378
O O14 0.903086 0.000000 0.013218
O O15 0.803084 0.265438 0.071310
O O16 0.000000 0.217710 0.000000
O O17 0.781593 0.500000 0.415701
O O18 0.675761 0.500000 0.163521
#
# Coordination Sequence:
#
# PCOD9189707 Si02
#       7
#     8   8   8   8   8   8   8
#     4   9  17  31  56  85 112 144 189 237 282 336
#     4  10  22  39  62  87 114 150 194 238 285 344
#     4  11  23  41  60  81 118 160 193 233 291 348
#     4  10  19  38  61  85 117 154 193 234 288 347
#     4  10  20  39  64  86 114 154 191 233 291 344
#     4   9  18  33  54  81 113 149 189 233 284 340
#     4  12  24  36  59  90 118 148 194 245 283 336
#
# _framework density 17.690580000000001
#
# number of rings (size 3 to 8) (size 9 to 14) (size 15 to 20)
#    0.000    1.857    2.857    1.714    0.000    3.714 
#    0.000    0.714    0.000    4.286    0.000    0.000 
#    0.000    0.000    0.000    0.000    0.000    0.000 
#
# Total GULP energy -156351.260287 kJ/mol
# GULP energy per Si atom -5583.973582 kJ/mol
# Density = 1.765032 g / cm^3
# Si number density = 17.690580 Si / 1000 Ang^3
#
#
#
# Elastic Constant Matrix: (Units=GPa)
#
#
# Indices 1 2 3 4 5 6 
#
# 1 133.9593 57.6984 93.3842 0.0000 -0.1322 0.0003
# 2 57.6984 43.5978 62.6611 -0.0022 -1.8310 0.0001
# 3 93.3842 62.6611 181.1106 0.0003 -8.8667 0.0000
# 4 0.0000 -0.0022 0.0003 31.1143 0.0001 2.9015
# 5 -0.1322 -1.8310 -8.8667 0.0001 29.4508 0.0000
# 6 0.0003 0.0001 0.0000 2.9015 0.0000 28.2993
#
#
#
# Elastic Compliance Matrix: (Units=1/GPa)
#
#
# Indices 1 2 3 4 5 6 
#
# 1 0.017830 -0.020549 -0.002175 -0.000001 -0.001852 0.000000
# 2 -0.020549 0.069417 -0.013413 0.000005 0.000185 -0.000001
# 3 -0.002175 -0.013413 0.011410 -0.000001 0.002592 0.000000
# 4 -0.000001 0.000005 -0.000001 0.032450 0.000000 -0.003327
# 5 -0.001852 0.000185 0.002592 0.000000 0.034738 0.000000
# 6 0.000000 -0.000001 0.000000 -0.003327 0.000000 0.035678
#
#
# Mechanical properties :
#
#
# Convention : Reuss Voigt Hill
#
# Bulk Modulus (GPa) = 37.90049 87.35056 62.62553
# Shear Modulus (GPa) = 17.69357 27.43446 22.56402
#
# Velocity S-wave (km/s) = 3.16598 3.94229 3.57526
# Velocity P-wave (km/s) = 5.90213 8.37892 7.24712
#
# Compressibility (1/GPa) = 0.02638488
#
# Stress axis : x y z
#
# Youngs Moduli (GPa) = 56.08645 14.40579 87.64165
#
# Poissons Ratio (x) = 0.29602 0.19058
# Poissons Ratio (y) = 1.15250 1.17550
# Poissons Ratio (z) = 0.12196 0.19322
#
# Static dielectric constant tensor:
#      x y z
#    x 1.571520 0.000000 -0.005690 
#    y 0.000000 1.596040 0.000000 
#    z -0.005690 0.000000 1.601500 
# 
# From -- ./inp_files/380574.got.cif
#   From: 2010.05.17/outbox.cif.g08.bks.cpg/sg12_191_cif.got.tgz:380574.got - 2010.06.03 13:09:07.
