data_PCOD9189015
_publ_section_title
;
Structure prediction by ZEFSAII (Michael W. Deem and Ramdas Pophale) SiO2 
 PCOD9189015
Probable space group: C 2/M
;
_chemical_formula_sum "Si O2"
_cell_formula_units_Z 44
_cell_length_a 18.242690
_cell_length_b 15.340071
_cell_length_c 17.353325
_cell_angle_alpha 90.000000
_cell_angle_beta 155.075753
_cell_angle_gamma 90.000000
_cell_volume 2046.509228
_symmetry_space_group_name_H-M "C 2/M"
_symmetry_group_IT_number 12
_symmetry_cell_setting 'monoclinic'
loop_
_space_group_symop_operation_xyz
x,y,z
-x,y,-z
-x,-y,-z
x,-y,z
1/2+x,1/2+y,z
1/2-x,1/2+y,-z
1/2-x,1/2-y,-z
1/2+x,1/2-y,z
loop_
_atom_site_type_symbol
_atom_site_label
_atom_site_fract_x
_atom_site_fract_y
_atom_site_fract_z
Si Si1 0.967598 0.854315 0.632195
Si Si2 0.571888 0.901956 0.225428
Si Si3 0.500000 0.312984 0.500000
Si Si4 0.035001 0.901814 0.867225
Si Si5 0.627603 0.735214 0.187711
Si Si6 0.634070 0.816493 0.838879
O O1 0.769657 0.884418 0.439485
O O2 0.038689 0.869811 0.613722
O O3 0.042124 0.897648 0.780398
O O4 0.998196 0.749841 0.670963
O O5 0.540963 0.825879 0.134303
O O6 0.457253 0.882919 0.190869
O O7 0.548811 0.000000 0.175249
O O8 0.323940 0.257741 0.349042
O O9 0.892033 0.833650 0.761393
O O10 0.999900 0.000000 0.858045
O O11 0.223717 0.867422 0.075432
O O12 0.500000 0.701058 0.000000
O O13 0.750000 0.750000 0.000000
#
# Coordination Sequence:
#
# PCOD9189015 Si02
#       6
#     8   8   4   8   8   8
#     4  10  21  41  63  93 128 169 214 266 329 384
#     4  11  22  38  63  97 129 167 217 268 326 394
#     4  10  24  38  68  96 128 180 216 268 334 396
#     4  11  23  41  68  97 128 172 223 271 324 393
#     4  11  24  44  65  95 134 177 222 273 333 387
#     4  10  19  36  65  92 123 169 215 267 324 380
#
# _framework density 21.500025999999998
#
# number of rings (size 3 to 8) (size 9 to 14) (size 15 to 20)
#    0.000    1.455    3.636    2.727    5.091    0.727 
#    0.000   11.818    0.000    0.000    0.000    0.000 
#    0.000    0.000    0.000    0.000    0.000    0.000 
#
# Total GULP energy -122679.668787 kJ/mol
# GULP energy per Si atom -5576.348581 kJ/mol
# Density = 2.145109 g / cm^3
# Si number density = 21.500026 Si / 1000 Ang^3
#
#
#
# Elastic Constant Matrix: (Units=GPa)
#
#
# Indices 1 2 3 4 5 6 
#
# 1 93.3479 39.0788 22.4433 -0.0011 16.0388 -0.0009
# 2 39.0788 123.9194 12.7769 0.0006 6.4322 -0.0001
# 3 22.4433 12.7769 22.8302 -0.0001 8.0401 -0.0003
# 4 -0.0011 0.0006 -0.0001 16.2774 -0.0004 -5.7501
# 5 16.0388 6.4322 8.0401 -0.0004 40.5550 -0.0006
# 6 -0.0009 -0.0001 -0.0003 -5.7501 -0.0006 -2.9490
#
#
#
# Elastic Compliance Matrix: (Units=1/GPa)
#
#
# Indices 1 2 3 4 5 6 
#
# 1 0.015701 -0.003513 -0.012340 0.000000 -0.003206 -0.000003
# 2 -0.003513 0.009357 -0.001882 0.000000 0.000278 0.000001
# 3 -0.012340 -0.001882 0.059302 0.000000 -0.006578 0.000000
# 4 0.000000 0.000000 0.000000 0.036378 0.000000 -0.070931
# 5 -0.003206 0.000278 -0.006578 0.000000 0.027186 -0.000003
# 6 -0.000003 0.000001 0.000000 -0.070931 -0.000003 -0.200793
#
#
# Mechanical properties :
#
#
# Convention : Reuss Voigt Hill
#
# Bulk Modulus (GPa) = 20.45333 43.18840 31.82087
# Shear Modulus (GPa) = -4527.34082 21.82993 -2252.75545
#
# Velocity S-wave (km/s) = -45.93810 3.18990 -32.40473
# Velocity P-wave (km/s) = 52.95480 5.80504 37.21903
#
# Compressibility (1/GPa) = 0.04889178
#
# Stress axis : x y z
#
# Youngs Moduli (GPa) = 63.69125 106.87129 16.86289
#
# Poissons Ratio (x) = 0.37540 0.20808
# Poissons Ratio (y) = 0.22372 0.03173
# Poissons Ratio (z) = 0.78594 0.20108
#
# Static dielectric constant tensor:
#      x y z
#    x 1.841400 0.000000 -0.041010 
#    y 0.000000 1.773090 0.000000 
#    z -0.041010 0.000000 1.836410 
# 
# From -- ./inp_files/277919.got.cif
#   From: 2010.05.17/outbox.cif.g08.bks.cpg/sg12_139_cif.got.tgz:277919.got - 2010.06.03 13:09:07.
