data_PCOD9189360
_publ_section_title
;
Structure prediction by ZEFSAII (Michael W. Deem and Ramdas Pophale) SiO2 
 PCOD9189360
Probable space group: C 2/M
;
_chemical_formula_sum "Si O2"
_cell_formula_units_Z 56
_cell_length_a 15.250940
_cell_length_b 8.323564
_cell_length_c 25.250036
_cell_angle_alpha 90.000000
_cell_angle_beta 116.680884
_cell_angle_gamma 90.000000
_cell_volume 2863.998735
_symmetry_space_group_name_H-M "C 2/M"
_symmetry_group_IT_number 12
_symmetry_cell_setting 'monoclinic'
loop_
_space_group_symop_operation_xyz
x,y,z
-x,y,-z
-x,-y,-z
x,-y,z
1/2+x,1/2+y,z
1/2-x,1/2+y,-z
1/2-x,1/2-y,-z
1/2+x,1/2-y,z
loop_
_atom_site_type_symbol
_atom_site_label
_atom_site_fract_x
_atom_site_fract_y
_atom_site_fract_z
Si Si1 0.711683 0.192378 0.121251
Si Si2 0.326135 0.307931 0.565134
Si Si3 0.865355 0.191674 0.786846
Si Si4 0.021390 0.306161 0.565905
Si Si5 0.738502 0.196436 0.652936
Si Si6 0.922151 0.692335 0.135814
Si Si7 0.644191 0.806314 0.992598
O O1 0.678542 0.262712 0.167986
O O2 0.824049 0.236379 0.136081
O O3 0.703864 0.000000 0.122309
O O4 0.642809 0.248950 0.053134
O O5 0.324255 0.500000 0.564568
O O6 0.250000 0.250000 0.500000
O O7 0.432854 0.247616 0.578507
O O8 0.293577 0.252518 0.614386
O O9 0.794206 0.250886 0.720635
O O10 0.975264 0.258958 0.810869
O O11 0.871249 0.000000 0.784955
O O12 0.023509 0.500000 0.564551
O O13 0.000000 0.249747 0.500000
O O14 0.126129 0.250336 0.616045
O O15 0.737766 0.000000 0.653656
O O16 0.911732 0.500000 0.134172
O O17 0.925991 0.744852 0.074538
O O18 0.639848 0.000000 0.993429
O O19 0.750000 0.750000 0.000000
#
# Coordination Sequence:
#
# PCOD9189360 Si02
#       7
#     8   8   8   8   8   8   8
#     4  10  20  37  59  84 114 149 191 240 293 342
#     4  11  21  37  60  88 115 144 181 226 277 331
#     4  11  23  39  57  81 115 156 196 234 280 339
#     4  10  19  37  62  85 112 146 180 222 279 332
#     4   9  21  40  58  79 115 153 186 228 281 335
#     4  10  20  37  59  84 114 150 193 239 288 341
#     4   8  16  31  54  81 110 144 185 237 290 338
#
# _framework density 19.553080999999999
#
# number of rings (size 3 to 8) (size 9 to 14) (size 15 to 20)
#    0.000    2.143    1.429    1.714    0.000    3.143 
#    0.000   10.000    0.000    0.000    0.000    0.000 
#    0.000    0.000    0.000    0.000    0.000    0.000 
#
# Total GULP energy -156257.018263 kJ/mol
# GULP energy per Si atom -5580.607795 kJ/mol
# Density = 1.950858 g / cm^3
# Si number density = 19.553081 Si / 1000 Ang^3
#
#
#
# Elastic Constant Matrix: (Units=GPa)
#
#
# Indices 1 2 3 4 5 6 
#
# 1 79.3996 -7.6393 21.7436 0.0000 6.1727 0.0000
# 2 -7.6393 8.5446 4.0540 0.0000 3.1296 0.0000
# 3 21.7436 4.0540 103.3403 0.0000 10.2064 0.0000
# 4 0.0000 0.0000 0.0000 20.3893 0.0000 -0.5931
# 5 6.1727 3.1296 10.2064 0.0000 33.9403 0.0000
# 6 0.0000 0.0000 0.0000 -0.5931 0.0000 32.3513
#
#
#
# Elastic Compliance Matrix: (Units=1/GPa)
#
#
# Indices 1 2 3 4 5 6 
#
# 1 0.015435 0.016696 -0.003580 0.000000 -0.003270 0.000000
# 2 0.016696 0.140618 -0.007677 0.000000 -0.013694 0.000000
# 3 -0.003580 -0.007677 0.010921 0.000000 -0.001925 0.000000
# 4 0.000000 0.000000 0.000000 0.049072 0.000000 0.000900
# 5 -0.003270 -0.013694 -0.001925 0.000000 0.031900 0.000000
# 6 0.000000 0.000000 0.000000 0.000900 0.000000 0.030927
#
#
# Mechanical properties :
#
#
# Convention : Reuss Voigt Hill
#
# Bulk Modulus (GPa) = 5.62259 25.28902 15.45580
# Shear Modulus (GPa) = 15.27750 28.87792 22.07771
#
# Velocity S-wave (km/s) = 2.79827 3.84721 3.36388
# Velocity P-wave (km/s) = 3.64996 5.71807 4.79680
#
# Compressibility (1/GPa) = 0.17785388
#
# Stress axis : x y z
#
# Youngs Moduli (GPa) = 64.78586 7.11147 91.56436
#
# Poissons Ratio (x) = -0.11873 0.32778
# Poissons Ratio (y) = -1.08168 0.70293
# Poissons Ratio (z) = 0.23192 0.05459
#
# Static dielectric constant tensor:
#      x y z
#    x 1.652050 0.000000 0.001220 
#    y 0.000000 1.691180 0.000000 
#    z 0.001220 0.000000 1.703950 
# 
# From -- ./inp_files/339053.got.cif
#   From: 2010.05.17/outbox.cif.g08.bks.cpg/sg12_170_cif.got.tgz:339053.got - 2010.06.03 13:09:07.
