data_PCOD9189133
_publ_section_title
;
Structure prediction by ZEFSAII (Michael W. Deem and Ramdas Pophale) SiO2 
 PCOD9189133
Probable space group: C 2/M
;
_chemical_formula_sum "Si O2"
_cell_formula_units_Z 48
_cell_length_a 5.171750
_cell_length_b 24.953736
_cell_length_c 23.770496
_cell_angle_alpha 90.000000
_cell_angle_beta 128.238200
_cell_angle_gamma 90.000000
_cell_volume 2409.499273
_symmetry_space_group_name_H-M "C 2/M"
_symmetry_group_IT_number 12
_symmetry_cell_setting 'monoclinic'
loop_
_space_group_symop_operation_xyz
x,y,z
-x,y,-z
-x,-y,-z
x,-y,z
1/2+x,1/2+y,z
1/2-x,1/2+y,-z
1/2-x,1/2-y,-z
1/2+x,1/2-y,z
loop_
_atom_site_type_symbol
_atom_site_label
_atom_site_fract_x
_atom_site_fract_y
_atom_site_fract_z
Si Si1 0.773857 0.563643 0.261017
Si Si2 0.767998 0.787140 0.915584
Si Si3 0.754151 0.187541 0.576865
Si Si4 0.735667 0.886412 0.419735
Si Si5 0.084418 0.773282 0.722450
Si Si6 0.101515 0.377657 0.203581
O O1 0.737520 0.500000 0.257305
O O2 0.420069 0.591732 0.223005
O O3 0.038979 0.580249 0.345393
O O4 0.900294 0.583816 0.217351
O O5 0.491556 0.745806 0.901357
O O6 0.608837 0.841312 0.868613
O O7 0.000000 0.800346 0.000000
O O8 0.500000 0.213561 0.500000
O O9 0.546390 0.141049 0.580643
O O10 0.049353 0.158416 0.583826
O O11 0.851495 0.228993 0.637776
O O12 0.000000 0.912158 0.500000
O O13 0.374105 0.731182 0.750415
O O14 0.251615 0.830316 0.738322
#
# Coordination Sequence:
#
# PCOD9189133 Si02
#       6
#     8   8   8   8   8   8
#     4  12  24  40  63  88 116 160 210 254 309 362
#     4  10  21  40  68 102 132 162 198 234 287 360
#     4  10  20  35  53  74 110 151 191 245 301 357
#     4  10  19  37  58  78 108 150 202 262 315 349
#     4  12  22  33  55  82 111 150 192 227 290 363
#     4  12  23  41  61  89 127 155 192 254 305 347
#
# _framework density 19.921150999999998
#
# number of rings (size 3 to 8) (size 9 to 14) (size 15 to 20)
#    0.000    1.000    3.333    4.500    0.000    1.000 
#    0.000    0.000    0.000    8.000    0.000    0.000 
#    0.000    0.000    0.000    0.000    0.000    0.000 
#
# Total GULP energy -133971.842684 kJ/mol
# GULP energy per Si atom -5582.160112 kJ/mol
# Density = 1.987581 g / cm^3
# Si number density = 19.921151 Si / 1000 Ang^3
#
#
#
# Elastic Constant Matrix: (Units=GPa)
#
#
# Indices 1 2 3 4 5 6 
#
# 1 113.8287 38.0801 42.3214 0.0000 5.0424 0.0000
# 2 38.0801 89.3240 48.2178 0.0000 11.9719 0.0000
# 3 42.3214 48.2178 155.5831 0.0000 13.3186 0.0000
# 4 0.0000 0.0000 0.0000 52.0389 0.0000 7.6127
# 5 5.0424 11.9719 13.3186 0.0000 24.2470 0.0000
# 6 0.0000 0.0000 0.0000 7.6127 0.0000 23.9818
#
#
#
# Elastic Compliance Matrix: (Units=1/GPa)
#
#
# Indices 1 2 3 4 5 6 
#
# 1 0.010653 -0.003637 -0.001820 0.000000 0.000580 0.000000
# 2 -0.003637 0.015185 -0.003295 0.000000 -0.004932 0.000000
# 3 -0.001820 -0.003295 0.008156 0.000000 -0.002474 0.000000
# 4 0.000000 0.000000 0.000000 0.020152 0.000000 -0.006397
# 5 0.000580 -0.004932 -0.002474 0.000000 0.044916 0.000000
# 6 0.000000 0.000000 0.000000 -0.006397 0.000000 0.043729
#
#
# Mechanical properties :
#
#
# Convention : Reuss Voigt Hill
#
# Bulk Modulus (GPa) = 60.64266 68.44159 64.54212
# Shear Modulus (GPa) = 30.15858 35.39463 32.77661
#
# Velocity S-wave (km/s) = 3.89510 4.21971 4.06065
# Velocity P-wave (km/s) = 7.12296 7.62706 7.37932
#
# Compressibility (1/GPa) = 0.01649004
#
# Stress axis : x y z
#
# Youngs Moduli (GPa) = 93.87183 65.85449 122.61630
#
# Poissons Ratio (x) = 0.23948 0.22321
# Poissons Ratio (y) = 0.34137 0.40399
# Poissons Ratio (z) = 0.17088 0.21697
#
# Static dielectric constant tensor:
#      x y z
#    x 1.751310 0.000000 0.047310 
#    y 0.000000 1.649240 0.000000 
#    z 0.047310 0.000000 1.802370 
# 
# From -- ./inp_files/331294.got.cif
#   From: 2010.05.17/outbox.cif.g08.bks.cpg/sg12_166_cif.got.tgz:331294.got - 2010.06.03 13:09:07.
