data_PCOD9189867
_publ_section_title
;
Structure prediction by ZEFSAII (Michael W. Deem and Ramdas Pophale) SiO2 
 PCOD9189867
Probable space group: C 2/M
;
_chemical_formula_sum "Si O2"
_cell_formula_units_Z 32
_cell_length_a 19.680269
_cell_length_b 8.622113
_cell_length_c 10.126582
_cell_angle_alpha 90.000000
_cell_angle_beta 76.435372
_cell_angle_gamma 90.000000
_cell_volume 1670.402919
_symmetry_space_group_name_H-M "C 2/M"
_symmetry_group_IT_number 12
_symmetry_cell_setting 'monoclinic'
loop_
_space_group_symop_operation_xyz
x,y,z
-x,y,-z
-x,-y,-z
x,-y,z
1/2+x,1/2+y,z
1/2-x,1/2+y,-z
1/2-x,1/2-y,-z
1/2+x,1/2-y,z
loop_
_atom_site_type_symbol
_atom_site_label
_atom_site_fract_x
_atom_site_fract_y
_atom_site_fract_z
Si Si1 0.690653 0.686329 0.124675
Si Si2 0.532926 0.310838 0.123488
Si Si3 0.697560 0.181958 0.415596
Si Si4 0.441887 0.321553 0.413183
O O1 0.691560 0.500000 0.120258
O O2 0.612634 0.738962 0.115172
O O3 0.703589 0.739998 0.268959
O O4 0.750000 0.750000 0.000000
O O5 0.534307 0.500000 0.123981
O O6 0.480708 0.264642 0.264430
O O7 0.500000 0.260360 0.000000
O O8 0.750000 0.250000 0.500000
O O9 0.621025 0.218074 0.507775
O O10 0.709394 0.000000 0.394901
O O11 0.500000 0.327250 0.500000
O O12 0.416777 0.500000 0.403708
#
# Coordination Sequence:
#
# PCOD9189867 Si02
#       4
#     8   8   8   8
#     4  11  23  42  64  93 130 170 212 259 314 377
#     4   9  19  36  61  91 123 163 206 247 305 376
#     4  12  26  43  64  92 126 168 215 269 323 378
#     4  10  19  38  65  91 123 163 206 258 315 378
#
# _framework density 19.157053999999999
#
# number of rings (size 3 to 8) (size 9 to 14) (size 15 to 20)
#    0.000    1.500    2.500    3.000    3.500    0.500 
#    0.000    0.000    0.000    3.750    0.000    0.000 
#    0.000    0.000    0.000    0.000    0.000    0.000 
#
# Total GULP energy -89393.250595 kJ/mol
# GULP energy per Si atom -5587.078162 kJ/mol
# Density = 1.911345 g / cm^3
# Si number density = 19.157054 Si / 1000 Ang^3
#
#
#
# Elastic Constant Matrix: (Units=GPa)
#
#
# Indices 1 2 3 4 5 6 
#
# 1 115.6207 34.8462 85.9567 0.0000 5.2344 0.0000
# 2 34.8462 66.9418 35.7242 0.0000 0.2864 0.0000
# 3 85.9567 35.7242 209.9014 0.0000 -1.2989 0.0000
# 4 0.0000 0.0000 0.0000 29.7065 0.0000 -9.4196
# 5 5.2344 0.2864 -1.2989 0.0000 36.9161 0.0000
# 6 0.0000 0.0000 0.0000 -9.4196 0.0000 19.0666
#
#
#
# Elastic Compliance Matrix: (Units=1/GPa)
#
#
# Indices 1 2 3 4 5 6 
#
# 1 0.013726 -0.004542 -0.004861 0.000000 -0.002082 0.000000
# 2 -0.004542 0.017936 -0.001190 0.000000 0.000463 0.000000
# 3 -0.004861 -0.001190 0.006963 0.000000 0.000943 0.000000
# 4 0.000000 0.000000 0.000000 0.039916 0.000000 0.019720
# 5 -0.002082 0.000463 0.000943 0.000000 0.027413 0.000000
# 6 0.000000 0.000000 0.000000 0.019720 0.000000 0.062190
#
#
# Mechanical properties :
#
#
# Convention : Reuss Voigt Hill
#
# Bulk Modulus (GPa) = 57.34102 78.39090 67.86596
# Shear Modulus (GPa) = 25.62248 32.86695 29.24472
#
# Velocity S-wave (km/s) = 3.66115 4.14654 3.91138
# Velocity P-wave (km/s) = 6.91875 7.99588 7.47673
#
# Compressibility (1/GPa) = 0.01743952
#
# Stress axis : x y z
#
# Youngs Moduli (GPa) = 72.85599 55.75510 143.61728
#
# Poissons Ratio (x) = 0.25324 0.69808
# Poissons Ratio (y) = 0.33091 0.17086
# Poissons Ratio (z) = 0.35413 0.06633
#
# Static dielectric constant tensor:
#      x y z
#    x 1.653490 0.000000 0.014950 
#    y 0.000000 1.675650 0.000000 
#    z 0.014950 0.000000 1.652540 
# 
# From -- ./inp_files/81666.got.cif
#   From: 2010.05.17/outbox.cif.g08.bks.cpg/sg12_41_cif.got.tgz:81666.got - 2010.06.03 13:09:07.
