data_PCOD9189409
_publ_section_title
;
Structure prediction by ZEFSAII (Michael W. Deem and Ramdas Pophale) SiO2 
 PCOD9189409
Probable space group: C 2/M
;
_chemical_formula_sum "Si O2"
_cell_formula_units_Z 34
_cell_length_a 21.679603
_cell_length_b 13.914330
_cell_length_c 10.367014
_cell_angle_alpha 90.000000
_cell_angle_beta 30.905295
_cell_angle_gamma 90.000000
_cell_volume 1606.237272
_symmetry_space_group_name_H-M "C 2/M"
_symmetry_group_IT_number 12
_symmetry_cell_setting 'monoclinic'
loop_
_space_group_symop_operation_xyz
x,y,z
-x,y,-z
-x,-y,-z
x,-y,z
1/2+x,1/2+y,z
1/2-x,1/2+y,-z
1/2-x,1/2-y,-z
1/2+x,1/2-y,z
loop_
_atom_site_type_symbol
_atom_site_label
_atom_site_fract_x
_atom_site_fract_y
_atom_site_fract_z
Si Si1 0.688955 0.333288 0.195562
Si Si2 0.604583 0.103515 0.984015
Si Si3 0.893452 0.251835 0.397451
Si Si4 0.500000 0.500000 0.500000
Si Si5 0.222406 0.891116 0.572249
O O1 0.611649 0.283428 0.447824
O O2 0.603603 0.414802 0.289131
O O3 0.750000 0.250000 0.000000
O O4 0.796349 0.384392 0.082894
O O5 0.510774 0.187909 0.159910
O O6 0.542515 0.000000 0.108574
O O7 0.673825 0.104717 0.724000
O O8 0.882009 0.163273 0.318525
O O9 0.777671 0.320813 0.580072
O O10 0.194416 0.000000 0.662434
#
# Coordination Sequence:
#
# PCOD9189409 Si02
#       5
#     8   8   8   2   8
#     4  11  24  43  63  92 121 167 226 268 326 393
#     4  10  19  37  62  90 121 160 210 250 318 402
#     4  10  20  35  63  89 126 164 202 268 312 379
#     4  12  24  48  72  84 132 180 210 288 342 364
#     4   9  19  36  60  91 127 164 202 244 324 401
#
# _framework density 21.167483000000001
#
# number of rings (size 3 to 8) (size 9 to 14) (size 15 to 20)
#    0.000    1.882    1.176    2.824    1.647    1.882 
#    4.235    1.176    0.000    5.647    0.000    0.000 
#    0.000    0.000    0.000    0.000    0.000    0.000 
#
# Total GULP energy -94676.837798 kJ/mol
# GULP energy per Si atom -5569.225753 kJ/mol
# Density = 2.111930 g / cm^3
# Si number density = 21.167483 Si / 1000 Ang^3
#
#
#
# Elastic Constant Matrix: (Units=GPa)
#
#
# Indices 1 2 3 4 5 6 
#
# 1 41.5649 27.0754 12.3052 0.0000 2.0935 0.0000
# 2 27.0754 167.7682 38.6783 0.0000 -1.4047 0.0000
# 3 12.3052 38.6783 56.1191 0.0000 -11.9888 0.0000
# 4 0.0000 0.0000 0.0000 49.4275 0.0000 -12.7896
# 5 2.0935 -1.4047 -11.9888 0.0000 23.6666 0.0000
# 6 0.0000 0.0000 0.0000 -12.7896 0.0000 3.6466
#
#
#
# Elastic Compliance Matrix: (Units=1/GPa)
#
#
# Indices 1 2 3 4 5 6 
#
# 1 0.028000 -0.003439 -0.004869 0.000000 -0.005147 0.000000
# 2 -0.003439 0.007623 -0.004864 0.000000 -0.001707 0.000000
# 3 -0.004869 -0.004864 0.024972 0.000000 0.012792 0.000000
# 4 0.000000 0.000000 0.000000 0.218751 0.000000 0.767210
# 5 -0.005147 -0.001707 0.012792 0.000000 0.049088 0.000000
# 6 0.000000 0.000000 0.000000 0.767210 0.000000 2.965010
#
#
# Mechanical properties :
#
#
# Convention : Reuss Voigt Hill
#
# Bulk Modulus (GPa) = 29.19708 46.84111 38.01909
# Shear Modulus (GPa) = 1.50096 27.84104 14.67100
#
# Velocity S-wave (km/s) = 0.84299 3.63060 2.63552
# Velocity P-wave (km/s) = 3.84328 6.30491 5.22124
#
# Compressibility (1/GPa) = 0.03425000
#
# Stress axis : x y z
#
# Youngs Moduli (GPa) = 35.71458 131.18444 40.04457
#
# Poissons Ratio (x) = 0.45120 0.19496
# Poissons Ratio (y) = 0.12284 0.19479
# Poissons Ratio (z) = 0.17388 0.63813
#
# Static dielectric constant tensor:
#      x y z
#    x 1.793050 0.000000 -0.031690 
#    y 0.000000 1.795450 0.000000 
#    z -0.031690 0.000000 1.751840 
# 
# From -- ./inp_files/128566.got.cif
#   From: 2010.05.17/outbox.cif.g08.bks.cpg/sg12_65_cif.got.tgz:128566.got - 2010.06.03 13:09:07.
