data_PCOD9189310
_publ_section_title
;
Structure prediction by ZEFSAII (Michael W. Deem and Ramdas Pophale) SiO2 
 PCOD9189310
Probable space group: C 2/M
;
_chemical_formula_sum "Si O2"
_cell_formula_units_Z 40
_cell_length_a 11.566574
_cell_length_b 25.898469
_cell_length_c 14.373154
_cell_angle_alpha 90.000000
_cell_angle_beta 150.354408
_cell_angle_gamma 90.000000
_cell_volume 2129.680820
_symmetry_space_group_name_H-M "C 2/M"
_symmetry_group_IT_number 12
_symmetry_cell_setting 'monoclinic'
loop_
_space_group_symop_operation_xyz
x,y,z
-x,y,-z
-x,-y,-z
x,-y,z
1/2+x,1/2+y,z
1/2-x,1/2+y,-z
1/2-x,1/2-y,-z
1/2+x,1/2-y,z
loop_
_atom_site_type_symbol
_atom_site_label
_atom_site_fract_x
_atom_site_fract_y
_atom_site_fract_z
Si Si1 0.747060 0.707152 0.122442
Si Si2 0.765442 0.591738 0.795129
Si Si3 0.592415 0.319563 0.808633
Si Si4 0.082591 0.627922 0.456897
Si Si5 0.753928 0.558627 0.586890
O O1 0.888172 0.760664 0.211890
O O2 0.892813 0.667396 0.284960
O O3 0.500000 0.717687 0.000000
O O4 0.702766 0.683140 0.989047
O O5 0.724462 0.643547 0.826956
O O6 0.794899 0.595865 0.704311
O O7 0.521497 0.561140 0.631059
O O8 0.000000 0.566947 0.000000
O O9 0.331257 0.342237 0.633510
O O10 0.109444 0.580677 0.404908
O O11 0.000000 0.610714 0.500000
O O12 0.815030 0.500000 0.654640
#
# Coordination Sequence:
#
# PCOD9189310 Si02
#       5
#     8   8   8   8   8
#     4  11  21  37  59  85 120 154 194 231 281 343
#     4  10  19  37  61  87 118 145 185 242 298 341
#     4  10  22  37  58  89 117 155 190 231 286 346
#     4  11  22  40  58  82 118 157 194 237 282 340
#     4  10  23  39  59  87 115 149 197 246 294 343
#
# _framework density 18.782157999999999
#
# number of rings (size 3 to 8) (size 9 to 14) (size 15 to 20)
#    0.000    1.600    2.000    3.600    0.000    3.600 
#    7.200    0.000    0.000    0.600    0.000    0.000 
#    0.000    0.000    0.000    0.000    0.000    0.000 
#
# Total GULP energy -111601.622426 kJ/mol
# GULP energy per Si atom -5580.081121 kJ/mol
# Density = 1.873941 g / cm^3
# Si number density = 18.782158 Si / 1000 Ang^3
#
#
#
# Elastic Constant Matrix: (Units=GPa)
#
#
# Indices 1 2 3 4 5 6 
#
# 1 144.6325 37.4634 22.1157 0.0002 -14.1222 0.0006
# 2 37.4634 52.6658 1.4701 0.0001 -12.6124 0.0003
# 3 22.1157 1.4701 54.7783 0.0001 0.8005 0.0004
# 4 0.0002 0.0001 0.0001 10.7526 0.0001 -1.4043
# 5 -14.1222 -12.6124 0.8005 0.0001 32.4731 0.0003
# 6 0.0006 0.0003 0.0004 -1.4043 0.0003 3.9464
#
#
#
# Elastic Compliance Matrix: (Units=1/GPa)
#
#
# Indices 1 2 3 4 5 6 
#
# 1 0.009190 -0.006019 -0.003574 0.000000 0.001747 -0.000001
# 2 -0.006019 0.024903 0.001659 0.000000 0.007013 -0.000002
# 3 -0.003574 0.001659 0.019674 0.000000 -0.001395 -0.000002
# 4 0.000000 0.000000 0.000000 0.097534 -0.000001 0.034706
# 5 0.001747 0.007013 -0.001395 -0.000001 0.034313 -0.000003
# 6 -0.000001 -0.000002 -0.000002 0.034706 -0.000003 0.265745
#
#
# Mechanical properties :
#
#
# Convention : Reuss Voigt Hill
#
# Bulk Modulus (GPa) = 26.38612 41.57499 33.98056
# Shear Modulus (GPa) = 10.41969 22.16958 16.29463
#
# Velocity S-wave (km/s) = 2.35790 3.43935 2.94863
# Velocity P-wave (km/s) = 4.63594 6.16081 5.45195
#
# Compressibility (1/GPa) = 0.03789871
#
# Stress axis : x y z
#
# Youngs Moduli (GPa) = 108.80935 40.15625 50.82755
#
# Poissons Ratio (x) = 0.24171 0.18168
# Poissons Ratio (y) = 0.65496 -0.08434
# Poissons Ratio (z) = 0.38893 -0.06664
#
# Static dielectric constant tensor:
#      x y z
#    x 1.655790 0.000000 0.001470 
#    y 0.000000 1.617750 0.000000 
#    z 0.001470 0.000000 1.644980 
# 
# From -- ./inp_files/125015.got.cif
#   From: 2010.05.17/outbox.cif.g08.bks.cpg/sg12_63_cif.got.tgz:125015.got - 2010.06.03 13:09:07.
