data_PCOD9189918
_publ_section_title
;
Structure prediction by ZEFSAII (Michael W. Deem and Ramdas Pophale) SiO2 
 PCOD9189918
Probable space group: C 2/M
;
_chemical_formula_sum "Si O2"
_cell_formula_units_Z 40
_cell_length_a 5.344883
_cell_length_b 26.306796
_cell_length_c 12.951167
_cell_angle_alpha 90.000000
_cell_angle_beta 81.310569
_cell_angle_gamma 90.000000
_cell_volume 1800.119359
_symmetry_space_group_name_H-M "C 2/M"
_symmetry_group_IT_number 12
_symmetry_cell_setting 'monoclinic'
loop_
_space_group_symop_operation_xyz
x,y,z
-x,y,-z
-x,-y,-z
x,-y,z
1/2+x,1/2+y,z
1/2-x,1/2+y,-z
1/2-x,1/2-y,-z
1/2+x,1/2-y,z
loop_
_atom_site_type_symbol
_atom_site_label
_atom_site_fract_x
_atom_site_fract_y
_atom_site_fract_z
Si Si1 0.974757 0.799381 0.383547
Si Si2 0.001830 0.312350 0.300032
Si Si3 0.725533 0.561585 0.558514
Si Si4 0.476374 0.560193 0.197170
Si Si5 0.517093 0.886296 0.119590
O O1 0.223241 0.831153 0.345447
O O2 0.000000 0.782460 0.500000
O O3 0.979906 0.748786 0.312017
O O4 0.714708 0.825767 0.370461
O O5 0.061212 0.336002 0.186264
O O6 0.500000 0.581603 0.500000
O O7 0.728579 0.500000 0.546769
O O8 0.651013 0.569529 0.682594
O O9 0.000000 0.578562 0.500000
O O10 0.518236 0.500000 0.183485
O O11 0.748951 0.587516 0.167684
O O12 0.261789 0.579074 0.130272
O O13 0.500000 0.875072 0.000000
#
# Coordination Sequence:
#
# PCOD9189918 Si02
#       5
#     8   8   8   8   8
#     4  10  19  38  67  96 131 161 193 241 297 379
#     4  10  20  37  60  91 126 161 196 243 309 370
#     4   9  17  33  57  83 112 143 179 233 304 375
#     4  11  24  43  66  89 118 164 219 269 319 373
#     4  12  26  43  61  87 125 163 215 279 318 354
#
# _framework density 22.220749999999999
#
# number of rings (size 3 to 8) (size 9 to 14) (size 15 to 20)
#    0.000    1.600    0.000    6.600    0.000    5.600 
#    0.000   17.000    0.000    0.000    0.000    0.000 
#    0.000    0.000    0.000    0.000    0.000    0.000 
#
# Total GULP energy -111740.020313 kJ/mol
# GULP energy per Si atom -5587.001016 kJ/mol
# Density = 2.217017 g / cm^3
# Si number density = 22.220750 Si / 1000 Ang^3
#
#
#
# Elastic Constant Matrix: (Units=GPa)
#
#
# Indices 1 2 3 4 5 6 
#
# 1 159.8980 22.3782 25.2629 0.0000 2.3937 0.0000
# 2 22.3782 102.6421 50.1274 0.0000 0.8776 0.0000
# 3 25.2629 50.1274 126.1570 0.0000 18.5274 0.0000
# 4 0.0000 0.0000 0.0000 26.5544 0.0000 3.2793
# 5 2.3937 0.8776 18.5274 0.0000 36.7915 0.0000
# 6 0.0000 0.0000 0.0000 3.2793 0.0000 14.9436
#
#
#
# Elastic Compliance Matrix: (Units=1/GPa)
#
#
# Indices 1 2 3 4 5 6 
#
# 1 0.006536 -0.000970 -0.000934 0.000000 0.000068 0.000000
# 2 -0.000970 0.012415 -0.005080 0.000000 0.002325 0.000000
# 3 -0.000934 -0.005080 0.010913 0.000000 -0.005313 0.000000
# 4 0.000000 0.000000 0.000000 0.038708 0.000000 -0.008494
# 5 0.000068 0.002325 -0.005313 0.000000 0.029796 0.000000
# 6 0.000000 0.000000 0.000000 -0.008494 0.000000 0.068782
#
#
# Mechanical properties :
#
#
# Convention : Reuss Voigt Hill
#
# Bulk Modulus (GPa) = 62.90622 64.91488 63.91055
# Shear Modulus (GPa) = 26.82173 35.05313 30.93743
#
# Velocity S-wave (km/s) = 3.47804 3.97608 3.73537
# Velocity P-wave (km/s) = 6.67085 7.09620 6.88680
#
# Compressibility (1/GPa) = 0.01589668
#
# Stress axis : x y z
#
# Youngs Moduli (GPa) = 152.99463 80.54613 91.63752
#
# Poissons Ratio (x) = 0.07810 0.08555
# Poissons Ratio (y) = 0.14836 0.46556
# Poissons Ratio (z) = 0.14283 0.40921
#
# Static dielectric constant tensor:
#      x y z
#    x 1.884900 0.000000 0.001620 
#    y 0.000000 1.874360 0.000000 
#    z 0.001620 0.000000 1.804430 
# 
# From -- ./inp_files/115444.got.cif
#   From: 2010.05.17/outbox.cif.g08.bks.cpg/sg12_58_cif.got.tgz:115444.got - 2010.06.03 13:09:07.
