data_PCOD9189681
_publ_section_title
;
Structure prediction by ZEFSAII (Michael W. Deem and Ramdas Pophale) SiO2 
 PCOD9189681
Probable space group: C 2/M
;
_chemical_formula_sum "Si O2"
_cell_formula_units_Z 58
_cell_length_a 9.975051
_cell_length_b 20.921457
_cell_length_c 17.276965
_cell_angle_alpha 90.000000
_cell_angle_beta 57.837197
_cell_angle_gamma 90.000000
_cell_volume 3052.259419
_symmetry_space_group_name_H-M "C 2/M"
_symmetry_group_IT_number 12
_symmetry_cell_setting 'monoclinic'
loop_
_space_group_symop_operation_xyz
x,y,z
-x,y,-z
-x,-y,-z
x,-y,z
1/2+x,1/2+y,z
1/2-x,1/2+y,-z
1/2-x,1/2-y,-z
1/2+x,1/2-y,z
loop_
_atom_site_type_symbol
_atom_site_label
_atom_site_fract_x
_atom_site_fract_y
_atom_site_fract_z
Si Si1 0.179600 0.928154 0.913185
Si Si2 0.299878 0.692565 0.203139
Si Si3 0.685076 0.927160 0.960982
Si Si4 0.500000 0.500000 0.500000
Si Si5 0.373168 0.313083 0.820256
Si Si6 0.278141 0.620953 0.567022
Si Si7 0.996088 0.818129 0.384022
Si Si8 0.482315 0.826192 0.597288
O O1 0.205565 0.871926 0.845033
O O2 0.202964 0.000000 0.874193
O O3 0.287279 0.920006 0.955884
O O4 0.000000 0.924416 0.000000
O O5 0.480587 0.706892 0.170424
O O6 0.228046 0.751708 0.176344
O O7 0.192687 0.679630 0.312458
O O8 0.776181 0.870337 0.889392
O O9 0.740454 0.000000 0.923626
O O10 0.500000 0.923230 0.000000
O O11 0.365067 0.555333 0.558732
O O12 0.452598 0.337550 0.716598
O O13 0.352254 0.670262 0.606420
O O14 0.352429 0.641512 0.461829
O O15 0.091134 0.625222 0.613280
O O16 0.949328 0.744305 0.404910
O O17 0.500000 0.837678 0.500000
#
# Coordination Sequence:
#
# PCOD9189681 Si02
#       8
#     8   8   8   2   8   8   8   8
#     4  10  21  44  70  86 118 166 211 253 310 383
#     4  11  26  38  63  97 127 167 206 259 319 369
#     4  10  23  43  68  93 121 161 209 258 315 380
#     4   8  20  40  54  76 120 160 208 246 310 372
#     4  11  24  40  59  95 135 156 207 261 313 373
#     4  10  19  38  60  85 119 171 209 246 306 368
#     4   9  20  33  62  87 121 164 205 251 298 361
#     4  11  21  35  63  92 126 158 212 259 304 358
#
# _framework density 19.002317000000001
#
# number of rings (size 3 to 8) (size 9 to 14) (size 15 to 20)
#    0.000    1.931    2.759    1.241    9.655    1.103 
#    6.207    0.345    6.069    0.000    0.000    0.000 
#    0.000    0.000    0.000    0.000    0.000    0.000 
#
# Total GULP energy -161468.177044 kJ/mol
# GULP energy per Si atom -5567.868174 kJ/mol
# Density = 1.895907 g / cm^3
# Si number density = 19.002317 Si / 1000 Ang^3
#
#
#
# Elastic Constant Matrix: (Units=GPa)
#
#
# Indices 1 2 3 4 5 6 
#
# 1 120.5041 41.7934 24.9029 0.0000 -7.2596 0.0000
# 2 41.7934 107.7937 52.2835 0.0000 1.3949 0.0000
# 3 24.9029 52.2835 61.4023 0.0000 5.9714 0.0000
# 4 0.0000 0.0000 0.0000 17.1128 0.0000 -17.1564
# 5 -7.2596 1.3949 5.9714 0.0000 22.9033 0.0000
# 6 0.0000 0.0000 0.0000 -17.1564 0.0000 32.5048
#
#
#
# Elastic Compliance Matrix: (Units=1/GPa)
#
#
# Indices 1 2 3 4 5 6 
#
# 1 0.009955 -0.003017 -0.001840 0.000000 0.003819 0.000000
# 2 -0.003017 0.016872 -0.013287 0.000000 0.001480 0.000000
# 3 -0.001840 -0.013287 0.029061 0.000000 -0.007351 0.000000
# 4 0.000000 0.000000 0.000000 0.124109 0.000000 0.065506
# 5 0.003819 0.001480 -0.007351 0.000000 0.046699 0.000000
# 6 0.000000 0.000000 0.000000 0.065506 0.000000 0.065340
#
#
# Mechanical properties :
#
#
# Convention : Reuss Voigt Hill
#
# Bulk Modulus (GPa) = 51.01907 58.62886 54.82397
# Shear Modulus (GPa) = 14.93179 25.88553 20.40866
#
# Velocity S-wave (km/s) = 2.80623 3.69484 3.28076
# Velocity P-wave (km/s) = 6.11613 7.00878 6.57762
#
# Compressibility (1/GPa) = 0.01960051
#
# Stress axis : x y z
#
# Youngs Moduli (GPa) = 100.45150 59.26989 34.41038
#
# Poissons Ratio (x) = 0.17879 0.06333
# Poissons Ratio (y) = 0.30302 0.45721
# Poissons Ratio (z) = 0.18486 0.78751
#
# Static dielectric constant tensor:
#      x y z
#    x 1.754420 0.000000 -0.013190 
#    y 0.000000 1.629360 0.000000 
#    z -0.013190 0.000000 1.667120 
# 
# From -- ./inp_files/258480.got.cif
#   From: 2010.05.17/outbox.cif.g08.bks.cpg/sg12_130_cif.got.tgz:258480.got - 2010.06.03 13:09:07.
