data_PCOD9189630
_publ_section_title
;
Structure prediction by ZEFSAII (Michael W. Deem and Ramdas Pophale) SiO2 
 PCOD9189630
Probable space group: C 2/M
;
_chemical_formula_sum "Si O2"
_cell_formula_units_Z 52
_cell_length_a 14.166599
_cell_length_b 9.680450
_cell_length_c 17.706523
_cell_angle_alpha 90.000000
_cell_angle_beta 80.539352
_cell_angle_gamma 90.000000
_cell_volume 2395.228432
_symmetry_space_group_name_H-M "C 2/M"
_symmetry_group_IT_number 12
_symmetry_cell_setting 'monoclinic'
loop_
_space_group_symop_operation_xyz
x,y,z
-x,y,-z
-x,-y,-z
x,-y,z
1/2+x,1/2+y,z
1/2-x,1/2+y,-z
1/2-x,1/2-y,-z
1/2+x,1/2-y,z
loop_
_atom_site_type_symbol
_atom_site_label
_atom_site_fract_x
_atom_site_fract_y
_atom_site_fract_z
Si Si1 0.765042 0.000000 0.986826
Si Si2 0.891192 0.336449 0.667851
Si Si3 0.076361 0.664711 0.899323
Si Si4 0.884350 0.657733 0.378421
Si Si5 0.884421 0.842172 0.519879
Si Si6 0.739540 0.159501 0.756822
Si Si7 0.369418 0.236943 0.942606
O O1 0.820112 0.879425 0.930551
O O2 0.708658 0.881769 0.043958
O O3 0.871591 0.500000 0.665297
O O4 0.865408 0.254582 0.594213
O O5 0.827947 0.263722 0.740515
O O6 0.005521 0.318117 0.661255
O O7 0.083756 0.500000 0.918421
O O8 0.158666 0.693085 0.828953
O O9 0.968261 0.696851 0.888313
O O10 0.097602 0.745554 0.973286
O O11 0.882139 0.500000 0.408997
O O12 0.855218 0.765084 0.447002
O O13 0.817445 0.667268 0.314895
O O14 0.000000 0.850696 0.500000
O O15 0.848050 0.000000 0.532460
O O16 0.770365 0.000000 0.761793
#
# Coordination Sequence:
#
# PCOD9189630 Si02
#       7
#     4   8   8   8   8   8   8
#     4  10  20  34  60  96 110 136 182 248 270 334
#     4  10  20  37  56  83 113 145 186 238 284 330
#     4  10  19  38  58  78 112 162 180 226 283 342
#     4   9  19  37  56  79 110 147 187 232 281 336
#     4   9  17  31  58  84 108 141 186 234 284 332
#     4  10  22  39  56  79 113 155 193 221 279 343
#     4  10  19  38  60  85 117 140 190 230 283 327
#
# _framework density 21.709828999999999
#
# number of rings (size 3 to 8) (size 9 to 14) (size 15 to 20)
#    0.000    2.308    1.538    1.385    0.000    4.923 
#    8.308    0.000    0.000    0.000    0.000    0.000 
#    0.000    0.000    0.000    0.000    0.000    0.000 
#
# Total GULP energy -144744.902326 kJ/mol
# GULP energy per Si atom -5567.111628 kJ/mol
# Density = 2.166042 g / cm^3
# Si number density = 21.709829 Si / 1000 Ang^3
#
#
#
# Elastic Constant Matrix: (Units=GPa)
#
#
# Indices 1 2 3 4 5 6 
#
# 1 91.5574 39.0704 35.1342 0.0000 -28.0913 0.0000
# 2 39.0704 130.4469 30.6647 0.0000 -18.9493 0.0000
# 3 35.1342 30.6647 60.8143 0.0000 -30.7201 0.0000
# 4 0.0000 0.0000 0.0000 24.5114 0.0000 -21.3507
# 5 -28.0913 -18.9493 -30.7201 0.0000 44.2684 0.0000
# 6 0.0000 0.0000 0.0000 -21.3507 0.0000 5.0883
#
#
#
# Elastic Compliance Matrix: (Units=1/GPa)
#
#
# Indices 1 2 3 4 5 6 
#
# 1 0.015623 -0.002742 -0.004971 0.000000 0.005291 0.000000
# 2 -0.002742 0.009210 -0.002998 0.000000 0.000122 0.000000
# 3 -0.004971 -0.002998 0.028617 0.000000 0.015421 0.000000
# 4 0.000000 0.000000 0.000000 -0.015367 0.000000 -0.064478
# 5 0.005291 0.000122 0.015421 0.000000 0.036700 0.000000
# 6 0.000000 0.000000 0.000000 -0.064478 0.000000 -0.074023
#
#
# Mechanical properties :
#
#
# Convention : Reuss Voigt Hill
#
# Bulk Modulus (GPa) = 31.22313 54.72859 42.97586
# Shear Modulus (GPa) = 152.17066 26.63690 89.40378
#
# Velocity S-wave (km/s) = 8.38124 3.50659 6.42422
# Velocity P-wave (km/s) = 10.39584 6.45436 8.65252
#
# Compressibility (1/GPa) = 0.03202754
#
# Stress axis : x y z
#
# Youngs Moduli (GPa) = 64.00823 108.58056 34.94446
#
# Poissons Ratio (x) = 0.29776 0.17369
# Poissons Ratio (y) = 0.17553 0.10477
# Poissons Ratio (z) = 0.31815 0.32555
#
# Static dielectric constant tensor:
#      x y z
#    x 1.883190 0.000000 0.010240 
#    y 0.000000 1.747860 0.000000 
#    z 0.010240 0.000000 1.824480 
# 
# From -- ./inp_files/313251.got.cif
#   From: 2010.05.17/outbox.cif.g08.bks.cpg/sg12_157_cif.got.tgz:313251.got - 2010.06.03 13:09:07.
