data_PCOD9189218
_publ_section_title
;
Structure prediction by ZEFSAII (Michael W. Deem and Ramdas Pophale) SiO2 
 PCOD9189218
Probable space group: C 2/M
;
_chemical_formula_sum "Si O2"
_cell_formula_units_Z 44
_cell_length_a 12.672441
_cell_length_b 15.715750
_cell_length_c 18.788709
_cell_angle_alpha 90.000000
_cell_angle_beta 150.136287
_cell_angle_gamma 90.000000
_cell_volume 1863.237140
_symmetry_space_group_name_H-M "C 2/M"
_symmetry_group_IT_number 12
_symmetry_cell_setting 'monoclinic'
loop_
_space_group_symop_operation_xyz
x,y,z
-x,y,-z
-x,-y,-z
x,-y,z
1/2+x,1/2+y,z
1/2-x,1/2+y,-z
1/2-x,1/2-y,-z
1/2+x,1/2-y,z
loop_
_atom_site_type_symbol
_atom_site_label
_atom_site_fract_x
_atom_site_fract_y
_atom_site_fract_z
Si Si1 0.207950 0.128500 0.667371
Si Si2 0.278826 0.326721 0.729732
Si Si3 0.304686 0.679777 0.091450
Si Si4 0.908023 0.500000 0.681563
Si Si5 0.366122 0.500000 0.109750
Si Si6 0.198742 0.500000 0.721021
Si Si7 0.026593 0.000000 0.664583
Si Si8 0.500000 0.718346 0.000000
O O1 0.211131 0.228979 0.683867
O O2 0.162559 0.078938 0.713557
O O3 0.000000 0.110549 0.500000
O O4 0.381856 0.082791 0.717822
O O5 0.443528 0.332483 0.760802
O O6 0.126532 0.408120 0.646664
O O7 0.417187 0.333074 0.883827
O O8 0.228977 0.585786 0.027091
O O9 0.250000 0.750000 0.000000
O O10 0.193177 0.720267 0.092902
O O11 0.708461 0.500000 0.508574
O O12 0.118362 0.500000 0.755724
O O13 0.552636 0.500000 0.159501
O O14 0.471857 0.500000 0.250004
#
# Coordination Sequence:
#
# PCOD9189218 Si02
#       8
#     8   8   8   4   4   4   4   4
#     4   9  19  39  64  89 120 157 199 247 300 358
#     4  10  21  38  58  86 121 158 198 243 301 353
#     4   9  20  36  53  81 114 151 191 244 292 352
#     4   9  20  39  61  88 121 156 201 242 299 365
#     4  10  19  37  60  82 121 153 194 250 305 345
#     4  10  23  39  55  88 123 164 197 244 298 363
#     4   9  18  37  62  89 115 154 201 254 294 348
#     4  10  20  36  62  82 116 150 204 250 292 350
#
# _framework density 23.614815
#
# number of rings (size 3 to 8) (size 9 to 14) (size 15 to 20)
#    0.000    2.545    0.000    2.182    2.545    1.091 
#    6.545   10.000    0.000    0.000    0.000    0.000 
#    0.000    0.000    0.000    0.000    0.000    0.000 
#
# Total GULP energy -122553.434678 kJ/mol
# GULP energy per Si atom -5570.610667 kJ/mol
# Density = 2.356107 g / cm^3
# Si number density = 23.614815 Si / 1000 Ang^3
#
#
#
# Elastic Constant Matrix: (Units=GPa)
#
#
# Indices 1 2 3 4 5 6 
#
# 1 136.6387 46.9323 28.2541 0.0009 6.8510 0.0001
# 2 46.9323 212.8342 0.8605 0.0074 -6.9664 0.0001
# 3 28.2541 0.8605 56.5586 0.0107 -23.2358 0.0009
# 4 0.0009 0.0074 0.0107 -19.4820 0.0014 24.0901
# 5 6.8510 -6.9664 -23.2358 0.0014 20.3886 0.0003
# 6 0.0001 0.0001 0.0009 24.0901 0.0003 -1.1276
#
#
#
# Elastic Compliance Matrix: (Units=1/GPa)
#
#
# Indices 1 2 3 4 5 6 
#
# 1 0.013312 -0.003683 -0.016827 0.000001 -0.024908 0.000011
# 2 -0.003683 0.005808 0.005782 -0.000001 0.009812 -0.000005
# 3 -0.016827 0.005782 0.054782 -0.000004 0.070062 -0.000033
# 4 0.000001 -0.000001 -0.000004 0.002020 -0.000007 0.043144
# 5 -0.024908 0.009812 0.070062 -0.000007 0.140615 -0.000047
# 6 0.000011 -0.000005 -0.000033 0.043144 -0.000047 0.034891
#
#
# Mechanical properties :
#
#
# Convention : Reuss Voigt Hill
#
# Bulk Modulus (GPa) = 22.49825 62.01392 42.25609
# Shear Modulus (GPa) = 16.90913 21.95477 19.43195
#
# Velocity S-wave (km/s) = 2.67879 3.05241 2.87168
# Velocity P-wave (km/s) = 4.37216 6.22419 5.37849
#
# Compressibility (1/GPa) = 0.04444789
#
# Stress axis : x y z
#
# Youngs Moduli (GPa) = 75.12133 172.16633 18.25412
#
# Poissons Ratio (x) = 0.63403 0.30716
# Poissons Ratio (y) = 0.27665 -0.10555
# Poissons Ratio (z) = 1.26405 -0.99551
#
# Static dielectric constant tensor:
#      x y z
#    x 1.912890 0.000000 0.025290 
#    y 0.000000 2.072880 0.000000 
#    z 0.025290 0.000000 1.937920 
# 
# From -- ./inp_files/305582.got.cif
#   From: 2010.05.17/outbox.cif.g08.bks.cpg/sg12_153_cif.got.tgz:305582.got - 2010.06.03 13:09:07.
