data_PCOD9189407
_publ_section_title
;
Structure prediction by ZEFSAII (Michael W. Deem and Ramdas Pophale) SiO2 
 PCOD9189407
Probable space group: C 2/M
;
_chemical_formula_sum "Si O2"
_cell_formula_units_Z 48
_cell_length_a 22.201096
_cell_length_b 14.120653
_cell_length_c 13.584886
_cell_angle_alpha 90.000000
_cell_angle_beta 31.490384
_cell_angle_gamma 90.000000
_cell_volume 2224.596916
_symmetry_space_group_name_H-M "C 2/M"
_symmetry_group_IT_number 12
_symmetry_cell_setting 'monoclinic'
loop_
_space_group_symop_operation_xyz
x,y,z
-x,y,-z
-x,-y,-z
x,-y,z
1/2+x,1/2+y,z
1/2-x,1/2+y,-z
1/2-x,1/2-y,-z
1/2+x,1/2-y,z
loop_
_atom_site_type_symbol
_atom_site_label
_atom_site_fract_x
_atom_site_fract_y
_atom_site_fract_z
Si Si1 0.495990 0.636384 0.119194
Si Si2 0.249789 0.142059 0.463818
Si Si3 0.003556 0.635232 0.880440
Si Si4 0.329393 0.609022 0.953105
Si Si5 0.248714 0.394519 0.771162
Si Si6 0.617855 0.755260 0.283060
O O1 0.373028 0.603404 0.332207
O O2 0.498210 0.750926 0.119177
O O3 0.602429 0.606149 0.038590
O O4 0.500000 0.608700 0.000000
O O5 0.250000 0.250000 0.500000
O O6 0.372376 0.103631 0.332476
O O7 0.255447 0.132949 0.338082
O O8 0.882413 0.603688 0.005454
O O9 0.000000 0.605773 0.000000
O O10 0.323842 0.500000 0.923626
O O11 0.398115 0.684574 0.788268
O O12 0.203599 0.658062 0.138369
O O13 0.298828 0.500000 0.710070
O O14 0.316484 0.314022 0.733020
O O15 0.500000 0.785253 0.500000
#
# Coordination Sequence:
#
# PCOD9189407 Si02
#       6
#     8   8   8   8   8   8
#     4  10  19  37  62  89 126 173 210 255 317 386
#     4   9  19  32  57  89 127 170 207 261 314 385
#     4   8  16  32  53  86 125 160 199 255 318 373
#     4  11  25  45  68  98 133 171 221 275 330 395
#     4  11  21  37  64  94 125 164 216 270 328 387
#     4  11  25  45  70  95 129 173 221 280 336 380
#
# _framework density 21.576943
#
# number of rings (size 3 to 8) (size 9 to 14) (size 15 to 20)
#    0.000    2.000    1.667    2.500    0.000    7.000 
#    0.000    0.000    0.000    4.000    0.000    0.000 
#    0.000    0.000    0.000    0.000    0.000    0.000 
#
# Total GULP energy -133917.169601 kJ/mol
# GULP energy per Si atom -5579.882067 kJ/mol
# Density = 2.152783 g / cm^3
# Si number density = 21.576943 Si / 1000 Ang^3
#
#
#
# Elastic Constant Matrix: (Units=GPa)
#
#
# Indices 1 2 3 4 5 6 
#
# 1 84.3947 6.7805 22.3755 0.0000 5.0279 0.0000
# 2 6.7805 136.3710 13.5062 0.0000 2.3140 0.0000
# 3 22.3755 13.5062 113.1729 0.0000 -5.6792 0.0000
# 4 0.0000 0.0000 0.0000 -38.8860 0.0000 -7.6742
# 5 5.0279 2.3140 -5.6792 0.0000 25.6863 0.0000
# 6 0.0000 0.0000 0.0000 -7.6742 0.0000 89.7313
#
#
#
# Elastic Compliance Matrix: (Units=1/GPa)
#
#
# Indices 1 2 3 4 5 6 
#
# 1 0.012756 -0.000321 -0.002637 0.000000 -0.003051 0.000000
# 2 -0.000321 0.007448 -0.000865 0.000000 -0.000799 0.000000
# 3 -0.002637 -0.000865 0.009597 0.000000 0.002716 0.000000
# 4 0.000000 0.000000 0.000000 -0.025289 0.000000 -0.002163
# 5 -0.003051 -0.000799 0.002716 0.000000 0.040201 0.000000
# 6 0.000000 0.000000 0.000000 -0.002163 0.000000 0.010959
#
#
# Mechanical properties :
#
#
# Convention : Reuss Voigt Hill
#
# Bulk Modulus (GPa) = 45.13885 46.58479 45.86182
# Shear Modulus (GPa) = 70.71797 34.72475 52.72136
#
# Velocity S-wave (km/s) = 5.73114 4.01602 4.94845
# Velocity P-wave (km/s) = 8.04736 6.56822 7.34511
#
# Compressibility (1/GPa) = 0.02215387
#
# Stress axis : x y z
#
# Youngs Moduli (GPa) = 78.39620 134.26069 104.20011
#
# Poissons Ratio (x) = 0.04314 0.27474
# Poissons Ratio (y) = 0.02519 0.09018
# Poissons Ratio (z) = 0.20671 0.11620
#
# Static dielectric constant tensor:
#      x y z
#    x 1.593920 0.000000 -0.194290 
#    y 0.000000 1.816870 0.000000 
#    z -0.194290 0.000000 1.651230 
# 
# From -- ./inp_files/240596.got.cif
#   From: 2010.05.17/outbox.cif.g08.bks.cpg/sg12_121_cif.got.tgz:240596.got - 2010.06.03 13:09:07.
