data_PCOD9189825
_publ_section_title
;
Structure prediction by ZEFSAII (Michael W. Deem and Ramdas Pophale) SiO2 
 PCOD9189825
Probable space group: C 2/M
;
_chemical_formula_sum "Si O2"
_cell_formula_units_Z 64
_cell_length_a 17.942408
_cell_length_b 29.486378
_cell_length_c 12.810822
_cell_angle_alpha 90.000000
_cell_angle_beta 28.425495
_cell_angle_gamma 90.000000
_cell_volume 3226.267117
_symmetry_space_group_name_H-M "C 2/M"
_symmetry_group_IT_number 12
_symmetry_cell_setting 'monoclinic'
loop_
_space_group_symop_operation_xyz
x,y,z
-x,y,-z
-x,-y,-z
x,-y,z
1/2+x,1/2+y,z
1/2-x,1/2+y,-z
1/2-x,1/2-y,-z
1/2+x,1/2-y,z
loop_
_atom_site_type_symbol
_atom_site_label
_atom_site_fract_x
_atom_site_fract_y
_atom_site_fract_z
Si Si1 0.975695 0.826246 0.354188
Si Si2 0.798003 0.552862 0.492898
Si Si3 0.674456 0.609797 0.833939
Si Si4 0.102726 0.793208 0.978285
Si Si5 0.971313 0.072753 0.789199
Si Si6 0.953586 0.613600 0.937503
Si Si7 0.749255 0.803666 0.820599
Si Si8 0.164527 0.049842 0.251696
O O1 0.978191 0.879222 0.323044
O O2 0.123696 0.814221 0.245832
O O3 0.826854 0.815064 0.611375
O O4 0.999160 0.803344 0.210544
O O5 0.849008 0.500000 0.441477
O O6 0.773304 0.580382 0.631305
O O7 0.629922 0.551998 0.640646
O O8 0.915346 0.585307 0.285138
O O9 0.708353 0.662009 0.822776
O O10 0.500000 0.613276 0.000000
O O11 0.649363 0.582404 0.969931
O O12 0.202967 0.748727 0.877060
O O13 0.000000 0.785353 0.000000
O O14 0.874960 0.047036 0.820793
O O15 0.000000 0.614008 0.000000
O O16 0.902731 0.664763 0.971353
O O17 0.796120 0.585116 0.115300
O O18 0.000000 0.065237 0.500000
O O19 0.203001 0.000000 0.247516
#
# Coordination Sequence:
#
# PCOD9189825 Si02
#       8
#     8   8   8   8   8   8   8   8
#     4  10  21  39  62  89 122 165 217 267 309 378
#     4  11  23  39  62  94 128 165 210 265 328 381
#     4   8  19  38  61  88 121 160 205 260 307 368
#     4  10  21  37  61  95 127 161 212 266 320 383
#     4  10  19  38  64  86 117 159 210 256 301 374
#     4  12  25  39  58  87 125 160 202 266 326 372
#     4  11  22  38  63  89 124 172 212 260 325 388
#     4  11  22  36  57  82 110 153 202 247 302 372
#
# _framework density 19.837167999999998
#
# number of rings (size 3 to 8) (size 9 to 14) (size 15 to 20)
#    0.000    1.625    1.250    4.500    0.000    6.250 
#    0.000    0.625    0.000    1.500    0.000    0.000 
#    0.000    0.000    0.000    0.000    0.000    0.000 
#
# Total GULP energy -178494.122597 kJ/mol
# GULP energy per Si atom -5577.941331 kJ/mol
# Density = 1.979202 g / cm^3
# Si number density = 19.837168 Si / 1000 Ang^3
#
#
#
# Elastic Constant Matrix: (Units=GPa)
#
#
# Indices 1 2 3 4 5 6 
#
# 1 84.7535 -5.5871 75.5793 -0.0045 -0.7050 0.0152
# 2 -5.5871 317.0158 -226.3785 0.0211 82.0127 -0.0454
# 3 75.5793 -226.3785 430.4933 -0.0275 -96.6538 0.1018
# 4 -0.0045 0.0211 -0.0275 -1.5352 0.0073 -5.7874
# 5 -0.7050 82.0127 -96.6538 0.0073 53.0979 -0.0331
# 6 0.0152 -0.0454 0.1018 -5.7874 -0.0331 42.0265
#
#
#
# Elastic Compliance Matrix: (Units=1/GPa)
#
#
# Indices 1 2 3 4 5 6 
#
# 1 0.016362 -0.001764 -0.005310 -0.000005 -0.006723 -0.000001
# 2 -0.001764 0.006178 0.002386 0.000021 -0.005223 0.000000
# 3 -0.005310 0.002386 0.006201 -0.000006 0.007531 -0.000005
# 4 -0.000005 0.000021 -0.000006 -0.428791 -0.000022 -0.059048
# 5 -0.006723 -0.005223 0.007531 -0.000022 0.040521 0.000007
# 6 -0.000001 0.000000 -0.000005 -0.059048 0.000007 0.015663
#
#
# Mechanical properties :
#
#
# Convention : Reuss Voigt Hill
#
# Bulk Modulus (GPa) = 51.63790 57.72113 54.67952
# Shear Modulus (GPa) = -15.24218 84.62777 34.69279
#
# Velocity S-wave (km/s) = -2.77495 6.53864 4.18650
# Velocity P-wave (km/s) = 3.97747 9.28255 7.14094
#
# Compressibility (1/GPa) = 0.01936562
#
# Stress axis : x y z
#
# Youngs Moduli (GPa) = 61.11900 161.85662 161.27341
#
# Poissons Ratio (x) = 0.28548 0.85629
# Poissons Ratio (y) = 0.10780 -0.38478
# Poissons Ratio (z) = 0.32451 -0.38617
#
# Static dielectric constant tensor:
#      x y z
#    x 1.601700 0.000010 -0.023550 
#    y 0.000010 1.738830 0.000000 
#    z -0.023550 0.000000 1.685010 
# 
# From -- ./inp_files/161193.got.cif
#   From: 2010.05.17/outbox.cif.g08.bks.cpg/sg12_81_cif.got.tgz:161193.got - 2010.06.03 13:09:07.
