data_PCOD9189792
_publ_section_title
;
Structure prediction by ZEFSAII (Michael W. Deem and Ramdas Pophale) SiO2 
 PCOD9189792
Probable space group: C 2/M
;
_chemical_formula_sum "Si O2"
_cell_formula_units_Z 56
_cell_length_a 11.266148
_cell_length_b 15.289934
_cell_length_c 16.947702
_cell_angle_alpha 90.000000
_cell_angle_beta 72.610710
_cell_angle_gamma 90.000000
_cell_volume 2785.961310
_symmetry_space_group_name_H-M "C 2/M"
_symmetry_group_IT_number 12
_symmetry_cell_setting 'monoclinic'
loop_
_space_group_symop_operation_xyz
x,y,z
-x,y,-z
-x,-y,-z
x,-y,z
1/2+x,1/2+y,z
1/2-x,1/2+y,-z
1/2-x,1/2-y,-z
1/2+x,1/2-y,z
loop_
_atom_site_type_symbol
_atom_site_label
_atom_site_fract_x
_atom_site_fract_y
_atom_site_fract_z
Si Si1 0.710390 0.402089 0.313160
Si Si2 0.742947 0.400826 0.659288
Si Si3 0.580050 0.713399 0.908961
Si Si4 0.985692 0.176518 0.755095
Si Si5 0.570328 0.095459 0.851333
Si Si6 0.659582 0.852438 0.194259
Si Si7 0.645886 0.250961 0.451386
O O1 0.703756 0.500000 0.348307
O O2 0.610418 0.391749 0.262462
O O3 0.841219 0.390717 0.242575
O O4 0.684739 0.327007 0.381814
O O5 0.721909 0.500000 0.635807
O O6 0.615930 0.343830 0.686624
O O7 0.790701 0.402640 0.739694
O O8 0.840109 0.344693 0.590335
O O9 0.514930 0.676583 0.842418
O O10 0.585267 0.819011 0.901397
O O11 0.721385 0.681351 0.877544
O O12 0.500000 0.687531 0.000000
O O13 0.919560 0.269979 0.756515
O O14 0.431579 0.097129 0.845137
O O15 0.599919 0.000000 0.879979
O O16 0.500000 0.265677 0.500000
O O17 0.750000 0.250000 0.500000
#
# Coordination Sequence:
#
# PCOD9189792 Si02
#       7
#     8   8   8   8   8   8   8
#     4  11  22  42  68  92 122 168 217 263 313 385
#     4  11  23  40  66  92 123 165 213 260 310 380
#     4  10  21  36  62  89 128 169 209 256 326 380
#     4  10  19  38  65  92 121 163 219 262 305 372
#     4  10  21  36  60  90 121 159 213 263 306 367
#     4  10  19  38  63  87 119 164 216 253 311 370
#     4  12  27  43  65  96 137 170 207 269 336 396
#
# _framework density 20.100783
#
# number of rings (size 3 to 8) (size 9 to 14) (size 15 to 20)
#    0.000    1.429    2.857    3.429    2.000    3.714 
#    0.000    0.000    0.000   14.571    0.000    0.000 
#    0.000    0.000    0.000    0.000    0.000    0.000 
#
# Total GULP energy -156247.867976 kJ/mol
# GULP energy per Si atom -5580.280999 kJ/mol
# Density = 2.005503 g / cm^3
# Si number density = 20.100783 Si / 1000 Ang^3
#
#
#
# Elastic Constant Matrix: (Units=GPa)
#
#
# Indices 1 2 3 4 5 6 
#
# 1 117.3818 25.8269 34.2148 0.0000 -17.2724 0.0000
# 2 25.8269 97.5335 39.3517 0.0000 -13.9663 0.0000
# 3 34.2148 39.3517 63.8374 0.0000 -8.4465 0.0000
# 4 0.0000 0.0000 0.0000 6.2082 0.0000 11.1228
# 5 -17.2724 -13.9663 -8.4465 0.0000 13.9228 0.0000
# 6 0.0000 0.0000 0.0000 11.1228 0.0000 -18.6570
#
#
#
# Elastic Compliance Matrix: (Units=1/GPa)
#
#
# Indices 1 2 3 4 5 6 
#
# 1 0.011611 0.000687 -0.005056 0.000000 0.012027 0.000000
# 2 0.000687 0.014903 -0.008116 0.000000 0.010879 0.000000
# 3 -0.005056 -0.008116 0.023344 0.000000 -0.000251 0.000000
# 4 0.000000 0.000000 0.000000 0.077886 0.000000 0.046434
# 5 0.012027 0.010879 -0.000251 0.000000 0.097506 0.000000
# 6 0.000000 0.000000 0.000000 0.046434 0.000000 -0.025917
#
#
# Mechanical properties :
#
#
# Convention : Reuss Voigt Hill
#
# Bulk Modulus (GPa) = 40.17621 53.05994 46.61807
# Shear Modulus (GPa) = 21.49622 12.25208 16.87415
#
# Velocity S-wave (km/s) = 3.27375 2.47155 2.90052
# Velocity P-wave (km/s) = 5.85839 5.88209 5.87025
#
# Compressibility (1/GPa) = 0.02489035
#
# Stress axis : x y z
#
# Youngs Moduli (GPa) = 86.12225 67.09991 42.83731
#
# Poissons Ratio (x) = -0.04612 0.21657
# Poissons Ratio (y) = -0.05920 0.34766
# Poissons Ratio (z) = 0.43541 0.54457
#
# Static dielectric constant tensor:
#      x y z
#    x 1.732510 0.000000 0.000210 
#    y 0.000000 1.734990 0.000000 
#    z 0.000210 0.000000 1.697530 
# 
# From -- ./inp_files/262835.got.cif
#   From: 2010.05.17/outbox.cif.g08.bks.cpg/sg12_132_cif.got.tgz:262835.got - 2010.06.03 13:09:07.
