data_PCOD9189959
_publ_section_title
;
Structure prediction by ZEFSAII (Michael W. Deem and Ramdas Pophale) SiO2 
 PCOD9189959
Probable space group: C 2/M
;
_chemical_formula_sum "Si O2"
_cell_formula_units_Z 64
_cell_length_a 17.473508
_cell_length_b 18.876483
_cell_length_c 19.583474
_cell_angle_alpha 90.000000
_cell_angle_beta 27.345135
_cell_angle_gamma 90.000000
_cell_volume 2967.113069
_symmetry_space_group_name_H-M "C 2/M"
_symmetry_group_IT_number 12
_symmetry_cell_setting 'monoclinic'
loop_
_space_group_symop_operation_xyz
x,y,z
-x,y,-z
-x,-y,-z
x,-y,z
1/2+x,1/2+y,z
1/2-x,1/2+y,-z
1/2-x,1/2-y,-z
1/2+x,1/2-y,z
loop_
_atom_site_type_symbol
_atom_site_label
_atom_site_fract_x
_atom_site_fract_y
_atom_site_fract_z
Si Si1 0.814018 0.081248 0.141518
Si Si2 0.375031 0.182112 0.313252
Si Si3 0.486369 0.662632 0.795008
Si Si4 0.837671 0.418913 0.954173
Si Si5 0.479958 0.170385 0.653041
Si Si6 0.183472 0.580088 0.866238
Si Si7 0.779671 0.420186 0.626621
Si Si8 0.989299 0.826843 0.628577
O O1 0.681499 0.123949 0.202735
O O2 0.741343 0.081693 0.275773
O O3 0.828404 0.000000 0.106401
O O4 0.000000 0.111442 0.000000
O O5 0.451134 0.259037 0.231774
O O6 0.404525 0.179432 0.371942
O O7 0.179929 0.172904 0.451513
O O8 0.484110 0.117576 0.198304
O O9 0.300773 0.637753 0.960988
O O10 0.605688 0.603640 0.732316
O O11 0.501047 0.660735 0.701155
O O12 0.826931 0.500000 0.935562
O O13 0.805217 0.424279 0.060838
O O14 0.587602 0.132738 0.509983
O O15 0.424664 0.246999 0.671842
O O16 0.180913 0.500000 0.839617
O O17 0.348053 0.621267 0.711621
O O18 0.000000 0.613077 0.000000
O O19 0.825380 0.500000 0.570018
#
# Coordination Sequence:
#
# PCOD9189959 Si02
#       8
#     8   8   8   8   8   8   8   8
#     4  10  24  42  57  83 122 160 203 250 290 345
#     4  11  21  38  60  88 125 153 188 257 310 343
#     4  10  19  39  59  85 118 160 195 239 296 353
#     4  10  22  36  57  90 119 149 199 244 293 360
#     4  11  21  39  58  84 122 157 197 241 297 357
#     4   9  20  42  64  82 115 157 195 241 297 361
#     4  11  21  37  62  84 117 163 205 241 292 354
#     4  10  20  39  62  89 117 149 197 246 294 360
#
# _framework density 21.569787999999999
#
# number of rings (size 3 to 8) (size 9 to 14) (size 15 to 20)
#    0.000    1.750    2.500    2.250    1.750    3.500 
#    2.250    0.625    0.000    2.250    0.000    0.000 
#    0.000    0.000    0.000    0.000    0.000    0.000 
#
# Total GULP energy -178698.442249 kJ/mol
# GULP energy per Si atom -5584.326320 kJ/mol
# Density = 2.152069 g / cm^3
# Si number density = 21.569788 Si / 1000 Ang^3
#
#
#
# Elastic Constant Matrix: (Units=GPa)
#
#
# Indices 1 2 3 4 5 6 
#
# 1 28.1071 13.5082 9.4378 0.0014 -10.5838 -0.0030
# 2 13.5082 97.1812 44.2874 -0.0010 -14.1459 -0.0051
# 3 9.4378 44.2874 107.5041 -0.0006 -34.8542 -0.0123
# 4 0.0014 -0.0010 -0.0006 49.1951 -0.0006 1.5767
# 5 -10.5838 -14.1459 -34.8542 -0.0006 43.0792 0.0050
# 6 -0.0030 -0.0051 -0.0123 1.5767 0.0050 5.7889
#
#
#
# Elastic Compliance Matrix: (Units=1/GPa)
#
#
# Indices 1 2 3 4 5 6 
#
# 1 0.041131 -0.005039 0.001633 -0.000002 0.009772 0.000012
# 2 -0.005039 0.013286 -0.005447 0.000000 -0.001282 -0.000001
# 3 0.001633 -0.005447 0.014847 0.000000 0.010625 0.000019
# 4 -0.000002 0.000000 0.000000 0.020506 0.000000 -0.005585
# 5 0.009772 -0.001282 0.010625 0.000000 0.033789 -0.000003
# 6 0.000012 -0.000001 0.000019 -0.005585 -0.000003 0.174266
#
#
# Mechanical properties :
#
#
# Convention : Reuss Voigt Hill
#
# Bulk Modulus (GPa) = 19.39509 40.80657 30.10083
# Shear Modulus (GPa) = 15.02778 30.64993 22.83885
#
# Velocity S-wave (km/s) = 2.64238 3.77366 3.25751
# Velocity P-wave (km/s) = 4.28029 6.16010 5.30413
#
# Compressibility (1/GPa) = 0.05155944
#
# Stress axis : x y z
#
# Youngs Moduli (GPa) = 24.31241 75.26735 67.35301
#
# Poissons Ratio (x) = 0.37928 -0.11000
# Poissons Ratio (y) = 0.12251 0.36684
# Poissons Ratio (z) = -0.03971 0.40994
#
# Static dielectric constant tensor:
#      x y z
#    x 1.818050 0.000000 -0.012260 
#    y 0.000000 1.780330 0.000010 
#    z -0.012260 0.000010 1.790260 
# 
# From -- ./inp_files/326070.got.cif
#   From: 2010.05.17/outbox.cif.g08.bks.cpg/sg12_164_cif.got.tgz:326070.got - 2010.06.03 13:09:07.
