data_PCOD9189178
_publ_section_title
;
Structure prediction by ZEFSAII (Michael W. Deem and Ramdas Pophale) SiO2 
 PCOD9189178
Probable space group: C 2/M
;
_chemical_formula_sum "Si O2"
_cell_formula_units_Z 44
_cell_length_a 8.662806
_cell_length_b 24.131644
_cell_length_c 13.079126
_cell_angle_alpha 90.000000
_cell_angle_beta 128.246186
_cell_angle_gamma 90.000000
_cell_volume 2147.296280
_symmetry_space_group_name_H-M "C 2/M"
_symmetry_group_IT_number 12
_symmetry_cell_setting 'monoclinic'
loop_
_space_group_symop_operation_xyz
x,y,z
-x,y,-z
-x,-y,-z
x,-y,z
1/2+x,1/2+y,z
1/2-x,1/2+y,-z
1/2-x,1/2-y,-z
1/2+x,1/2-y,z
loop_
_atom_site_type_symbol
_atom_site_label
_atom_site_fract_x
_atom_site_fract_y
_atom_site_fract_z
Si Si1 0.356962 0.204638 0.780708
Si Si2 0.236277 0.000000 0.091517
Si Si3 0.000000 0.206285 0.000000
Si Si4 0.203587 0.620523 0.647851
Si Si5 0.923470 0.778498 0.634473
Si Si6 0.664851 0.122344 0.880203
Si Si7 0.203641 0.500000 0.646137
O O1 0.396987 0.250812 0.881779
O O2 0.472769 0.229342 0.732112
O O3 0.461629 0.146311 0.840872
O O4 0.124764 0.203099 0.663958
O O5 0.296900 0.940761 0.070364
O O6 0.324243 0.000000 0.242898
O O7 0.000000 0.000000 0.000000
O O8 0.160714 0.164784 0.016459
O O9 0.336540 0.670337 0.662520
O O10 0.169701 0.622843 0.756584
O O11 0.296581 0.559938 0.662098
O O12 0.000000 0.624595 0.500000
O O13 0.750000 0.750000 0.500000
O O14 0.000000 0.500000 0.500000
#
# Coordination Sequence:
#
# PCOD9189178 Si02
#       7
#     8   4   4   8   8   8   4
#     4  12  24  38  57  87 120 158 193 243 299 365
#     4  10  20  36  63  89 115 156 203 257 292 349
#     4  12  22  39  60  83 122 154 202 230 302 358
#     4  10  19  37  59  85 114 149 194 244 292 353
#     4  12  23  37  58  87 119 154 194 247 306 352
#     4  11  22  39  62  88 118 156 201 245 296 354
#     4   8  18  34  57  82 110 149 199 241 288 354
#
# _framework density 20.490886
#
# number of rings (size 3 to 8) (size 9 to 14) (size 15 to 20)
#    0.000    1.091    4.545    3.273    0.000    0.000 
#    0.000    0.909    0.000    0.545    0.000   10.182 
#    0.000    0.000    0.000    0.000    0.000    0.000 
#
# Total GULP energy -122660.375953 kJ/mol
# GULP energy per Si atom -5575.471634 kJ/mol
# Density = 2.044425 g / cm^3
# Si number density = 20.490886 Si / 1000 Ang^3
#
#
#
# Elastic Constant Matrix: (Units=GPa)
#
#
# Indices 1 2 3 4 5 6 
#
# 1 71.0386 43.2278 17.2260 0.0000 32.4714 0.0000
# 2 43.2278 196.5512 21.8724 0.0000 21.5560 0.0000
# 3 17.2260 21.8724 66.3325 0.0000 18.7109 0.0000
# 4 0.0000 0.0000 0.0000 21.9079 0.0000 4.6542
# 5 32.4714 21.5560 18.7109 0.0000 28.1000 0.0000
# 6 0.0000 0.0000 0.0000 4.6542 0.0000 28.6683
#
#
#
# Elastic Compliance Matrix: (Units=1/GPa)
#
#
# Indices 1 2 3 4 5 6 
#
# 1 0.032098 -0.003396 0.003093 0.000000 -0.036546 0.000000
# 2 -0.003396 0.005947 -0.001107 0.000000 0.000099 0.000000
# 3 0.003093 -0.001107 0.018969 0.000000 -0.015356 0.000000
# 4 0.000000 0.000000 0.000000 0.047276 0.000000 -0.007675
# 5 -0.036546 0.000099 -0.015356 0.000000 0.087968 0.000000
# 6 0.000000 0.000000 0.000000 -0.007675 0.000000 0.036128
#
#
# Mechanical properties :
#
#
# Convention : Reuss Voigt Hill
#
# Bulk Modulus (GPa) = 18.45203 55.39719 36.92461
# Shear Modulus (GPa) = 20.05860 32.50832 26.28346
#
# Velocity S-wave (km/s) = 3.13214 3.98738 3.58535
# Velocity P-wave (km/s) = 4.70159 6.94929 5.93286
#
# Compressibility (1/GPa) = 0.05419459
#
# Stress axis : x y z
#
# Youngs Moduli (GPa) = 31.15441 168.15614 52.71799
#
# Poissons Ratio (x) = 0.57098 -0.16305
# Poissons Ratio (y) = 0.10578 0.05836
# Poissons Ratio (z) = -0.09636 0.18615
#
# Static dielectric constant tensor:
#      x y z
#    x 1.725500 0.000000 -0.041760 
#    y 0.000000 1.756280 0.000000 
#    z -0.041760 0.000000 1.807900 
# 
# From -- ./inp_files/198633.got.cif
#   From: 2010.05.17/outbox.cif.g08.bks.cpg/sg12_100_cif.got.tgz:198633.got - 2010.06.03 13:09:07.
