data_PCOD9189142
_publ_section_title
;
Structure prediction by ZEFSAII (Michael W. Deem and Ramdas Pophale) SiO2 
 PCOD9189142
Probable space group: C 2/M
;
_chemical_formula_sum "Si O2"
_cell_formula_units_Z 36
_cell_length_a 26.695219
_cell_length_b 9.892084
_cell_length_c 14.820148
_cell_angle_alpha 90.000000
_cell_angle_beta 151.780153
_cell_angle_gamma 90.000000
_cell_volume 1850.558179
_symmetry_space_group_name_H-M "C 2/M"
_symmetry_group_IT_number 12
_symmetry_cell_setting 'monoclinic'
loop_
_space_group_symop_operation_xyz
x,y,z
-x,y,-z
-x,-y,-z
x,-y,z
1/2+x,1/2+y,z
1/2-x,1/2+y,-z
1/2-x,1/2-y,-z
1/2+x,1/2-y,z
loop_
_atom_site_type_symbol
_atom_site_label
_atom_site_fract_x
_atom_site_fract_y
_atom_site_fract_z
Si Si1 0.433792 0.158498 0.030774
Si Si2 0.697050 0.500000 0.902317
Si Si3 0.912649 0.000000 0.444393
Si Si4 0.331079 0.156177 0.681784
Si Si5 0.541109 0.712554 0.743779
Si Si6 0.557169 0.000000 0.684939
O O1 0.553026 0.162960 0.180376
O O2 0.431589 0.265169 0.108520
O O3 0.415732 0.000000 0.028436
O O4 0.352858 0.191101 0.821211
O O5 0.690314 0.500000 0.781853
O O6 0.636033 0.630858 0.845371
O O7 0.816547 0.500000 0.122932
O O8 0.000000 0.000000 0.500000
O O9 0.938524 0.873172 0.549234
O O10 0.250000 0.250000 0.500000
O O11 0.295673 0.000000 0.622057
O O12 0.526644 0.862986 0.685807
O O13 0.500000 0.000000 0.500000
#
# Coordination Sequence:
#
# PCOD9189142 Si02
#       6
#     8   4   4   8   8   4
#     4   9  18  38  60  82 114 150 179 228 278 332
#     4  10  22  40  54  78 118 151 178 232 291 322
#     4   8  18  38  56  72 113 151 173 226 286 322
#     4   9  19  39  60  81 117 149 180 221 283 337
#     4  10  19  37  58  82 108 143 194 227 272 333
#     4  12  22  36  58  81 109 147 193 228 275 330
#
# _framework density 19.453589000000001
#
# number of rings (size 3 to 8) (size 9 to 14) (size 15 to 20)
#    0.000    2.667    1.111    4.000    0.000    0.000 
#   16.000    1.111    0.000    0.000    0.000    0.000 
#    0.000    0.000    0.000    0.000    0.000    0.000 
#
# Total GULP energy -100347.067519 kJ/mol
# GULP energy per Si atom -5574.837084 kJ/mol
# Density = 1.940931 g / cm^3
# Si number density = 19.453589 Si / 1000 Ang^3
#
#
#
# Elastic Constant Matrix: (Units=GPa)
#
#
# Indices 1 2 3 4 5 6 
#
# 1 44.3277 44.0993 49.8238 0.0000 -31.4316 0.0000
# 2 44.0993 136.4808 74.0166 0.0000 -30.5244 0.0000
# 3 49.8238 74.0166 185.2795 0.0000 -39.0145 0.0000
# 4 0.0000 0.0000 0.0000 31.9061 0.0000 -17.3193
# 5 -31.4316 -30.5244 -39.0145 0.0000 36.6453 0.0000
# 6 0.0000 0.0000 0.0000 -17.3193 0.0000 25.0510
#
#
#
# Elastic Compliance Matrix: (Units=1/GPa)
#
#
# Indices 1 2 3 4 5 6 
#
# 1 0.072732 -0.009686 -0.005480 0.000000 0.048481 0.000000
# 2 -0.009686 0.011384 -0.002186 0.000000 -0.001152 0.000000
# 3 -0.005480 -0.002186 0.008212 0.000000 0.002222 0.000000
# 4 0.000000 0.000000 0.000000 0.050170 0.000000 0.034686
# 5 0.048481 -0.001152 0.002222 0.000000 0.070278 0.000000
# 6 0.000000 0.000000 0.000000 0.034686 0.000000 0.063899
#
#
# Mechanical properties :
#
#
# Convention : Reuss Voigt Hill
#
# Bulk Modulus (GPa) = 17.35383 77.99639 47.67511
# Shear Modulus (GPa) = 15.12462 31.93037 23.52749
#
# Velocity S-wave (km/s) = 2.79134 4.05577 3.48144
# Velocity P-wave (km/s) = 4.39645 7.88118 6.38129
#
# Compressibility (1/GPa) = 0.05762417
#
# Stress axis : x y z
#
# Youngs Moduli (GPa) = 13.74917 87.83885 121.77300
#
# Poissons Ratio (x) = 0.85078 0.66735
# Poissons Ratio (y) = 0.13317 0.26619
# Poissons Ratio (z) = 0.07535 0.19201
#
# Static dielectric constant tensor:
#      x y z
#    x 1.732800 0.000000 -0.003490 
#    y 0.000000 1.650720 0.000000 
#    z -0.003490 0.000000 1.728650 
# 
# From -- ./inp_files/244988.got.cif
#   From: 2010.05.17/outbox.cif.g08.bks.cpg/sg12_123_cif.got.tgz:244988.got - 2010.06.03 13:09:07.
