data_PCOD9189414
_publ_section_title
;
Structure prediction by ZEFSAII (Michael W. Deem and Ramdas Pophale) SiO2 
 PCOD9189414
Probable space group: C 2/M
;
_chemical_formula_sum "Si O2"
_cell_formula_units_Z 34
_cell_length_a 14.316153
_cell_length_b 7.863214
_cell_length_c 15.319540
_cell_angle_alpha 90.000000
_cell_angle_beta 130.054085
_cell_angle_gamma 90.000000
_cell_volume 1320.023896
_symmetry_space_group_name_H-M "C 2/M"
_symmetry_group_IT_number 12
_symmetry_cell_setting 'monoclinic'
loop_
_space_group_symop_operation_xyz
x,y,z
-x,y,-z
-x,-y,-z
x,-y,z
1/2+x,1/2+y,z
1/2-x,1/2+y,-z
1/2-x,1/2-y,-z
1/2+x,1/2-y,z
loop_
_atom_site_type_symbol
_atom_site_label
_atom_site_fract_x
_atom_site_fract_y
_atom_site_fract_z
Si Si1 0.869989 0.195343 0.723377
Si Si2 0.500000 0.500000 0.500000
Si Si3 0.559565 0.807260 0.414971
Si Si4 0.580537 0.191559 0.959228
Si Si5 0.776179 0.699191 0.199713
O O1 0.788373 0.272221 0.752210
O O2 0.864777 0.287473 0.628357
O O3 0.007521 0.198626 0.845594
O O4 0.834712 0.000000 0.688008
O O5 0.573389 0.652818 0.489965
O O6 0.419066 0.783820 0.298032
O O7 0.572687 0.000000 0.457628
O O8 0.575265 0.000000 0.921876
O O9 0.500000 0.204609 0.000000
O O10 0.715401 0.227936 0.076018
O O11 0.744282 0.500000 0.178400
#
# Coordination Sequence:
#
# PCOD9189414 Si02
#       5
#     8   2   8   8   8
#     4  10  19  37  62  91 128 167 204 246 301 364
#     4  12  26  48  68  90 116 158 206 268 320 368
#     4  11  24  44  68  90 121 160 202 263 312 364
#     4   9  17  29  52  90 129 166 203 242 289 358
#     4   9  20  37  61  90 127 166 204 246 301 363
#
# _framework density 25.757107999999999
#
# number of rings (size 3 to 8) (size 9 to 14) (size 15 to 20)
#    0.000    2.118    1.176    1.765    1.647    4.706 
#    0.000    1.176    0.000    0.000    0.000    0.000 
#    0.000    0.000    0.000    0.000    0.000    0.000 
#
# Total GULP energy -94895.296850 kJ/mol
# GULP energy per Si atom -5582.076285 kJ/mol
# Density = 2.569848 g / cm^3
# Si number density = 25.757108 Si / 1000 Ang^3
#
#
#
# Elastic Constant Matrix: (Units=GPa)
#
#
# Indices 1 2 3 4 5 6 
#
# 1 96.7946 27.6018 47.0653 0.0000 -21.3596 0.0000
# 2 27.6018 111.9201 43.0797 0.0000 -11.2588 0.0000
# 3 47.0653 43.0797 123.5563 0.0000 10.1097 0.0000
# 4 0.0000 0.0000 0.0000 7.6390 0.0000 -23.1936
# 5 -21.3596 -11.2588 10.1097 0.0000 59.0182 0.0000
# 6 0.0000 0.0000 0.0000 -23.1936 0.0000 8.5015
#
#
#
# Elastic Compliance Matrix: (Units=1/GPa)
#
#
# Indices 1 2 3 4 5 6 
#
# 1 0.014771 -0.000759 -0.005870 0.000000 0.006207 0.000000
# 2 -0.000759 0.010775 -0.003665 0.000000 0.002409 0.000000
# 3 -0.005870 -0.003665 0.012007 0.000000 -0.004880 0.000000
# 4 0.000000 0.000000 0.000000 -0.017974 0.000000 -0.049035
# 5 0.006207 0.002409 -0.004880 0.000000 0.020486 0.000000
# 6 0.000000 0.000000 0.000000 -0.049035 0.000000 -0.016150
#
#
# Mechanical properties :
#
#
# Convention : Reuss Voigt Hill
#
# Bulk Modulus (GPa) = 58.94363 63.08497 61.01430
# Shear Modulus (GPa) = 99.68571 29.33337 64.50954
#
# Velocity S-wave (km/s) = 6.22786 3.37834 5.00996
# Velocity P-wave (km/s) = 8.63997 6.30579 7.56347
#
# Compressibility (1/GPa) = 0.01696536
#
# Stress axis : x y z
#
# Youngs Moduli (GPa) = 67.69821 92.80655 83.28784
#
# Poissons Ratio (x) = 0.07045 0.48889
# Poissons Ratio (y) = 0.05139 0.30523
# Poissons Ratio (z) = 0.39738 0.34012
#
# Static dielectric constant tensor:
#      x y z
#    x 2.090540 0.000000 0.028490 
#    y 0.000000 2.082210 0.000000 
#    z 0.028490 0.000000 2.015890 
# 
# From -- ./inp_files/220091.got.cif
#   From: 2010.05.17/outbox.cif.g08.bks.cpg/sg12_111_cif.got.tgz:220091.got - 2010.06.03 13:09:07.
