data_PCOD9189652
_publ_section_title
;
Structure prediction by ZEFSAII (Michael W. Deem and Ramdas Pophale) SiO2 
 PCOD9189652
Probable space group: C 2/M
;
_chemical_formula_sum "Si O2"
_cell_formula_units_Z 58
_cell_length_a 15.469767
_cell_length_b 13.652121
_cell_length_c 24.008154
_cell_angle_alpha 90.000000
_cell_angle_beta 34.237132
_cell_angle_gamma 90.000000
_cell_volume 2852.707690
_symmetry_space_group_name_H-M "C 2/M"
_symmetry_group_IT_number 12
_symmetry_cell_setting 'monoclinic'
loop_
_space_group_symop_operation_xyz
x,y,z
-x,y,-z
-x,-y,-z
x,-y,z
1/2+x,1/2+y,z
1/2-x,1/2+y,-z
1/2-x,1/2-y,-z
1/2+x,1/2-y,z
loop_
_atom_site_type_symbol
_atom_site_label
_atom_site_fract_x
_atom_site_fract_y
_atom_site_fract_z
Si Si1 0.237057 0.312918 0.092993
Si Si2 0.000000 0.500000 0.000000
Si Si3 0.966698 0.812530 0.880364
Si Si4 0.168878 0.683436 0.852425
Si Si5 0.725066 0.886262 0.335493
Si Si6 0.840266 0.209248 0.555602
Si Si7 0.950586 0.392798 0.300071
Si Si8 0.528514 0.750368 0.356890
O O1 0.148210 0.227654 0.105694
O O2 0.310800 0.264765 0.108965
O O3 0.101904 0.385723 0.182198
O O4 0.362027 0.358386 0.984777
O O5 0.103600 0.586218 0.914255
O O6 0.052542 0.724146 0.867399
O O7 0.102476 0.875179 0.780780
O O8 0.336893 0.677606 0.734584
O O9 0.708248 0.818609 0.399221
O O10 0.613038 0.831313 0.351266
O O11 0.687391 0.000000 0.363456
O O12 0.706508 0.136983 0.646208
O O13 0.000000 0.184924 0.500000
O O14 0.888870 0.204661 0.465467
O O15 0.938561 0.500000 0.331633
O O16 0.969562 0.308138 0.335110
#
# Coordination Sequence:
#
# PCOD9189652 Si02
#       8
#     8   2   8   8   8   8   8   8
#     4  10  20  38  60  83 122 162 198 243 304 358
#     4  12  20  40  64  96 124 162 210 248 296 368
#     4  10  19  38  59  83 127 163 189 244 310 351
#     4  10  21  39  61  92 122 159 199 252 296 364
#     4  10  20  36  61  92 116 152 204 249 303 365
#     4  10  21  40  60  82 119 155 191 255 310 351
#     4  11  22  38  59  86 114 156 206 244 299 371
#     4   9  21  39  62  81 120 158 192 251 311 346
#
# _framework density 20.331562000000002
#
# number of rings (size 3 to 8) (size 9 to 14) (size 15 to 20)
#    0.000    1.931    2.759    0.828    0.000    3.862 
#    3.724    0.000    0.000    4.966    0.000    0.000 
#    0.000    0.000    0.000    0.000    0.000    0.000 
#
# Total GULP energy -161493.918720 kJ/mol
# GULP energy per Si atom -5568.755818 kJ/mol
# Density = 2.028529 g / cm^3
# Si number density = 20.331562 Si / 1000 Ang^3
#
#
#
# Elastic Constant Matrix: (Units=GPa)
#
#
# Indices 1 2 3 4 5 6 
#
# 1 40.1890 -4.6149 11.6265 0.0000 -2.6355 0.0000
# 2 -4.6149 67.9112 32.2497 -0.0001 -6.2427 0.0000
# 3 11.6265 32.2497 142.0795 -0.0010 -6.6907 0.0002
# 4 0.0000 -0.0001 -0.0010 5.6620 0.0002 2.4577
# 5 -2.6355 -6.2427 -6.6907 0.0002 29.2074 0.0000
# 6 0.0000 0.0000 0.0002 2.4577 0.0000 6.7568
#
#
#
# Elastic Compliance Matrix: (Units=1/GPa)
#
#
# Indices 1 2 3 4 5 6 
#
# 1 0.026231 0.003331 -0.002788 0.000000 0.002440 0.000000
# 2 0.003331 0.017140 -0.004020 0.000000 0.003043 0.000000
# 3 -0.002788 -0.004020 0.008215 0.000002 0.000771 -0.000001
# 4 0.000000 0.000000 0.000002 0.209730 -0.000001 -0.076286
# 5 0.002440 0.003043 0.000771 -0.000001 0.035285 0.000000
# 6 0.000000 0.000000 -0.000001 -0.076286 0.000000 0.175746
#
#
# Mechanical properties :
#
#
# Convention : Reuss Voigt Hill
#
# Bulk Modulus (GPa) = 22.40488 36.52248 29.46368
# Shear Modulus (GPa) = 10.11780 22.38647 16.25214
#
# Velocity S-wave (km/s) = 2.23321 3.32184 2.83035
# Velocity P-wave (km/s) = 4.20634 5.71972 5.02038
#
# Compressibility (1/GPa) = 0.04463313
#
# Stress axis : x y z
#
# Youngs Moduli (GPa) = 38.12234 58.34274 121.72618
#
# Poissons Ratio (x) = -0.19432 0.33933
# Poissons Ratio (y) = -0.12697 0.48931
# Poissons Ratio (z) = 0.10627 0.23452
#
# Static dielectric constant tensor:
#      x y z
#    x 1.765660 0.000000 0.000870 
#    y 0.000000 1.656990 0.000000 
#    z 0.000870 0.000000 1.775870 
# 
# From -- ./inp_files/364002.got.cif
#   From: 2010.05.17/outbox.cif.g08.bks.cpg/sg12_183_cif.got.tgz:364002.got - 2010.06.03 13:09:07.
