data_PCOD9189814
_publ_section_title
;
Structure prediction by ZEFSAII (Michael W. Deem and Ramdas Pophale) SiO2 
 PCOD9189814
Probable space group: C 2/M
;
_chemical_formula_sum "Si O2"
_cell_formula_units_Z 56
_cell_length_a 16.444654
_cell_length_b 20.901654
_cell_length_c 14.014525
_cell_angle_alpha 90.000000
_cell_angle_beta 36.411084
_cell_angle_gamma 90.000000
_cell_volume 2859.295719
_symmetry_space_group_name_H-M "C 2/M"
_symmetry_group_IT_number 12
_symmetry_cell_setting 'monoclinic'
loop_
_space_group_symop_operation_xyz
x,y,z
-x,y,-z
-x,-y,-z
x,-y,z
1/2+x,1/2+y,z
1/2-x,1/2+y,-z
1/2-x,1/2-y,-z
1/2+x,1/2-y,z
loop_
_atom_site_type_symbol
_atom_site_label
_atom_site_fract_x
_atom_site_fract_y
_atom_site_fract_z
Si Si1 0.626111 0.386036 0.321181
Si Si2 0.117001 0.152192 0.810228
Si Si3 0.905275 0.429438 0.002084
Si Si4 0.752818 0.284522 0.345735
Si Si5 0.890840 0.424375 0.516498
Si Si6 0.000544 0.200281 0.278679
Si Si7 0.999246 0.663586 0.760189
O O1 0.500000 0.414107 0.500000
O O2 0.690054 0.330558 0.326509
O O3 0.573535 0.351137 0.276000
O O4 0.750444 0.432158 0.183310
O O5 0.195932 0.219563 0.751412
O O6 0.237506 0.099362 0.689650
O O7 0.045068 0.166017 0.775852
O O8 0.000000 0.140482 0.000000
O O9 0.957511 0.500000 0.926859
O O10 0.908325 0.382995 0.909667
O O11 0.000000 0.405736 0.000000
O O12 0.633673 0.275654 0.536171
O O13 0.876467 0.316706 0.286680
O O14 0.887918 0.500000 0.492098
O O15 0.942999 0.377139 0.383157
O O16 0.000000 0.417897 0.500000
O O17 0.073433 0.268776 0.194263
#
# Coordination Sequence:
#
# PCOD9189814 Si02
#       7
#     8   8   8   8   8   8   8
#     4  10  23  39  63  95 126 159 201 250 315 372
#     4  11  23  38  63  93 125 162 204 256 315 360
#     4  11  24  41  62  90 125 165 207 250 298 365
#     4  10  19  38  63  93 122 156 196 255 307 378
#     4  11  25  43  63  87 121 171 217 251 296 362
#     4  10  21  38  63  97 122 157 201 255 318 368
#     4  11  20  38  65  90 120 159 206 252 303 367
#
# _framework density 19.585242999999998
#
# number of rings (size 3 to 8) (size 9 to 14) (size 15 to 20)
#    0.000    1.429    4.286    1.286    6.000    2.286 
#    0.000    0.714    0.000    0.000    0.000    0.000 
#    0.000    0.000    0.000    0.000    0.000    0.000 
#
# Total GULP energy -156228.619441 kJ/mol
# GULP energy per Si atom -5579.593551 kJ/mol
# Density = 1.954067 g / cm^3
# Si number density = 19.585243 Si / 1000 Ang^3
#
#
#
# Elastic Constant Matrix: (Units=GPa)
#
#
# Indices 1 2 3 4 5 6 
#
# 1 62.9237 36.3035 37.6829 0.0011 4.6391 -0.0007
# 2 36.3035 82.2931 40.3924 0.0007 5.8866 -0.0010
# 3 37.6829 40.3924 110.1614 0.0014 -1.9130 -0.0016
# 4 0.0011 0.0007 0.0014 20.7310 -0.0009 -17.0276
# 5 4.6391 5.8866 -1.9130 -0.0009 22.2824 0.0005
# 6 -0.0007 -0.0010 -0.0016 -17.0276 0.0005 74.3948
#
#
#
# Elastic Compliance Matrix: (Units=1/GPa)
#
#
# Indices 1 2 3 4 5 6 
#
# 1 0.023755 -0.007583 -0.005405 -0.000001 -0.003406 0.000000
# 2 -0.007583 0.017680 -0.003948 0.000000 -0.003431 0.000000
# 3 -0.005405 -0.003948 0.012430 0.000000 0.003236 0.000000
# 4 -0.000001 0.000000 0.000000 0.059405 0.000002 0.013597
# 5 -0.003406 -0.003431 0.003236 0.000002 0.046772 0.000000
# 6 0.000000 0.000000 0.000000 0.013597 0.000000 0.016554
#
#
# Mechanical properties :
#
#
# Convention : Reuss Voigt Hill
#
# Bulk Modulus (GPa) = 50.01618 53.79287 51.90452
# Shear Modulus (GPa) = 23.02738 32.88160 27.95449
#
# Velocity S-wave (km/s) = 3.43264 4.10188 3.78209
# Velocity P-wave (km/s) = 6.42681 7.06821 6.75512
#
# Compressibility (1/GPa) = 0.01999353
#
# Stress axis : x y z
#
# Youngs Moduli (GPa) = 42.09627 56.55970 80.44864
#
# Poissons Ratio (x) = 0.42890 0.43479
# Poissons Ratio (y) = 0.31922 0.31765
# Poissons Ratio (z) = 0.22751 0.22332
#
# Static dielectric constant tensor:
#      x y z
#    x 1.674270 0.000000 -0.002110 
#    y 0.000000 1.685200 0.000000 
#    z -0.002110 0.000000 1.722180 
# 
# From -- ./inp_files/226521.got.cif
#   From: 2010.05.17/outbox.cif.g08.bks.cpg/sg12_114_cif.got.tgz:226521.got - 2010.06.03 13:09:07.
