data_PCOD9189149
_publ_section_title
;
Structure prediction by ZEFSAII (Michael W. Deem and Ramdas Pophale) SiO2 
 PCOD9189149
Probable space group: C 2/M
;
_chemical_formula_sum "Si O2"
_cell_formula_units_Z 56
_cell_length_a 9.620964
_cell_length_b 18.508518
_cell_length_c 31.283819
_cell_angle_alpha 90.000000
_cell_angle_beta 147.506911
_cell_angle_gamma 90.000000
_cell_volume 2992.569778
_symmetry_space_group_name_H-M "C 2/M"
_symmetry_group_IT_number 12
_symmetry_cell_setting 'monoclinic'
loop_
_space_group_symop_operation_xyz
x,y,z
-x,y,-z
-x,-y,-z
x,-y,z
1/2+x,1/2+y,z
1/2-x,1/2+y,-z
1/2-x,1/2-y,-z
1/2+x,1/2-y,z
loop_
_atom_site_type_symbol
_atom_site_label
_atom_site_fract_x
_atom_site_fract_y
_atom_site_fract_z
Si Si1 0.077140 0.820125 0.401616
Si Si2 0.427228 0.583815 0.732717
Si Si3 0.081063 0.789898 0.921334
Si Si4 0.815532 0.632223 0.759412
Si Si5 0.547426 0.172176 0.582472
Si Si6 0.403812 0.415642 0.927769
Si Si7 0.922994 0.219623 0.175211
O O1 0.249575 0.810808 0.403232
O O2 0.277226 0.847129 0.489648
O O3 0.846010 0.873517 0.326785
O O4 0.981522 0.743676 0.395913
O O5 0.430399 0.500000 0.746053
O O6 0.645949 0.599569 0.753548
O O7 0.163611 0.608205 0.641031
O O8 0.480980 0.642483 0.783564
O O9 0.052163 0.871043 0.930376
O O10 0.184628 0.785705 0.900588
O O11 0.798558 0.751962 0.851622
O O12 0.250000 0.750000 0.000000
O O13 0.857406 0.719008 0.771251
O O14 0.101110 0.599927 0.840193
O O15 0.454636 0.500000 0.938506
O O16 0.500000 0.390795 0.000000
#
# Coordination Sequence:
#
# PCOD9189149 Si02
#       7
#     8   8   8   8   8   8   8
#     4   9  17  31  57  83 114 144 201 236 284 334
#     4  11  22  36  57  88 125 153 186 243 305 343
#     4  11  22  39  60  85 111 146 196 246 283 346
#     4  10  19  37  58  84 113 155 196 240 283 352
#     4   9  18  33  53  87 113 152 186 242 283 346
#     4  10  22  38  57  81 115 153 190 239 299 350
#     4  11  21  36  60  85 113 148 199 232 287 351
#
# _framework density 18.713014999999999
#
# number of rings (size 3 to 8) (size 9 to 14) (size 15 to 20)
#    0.000    1.857    2.857    2.571    0.000    0.571 
#    0.000    6.429    0.000    1.714    0.000    8.000 
#    0.000    0.000    0.000    0.000    0.000    0.000 
#
# Total GULP energy -156050.542321 kJ/mol
# GULP energy per Si atom -5573.233654 kJ/mol
# Density = 1.867042 g / cm^3
# Si number density = 18.713015 Si / 1000 Ang^3
#
#
#
# Elastic Constant Matrix: (Units=GPa)
#
#
# Indices 1 2 3 4 5 6 
#
# 1 33.4462 12.1861 10.6147 0.0000 -10.8889 -0.0002
# 2 12.1861 105.5310 19.4115 0.0001 -6.0274 -0.0001
# 3 10.6147 19.4115 89.3621 -0.0015 -5.9157 -0.0007
# 4 0.0000 0.0001 -0.0015 26.4448 -0.0003 -3.6185
# 5 -10.8889 -6.0274 -5.9157 -0.0003 27.2253 -0.0003
# 6 -0.0002 -0.0001 -0.0007 -3.6185 -0.0003 17.1914
#
#
#
# Elastic Compliance Matrix: (Units=1/GPa)
#
#
# Indices 1 2 3 4 5 6 
#
# 1 0.036142 -0.002906 -0.002787 0.000000 0.013206 0.000000
# 2 -0.002906 0.010186 -0.001821 0.000000 0.000697 0.000000
# 3 -0.002787 -0.001821 0.011989 0.000001 0.001087 0.000001
# 4 0.000000 0.000000 0.000001 0.038936 0.000001 0.008195
# 5 0.013206 0.000697 0.001087 0.000001 0.042403 0.000001
# 6 0.000000 0.000000 0.000001 0.008195 0.000001 0.059894
#
#
# Mechanical properties :
#
#
# Convention : Reuss Voigt Hill
#
# Bulk Modulus (GPa) = 23.10180 34.75157 28.92669
# Shear Modulus (GPa) = 21.83319 26.58076 24.20698
#
# Velocity S-wave (km/s) = 3.41946 3.77296 3.60055
# Velocity P-wave (km/s) = 5.28795 6.13119 5.72511
#
# Compressibility (1/GPa) = 0.04328667
#
# Stress axis : x y z
#
# Youngs Moduli (GPa) = 27.66884 98.17070 83.40893
#
# Poissons Ratio (x) = 0.28533 0.23250
# Poissons Ratio (y) = 0.08042 0.15192
# Poissons Ratio (z) = 0.07713 0.17880
#
# Static dielectric constant tensor:
#      x y z
#    x 1.643140 0.000000 0.022310 
#    y 0.000000 1.632050 0.000000 
#    z 0.022310 0.000000 1.731810 
# 
# From -- ./inp_files/356728.got.cif
#   From: 2010.05.17/outbox.cif.g08.bks.cpg/sg12_179_cif.got.tgz:356728.got - 2010.06.03 13:09:07.
