data_PCOD9189601
_publ_section_title
;
Structure prediction by ZEFSAII (Michael W. Deem and Ramdas Pophale) SiO2 
 PCOD9189601
Probable space group: C 2/M
;
_chemical_formula_sum "Si O2"
_cell_formula_units_Z 64
_cell_length_a 22.815532
_cell_length_b 22.706183
_cell_length_c 9.528916
_cell_angle_alpha 90.000000
_cell_angle_beta 42.490263
_cell_angle_gamma 90.000000
_cell_volume 3334.425513
_symmetry_space_group_name_H-M "C 2/M"
_symmetry_group_IT_number 12
_symmetry_cell_setting 'monoclinic'
loop_
_space_group_symop_operation_xyz
x,y,z
-x,y,-z
-x,-y,-z
x,-y,z
1/2+x,1/2+y,z
1/2-x,1/2+y,-z
1/2-x,1/2-y,-z
1/2+x,1/2-y,z
loop_
_atom_site_type_symbol
_atom_site_label
_atom_site_fract_x
_atom_site_fract_y
_atom_site_fract_z
Si Si1 0.040255 0.151334 0.568326
Si Si2 0.620644 0.773564 0.374657
Si Si3 0.424449 0.566860 0.244066
Si Si4 0.568093 0.715395 0.005277
Si Si5 0.246624 0.305065 0.395097
Si Si6 0.722059 0.934486 0.529476
Si Si7 0.566855 0.066676 0.007879
Si Si8 0.563845 0.178511 0.189653
O O1 0.102110 0.203715 0.404168
O O2 0.079058 0.106379 0.610777
O O3 0.000000 0.123343 0.500000
O O4 0.969645 0.184926 0.789556
O O5 0.701013 0.783629 0.333806
O O6 0.534322 0.802158 0.597516
O O7 0.622812 0.802883 0.217728
O O8 0.449949 0.500000 0.236143
O O9 0.326039 0.564810 0.362452
O O10 0.500000 0.586722 0.000000
O O11 0.591608 0.781710 0.008686
O O12 0.500000 0.718312 0.000000
O O13 0.652682 0.682273 0.806596
O O14 0.250000 0.250000 0.500000
O O15 0.203077 0.368592 0.504283
O O16 0.663658 0.934204 0.772756
O O17 0.700064 0.000000 0.502204
O O18 0.542975 0.000000 0.090196
O O19 0.500000 0.084059 0.000000
O O20 0.563532 0.111701 0.141489
#
# Coordination Sequence:
#
# PCOD9189601 Si02
#       8
#     8   8   8   8   8   8   8   8
#     4  11  20  39  56  81 120 155 187 237 302 356
#     4  10  21  37  55  80 118 154 189 237 299 357
#     4  10  21  38  63  87 113 153 201 247 294 354
#     4  11  21  35  58  83 112 150 193 242 295 348
#     4  12  22  34  58  90 111 147 203 248 291 361
#     4  10  21  38  56  84 119 148 187 250 303 344
#     4  10  20  35  58  84 111 151 201 246 295 354
#     4  10  19  38  54  78 114 156 185 238 299 351
#
# _framework density 19.193711
#
# number of rings (size 3 to 8) (size 9 to 14) (size 15 to 20)
#    0.000    1.500    2.500    6.000    0.000    0.750 
#    2.250    1.875    0.000    0.000    0.000    0.000 
#    0.000    0.000    0.000    0.000    0.000    0.000 
#
# Total GULP energy -178283.112905 kJ/mol
# GULP energy per Si atom -5571.347278 kJ/mol
# Density = 1.915003 g / cm^3
# Si number density = 19.193711 Si / 1000 Ang^3
#
#
#
# Elastic Constant Matrix: (Units=GPa)
#
#
# Indices 1 2 3 4 5 6 
#
# 1 107.8719 33.5132 28.0199 0.0000 14.2074 0.0000
# 2 33.5132 120.1283 17.2884 0.0000 22.6048 0.0000
# 3 28.0199 17.2884 48.8688 0.0000 5.2264 0.0000
# 4 0.0000 0.0000 0.0000 26.9182 0.0000 5.2308
# 5 14.2074 22.6048 5.2264 0.0000 28.2217 0.0000
# 6 0.0000 0.0000 0.0000 5.2308 0.0000 25.0603
#
#
#
# Elastic Compliance Matrix: (Units=1/GPa)
#
#
# Indices 1 2 3 4 5 6 
#
# 1 0.011776 -0.001817 -0.005745 0.000000 -0.003409 0.000000
# 2 -0.001817 0.010439 -0.001892 0.000000 -0.007096 0.000000
# 3 -0.005745 -0.001892 0.024439 0.000000 -0.000118 0.000000
# 4 0.000000 0.000000 0.000000 0.038720 0.000000 -0.008082
# 5 -0.003409 -0.007096 -0.000118 0.000000 0.042856 0.000000
# 6 0.000000 0.000000 0.000000 -0.008082 0.000000 0.041591
#
#
# Mechanical properties :
#
#
# Convention : Reuss Voigt Hill
#
# Bulk Modulus (GPa) = 36.04127 48.27913 42.16020
# Shear Modulus (GPa) = 25.25553 29.24323 27.24938
#
# Velocity S-wave (km/s) = 3.63136 3.90755 3.77198
# Velocity P-wave (km/s) = 6.03331 6.75032 6.40186
#
# Compressibility (1/GPa) = 0.02774597
#
# Stress axis : x y z
#
# Youngs Moduli (GPa) = 84.91920 95.79491 40.91851
#
# Poissons Ratio (x) = 0.17406 0.23506
# Poissons Ratio (y) = 0.15430 0.07743
# Poissons Ratio (z) = 0.48782 0.18127
#
# Static dielectric constant tensor:
#      x y z
#    x 1.671360 0.000000 -0.019270 
#    y 0.000000 1.772810 0.000000 
#    z -0.019270 0.000000 1.685840 
# 
# From -- ./inp_files/90639.got.cif
#   From: 2010.05.17/outbox.cif.g08.bks.cpg/sg12_46_cif.got.tgz:90639.got - 2010.06.03 13:09:07.
