data_PCOD9189098
_publ_section_title
;
Structure prediction by ZEFSAII (Michael W. Deem and Ramdas Pophale) SiO2 
 PCOD9189098
Probable space group: C 2/M
;
_chemical_formula_sum "Si O2"
_cell_formula_units_Z 56
_cell_length_a 24.642557
_cell_length_b 18.971951
_cell_length_c 9.262344
_cell_angle_alpha 90.000000
_cell_angle_beta 45.337262
_cell_angle_gamma 90.000000
_cell_volume 3079.960064
_symmetry_space_group_name_H-M "C 2/M"
_symmetry_group_IT_number 12
_symmetry_cell_setting 'monoclinic'
loop_
_space_group_symop_operation_xyz
x,y,z
-x,y,-z
-x,-y,-z
x,-y,z
1/2+x,1/2+y,z
1/2-x,1/2+y,-z
1/2-x,1/2-y,-z
1/2+x,1/2-y,z
loop_
_atom_site_type_symbol
_atom_site_label
_atom_site_fract_x
_atom_site_fract_y
_atom_site_fract_z
Si Si1 0.910052 0.418370 0.189318
Si Si2 0.259706 0.333246 0.012292
Si Si3 0.420156 0.423260 0.069775
Si Si4 0.418881 0.583809 0.729964
Si Si5 0.813364 0.317270 0.544859
Si Si6 0.812723 0.163846 0.464487
Si Si7 0.296476 0.082339 0.141073
O O1 0.890447 0.500000 0.259639
O O2 0.882117 0.367327 0.368593
O O3 0.865256 0.401405 0.123828
O O4 0.000000 0.412658 0.000000
O O5 0.344902 0.367013 0.834949
O O6 0.205028 0.373087 0.001760
O O7 0.250000 0.250000 0.000000
O O8 0.230078 0.342654 0.231274
O O9 0.379795 0.500000 0.158016
O O10 0.377012 0.363920 0.238732
O O11 0.500000 0.429023 0.000000
O O12 0.430036 0.409485 0.881917
O O13 0.500000 0.600798 0.500000
O O14 0.402466 0.500000 0.729725
O O15 0.833674 0.234415 0.512374
O O16 0.756470 0.322189 0.515796
O O17 0.781161 0.104667 0.631181
O O18 0.297585 0.000000 0.107593
#
# Coordination Sequence:
#
# PCOD9189098 Si02
#       7
#     8   8   8   8   8   8   8
#     4   9  20  40  63  88 117 151 200 256 305 359
#     4  12  23  40  59  87 127 161 202 253 303 372
#     4  10  21  35  57  86 116 150 196 247 295 358
#     4  10  23  41  60  87 125 166 203 248 309 369
#     4  10  21  36  60  84 113 157 198 246 301 355
#     4  10  19  37  56  83 116 151 198 248 291 353
#     4  10  21  36  61  88 116 158 200 246 304 362
#
# _framework density 18.182054000000001
#
# number of rings (size 3 to 8) (size 9 to 14) (size 15 to 20)
#    0.000    1.857    2.857    0.857    2.000    2.286 
#    0.000    2.143    0.000    2.571    0.000    0.000 
#    0.000    0.000    0.000    0.000    0.000    0.000 
#
# Total GULP energy -156021.933324 kJ/mol
# GULP energy per Si atom -5572.211904 kJ/mol
# Density = 1.814067 g / cm^3
# Si number density = 18.182054 Si / 1000 Ang^3
#
#
#
# Elastic Constant Matrix: (Units=GPa)
#
#
# Indices 1 2 3 4 5 6 
#
# 1 69.1373 48.4020 29.4160 0.0000 2.2511 0.0000
# 2 48.4020 93.9025 54.1647 0.0000 -6.1965 0.0000
# 3 29.4160 54.1647 99.2056 0.0000 0.6878 0.0000
# 4 0.0000 0.0000 0.0000 31.9884 0.0000 1.5787
# 5 2.2511 -6.1965 0.6878 0.0000 29.0133 0.0000
# 6 0.0000 0.0000 0.0000 1.5787 0.0000 30.3811
#
#
#
# Elastic Compliance Matrix: (Units=1/GPa)
#
#
# Indices 1 2 3 4 5 6 
#
# 1 0.023178 -0.012100 -0.000236 0.000000 -0.004377 0.000000
# 2 -0.012100 0.022230 -0.008590 0.000000 0.005890 0.000000
# 3 -0.000236 -0.008590 0.014855 0.000000 -0.002169 0.000000
# 4 0.000000 0.000000 0.000000 0.031342 0.000000 -0.001629
# 5 -0.004377 0.005890 -0.002169 0.000000 0.036116 0.000000
# 6 0.000000 0.000000 0.000000 -0.001629 0.000000 0.033000
#
#
# Mechanical properties :
#
#
# Convention : Reuss Voigt Hill
#
# Bulk Modulus (GPa) = 54.31537 58.46786 56.39162
# Shear Modulus (GPa) = 23.95683 26.96075 25.45879
#
# Velocity S-wave (km/s) = 3.63383 3.85492 3.74600
# Velocity P-wave (km/s) = 6.89523 7.21392 7.05637
#
# Compressibility (1/GPa) = 0.01841099
#
# Stress axis : x y z
#
# Youngs Moduli (GPa) = 43.14499 44.98470 67.31646
#
# Poissons Ratio (x) = 0.54430 0.01588
# Poissons Ratio (y) = 0.52204 0.57826
# Poissons Ratio (z) = 0.01018 0.38643
#
# Static dielectric constant tensor:
#      x y z
#    x 1.632550 0.000000 -0.004380 
#    y 0.000000 1.677120 0.000000 
#    z -0.004380 0.000000 1.620130 
# 
# From -- ./inp_files/98081.got.cif
#   From: 2010.05.17/outbox.cif.g08.bks.cpg/sg12_50_cif.got.tgz:98081.got - 2010.06.03 13:09:07.
