data_PCOD9189190
_publ_section_title
;
Structure prediction by ZEFSAII (Michael W. Deem and Ramdas Pophale) SiO2 
 PCOD9189190
Probable space group: C 2/M
;
_chemical_formula_sum "Si O2"
_cell_formula_units_Z 48
_cell_length_a 17.628644
_cell_length_b 14.400605
_cell_length_c 15.933355
_cell_angle_alpha 90.000000
_cell_angle_beta 144.871695
_cell_angle_gamma 90.000000
_cell_volume 2327.468439
_symmetry_space_group_name_H-M "C 2/M"
_symmetry_group_IT_number 12
_symmetry_cell_setting 'monoclinic'
loop_
_space_group_symop_operation_xyz
x,y,z
-x,y,-z
-x,-y,-z
x,-y,z
1/2+x,1/2+y,z
1/2-x,1/2+y,-z
1/2-x,1/2-y,-z
1/2+x,1/2-y,z
loop_
_atom_site_type_symbol
_atom_site_label
_atom_site_fract_x
_atom_site_fract_y
_atom_site_fract_z
Si Si1 0.390638 0.099564 0.725102
Si Si2 0.475168 0.106557 0.611881
Si Si3 0.000273 0.109633 0.902152
Si Si4 0.124677 0.393062 0.049496
Si Si5 0.240762 0.717104 0.895373
Si Si6 0.260887 0.278226 0.609234
O O1 0.400014 0.097422 0.633449
O O2 0.298378 0.177921 0.679700
O O3 0.345377 0.000000 0.715377
O O4 0.542133 0.112117 0.888140
O O5 0.606552 0.166085 0.745994
O O6 0.365812 0.170126 0.466810
O O7 0.497299 0.000000 0.601946
O O8 0.888345 0.159856 0.746053
O O9 0.980246 0.000000 0.878099
O O10 0.000000 0.137056 0.000000
O O11 0.143619 0.141444 0.004334
O O12 0.174510 0.500000 0.103192
O O13 0.224091 0.306853 0.131385
O O14 0.000000 0.380735 0.000000
O O15 0.250000 0.750000 0.000000
O O16 0.250000 0.250000 0.500000
#
# Coordination Sequence:
#
# PCOD9189190 Si02
#       6
#     8   8   8   8   8   8
#     4   9  17  32  55  82 111 150 200 252 305 361
#     4  10  20  34  54  82 121 156 194 252 314 368
#     4  11  24  41  64  92 126 168 218 265 310 376
#     4  10  20  35  58  86 116 155 204 255 308 366
#     4  12  21  36  58  91 123 159 206 260 317 370
#     4  10  19  37  59  89 121 167 214 257 313 376
#
# _framework density 20.623265
#
# number of rings (size 3 to 8) (size 9 to 14) (size 15 to 20)
#    0.000    1.667    3.333    2.500    0.000    1.333 
#    0.000    1.667    0.000    3.000    0.000    3.500 
#    0.000    0.000    0.000    0.000    0.000    0.000 
#
# Total GULP energy -133642.415647 kJ/mol
# GULP energy per Si atom -5568.433985 kJ/mol
# Density = 2.057633 g / cm^3
# Si number density = 20.623265 Si / 1000 Ang^3
#
#
#
# Elastic Constant Matrix: (Units=GPa)
#
#
# Indices 1 2 3 4 5 6 
#
# 1 45.4527 19.0801 7.7261 0.0000 -1.2909 0.0000
# 2 19.0801 179.5784 70.2969 0.0000 28.5829 0.0000
# 3 7.7261 70.2969 111.3409 0.0000 26.9601 0.0000
# 4 0.0000 0.0000 0.0000 20.0910 0.0000 6.9727
# 5 -1.2909 28.5829 26.9601 0.0000 31.0682 0.0000
# 6 0.0000 0.0000 0.0000 6.9727 0.0000 21.9428
#
#
#
# Elastic Compliance Matrix: (Units=1/GPa)
#
#
# Indices 1 2 3 4 5 6 
#
# 1 0.023468 -0.002838 -0.000892 0.000000 0.004361 0.000000
# 2 -0.002838 0.008050 -0.003879 0.000000 -0.004158 0.000000
# 3 -0.000892 -0.003879 0.013467 0.000000 -0.008155 0.000000
# 4 0.000000 0.000000 0.000000 0.055943 0.000000 -0.017777
# 5 0.004361 -0.004158 -0.008155 0.000000 0.043271 0.000000
# 6 0.000000 0.000000 0.000000 -0.017777 0.000000 0.051222
#
#
# Mechanical properties :
#
#
# Convention : Reuss Voigt Hill
#
# Bulk Modulus (GPa) = 33.59518 58.95314 46.27416
# Shear Modulus (GPa) = 22.66935 30.57165 26.62050
#
# Velocity S-wave (km/s) = 3.31903 3.85435 3.59667
# Velocity P-wave (km/s) = 5.56896 6.96102 6.30354
#
# Compressibility (1/GPa) = 0.02976618
#
# Stress axis : x y z
#
# Youngs Moduli (GPa) = 42.61154 124.21660 74.25575
#
# Poissons Ratio (x) = 0.35255 0.06627
# Poissons Ratio (y) = 0.12094 0.28803
# Poissons Ratio (z) = 0.03803 0.48183
#
# Static dielectric constant tensor:
#      x y z
#    x 1.719250 0.000000 -0.068620 
#    y 0.000000 1.810650 0.000000 
#    z -0.068620 0.000000 1.777220 
# 
# From -- ./inp_files/278240.got.cif
#   From: 2010.05.17/outbox.cif.g08.bks.cpg/sg12_140_cif.got.tgz:278240.got - 2010.06.03 13:09:07.
