data_PCOD9189537
_publ_section_title
;
Structure prediction by ZEFSAII (Michael W. Deem and Ramdas Pophale) SiO2 
 PCOD9189537
Probable space group: C 2/M
;
_chemical_formula_sum "Si O2"
_cell_formula_units_Z 48
_cell_length_a 12.606982
_cell_length_b 14.372238
_cell_length_c 14.295625
_cell_angle_alpha 90.000000
_cell_angle_beta 54.486649
_cell_angle_gamma 90.000000
_cell_volume 2108.397591
_symmetry_space_group_name_H-M "C 2/M"
_symmetry_group_IT_number 12
_symmetry_cell_setting 'monoclinic'
loop_
_space_group_symop_operation_xyz
x,y,z
-x,y,-z
-x,-y,-z
x,-y,z
1/2+x,1/2+y,z
1/2-x,1/2+y,-z
1/2-x,1/2-y,-z
1/2+x,1/2-y,z
loop_
_atom_site_type_symbol
_atom_site_label
_atom_site_fract_x
_atom_site_fract_y
_atom_site_fract_z
Si Si1 0.122378 0.606246 0.708630
Si Si2 0.399289 0.351607 0.472336
Si Si3 0.967998 0.348751 0.611130
Si Si4 0.921959 0.103950 0.771202
Si Si5 0.225243 0.751232 0.790541
Si Si6 0.633667 0.396949 0.985408
O O1 0.125851 0.500000 0.745076
O O2 0.256461 0.625075 0.582108
O O3 0.006387 0.611530 0.692263
O O4 0.119517 0.691464 0.785657
O O5 0.500000 0.388967 0.500000
O O6 0.437638 0.242846 0.444665
O O7 0.437768 0.389190 0.350365
O O8 0.000000 0.402140 0.500000
O O9 0.815455 0.321912 0.686019
O O10 0.828882 0.172865 0.764789
O O11 0.874135 0.000000 0.781536
O O12 0.907247 0.124370 0.887629
O O13 0.192364 0.809226 0.900444
O O14 0.701696 0.500000 0.948306
O O15 0.500000 0.409400 0.000000
#
# Coordination Sequence:
#
# PCOD9189537 Si02
#       6
#     8   8   8   8   8   8
#     4  12  24  38  65 102 137 173 219 266 322 397
#     4  10  19  37  65  95 129 171 216 264 318 377
#     4  10  22  40  61  93 134 178 216 262 322 395
#     4  10  20  37  63  96 129 164 213 266 321 380
#     4  11  23  40  68  90 133 173 211 268 333 384
#     4  10  24  43  65  92 119 164 228 276 318 387
#
# _framework density 22.766105
#
# number of rings (size 3 to 8) (size 9 to 14) (size 15 to 20)
#    0.000    1.500    5.000    2.000    4.667    1.667 
#    0.000    1.667    0.000    1.000    0.000    0.000 
#    0.000    0.000    0.000    0.000    0.000    0.000 
#
# Total GULP energy -133779.818867 kJ/mol
# GULP energy per Si atom -5574.159119 kJ/mol
# Density = 2.271429 g / cm^3
# Si number density = 22.766105 Si / 1000 Ang^3
#
#
#
# Elastic Constant Matrix: (Units=GPa)
#
#
# Indices 1 2 3 4 5 6 
#
# 1 46.0738 4.7688 -0.7570 0.0000 19.4217 0.0000
# 2 4.7688 108.4429 44.2298 0.0000 1.7245 0.0000
# 3 -0.7570 44.2298 128.9438 0.0000 20.3041 0.0000
# 4 0.0000 0.0000 0.0000 -54.6186 0.0000 29.7603
# 5 19.4217 1.7245 20.3041 0.0000 29.0481 0.0000
# 6 0.0000 0.0000 0.0000 29.7603 0.0000 3.1168
#
#
#
# Elastic Compliance Matrix: (Units=1/GPa)
#
#
# Indices 1 2 3 4 5 6 
#
# 1 0.032871 -0.003205 0.005307 0.000000 -0.025497 0.000000
# 2 -0.003205 0.011157 -0.004584 0.000000 0.004684 0.000000
# 3 0.005307 -0.004584 0.011096 0.000000 -0.011032 0.000000
# 4 0.000000 0.000000 0.000000 -0.002952 0.000000 0.028185
# 5 -0.025497 0.004684 -0.011032 0.000000 0.058906 0.000000
# 6 0.000000 0.000000 0.000000 0.028185 0.000000 0.051727
#
#
# Mechanical properties :
#
#
# Convention : Reuss Voigt Hill
#
# Bulk Modulus (GPa) = 19.93531 42.21597 31.07564
# Shear Modulus (GPa) = 27.10198 11.19052 19.14625
#
# Velocity S-wave (km/s) = 3.45404 2.21948 2.90314
# Velocity P-wave (km/s) = 4.96817 5.01515 4.99172
#
# Compressibility (1/GPa) = 0.05016226
#
# Stress axis : x y z
#
# Youngs Moduli (GPa) = 30.42181 89.62717 90.12374
#
# Poissons Ratio (x) = 0.28722 -0.47830
# Poissons Ratio (y) = 0.09749 0.41308
# Poissons Ratio (z) = -0.16145 0.41081
#
# Static dielectric constant tensor:
#      x y z
#    x 1.856880 0.000000 -0.004830 
#    y 0.000000 1.944830 0.000000 
#    z -0.004830 0.000000 1.738870 
# 
# From -- ./inp_files/143568.got.cif
#   From: 2010.05.17/outbox.cif.g08.bks.cpg/sg12_72_cif.got.tgz:143568.got - 2010.06.03 13:09:07.
