data_PCOD9189438
_publ_section_title
;
Structure prediction by ZEFSAII (Michael W. Deem and Ramdas Pophale) SiO2 
 PCOD9189438
Probable space group: C 2/M
;
_chemical_formula_sum "Si O2"
_cell_formula_units_Z 48
_cell_length_a 30.088827
_cell_length_b 9.003812
_cell_length_c 19.470777
_cell_angle_alpha 90.000000
_cell_angle_beta 148.684077
_cell_angle_gamma 90.000000
_cell_volume 2741.668437
_symmetry_space_group_name_H-M "C 2/M"
_symmetry_group_IT_number 12
_symmetry_cell_setting 'monoclinic'
loop_
_space_group_symop_operation_xyz
x,y,z
-x,y,-z
-x,-y,-z
x,-y,z
1/2+x,1/2+y,z
1/2-x,1/2+y,-z
1/2-x,1/2-y,-z
1/2+x,1/2-y,z
loop_
_atom_site_type_symbol
_atom_site_label
_atom_site_fract_x
_atom_site_fract_y
_atom_site_fract_z
Si Si1 0.740546 0.177223 0.912958
Si Si2 0.782257 0.175752 0.612186
Si Si3 0.900017 0.821494 0.369336
Si Si4 0.137004 0.675696 0.032268
Si Si5 0.720230 0.324987 0.664391
Si Si6 0.963151 0.324187 0.875028
O O1 0.656816 0.239683 0.762875
O O2 0.820351 0.229082 0.971231
O O3 0.736943 0.000000 0.913009
O O4 0.750000 0.250000 0.000000
O O5 0.750000 0.250000 0.500000
O O6 0.727872 0.232182 0.605594
O O7 0.879122 0.229418 0.752472
O O8 0.777544 0.000000 0.600681
O O9 0.857714 0.787579 0.387518
O O10 0.000000 0.784263 0.500000
O O11 0.890736 0.000000 0.346904
O O12 0.143993 0.500000 0.024388
O O13 0.195085 0.697549 0.177043
O O14 0.039637 0.709639 0.923034
O O15 0.716000 0.500000 0.641801
O O16 0.942064 0.500000 0.841522
O O17 0.000000 0.300848 0.000000
#
# Coordination Sequence:
#
# PCOD9189438 Si02
#       6
#     8   8   8   8   8   8
#     4  11  22  37  58  84 118 153 189 234 284 333
#     4  12  25  39  56  81 116 154 193 235 283 333
#     4   9  19  38  63  87 112 147 188 232 284 342
#     4   9  18  35  61  87 113 147 186 229 282 340
#     4   9  17  35  60  84 112 148 186 228 284 341
#     4  10  19  37  63  87 113 147 185 229 282 339
#
# _framework density 17.507587000000001
#
# number of rings (size 3 to 8) (size 9 to 14) (size 15 to 20)
#    0.000    2.000    1.667    4.000    0.000    4.000 
#    3.000    0.000    0.000    0.000    0.000    0.000 
#    0.000    0.000    0.000    0.000    0.000    0.000 
#
# Total GULP energy -134005.133103 kJ/mol
# GULP energy per Si atom -5583.547213 kJ/mol
# Density = 1.746774 g / cm^3
# Si number density = 17.507587 Si / 1000 Ang^3
#
#
#
# Elastic Constant Matrix: (Units=GPa)
#
#
# Indices 1 2 3 4 5 6 
#
# 1 143.7399 93.9624 86.2447 0.0000 -5.3629 0.0000
# 2 93.9624 116.6835 73.9392 0.0000 -13.7700 0.0000
# 3 86.2447 73.9392 82.5941 0.0000 -3.7329 0.0000
# 4 0.0000 0.0000 0.0000 27.2561 0.0000 -2.7333
# 5 -5.3629 -13.7700 -3.7329 0.0000 29.6550 0.0000
# 6 0.0000 0.0000 0.0000 -2.7333 0.0000 32.0403
#
#
#
# Elastic Compliance Matrix: (Units=1/GPa)
#
#
# Indices 1 2 3 4 5 6 
#
# 1 0.020843 -0.007231 -0.015360 0.000000 -0.001522 0.000000
# 2 -0.007231 0.023874 -0.013457 0.000000 0.008084 0.000000
# 3 -0.015360 -0.013457 0.040013 0.000000 -0.003989 0.000000
# 4 0.000000 0.000000 0.000000 0.037006 0.000000 0.003157
# 5 -0.001522 0.008084 -0.003989 0.000000 0.036698 0.000000
# 6 0.000000 0.000000 0.000000 0.003157 0.000000 0.031480
#
#
# Mechanical properties :
#
#
# Convention : Reuss Voigt Hill
#
# Bulk Modulus (GPa) = 79.14606 94.59001 86.86803
# Shear Modulus (GPa) = 18.78152 23.71503 21.24827
#
# Velocity S-wave (km/s) = 3.27886 3.68442 3.48754
# Velocity P-wave (km/s) = 7.72266 8.49972 8.12049
#
# Compressibility (1/GPa) = 0.01263487
#
# Stress axis : x y z
#
# Youngs Moduli (GPa) = 47.97764 41.88643 24.99217
#
# Poissons Ratio (x) = 0.30287 0.38388
# Poissons Ratio (y) = 0.34691 0.33631
# Poissons Ratio (z) = 0.73694 0.56365
#
# Static dielectric constant tensor:
#      x y z
#    x 1.596950 0.000000 0.013640 
#    y 0.000000 1.581260 0.000000 
#    z 0.013640 0.000000 1.570890 
# 
# From -- ./inp_files/295896.got.cif
#   From: 2010.05.17/outbox.cif.g08.bks.cpg/sg12_148_cif.got.tgz:295896.got - 2010.06.03 13:09:07.
