data_PCOD9189265
_publ_section_title
;
Structure prediction by ZEFSAII (Michael W. Deem and Ramdas Pophale) SiO2 
 PCOD9189265
Probable space group: C 2/M
;
_chemical_formula_sum "Si O2"
_cell_formula_units_Z 64
_cell_length_a 14.747307
_cell_length_b 9.073239
_cell_length_c 26.049415
_cell_angle_alpha 90.000000
_cell_angle_beta 105.092087
_cell_angle_gamma 90.000000
_cell_volume 3365.341902
_symmetry_space_group_name_H-M "C 2/M"
_symmetry_group_IT_number 12
_symmetry_cell_setting 'monoclinic'
loop_
_space_group_symop_operation_xyz
x,y,z
-x,y,-z
-x,-y,-z
x,-y,z
1/2+x,1/2+y,z
1/2-x,1/2+y,-z
1/2-x,1/2-y,-z
1/2+x,1/2-y,z
loop_
_atom_site_type_symbol
_atom_site_label
_atom_site_fract_x
_atom_site_fract_y
_atom_site_fract_z
Si Si1 0.709095 0.323058 0.418460
Si Si2 0.170233 0.824005 0.764565
Si Si3 0.335685 0.829899 0.040472
Si Si4 0.523222 0.321366 0.212279
Si Si5 0.229408 0.170480 0.129166
Si Si6 0.101165 0.677311 0.492822
Si Si7 0.479439 0.676129 0.908141
Si Si8 0.789265 0.177872 0.700235
O O1 0.698413 0.500000 0.420218
O O2 0.812471 0.285959 0.456121
O O3 0.631622 0.248469 0.443378
O O4 0.702886 0.280106 0.358093
O O5 0.068391 0.774073 0.769811
O O6 0.241924 0.772001 0.819504
O O7 0.201829 0.749551 0.716538
O O8 0.170995 0.000000 0.760081
O O9 0.306597 0.821824 0.096270
O O10 0.436616 0.754592 0.049971
O O11 0.339067 0.000000 0.025446
O O12 0.250000 0.750000 0.000000
O O13 0.523168 0.500000 0.212151
O O14 0.518364 0.278860 0.151840
O O15 0.617856 0.274810 0.254788
O O16 0.127281 0.208500 0.091087
O O17 0.222190 0.000000 0.146506
O O18 0.098649 0.500000 0.486942
O O19 0.000000 0.724674 0.500000
O O20 0.494352 0.500000 0.913877
O O21 0.782130 0.000000 0.701850
#
# Coordination Sequence:
#
# PCOD9189265 Si02
#       8
#     8   8   8   8   8   8   8   8
#     4   9  19  34  54  79 106 144 188 229 268 323
#     4  11  21  33  53  82 109 138 178 221 269 318
#     4  11  24  40  59  85 113 142 181 228 275 322
#     4   9  18  33  54  77 105 143 176 214 268 322
#     4  10  21  38  60  81 106 144 183 216 265 329
#     4   9  18  34  55  78 109 145 182 227 285 333
#     4  10  19  37  61  80 105 142 180 217 267 322
#     4  10  20  37  55  76 111 148 185 222 268 328
#
# _framework density 19.017384
#
# number of rings (size 3 to 8) (size 9 to 14) (size 15 to 20)
#    0.000    2.125    2.500    0.750    0.000    3.250 
#    0.000    3.750    0.000    0.000    0.000    0.000 
#    0.000    0.000    0.000    0.000    0.000    0.000 
#
# Total GULP energy -178617.712180 kJ/mol
# GULP energy per Si atom -5581.803506 kJ/mol
# Density = 1.897410 g / cm^3
# Si number density = 19.017384 Si / 1000 Ang^3
#
#
#
# Elastic Constant Matrix: (Units=GPa)
#
#
# Indices 1 2 3 4 5 6 
#
# 1 99.5716 15.6539 -6.1369 0.0000 0.2940 0.0000
# 2 15.6539 27.4608 9.3348 0.0000 -1.0442 0.0000
# 3 -6.1369 9.3348 40.7957 0.0000 -2.2705 0.0000
# 4 0.0000 0.0000 0.0000 25.9858 0.0000 -2.5829
# 5 0.2940 -1.0442 -2.2705 0.0000 18.4581 0.0000
# 6 0.0000 0.0000 0.0000 -2.5829 0.0000 25.8160
#
#
#
# Elastic Compliance Matrix: (Units=1/GPa)
#
#
# Indices 1 2 3 4 5 6 
#
# 1 0.011474 -0.007733 0.003485 0.000000 -0.000192 0.000000
# 2 -0.007733 0.044722 -0.011326 0.000000 0.001260 0.000000
# 3 0.003485 -0.011326 0.027780 0.000000 0.002721 0.000000
# 4 0.000000 0.000000 0.000000 0.038869 0.000000 0.003889
# 5 -0.000192 0.001260 0.002721 0.000000 0.054586 0.000000
# 6 0.000000 0.000000 0.000000 0.003889 0.000000 0.039125
#
#
# Mechanical properties :
#
#
# Convention : Reuss Voigt Hill
#
# Bulk Modulus (GPa) = 18.92968 22.83687 20.88327
# Shear Modulus (GPa) = 18.84573 23.98373 21.41473
#
# Velocity S-wave (km/s) = 3.15139 3.55512 3.35932
# Velocity P-wave (km/s) = 4.81842 5.37460 5.10409
#
# Compressibility (1/GPa) = 0.05282709
#
# Stress axis : x y z
#
# Youngs Moduli (GPa) = 87.15337 22.36059 35.99753
#
# Poissons Ratio (x) = 0.17291 -0.12544
# Poissons Ratio (y) = 0.67392 0.40772
# Poissons Ratio (z) = -0.30371 0.25326
#
# Static dielectric constant tensor:
#      x y z
#    x 1.666840 0.000000 -0.001840 
#    y 0.000000 1.643940 0.000000 
#    z -0.001840 0.000000 1.655770 
# 
# From -- ./inp_files/359986.got.cif
#   From: 2010.05.17/outbox.cif.g08.bks.cpg/sg12_180_cif.got.tgz:359986.got - 2010.06.03 13:09:07.
