data_PCOD9189403
_publ_section_title
;
Structure prediction by ZEFSAII (Michael W. Deem and Ramdas Pophale) SiO2 
 PCOD9189403
Probable space group: C 2/M
;
_chemical_formula_sum "Si O2"
_cell_formula_units_Z 64
_cell_length_a 20.219765
_cell_length_b 17.889166
_cell_length_c 23.878293
_cell_angle_alpha 90.000000
_cell_angle_beta 156.584803
_cell_angle_gamma 90.000000
_cell_volume 3432.320463
_symmetry_space_group_name_H-M "C 2/M"
_symmetry_group_IT_number 12
_symmetry_cell_setting 'monoclinic'
loop_
_space_group_symop_operation_xyz
x,y,z
-x,y,-z
-x,-y,-z
x,-y,z
1/2+x,1/2+y,z
1/2-x,1/2+y,-z
1/2-x,1/2-y,-z
1/2+x,1/2-y,z
loop_
_atom_site_type_symbol
_atom_site_label
_atom_site_fract_x
_atom_site_fract_y
_atom_site_fract_z
Si Si1 0.954419 0.083968 0.777692
Si Si2 0.939169 0.582903 0.551724
Si Si3 0.289730 0.310680 0.483154
Si Si4 0.188173 0.198142 0.004216
Si Si5 0.013327 0.412785 0.742308
Si Si6 0.412400 0.414601 0.242080
Si Si7 0.470908 0.762096 0.414631
Si Si8 0.177927 0.701456 0.108436
O O1 0.760290 0.089451 0.610519
O O2 0.066734 0.087176 0.808710
O O3 0.978091 0.000000 0.820915
O O4 0.013901 0.155889 0.858172
O O5 0.988790 0.500000 0.571637
O O6 0.032085 0.648362 0.591776
O O7 0.980623 0.589850 0.649896
O O8 0.250000 0.250000 0.500000
O O9 0.433760 0.365650 0.616549
O O10 0.366866 0.264316 0.492896
O O11 0.133199 0.361699 0.346434
O O12 0.318153 0.130125 0.112526
O O13 0.182456 0.244595 0.057458
O O14 0.250000 0.250000 0.000000
O O15 0.011211 0.500000 0.757464
O O16 0.428703 0.500000 0.272880
O O17 0.247089 0.376630 0.137565
O O18 0.500000 0.736658 0.500000
O O19 0.311917 0.730008 0.258389
O O20 0.000000 0.697541 0.000000
#
# Coordination Sequence:
#
# PCOD9189403 Si02
#       8
#     8   8   8   8   8   8   8   8
#     4  10  20  35  60  95 124 153 198 249 310 369
#     4  10  20  37  64  92 121 157 201 251 304 363
#     4  11  19  35  64  96 122 150 202 252 306 360
#     4  12  24  38  62  90 125 164 200 255 303 359
#     4  11  21  37  63  94 126 157 196 255 312 362
#     4  10  19  37  62  89 121 158 198 252 304 357
#     4  11  24  40  63  87 122 161 203 253 299 359
#     4  11  25  43  58  88 122 163 208 247 302 360
#
# _framework density 18.646277999999999
#
# number of rings (size 3 to 8) (size 9 to 14) (size 15 to 20)
#    0.000    1.250    5.000    1.500    3.500    0.500 
#    0.000    0.000    0.000   12.750    0.000    0.000 
#    0.000    0.000    0.000    0.000    0.000    0.000 
#
# Total GULP energy -178651.303533 kJ/mol
# GULP energy per Si atom -5582.853235 kJ/mol
# Density = 1.860384 g / cm^3
# Si number density = 18.646278 Si / 1000 Ang^3
#
#
#
# Elastic Constant Matrix: (Units=GPa)
#
#
# Indices 1 2 3 4 5 6 
#
# 1 74.8604 19.7716 17.6228 0.0019 -3.5234 -0.0009
# 2 19.7716 123.6211 29.8505 0.0049 -2.0202 0.0001
# 3 17.6228 29.8505 63.0194 0.0045 -2.4244 -0.0019
# 4 0.0019 0.0049 0.0045 34.8863 0.0023 2.2409
# 5 -3.5234 -2.0202 -2.4244 0.0023 29.8265 0.0005
# 6 -0.0009 0.0001 -0.0019 2.2409 0.0005 9.6351
#
#
#
# Elastic Compliance Matrix: (Units=1/GPa)
#
#
# Indices 1 2 3 4 5 6 
#
# 1 0.014602 -0.001513 -0.003315 0.000000 0.001353 0.000001
# 2 -0.001513 0.009293 -0.003974 -0.000001 0.000128 -0.000001
# 3 -0.003315 -0.003974 0.018710 -0.000002 0.000860 0.000004
# 4 0.000000 -0.000001 -0.000002 0.029099 -0.000002 -0.006768
# 5 0.001353 0.000128 0.000860 -0.000002 0.033766 -0.000001
# 6 0.000001 -0.000001 0.000004 -0.006768 -0.000001 0.105361
#
#
# Mechanical properties :
#
#
# Convention : Reuss Voigt Hill
#
# Bulk Modulus (GPa) = 39.99606 43.99897 41.99751
# Shear Modulus (GPa) = 21.11774 27.81998 24.46886
#
# Velocity S-wave (km/s) = 3.36898 3.86681 3.62645
# Velocity P-wave (km/s) = 6.05226 6.60183 6.33301
#
# Compressibility (1/GPa) = 0.02500247
#
# Stress axis : x y z
#
# Youngs Moduli (GPa) = 68.48504 107.60992 53.44623
#
# Poissons Ratio (x) = 0.16280 0.17715
# Poissons Ratio (y) = 0.10361 0.21238
# Poissons Ratio (z) = 0.22700 0.42762
#
# Static dielectric constant tensor:
#      x y z
#    x 1.632380 0.000000 -0.001070 
#    y 0.000000 1.657530 0.000000 
#    z -0.001070 0.000000 1.653910 
# 
# From -- ./inp_files/347889.got.cif
#   From: 2010.05.17/outbox.cif.g08.bks.cpg/sg12_174_cif.got.tgz:347889.got - 2010.06.03 13:09:07.
