data_PCOD9189533
_publ_section_title
;
Structure prediction by ZEFSAII (Michael W. Deem and Ramdas Pophale) SiO2 
 PCOD9189533
Probable space group: C 2/M
;
_chemical_formula_sum "Si O2"
_cell_formula_units_Z 42
_cell_length_a 27.862282
_cell_length_b 13.089223
_cell_length_c 5.109401
_cell_angle_alpha 90.000000
_cell_angle_beta 110.334471
_cell_angle_gamma 90.000000
_cell_volume 1747.250644
_symmetry_space_group_name_H-M "C 2/M"
_symmetry_group_IT_number 12
_symmetry_cell_setting 'monoclinic'
loop_
_space_group_symop_operation_xyz
x,y,z
-x,y,-z
-x,-y,-z
x,-y,z
1/2+x,1/2+y,z
1/2-x,1/2+y,-z
1/2-x,1/2-y,-z
1/2+x,1/2-y,z
loop_
_atom_site_type_symbol
_atom_site_label
_atom_site_fract_x
_atom_site_fract_y
_atom_site_fract_z
Si Si1 0.070937 0.664834 0.827220
Si Si2 0.249519 0.176694 0.250261
Si Si3 0.500000 0.000000 0.500000
Si Si4 0.547221 0.609865 0.888408
Si Si5 0.359505 0.833351 0.521110
Si Si6 0.344149 0.608235 0.627125
O O1 0.023362 0.589645 0.739617
O O2 0.052548 0.781993 0.754566
O O3 0.103161 0.631710 0.634986
O O4 0.109913 0.656417 0.147859
O O5 0.250000 0.250000 0.500000
O O6 0.303381 0.117733 0.379460
O O7 0.196808 0.118524 0.212619
O O8 0.250000 0.250000 0.000000
O O9 0.544670 0.500000 0.738574
O O10 0.500000 0.616068 0.000000
O O11 0.599470 0.604549 0.149205
O O12 0.346681 0.711922 0.464787
O O13 0.332750 0.500000 0.467950
#
# Coordination Sequence:
#
# PCOD9189533 Si02
#       6
#     8   8   2   8   8   8
#     4  11  26  46  70 100 137 184 241 302 358 427
#     4  10  19  37  65  94 134 182 221 274 343 417
#     4  12  32  50  74 102 140 194 260 304 366 426
#     4   9  19  39  69 103 140 179 226 286 361 433
#     4  10  22  43  69  95 138 181 231 292 360 423
#     4   9  19  36  62 101 133 173 222 276 347 427
#
# _framework density 24.037763999999999
#
# number of rings (size 3 to 8) (size 9 to 14) (size 15 to 20)
#    0.000    2.095    0.000    3.429    5.333    2.286 
#    3.429   10.000    0.000    0.000    0.000    0.000 
#    0.000    0.000    0.000    0.000    0.000    0.000 
#
# Total GULP energy -116901.867687 kJ/mol
# GULP energy per Si atom -5566.755604 kJ/mol
# Density = 2.398305 g / cm^3
# Si number density = 24.037764 Si / 1000 Ang^3
#
#
#
# Elastic Constant Matrix: (Units=GPa)
#
#
# Indices 1 2 3 4 5 6 
#
# 1 136.4575 6.8183 40.4327 0.0000 21.7867 0.0000
# 2 6.8183 136.3792 5.5444 0.0000 8.5119 0.0000
# 3 40.4327 5.5444 122.3478 0.0000 13.3394 0.0000
# 4 0.0000 0.0000 0.0000 19.6074 0.0000 17.2666
# 5 21.7867 8.5119 13.3394 0.0000 44.6184 0.0000
# 6 0.0000 0.0000 0.0000 17.2666 0.0000 20.0214
#
#
#
# Elastic Compliance Matrix: (Units=1/GPa)
#
#
# Indices 1 2 3 4 5 6 
#
# 1 0.008615 -0.000115 -0.002466 0.000000 -0.003447 0.000000
# 2 -0.000115 0.007427 -0.000155 0.000000 -0.001314 0.000000
# 3 -0.002466 -0.000155 0.009159 0.000000 -0.001505 0.000000
# 4 0.000000 0.000000 0.000000 0.212019 0.000000 -0.182847
# 5 -0.003447 -0.001314 -0.001505 0.000000 0.024796 0.000000
# 6 0.000000 0.000000 0.000000 -0.182847 0.000000 0.207635
#
#
# Mechanical properties :
#
#
# Convention : Reuss Voigt Hill
#
# Bulk Modulus (GPa) = 50.68868 55.64170 53.16519
# Shear Modulus (GPa) = 10.37990 39.67539 25.02765
#
# Velocity S-wave (km/s) = 2.08027 4.06710 3.23023
# Velocity P-wave (km/s) = 5.18680 6.72703 6.00649
#
# Compressibility (1/GPa) = 0.01972827
#
# Stress axis : x y z
#
# Youngs Moduli (GPa) = 116.07462 134.65141 109.17689
#
# Poissons Ratio (x) = 0.01552 0.26923
# Poissons Ratio (y) = 0.01338 0.01694
# Poissons Ratio (z) = 0.28624 0.02089
#
# Static dielectric constant tensor:
#      x y z
#    x 2.048280 0.000000 0.048770 
#    y 0.000000 1.971680 0.000000 
#    z 0.048770 0.000000 1.867420 
# 
# From -- ./inp_files/28036.got.cif
#   From: 2010.05.17/outbox.cif.g08.bks.cpg/sg12_15_cif.got.tgz:28036.got - 2010.06.03 13:09:07.
