data_PCOD9189356
_publ_section_title
;
Structure prediction by ZEFSAII (Michael W. Deem and Ramdas Pophale) SiO2 
 PCOD9189356
Probable space group: C 2/M
;
_chemical_formula_sum "Si O2"
_cell_formula_units_Z 56
_cell_length_a 24.301525
_cell_length_b 18.072665
_cell_length_c 9.030927
_cell_angle_alpha 90.000000
_cell_angle_beta 39.415811
_cell_angle_gamma 90.000000
_cell_volume 2518.391794
_symmetry_space_group_name_H-M "C 2/M"
_symmetry_group_IT_number 12
_symmetry_cell_setting 'monoclinic'
loop_
_space_group_symop_operation_xyz
x,y,z
-x,y,-z
-x,-y,-z
x,-y,z
1/2+x,1/2+y,z
1/2-x,1/2+y,-z
1/2-x,1/2-y,-z
1/2+x,1/2-y,z
loop_
_atom_site_type_symbol
_atom_site_label
_atom_site_fract_x
_atom_site_fract_y
_atom_site_fract_z
Si Si1 0.618086 0.821730 0.150642
Si Si2 0.041543 0.583314 0.067005
Si Si3 0.704336 0.686719 0.411942
Si Si4 0.219125 0.579815 0.537948
Si Si5 0.943279 0.913361 0.407900
Si Si6 0.608546 0.350576 0.167643
Si Si7 0.312258 0.847588 0.676770
O O1 0.547460 0.864343 0.197657
O O2 0.591303 0.736373 0.224182
O O3 0.637846 0.852780 0.272619
O O4 0.711519 0.821389 0.870780
O O5 0.008258 0.500000 0.164159
O O6 0.142517 0.575041 0.815016
O O7 0.000000 0.613202 0.000000
O O8 0.732317 0.656018 0.515989
O O9 0.626890 0.631094 0.537982
O O10 0.671895 0.768702 0.437344
O O11 0.266551 0.500000 0.441233
O O12 0.172885 0.590650 0.476672
O O13 0.912473 0.895580 0.639989
O O14 0.040741 0.882238 0.189977
O O15 0.941400 0.000000 0.383993
O O16 0.709529 0.355608 0.922339
#
# Coordination Sequence:
#
# PCOD9189356 Si02
#       7
#     8   8   8   8   8   8   8
#     4  10  19  37  62  84 112 150 201 249 294 350
#     4   9  20  40  59  80 114 152 192 239 300 372
#     4  10  19  39  59  81 114 160 203 240 286 363
#     4  10  22  36  56  85 116 154 198 243 302 361
#     4  11  21  35  58  86 119 159 197 236 294 360
#     4  10  20  36  53  84 121 150 192 243 296 349
#     4  11  20  37  59  86 118 150 196 260 296 338
#
# _framework density 22.236411
#
# number of rings (size 3 to 8) (size 9 to 14) (size 15 to 20)
#    0.000    1.857    2.857    2.571    0.000    3.429 
#    0.000    0.714    0.000    4.286    0.000    0.000 
#    0.000    0.000    0.000    0.000    0.000    0.000 
#
# Total GULP energy -156131.253202 kJ/mol
# GULP energy per Si atom -5576.116186 kJ/mol
# Density = 2.218580 g / cm^3
# Si number density = 22.236411 Si / 1000 Ang^3
#
#
#
# Elastic Constant Matrix: (Units=GPa)
#
#
# Indices 1 2 3 4 5 6 
#
# 1 109.8315 35.0884 9.2122 0.0000 7.8016 0.0000
# 2 35.0884 58.2550 21.4167 0.0000 -7.8292 0.0000
# 3 9.2122 21.4167 41.1305 0.0000 -4.8571 0.0000
# 4 0.0000 0.0000 0.0000 -254.4732 0.0000 73.0812
# 5 7.8016 -7.8292 -4.8571 0.0000 31.9833 0.0000
# 6 0.0000 0.0000 0.0000 73.0812 0.0000 14.6020
#
#
#
# Elastic Compliance Matrix: (Units=1/GPa)
#
#
# Indices 1 2 3 4 5 6 
#
# 1 0.011993 -0.008251 0.001045 0.000000 -0.004787 0.000000
# 2 -0.008251 0.027318 -0.011556 0.000000 0.006945 0.000000
# 3 0.001045 -0.011556 0.030275 0.000000 0.001514 0.000000
# 4 0.000000 0.000000 0.000000 -0.001612 0.000000 0.008069
# 5 -0.004787 0.006945 0.001514 0.000000 0.034364 0.000000
# 6 0.000000 0.000000 0.000000 0.008069 0.000000 0.028098
#
#
# Mechanical properties :
#
#
# Convention : Reuss Voigt Hill
#
# Bulk Modulus (GPa) = 31.19057 37.85016 34.52037
# Shear Modulus (GPa) = 27.98813 -32.01093 -2.01140
#
# Velocity S-wave (km/s) = 3.55161 -3.79829 -0.95211
# Velocity P-wave (km/s) = 5.55660 1.47557 3.78804
#
# Compressibility (1/GPa) = 0.03206097
#
# Stress axis : x y z
#
# Youngs Moduli (GPa) = 83.37980 36.60629 33.03073
#
# Poissons Ratio (x) = 0.30205 -0.03452
# Poissons Ratio (y) = 0.68800 0.38171
# Poissons Ratio (z) = -0.08714 0.42303
#
# Static dielectric constant tensor:
#      x y z
#    x 1.865680 0.000000 -0.022340 
#    y 0.000000 1.824030 0.000000 
#    z -0.022340 0.000000 1.884830 
# 
# From -- ./inp_files/98055.got.cif
#   From: 2010.05.17/outbox.cif.g08.bks.cpg/sg12_50_cif.got.tgz:98055.got - 2010.06.03 13:09:07.
