data_PCOD9189418
_publ_section_title
;
Structure prediction by ZEFSAII (Michael W. Deem and Ramdas Pophale) SiO2 
 PCOD9189418
Probable space group: C 2/M
;
_chemical_formula_sum "Si O2"
_cell_formula_units_Z 44
_cell_length_a 18.937838
_cell_length_b 16.444452
_cell_length_c 9.581664
_cell_angle_alpha 90.000000
_cell_angle_beta 44.590146
_cell_angle_gamma 90.000000
_cell_volume 2094.820297
_symmetry_space_group_name_H-M "C 2/M"
_symmetry_group_IT_number 12
_symmetry_cell_setting 'monoclinic'
loop_
_space_group_symop_operation_xyz
x,y,z
-x,y,-z
-x,-y,-z
x,-y,z
1/2+x,1/2+y,z
1/2-x,1/2+y,-z
1/2-x,1/2-y,-z
1/2+x,1/2-y,z
loop_
_atom_site_type_symbol
_atom_site_label
_atom_site_fract_x
_atom_site_fract_y
_atom_site_fract_z
Si Si1 0.000000 0.207292 0.500000
Si Si2 0.505193 0.916135 0.157502
Si Si3 0.287574 0.867117 0.509452
Si Si4 0.124579 0.261289 0.079770
Si Si5 0.902404 0.908741 0.039171
Si Si6 0.195928 0.193055 0.361454
O O1 0.923140 0.260506 0.699324
O O2 0.916557 0.163213 0.520038
O O3 0.392551 0.912048 0.373549
O O4 0.556588 0.830304 0.107361
O O5 0.555440 0.000000 0.140857
O O6 0.500000 0.922103 0.000000
O O7 0.195827 0.903977 0.724846
O O8 0.253466 0.861768 0.395064
O O9 0.309215 0.778138 0.546249
O O10 0.107765 0.169456 0.047179
O O11 0.234809 0.290693 0.873308
O O12 0.908128 0.000000 0.967820
O O13 0.000000 0.897453 0.000000
#
# Coordination Sequence:
#
# PCOD9189418 Si02
#       6
#     4   8   8   8   8   8
#     4  12  22  38  60  90 120 176 214 240 298 376
#     4  11  21  36  63  96 124 154 202 261 318 365
#     4  10  19  37  62  94 119 156 200 259 311 360
#     4  11  22  39  60  87 127 165 208 252 301 366
#     4  10  21  36  60  92 123 158 203 255 307 363
#     4  10  21  34  62  89 123 161 204 248 306 365
#
# _framework density 21.004187999999999
#
# number of rings (size 3 to 8) (size 9 to 14) (size 15 to 20)
#    0.000    1.455    3.636    2.727    2.545    0.000 
#    0.000    0.909    0.000    5.455    0.000    0.000 
#    0.000    0.000    0.000    0.000    0.000    0.000 
#
# Total GULP energy -122493.880132 kJ/mol
# GULP energy per Si atom -5567.903642 kJ/mol
# Density = 2.095638 g / cm^3
# Si number density = 21.004188 Si / 1000 Ang^3
#
#
#
# Elastic Constant Matrix: (Units=GPa)
#
#
# Indices 1 2 3 4 5 6 
#
# 1 74.8333 13.5778 21.9928 0.0000 -29.2740 0.0000
# 2 13.5778 99.4826 4.9041 0.0000 -10.2420 0.0000
# 3 21.9928 4.9041 131.2296 0.0000 -17.5505 0.0000
# 4 0.0000 0.0000 0.0000 103.8404 0.0000 -108.5690
# 5 -29.2740 -10.2420 -17.5505 0.0000 38.7638 0.0000
# 6 0.0000 0.0000 0.0000 -108.5690 0.0000 97.5020
#
#
#
# Elastic Compliance Matrix: (Units=1/GPa)
#
#
# Indices 1 2 3 4 5 6 
#
# 1 0.019321 -0.001163 -0.001367 0.000000 0.013665 0.000000
# 2 -0.001163 0.010403 0.000060 0.000000 0.001898 0.000000
# 3 -0.001367 0.000060 0.008208 0.000000 0.002700 0.000000
# 4 0.000000 0.000000 0.000000 -0.058645 0.000000 -0.065301
# 5 0.013665 0.001898 0.002700 0.000000 0.037841 0.000000
# 6 0.000000 0.000000 0.000000 -0.065301 0.000000 -0.062457
#
#
# Mechanical properties :
#
#
# Convention : Reuss Voigt Hill
#
# Bulk Modulus (GPa) = 30.30969 42.94389 36.62679
# Shear Modulus (GPa) = -170.11835 65.69263 -52.21286
#
# Velocity S-wave (km/s) = -9.00935 5.59856 -4.99122
# Velocity P-wave (km/s) = 9.68313 7.89187 3.96745
#
# Compressibility (1/GPa) = 0.03299275
#
# Stress axis : x y z
#
# Youngs Moduli (GPa) = 51.75594 96.12487 121.83009
#
# Poissons Ratio (x) = 0.11178 0.16655
# Poissons Ratio (y) = 0.06018 -0.00730
# Poissons Ratio (z) = 0.07075 -0.00576
#
# Static dielectric constant tensor:
#      x y z
#    x 1.878850 0.000000 0.002160 
#    y 0.000000 1.826960 0.000000 
#    z 0.002160 0.000000 1.770470 
# 
# From -- ./inp_files/75676.got.cif
#   From: 2010.05.17/outbox.cif.g08.bks.cpg/sg12_38_cif.got.tgz:75676.got - 2010.06.03 13:09:07.
