data_PCOD9189993
_publ_section_title
;
Structure prediction by ZEFSAII (Michael W. Deem and Ramdas Pophale) SiO2 
 PCOD9189993
Probable space group: C 2/M
;
_chemical_formula_sum "Si O2"
_cell_formula_units_Z 48
_cell_length_a 13.899603
_cell_length_b 30.830716
_cell_length_c 9.201858
_cell_angle_alpha 90.000000
_cell_angle_beta 40.847714
_cell_angle_gamma 90.000000
_cell_volume 2579.128616
_symmetry_space_group_name_H-M "C 2/M"
_symmetry_group_IT_number 12
_symmetry_cell_setting 'monoclinic'
loop_
_space_group_symop_operation_xyz
x,y,z
-x,y,-z
-x,-y,-z
x,-y,z
1/2+x,1/2+y,z
1/2-x,1/2+y,-z
1/2-x,1/2-y,-z
1/2+x,1/2-y,z
loop_
_atom_site_type_symbol
_atom_site_label
_atom_site_fract_x
_atom_site_fract_y
_atom_site_fract_z
Si Si1 0.916018 0.885354 0.245669
Si Si2 0.377452 0.136674 0.316845
Si Si3 0.070858 0.951231 0.259796
Si Si4 0.077447 0.261009 0.751141
Si Si5 0.698600 0.877565 0.931337
Si Si6 0.567847 0.310769 0.262614
O O1 0.744091 0.876312 0.428467
O O2 0.953802 0.929719 0.284964
O O3 0.977324 0.845415 0.270837
O O4 0.000000 0.884942 0.000000
O O5 0.416468 0.187344 0.267024
O O6 0.310840 0.124828 0.233939
O O7 0.532423 0.114603 0.167850
O O8 0.201015 0.916430 0.126337
O O9 0.000000 0.952824 0.500000
O O10 0.113716 0.000000 0.168577
O O11 0.250000 0.250000 0.500000
O O12 0.967375 0.235341 0.769333
O O13 0.000000 0.251287 0.000000
O O14 0.771021 0.832318 0.904466
O O15 0.500000 0.310483 0.500000
#
# Coordination Sequence:
#
# PCOD9189993 Si02
#       6
#     8   8   8   8   8   8
#     4  11  21  39  65  86 122 162 201 250 313 372
#     4  11  21  39  59  87 121 161 207 251 313 355
#     4  10  20  38  65  95 120 154 203 246 304 385
#     4  12  24  39  61  88 126 167 214 268 307 362
#     4  10  19  39  62  83 120 161 197 255 303 359
#     4  11  21  39  59  84 119 165 207 254 305 357
#
# _framework density 18.610935999999999
#
# number of rings (size 3 to 8) (size 9 to 14) (size 15 to 20)
#    0.000    1.167    6.667    1.500    0.000    1.000 
#    0.000    5.833    0.000    1.000    0.000    0.000 
#    0.000    0.000    0.000    0.000    0.000    0.000 
#
# Total GULP energy -133714.018464 kJ/mol
# GULP energy per Si atom -5571.417436 kJ/mol
# Density = 1.856858 g / cm^3
# Si number density = 18.610936 Si / 1000 Ang^3
#
#
#
# Elastic Constant Matrix: (Units=GPa)
#
#
# Indices 1 2 3 4 5 6 
#
# 1 59.9063 32.3609 41.1242 0.0000 -12.3195 0.0000
# 2 32.3609 98.6758 22.2076 0.0000 2.9061 0.0000
# 3 41.1242 22.2076 135.7450 0.0000 -6.7494 0.0000
# 4 0.0000 0.0000 0.0000 5.9822 0.0000 -4.6007
# 5 -12.3195 2.9061 -6.7494 0.0000 38.2697 0.0000
# 6 0.0000 0.0000 0.0000 -4.6007 0.0000 22.3837
#
#
#
# Elastic Compliance Matrix: (Units=1/GPa)
#
#
# Indices 1 2 3 4 5 6 
#
# 1 0.026940 -0.007608 -0.006514 0.000000 0.008101 0.000000
# 2 -0.007608 0.012717 0.000055 0.000000 -0.003405 0.000000
# 3 -0.006514 0.000055 0.009308 0.000000 -0.000459 0.000000
# 4 0.000000 0.000000 0.000000 0.198548 0.000000 0.040809
# 5 0.008101 -0.003405 -0.000459 0.000000 0.028916 0.000000
# 6 0.000000 0.000000 0.000000 0.040809 0.000000 0.053063
#
#
# Mechanical properties :
#
#
# Convention : Reuss Voigt Hill
#
# Bulk Modulus (GPa) = 48.00322 53.96804 50.98563
# Shear Modulus (GPa) = 13.71480 26.56940 20.14210
#
# Velocity S-wave (km/s) = 2.71757 3.78249 3.29336
# Velocity P-wave (km/s) = 5.97461 6.93810 6.47430
#
# Compressibility (1/GPa) = 0.02083194
#
# Stress axis : x y z
#
# Youngs Moduli (GPa) = 37.11939 78.63470 107.42996
#
# Poissons Ratio (x) = 0.59822 0.69982
# Poissons Ratio (y) = 0.28239 -0.00590
# Poissons Ratio (z) = 0.24180 -0.00432
#
# Static dielectric constant tensor:
#      x y z
#    x 1.653900 0.000000 -0.013170 
#    y 0.000000 1.645800 0.000000 
#    z -0.013170 0.000000 1.674070 
# 
# From -- ./inp_files/68044.got.cif
#   From: 2010.05.17/outbox.cif.g08.bks.cpg/sg12_35_cif.got.tgz:68044.got - 2010.06.03 13:09:07.
