data_PCOD9189821
_publ_section_title
;
Structure prediction by ZEFSAII (Michael W. Deem and Ramdas Pophale) SiO2 
 PCOD9189821
Probable space group: C 2/M
;
_chemical_formula_sum "Si O2"
_cell_formula_units_Z 44
_cell_length_a 23.182118
_cell_length_b 19.635336
_cell_length_c 14.905506
_cell_angle_alpha 90.000000
_cell_angle_beta 164.502435
_cell_angle_gamma 90.000000
_cell_volume 1812.885761
_symmetry_space_group_name_H-M "C 2/M"
_symmetry_group_IT_number 12
_symmetry_cell_setting 'monoclinic'
loop_
_space_group_symop_operation_xyz
x,y,z
-x,y,-z
-x,-y,-z
x,-y,z
1/2+x,1/2+y,z
1/2-x,1/2+y,-z
1/2-x,1/2-y,-z
1/2+x,1/2-y,z
loop_
_atom_site_type_symbol
_atom_site_label
_atom_site_fract_x
_atom_site_fract_y
_atom_site_fract_z
Si Si1 0.425927 0.240639 0.142306
Si Si2 0.819133 0.862754 0.544951
Si Si3 0.373432 0.000000 0.217140
Si Si4 0.442075 0.000000 0.128683
Si Si5 0.338375 0.867001 0.891925
Si Si6 0.859991 0.350558 0.199654
Si Si7 0.914810 0.000000 0.771050
O O1 0.575213 0.288200 0.303748
O O2 0.265210 0.200628 0.834119
O O3 0.488431 0.179509 0.305747
O O4 0.325455 0.297888 0.055136
O O5 0.599174 0.857526 0.272882
O O6 0.961942 0.926926 0.794337
O O7 0.748834 0.877965 0.337678
O O8 0.500000 0.000000 0.500000
O O9 0.264379 0.926455 0.045515
O O10 0.522276 0.000000 0.351227
O O11 0.305572 0.066267 0.901235
O O12 0.652552 0.000000 0.381445
O O13 0.000000 0.352195 0.500000
O O14 0.000000 0.000000 0.000000
#
# Coordination Sequence:
#
# PCOD9189821 Si02
#       7
#     8   8   4   4   8   8   4
#     4  11  21  37  59  87 125 153 196 254 301 354
#     4  10  22  39  61  90 118 158 197 244 303 360
#     4  10  20  37  58  81 111 155 207 239 287 356
#     4  10  19  38  64  84 113 159 203 246 293 362
#     4  10  20  39  63  88 118 156 201 245 300 364
#     4  10  22  37  57  85 116 161 203 245 298 353
#     4  10  23  41  60  91 122 155 197 247 301 351
#
# _framework density 24.270696000000001
#
# number of rings (size 3 to 8) (size 9 to 14) (size 15 to 20)
#    0.000    1.818    1.818    2.182    0.000    5.818 
#    9.818    0.000    0.000    1.091    0.000    0.000 
#    0.000    0.000    0.000    0.000    0.000    0.000 
#
# Total GULP energy -122662.349047 kJ/mol
# GULP energy per Si atom -5575.561320 kJ/mol
# Density = 2.421545 g / cm^3
# Si number density = 24.270696 Si / 1000 Ang^3
#
#
#
# Elastic Constant Matrix: (Units=GPa)
#
#
# Indices 1 2 3 4 5 6 
#
# 1 103.8107 59.6856 10.3892 -0.0002 -26.0029 0.0000
# 2 59.6856 235.6912 36.5511 0.0000 -23.3558 0.0000
# 3 10.3892 36.5511 32.4254 -0.0015 -17.3460 0.0003
# 4 -0.0002 0.0000 -0.0015 29.6344 -0.0003 -17.6590
# 5 -26.0029 -23.3558 -17.3460 -0.0003 38.3329 0.0001
# 6 0.0000 0.0000 0.0003 -17.6590 0.0001 45.6275
#
#
#
# Elastic Compliance Matrix: (Units=1/GPa)
#
#
# Indices 1 2 3 4 5 6 
#
# 1 0.013242 -0.003092 0.004011 0.000000 0.008914 0.000000
# 2 -0.003092 0.005877 -0.006386 0.000000 -0.001407 0.000000
# 3 0.004011 -0.006386 0.047666 0.000003 0.020399 0.000001
# 4 0.000000 0.000000 0.000003 0.043860 0.000002 0.016975
# 5 0.008914 -0.001407 0.020399 0.000002 0.040508 0.000000
# 6 0.000000 0.000000 0.000001 0.016975 0.000000 0.028486
#
#
# Mechanical properties :
#
#
# Convention : Reuss Voigt Hill
#
# Bulk Modulus (GPa) = 17.90492 65.01990 41.46241
# Shear Modulus (GPa) = 23.90162 40.40571 32.15367
#
# Velocity S-wave (km/s) = 3.14155 4.08462 3.64372
# Velocity P-wave (km/s) = 4.53346 7.00664 5.90107
#
# Compressibility (1/GPa) = 0.05585058
#
# Stress axis : x y z
#
# Youngs Moduli (GPa) = 75.51700 170.15811 20.97914
#
# Poissons Ratio (x) = 0.52615 -0.08415
# Poissons Ratio (y) = 0.23351 0.13398
# Poissons Ratio (z) = -0.30291 1.08670
#
# Static dielectric constant tensor:
#      x y z
#    x 1.990710 0.000000 0.061000 
#    y 0.000000 2.005390 0.000000 
#    z 0.061000 0.000000 1.966720 
# 
# From -- ./inp_files/241417.got.cif
#   From: 2010.05.17/outbox.cif.g08.bks.cpg/sg12_121_cif.got.tgz:241417.got - 2010.06.03 13:09:07.
