data_PCOD9189859
_publ_section_title
;
Structure prediction by ZEFSAII (Michael W. Deem and Ramdas Pophale) SiO2 
 PCOD9189859
Probable space group: C 2/M
;
_chemical_formula_sum "Si O2"
_cell_formula_units_Z 52
_cell_length_a 32.658233
_cell_length_b 7.648444
_cell_length_c 15.094908
_cell_angle_alpha 90.000000
_cell_angle_beta 133.491655
_cell_angle_gamma 90.000000
_cell_volume 2735.385049
_symmetry_space_group_name_H-M "C 2/M"
_symmetry_group_IT_number 12
_symmetry_cell_setting 'monoclinic'
loop_
_space_group_symop_operation_xyz
x,y,z
-x,y,-z
-x,-y,-z
x,-y,z
1/2+x,1/2+y,z
1/2-x,1/2+y,-z
1/2-x,1/2-y,-z
1/2+x,1/2-y,z
loop_
_atom_site_type_symbol
_atom_site_label
_atom_site_fract_x
_atom_site_fract_y
_atom_site_fract_z
Si Si1 0.582946 0.704055 0.654120
Si Si2 0.196816 0.203175 0.360108
Si Si3 0.609607 0.000000 0.016714
Si Si4 0.521944 0.287749 0.387139
Si Si5 0.799372 0.207299 0.843170
Si Si6 0.711708 0.206907 0.858570
Si Si7 0.016276 0.500000 0.236418
Si Si8 0.393137 0.000000 0.776154
O O1 0.569661 0.500000 0.630181
O O2 0.539238 0.767585 0.663381
O O3 0.565498 0.766399 0.530170
O O4 0.648400 0.724482 0.771795
O O5 0.250000 0.250000 0.500000
O O6 0.211320 0.229544 0.277538
O O7 0.145123 0.331406 0.303282
O O8 0.182097 0.000000 0.350280
O O9 0.647734 0.829376 0.053601
O O10 0.597981 0.000000 0.105026
O O11 0.550542 0.000000 0.879670
O O12 0.524033 0.500000 0.375424
O O13 0.532071 0.172628 0.315974
O O14 0.746051 0.264709 0.822634
O O15 0.810146 0.000000 0.875573
O O16 0.706079 0.000000 0.844115
O O17 0.750000 0.250000 0.000000
O O18 0.050225 0.500000 0.195485
#
# Coordination Sequence:
#
# PCOD9189859 Si02
#       8
#     8   8   4   8   8   8   4   4
#     4   9  20  40  59  80 122 161 195 246 299 355
#     4  10  19  38  65  89 121 160 194 240 304 362
#     4  10  23  42  65  79 122 160 199 244 308 359
#     4   9  22  41  60  86 118 161 202 244 305 354
#     4   9  22  40  57  86 120 158 198 242 303 364
#     4  11  24  36  56  88 123 155 201 248 294 356
#     4  12  25  37  66  92 114 154 211 254 293 354
#     4  10  23  42  57  93 124 153 199 249 300 359
#
# _framework density 19.010121000000002
#
# number of rings (size 3 to 8) (size 9 to 14) (size 15 to 20)
#    0.000    2.154    0.769    1.615    6.462    3.077 
#    0.000    1.538    0.000    4.615    0.000    0.000 
#    0.000    0.000    0.000    0.000    0.000    0.000 
#
# Total GULP energy -145095.014692 kJ/mol
# GULP energy per Si atom -5580.577488 kJ/mol
# Density = 1.896685 g / cm^3
# Si number density = 19.010121 Si / 1000 Ang^3
#
#
#
# Elastic Constant Matrix: (Units=GPa)
#
#
# Indices 1 2 3 4 5 6 
#
# 1 61.1548 13.2482 14.4954 0.0000 10.8782 0.0000
# 2 13.2482 72.3333 13.5498 0.0000 -3.9450 0.0000
# 3 14.4954 13.5498 79.6657 0.0000 16.0220 0.0000
# 4 0.0000 0.0000 0.0000 15.6514 0.0000 -20.1712
# 5 10.8782 -3.9450 16.0220 0.0000 17.1149 0.0000
# 6 0.0000 0.0000 0.0000 -20.1712 0.0000 -24.3159
#
#
#
# Elastic Compliance Matrix: (Units=1/GPa)
#
#
# Indices 1 2 3 4 5 6 
#
# 1 0.019700 -0.004306 -0.000165 0.000000 -0.013359 0.000000
# 2 -0.004306 0.015905 -0.003954 0.000000 0.010104 0.000000
# 3 -0.000165 -0.003954 0.016529 0.000000 -0.016280 0.000000
# 4 0.000000 0.000000 0.000000 0.030879 0.000000 -0.025616
# 5 -0.013359 0.010104 -0.016280 0.000000 0.084489 0.000000
# 6 0.000000 0.000000 0.000000 -0.025616 0.000000 -0.019876
#
#
# Mechanical properties :
#
#
# Convention : Reuss Voigt Hill
#
# Bulk Modulus (GPa) = 28.34114 32.86007 30.60060
# Shear Modulus (GPa) = 28.37058 13.14744 20.75901
#
# Velocity S-wave (km/s) = 3.86734 2.63269 3.30812
# Velocity P-wave (km/s) = 5.90615 5.15407 5.54288
#
# Compressibility (1/GPa) = 0.03528440
#
# Stress axis : x y z
#
# Youngs Moduli (GPa) = 50.76079 62.87229 60.49894
#
# Poissons Ratio (x) = 0.27071 0.01001
# Poissons Ratio (y) = 0.21857 0.23921
# Poissons Ratio (z) = 0.00840 0.24859
#
# Static dielectric constant tensor:
#      x y z
#    x 1.654310 0.000000 -0.014590 
#    y 0.000000 1.674490 0.000000 
#    z -0.014590 0.000000 1.623560 
# 
# From -- ./inp_files/250204.got.cif
#   From: 2010.05.17/outbox.cif.g08.bks.cpg/sg12_126_cif.got.tgz:250204.got - 2010.06.03 13:09:07.
