data_PCOD9189135
_publ_section_title
;
Structure prediction by ZEFSAII (Michael W. Deem and Ramdas Pophale) SiO2 
 PCOD9189135
Probable space group: C 2/M
;
_chemical_formula_sum "Si O2"
_cell_formula_units_Z 48
_cell_length_a 9.693681
_cell_length_b 29.668733
_cell_length_c 13.606812
_cell_angle_alpha 90.000000
_cell_angle_beta 31.096951
_cell_angle_gamma 90.000000
_cell_volume 2021.176052
_symmetry_space_group_name_H-M "C 2/M"
_symmetry_group_IT_number 12
_symmetry_cell_setting 'monoclinic'
loop_
_space_group_symop_operation_xyz
x,y,z
-x,y,-z
-x,-y,-z
x,-y,z
1/2+x,1/2+y,z
1/2-x,1/2+y,-z
1/2-x,1/2-y,-z
1/2+x,1/2-y,z
loop_
_atom_site_type_symbol
_atom_site_label
_atom_site_fract_x
_atom_site_fract_y
_atom_site_fract_z
Si Si1 0.823061 0.951073 0.795761
Si Si2 0.109531 0.645054 0.320895
Si Si3 0.001671 0.797955 0.815180
Si Si4 0.800597 0.143769 0.771675
Si Si5 0.773925 0.949871 0.269424
Si Si6 0.590050 0.200565 0.732538
O O1 0.887443 0.906825 0.693697
O O2 0.976248 0.944508 0.807136
O O3 0.914761 0.000000 0.702431
O O4 0.500000 0.953087 0.000000
O O5 0.326974 0.684484 0.199058
O O6 0.231706 0.595029 0.229712
O O7 0.931289 0.664191 0.341314
O O8 0.000000 0.643561 0.500000
O O9 0.981602 0.836791 0.746804
O O10 0.133899 0.753508 0.686857
O O11 0.699673 0.795163 0.037921
O O12 0.781049 0.180058 0.698492
O O13 0.500000 0.140137 0.000000
O O14 0.500000 0.951715 0.500000
O O15 0.797300 0.000000 0.208785
#
# Coordination Sequence:
#
# PCOD9189135 Si02
#       6
#     8   8   8   8   8   8
#     4   9  16  29  53  82 110 145 188 239 296 347
#     4  11  22  36  56  84 116 153 194 242 296 349
#     4  10  19  37  58  79 109 150 194 237 290 354
#     4   9  17  31  52  78 105 140 185 235 284 336
#     4   9  18  34  57  81 112 158 200 234 290 362
#     4  10  21  35  57  83 111 148 194 243 290 350
#
# _framework density 23.748550999999999
#
# number of rings (size 3 to 8) (size 9 to 14) (size 15 to 20)
#    0.000    2.333    1.667    1.500    0.000    3.333 
#    0.000    1.667    0.000    3.000    0.000    5.833 
#    0.000    0.000    0.000    0.000    0.000    0.000 
#
# Total GULP energy -133828.536414 kJ/mol
# GULP energy per Si atom -5576.189017 kJ/mol
# Density = 2.369450 g / cm^3
# Si number density = 23.748551 Si / 1000 Ang^3
#
#
#
# Elastic Constant Matrix: (Units=GPa)
#
#
# Indices 1 2 3 4 5 6 
#
# 1 66.2644 9.6458 0.8153 0.0000 -10.8223 0.0000
# 2 9.6458 194.0991 1.9322 0.0000 11.4059 0.0000
# 3 0.8153 1.9322 61.5109 0.0000 9.5709 0.0000
# 4 0.0000 0.0000 0.0000 43.0081 0.0000 -41.9323
# 5 -10.8223 11.4059 9.5709 0.0000 26.2551 0.0000
# 6 0.0000 0.0000 0.0000 -41.9323 0.0000 10.7045
#
#
#
# Elastic Compliance Matrix: (Units=1/GPa)
#
#
# Indices 1 2 3 4 5 6 
#
# 1 0.016585 -0.001275 -0.001410 0.000000 0.007904 0.000000
# 2 -0.001275 0.005387 0.000311 0.000000 -0.002979 0.000000
# 3 -0.001410 0.000311 0.017362 0.000000 -0.007045 0.000000
# 4 0.000000 0.000000 0.000000 -0.008247 0.000000 -0.032307
# 5 0.007904 -0.002979 -0.007045 0.000000 0.045208 0.000000
# 6 0.000000 0.000000 0.000000 -0.032307 0.000000 -0.033136
#
#
# Mechanical properties :
#
#
# Convention : Reuss Voigt Hill
#
# Bulk Modulus (GPa) = 28.91126 38.51789 33.71457
# Shear Modulus (GPa) = 84.12515 36.62561 60.37538
#
# Velocity S-wave (km/s) = 5.95820 3.93138 5.04757
# Velocity P-wave (km/s) = 7.71582 6.07140 6.94247
#
# Compressibility (1/GPa) = 0.03458861
#
# Stress axis : x y z
#
# Youngs Moduli (GPa) = 60.29621 185.62096 57.59566
#
# Poissons Ratio (x) = 0.23659 0.08119
# Poissons Ratio (y) = 0.07685 -0.01792
# Poissons Ratio (z) = 0.08499 -0.05777
#
# Static dielectric constant tensor:
#      x y z
#    x 1.827430 0.000000 -0.039280 
#    y 0.000000 1.961330 0.000000 
#    z -0.039280 0.000000 2.082350 
# 
# From -- ./inp_files/200782.got.cif
#   From: 2010.05.17/outbox.cif.g08.bks.cpg/sg12_101_cif.got.tgz:200782.got - 2010.06.03 13:09:07.
