data_PCOD9189054
_publ_section_title
;
Structure prediction by ZEFSAII (Michael W. Deem and Ramdas Pophale) SiO2 
 PCOD9189054
Probable space group: C 2/M
;
_chemical_formula_sum "Si O2"
_cell_formula_units_Z 44
_cell_length_a 11.209023
_cell_length_b 30.335846
_cell_length_c 16.451951
_cell_angle_alpha 90.000000
_cell_angle_beta 157.774151
_cell_angle_gamma 90.000000
_cell_volume 2116.069478
_symmetry_space_group_name_H-M "C 2/M"
_symmetry_group_IT_number 12
_symmetry_cell_setting 'monoclinic'
loop_
_space_group_symop_operation_xyz
x,y,z
-x,y,-z
-x,-y,-z
x,-y,z
1/2+x,1/2+y,z
1/2-x,1/2+y,-z
1/2-x,1/2-y,-z
1/2+x,1/2-y,z
loop_
_atom_site_type_symbol
_atom_site_label
_atom_site_fract_x
_atom_site_fract_y
_atom_site_fract_z
Si Si1 0.853589 0.549570 0.754215
Si Si2 0.179664 0.317019 0.494850
Si Si3 0.171563 0.618733 0.833881
Si Si4 0.282772 0.323264 0.058211
Si Si5 0.500000 0.895144 0.000000
Si Si6 0.826894 0.767322 0.304449
O O1 0.500000 0.546872 0.500000
O O2 0.986025 0.500000 0.844759
O O3 0.037054 0.579500 0.804344
O O4 0.839198 0.573580 0.832241
O O5 0.351042 0.315071 0.690742
O O6 0.469714 0.300673 0.621931
O O7 0.055575 0.362626 0.380204
O O8 0.904466 0.280483 0.316621
O O9 0.500000 0.606479 0.000000
O O10 0.223908 0.658815 0.930904
O O11 0.200031 0.362809 0.068496
O O12 0.034248 0.283630 0.918033
O O13 0.000000 0.770567 0.500000
#
# Coordination Sequence:
#
# PCOD9189054 Si02
#       6
#     8   8   8   8   4   8
#     4  10  22  41  71 102 127 159 206 261 318 391
#     4  11  24  40  60  87 128 165 217 271 319 374
#     4  11  26  42  64  95 130 170 213 261 324 387
#     4  11  22  41  64  88 126 175 215 270 319 368
#     4  10  19  36  68  94 126 156 208 258 313 372
#     4  11  23  39  60  90 122 171 225 273 311 367
#
# _framework density 20.793268000000001
#
# number of rings (size 3 to 8) (size 9 to 14) (size 15 to 20)
#    0.000    1.273    3.636    1.364    5.091    4.000 
#    0.000    0.000    0.000    0.000    0.000   10.182 
#    0.000    0.000    0.000    0.000    0.000    0.000 
#
# Total GULP energy -122916.971335 kJ/mol
# GULP energy per Si atom -5587.135061 kJ/mol
# Density = 2.074594 g / cm^3
# Si number density = 20.793268 Si / 1000 Ang^3
#
#
#
# Elastic Constant Matrix: (Units=GPa)
#
#
# Indices 1 2 3 4 5 6 
#
# 1 78.5747 21.4891 38.3528 -0.0001 2.3469 0.0004
# 2 21.4891 85.4792 49.6694 -0.0001 0.4666 -0.0001
# 3 38.3528 49.6694 109.7796 0.0003 -5.8349 0.0013
# 4 -0.0001 -0.0001 0.0003 26.4290 0.0001 -8.6070
# 5 2.3469 0.4666 -5.8349 0.0001 38.4382 0.0007
# 6 0.0004 -0.0001 0.0013 -8.6070 0.0007 48.6454
#
#
#
# Elastic Compliance Matrix: (Units=1/GPa)
#
#
# Indices 1 2 3 4 5 6 
#
# 1 0.015517 -0.000934 -0.005089 0.000000 -0.001709 0.000000
# 2 -0.000934 0.015992 -0.006972 0.000000 -0.001196 0.000000
# 3 -0.005089 -0.006972 0.014177 0.000000 0.002547 0.000000
# 4 0.000000 0.000000 0.000000 0.040151 0.000000 0.007104
# 5 -0.001709 -0.001196 0.002547 0.000000 0.026521 0.000000
# 6 0.000000 0.000000 0.000000 0.007104 0.000000 0.021814
#
#
# Mechanical properties :
#
#
# Convention : Reuss Voigt Hill
#
# Bulk Modulus (GPa) = 50.77687 54.76180 52.76933
# Shear Modulus (GPa) = 29.98876 33.65734 31.82305
#
# Velocity S-wave (km/s) = 3.80180 4.02763 3.91634
# Velocity P-wave (km/s) = 6.61396 6.92983 6.77373
#
# Compressibility (1/GPa) = 0.01969401
#
# Stress axis : x y z
#
# Youngs Moduli (GPa) = 64.44366 62.53250 70.53583
#
# Poissons Ratio (x) = 0.05844 0.35897
# Poissons Ratio (y) = 0.06022 0.49181
# Poissons Ratio (z) = 0.32797 0.43600
#
# Static dielectric constant tensor:
#      x y z
#    x 1.805070 0.000000 -0.041780 
#    y 0.000000 1.755910 0.000000 
#    z -0.041780 0.000000 1.787860 
# 
# From -- ./inp_files/266342.got.cif
#   From: 2010.05.17/outbox.cif.g08.bks.cpg/sg12_134_cif.got.tgz:266342.got - 2010.06.03 13:09:07.
