data_PCOD9189752
_publ_section_title
;
Structure prediction by ZEFSAII (Michael W. Deem and Ramdas Pophale) SiO2 
 PCOD9189752
Probable space group: C 2/M
;
_chemical_formula_sum "Si O2"
_cell_formula_units_Z 56
_cell_length_a 26.678618
_cell_length_b 16.237676
_cell_length_c 9.163711
_cell_angle_alpha 90.000000
_cell_angle_beta 143.509236
_cell_angle_gamma 90.000000
_cell_volume 2360.758465
_symmetry_space_group_name_H-M "C 2/M"
_symmetry_group_IT_number 12
_symmetry_cell_setting 'monoclinic'
loop_
_space_group_symop_operation_xyz
x,y,z
-x,y,-z
-x,-y,-z
x,-y,z
1/2+x,1/2+y,z
1/2-x,1/2+y,-z
1/2-x,1/2-y,-z
1/2+x,1/2-y,z
loop_
_atom_site_type_symbol
_atom_site_label
_atom_site_fract_x
_atom_site_fract_y
_atom_site_fract_z
Si Si1 0.149876 0.684596 0.370654
Si Si2 0.698736 0.692988 0.047405
Si Si3 0.314812 0.126643 0.110483
Si Si4 0.423328 0.351303 0.737053
Si Si5 0.024776 0.767665 0.727574
Si Si6 0.737544 0.912419 0.327889
Si Si7 0.965119 0.406857 0.681300
O O1 0.220614 0.704996 0.658911
O O2 0.097253 0.766997 0.223433
O O3 0.198133 0.654453 0.342073
O O4 0.087404 0.617224 0.295884
O O5 0.730787 0.621630 0.013830
O O6 0.679550 0.775749 0.910641
O O7 0.613844 0.684502 0.940573
O O8 0.394998 0.096393 0.387920
O O9 0.304667 0.088627 0.928986
O O10 0.455508 0.318116 0.656820
O O11 0.336258 0.398742 0.530922
O O12 0.500000 0.393975 0.000000
O O13 0.000000 0.764936 0.500000
O O14 0.023825 0.672559 0.783743
O O15 0.724312 0.000000 0.371183
O O16 0.000204 0.500000 0.770712
#
# Coordination Sequence:
#
# PCOD9189752 Si02
#       7
#     8   8   8   8   8   8   8
#     4  10  22  40  65  82 114 159 203 240 278 349
#     4  10  19  38  62  87 113 148 206 239 281 336
#     4  10  20  36  61  88 114 151 196 250 277 335
#     4  11  24  39  61  86 116 154 196 248 288 340
#     4  11  21  35  59  88 116 154 193 240 283 346
#     4  12  24  39  61  90 120 153 196 245 297 344
#     4  10  21  38  57  88 127 158 185 231 298 353
#
# _framework density 23.72119
#
# number of rings (size 3 to 8) (size 9 to 14) (size 15 to 20)
#    0.000    1.429    2.857    3.000    2.000    0.571 
#    0.000    0.000    0.000    6.857    0.000    0.000 
#    0.000    0.000    0.000    0.000    0.000    0.000 
#
# Total GULP energy -156697.051473 kJ/mol
# GULP energy per Si atom -5596.323267 kJ/mol
# Density = 2.366720 g / cm^3
# Si number density = 23.721190 Si / 1000 Ang^3
#
#
#
# Elastic Constant Matrix: (Units=GPa)
#
#
# Indices 1 2 3 4 5 6 
#
# 1 143.7127 10.4578 32.4007 0.0000 1.6497 0.0000
# 2 10.4578 48.9648 2.8579 0.0000 -1.7692 0.0000
# 3 32.4007 2.8579 78.5236 0.0000 15.7122 0.0000
# 4 0.0000 0.0000 0.0000 -16.3294 0.0000 2.5464
# 5 1.6497 -1.7692 15.7122 0.0000 38.5218 0.0000
# 6 0.0000 0.0000 0.0000 2.5464 0.0000 4.9328
#
#
#
# Elastic Compliance Matrix: (Units=1/GPa)
#
#
# Indices 1 2 3 4 5 6 
#
# 1 0.007810 -0.001437 -0.003365 0.000000 0.000972 0.000000
# 2 -0.001437 0.020796 -0.000400 0.000000 0.001180 0.000000
# 3 -0.003365 -0.000400 0.015367 0.000000 -0.006142 0.000000
# 4 0.000000 0.000000 0.000000 -0.056677 0.000000 0.029258
# 5 0.000972 0.001180 -0.006142 0.000000 0.028477 0.000000
# 6 0.000000 0.000000 0.000000 0.029258 0.000000 0.187622
#
#
# Mechanical properties :
#
#
# Convention : Reuss Voigt Hill
#
# Bulk Modulus (GPa) = 29.78883 40.29266 35.04074
# Shear Modulus (GPa) = 22.22333 20.45735 21.34034
#
# Velocity S-wave (km/s) = 3.06413 2.93986 3.00264
# Velocity P-wave (km/s) = 5.01036 5.34290 5.17930
#
# Compressibility (1/GPa) = 0.03356963
#
# Stress axis : x y z
#
# Youngs Moduli (GPa) = 128.03516 48.08700 65.07421
#
# Poissons Ratio (x) = 0.06908 0.21897
# Poissons Ratio (y) = 0.18394 0.02604
# Poissons Ratio (z) = 0.43083 0.01924
#
# Static dielectric constant tensor:
#      x y z
#    x 1.955750 0.000000 0.013250 
#    y 0.000000 1.872160 0.000000 
#    z 0.013250 0.000000 1.924260 
# 
# From -- ./inp_files/106053.got.cif
#   From: 2010.05.17/outbox.cif.g08.bks.cpg/sg12_54_cif.got.tgz:106053.got - 2010.06.03 13:09:07.
