data_PCOD9189350
_publ_section_title
;
Structure prediction by ZEFSAII (Michael W. Deem and Ramdas Pophale) SiO2 
 PCOD9189350
Probable space group: C 2/M
;
_chemical_formula_sum "Si O2"
_cell_formula_units_Z 56
_cell_length_a 9.728676
_cell_length_b 16.988370
_cell_length_c 19.644578
_cell_angle_alpha 90.000000
_cell_angle_beta 66.060671
_cell_angle_gamma 90.000000
_cell_volume 2967.445674
_symmetry_space_group_name_H-M "C 2/M"
_symmetry_group_IT_number 12
_symmetry_cell_setting 'monoclinic'
loop_
_space_group_symop_operation_xyz
x,y,z
-x,y,-z
-x,-y,-z
x,-y,z
1/2+x,1/2+y,z
1/2-x,1/2+y,-z
1/2-x,1/2-y,-z
1/2+x,1/2-y,z
loop_
_atom_site_type_symbol
_atom_site_label
_atom_site_fract_x
_atom_site_fract_y
_atom_site_fract_z
Si Si1 0.105782 0.404116 0.917118
Si Si2 0.855824 0.405723 0.574272
Si Si3 0.707290 0.350107 0.292187
Si Si4 0.011882 0.407623 0.209185
Si Si5 0.072484 0.908594 0.181537
Si Si6 0.037081 0.089061 0.571357
Si Si7 0.252817 0.167913 0.739925
O O1 0.110101 0.500000 0.915691
O O2 0.280717 0.379404 0.889852
O O3 0.034396 0.381719 0.858220
O O4 0.000000 0.378349 0.000000
O O5 0.872396 0.500000 0.583309
O O6 0.707325 0.393409 0.558040
O O7 0.820020 0.365915 0.654761
O O8 0.000000 0.380108 0.500000
O O9 0.638373 0.399978 0.244162
O O10 0.577175 0.349985 0.373187
O O11 0.744259 0.261751 0.263734
O O12 0.860775 0.392040 0.283102
O O13 0.047045 0.500000 0.200477
O O14 0.144752 0.361520 0.218539
O O15 0.916838 0.862040 0.213258
O O16 0.042424 0.000000 0.171385
O O17 0.000000 0.088042 0.500000
O O18 0.005720 0.000000 0.603893
#
# Coordination Sequence:
#
# PCOD9189350 Si02
#       7
#     8   8   8   8   8   8   8
#     4   8  16  34  61  90 116 146 190 238 280 331
#     4  10  22  39  57  79 111 151 190 237 293 342
#     4  11  22  37  56  83 114 151 191 238 285 334
#     4  10  21  35  58  86 114 149 191 232 278 340
#     4  10  19  37  62  82 110 155 194 227 279 346
#     4  10  21  38  60  81 106 147 201 243 283 347
#     4  12  23  36  56  87 120 149 187 243 294 336
#
# _framework density 18.871449999999999
#
# number of rings (size 3 to 8) (size 9 to 14) (size 15 to 20)
#    0.000    1.857    1.429    4.286    2.000    0.571 
#    0.000    2.143    0.000   17.143    0.000    0.000 
#    0.000    0.000    0.000    0.000    0.000    0.143 
#
# Total GULP energy -156123.600107 kJ/mol
# GULP energy per Si atom -5575.842861 kJ/mol
# Density = 1.882850 g / cm^3
# Si number density = 18.871450 Si / 1000 Ang^3
#
#
#
# Elastic Constant Matrix: (Units=GPa)
#
#
# Indices 1 2 3 4 5 6 
#
# 1 115.8691 19.0449 51.1285 0.0000 -19.6906 0.0000
# 2 19.0449 47.7525 25.4033 0.0000 -8.0194 0.0000
# 3 51.1285 25.4033 110.1188 0.0000 -26.9728 0.0000
# 4 0.0000 0.0000 0.0000 9.1144 0.0000 -9.3747
# 5 -19.6906 -8.0194 -26.9728 0.0000 29.3958 0.0000
# 6 0.0000 0.0000 0.0000 -9.3747 0.0000 8.0750
#
#
#
# Elastic Compliance Matrix: (Units=1/GPa)
#
#
# Indices 1 2 3 4 5 6 
#
# 1 0.011261 -0.001803 -0.003980 0.000000 0.003399 0.000000
# 2 -0.001803 0.024240 -0.004426 0.000000 0.001344 0.000000
# 3 -0.003980 -0.004426 0.014191 0.000000 0.009148 0.000000
# 4 0.000000 0.000000 0.000000 -0.565240 0.000000 -0.656215
# 5 0.003399 0.001344 0.009148 0.000000 0.045056 0.000000
# 6 0.000000 0.000000 0.000000 -0.656215 0.000000 -0.637994
#
#
# Mechanical properties :
#
#
# Convention : Reuss Voigt Hill
#
# Bulk Modulus (GPa) = 34.15900 51.65486 42.90693
# Shear Modulus (GPa) = -4.63688 21.19463 8.27887
#
# Velocity S-wave (km/s) = -1.56921 3.35491 2.09679
# Velocity P-wave (km/s) = 3.85447 6.51449 5.35236
#
# Compressibility (1/GPa) = 0.02927486
#
# Stress axis : x y z
#
# Youngs Moduli (GPa) = 88.80556 41.25334 70.46965
#
# Poissons Ratio (x) = 0.07438 0.28045
# Poissons Ratio (y) = 0.16012 0.31187
# Poissons Ratio (z) = 0.35343 0.18257
#
# Static dielectric constant tensor:
#      x y z
#    x 1.642000 0.000000 -0.031060 
#    y 0.000000 1.647520 0.000000 
#    z -0.031060 0.000000 1.735040 
# 
# From -- ./inp_files/300666.got.cif
#   From: 2010.05.17/outbox.cif.g08.bks.cpg/sg12_151_cif.got.tgz:300666.got - 2010.06.03 13:09:07.
