data_PCOD9189303
_publ_section_title
;
Structure prediction by ZEFSAII (Michael W. Deem and Ramdas Pophale) SiO2 
 PCOD9189303
Probable space group: C 2/M
;
_chemical_formula_sum "Si O2"
_cell_formula_units_Z 56
_cell_length_a 18.989071
_cell_length_b 7.788996
_cell_length_c 18.624628
_cell_angle_alpha 90.000000
_cell_angle_beta 111.495096
_cell_angle_gamma 90.000000
_cell_volume 2563.098809
_symmetry_space_group_name_H-M "C 2/M"
_symmetry_group_IT_number 12
_symmetry_cell_setting 'monoclinic'
loop_
_space_group_symop_operation_xyz
x,y,z
-x,y,-z
-x,-y,-z
x,-y,z
1/2+x,1/2+y,z
1/2-x,1/2+y,-z
1/2-x,1/2-y,-z
1/2+x,1/2-y,z
loop_
_atom_site_type_symbol
_atom_site_label
_atom_site_fract_x
_atom_site_fract_y
_atom_site_fract_z
Si Si1 0.639027 0.793013 0.164202
Si Si2 0.322583 0.302680 0.482591
Si Si3 0.916513 0.709757 0.262821
Si Si4 0.221579 0.703965 0.694186
Si Si5 0.982550 0.303956 0.569906
Si Si6 0.033596 0.710367 0.876184
Si Si7 0.822586 0.706555 0.978379
O O1 0.693272 0.745068 0.250412
O O2 0.552095 0.733450 0.139086
O O3 0.676644 0.730298 0.103603
O O4 0.636535 0.000000 0.160835
O O5 0.341268 0.500000 0.502601
O O6 0.250000 0.250000 0.500000
O O7 0.305624 0.277137 0.392008
O O8 0.392877 0.195627 0.538346
O O9 0.916862 0.500000 0.259182
O O10 0.835293 0.763459 0.263850
O O11 0.939317 0.767941 0.192454
O O12 0.977253 0.768130 0.345142
O O13 0.213805 0.500000 0.684917
O O14 0.012402 0.500000 0.576488
O O15 0.000000 0.217340 0.500000
O O16 0.032406 0.500000 0.876826
O O17 0.098774 0.764842 0.955809
O O18 0.824953 0.500000 0.976829
O O19 0.750000 0.750000 0.000000
#
# Coordination Sequence:
#
# PCOD9189303 Si02
#       7
#     8   8   8   8   8   8   8
#     4  10  21  36  57  87 119 153 197 250 296 346
#     4  12  26  42  61  87 120 159 203 252 303 357
#     4   9  18  33  57  84 113 153 200 242 288 352
#     4  11  22  40  61  86 119 157 198 243 297 360
#     4  10  19  37  61  86 118 157 200 247 299 356
#     4   9  18  34  57  85 115 154 199 239 289 351
#     4  10  20  36  59  86 118 155 197 244 293 352
#
# _framework density 21.848554
#
# number of rings (size 3 to 8) (size 9 to 14) (size 15 to 20)
#    0.000    1.857    1.429    3.000    2.000    3.714 
#    0.000    0.714    0.000    4.286    0.000    0.000 
#    0.000    0.000    0.000    0.000    0.000    0.000 
#
# Total GULP energy -156410.372893 kJ/mol
# GULP energy per Si atom -5586.084746 kJ/mol
# Density = 2.179883 g / cm^3
# Si number density = 21.848554 Si / 1000 Ang^3
#
#
#
# Elastic Constant Matrix: (Units=GPa)
#
#
# Indices 1 2 3 4 5 6 
#
# 1 109.1457 -4.6968 9.7607 0.0000 12.5163 0.0000
# 2 -4.6968 43.5739 0.9819 0.0000 -4.3333 0.0000
# 3 9.7607 0.9819 84.4185 0.0000 15.3513 0.0000
# 4 0.0000 0.0000 0.0000 -2.1893 0.0000 0.8946
# 5 12.5163 -4.3333 15.3513 0.0000 43.9715 0.0000
# 6 0.0000 0.0000 0.0000 0.8946 0.0000 21.6004
#
#
#
# Elastic Compliance Matrix: (Units=1/GPa)
#
#
# Indices 1 2 3 4 5 6 
#
# 1 0.009532 0.000804 -0.000675 0.000000 -0.002398 0.000000
# 2 0.000804 0.023287 -0.000790 0.000000 0.002342 0.000000
# 3 -0.000675 -0.000790 0.012720 0.000000 -0.004326 0.000000
# 4 0.000000 0.000000 0.000000 -0.449160 0.000000 0.018603
# 5 -0.002398 0.002342 -0.004326 0.000000 0.025166 0.000000
# 6 0.000000 0.000000 0.000000 0.018603 0.000000 0.045525
#
#
# Mechanical properties :
#
#
# Convention : Reuss Voigt Hill
#
# Bulk Modulus (GPa) = 22.61573 27.69218 25.15395
# Shear Modulus (GPa) = -15.77934 28.08267 6.15166
#
# Velocity S-wave (km/s) = -2.69032 3.58904 1.67979
# Velocity P-wave (km/s) = 0.85040 5.46599 3.91154
#
# Compressibility (1/GPa) = 0.04421701
#
# Stress axis : x y z
#
# Youngs Moduli (GPa) = 104.90879 42.94267 78.61798
#
# Poissons Ratio (x) = -0.03453 0.05310
# Poissons Ratio (y) = -0.08437 0.06208
# Poissons Ratio (z) = 0.07085 0.03391
#
# Static dielectric constant tensor:
#      x y z
#    x 1.788380 0.000000 -0.019640 
#    y 0.000000 1.828890 0.000000 
#    z -0.019640 0.000000 1.767450 
# 
# From -- ./inp_files/275532.got.cif
#   From: 2010.05.17/outbox.cif.g08.bks.cpg/sg12_138_cif.got.tgz:275532.got - 2010.06.03 13:09:07.
