data_PCOD9189369
_publ_section_title
;
Structure prediction by ZEFSAII (Michael W. Deem and Ramdas Pophale) SiO2 
 PCOD9189369
Probable space group: C 2/M
;
_chemical_formula_sum "Si O2"
_cell_formula_units_Z 48
_cell_length_a 14.131211
_cell_length_b 19.262746
_cell_length_c 10.179279
_cell_angle_alpha 90.000000
_cell_angle_beta 73.174902
_cell_angle_gamma 90.000000
_cell_volume 2652.247319
_symmetry_space_group_name_H-M "C 2/M"
_symmetry_group_IT_number 12
_symmetry_cell_setting 'monoclinic'
loop_
_space_group_symop_operation_xyz
x,y,z
-x,y,-z
-x,-y,-z
x,-y,z
1/2+x,1/2+y,z
1/2-x,1/2+y,-z
1/2-x,1/2-y,-z
1/2+x,1/2-y,z
loop_
_atom_site_type_symbol
_atom_site_label
_atom_site_fract_x
_atom_site_fract_y
_atom_site_fract_z
Si Si1 0.826742 0.304765 0.035358
Si Si2 0.799328 0.080681 0.466703
Si Si3 0.687381 0.417980 0.222729
Si Si4 0.023328 0.301558 0.793802
Si Si5 0.915532 0.579676 0.426023
Si Si6 0.510232 0.341224 0.653532
O O1 0.763538 0.371036 0.109893
O O2 0.891334 0.279972 0.136004
O O3 0.750000 0.250000 0.000000
O O4 0.917791 0.320575 0.900806
O O5 0.795001 0.090721 0.626993
O O6 0.689141 0.096214 0.464645
O O7 0.882123 0.126757 0.366541
O O8 0.824166 0.000000 0.435376
O O9 0.693549 0.500000 0.190841
O O10 0.576849 0.387523 0.249309
O O11 0.062593 0.367046 0.697763
O O12 0.004284 0.236303 0.707995
O O13 0.908236 0.500000 0.380161
O O14 0.000000 0.583722 0.500000
O O15 0.500000 0.342821 0.500000
#
# Coordination Sequence:
#
# PCOD9189369 Si02
#       6
#     8   8   8   8   8   8
#     4  11  23  40  58  81 117 155 198 246 283 334
#     4   9  18  34  56  86 119 148 187 239 290 344
#     4  10  19  37  62  86 113 150 194 241 287 344
#     4  11  23  37  59  84 115 157 196 239 294 345
#     4  10  21  37  56  85 122 154 190 240 293 349
#     4  10  20  35  59  92 116 146 190 238 300 356
#
# _framework density 18.097860000000001
#
# number of rings (size 3 to 8) (size 9 to 14) (size 15 to 20)
#    0.000    1.833    3.333    1.000    0.000    4.667 
#    0.000    1.667    0.000    3.000    0.000    0.000 
#    0.000    0.000    0.000    0.000    0.000    0.000 
#
# Total GULP energy -133805.349729 kJ/mol
# GULP energy per Si atom -5575.222905 kJ/mol
# Density = 1.805667 g / cm^3
# Si number density = 18.097860 Si / 1000 Ang^3
#
#
#
# Elastic Constant Matrix: (Units=GPa)
#
#
# Indices 1 2 3 4 5 6 
#
# 1 118.4728 47.3550 29.0564 0.0000 -30.6552 0.0000
# 2 47.3550 82.8670 41.0142 0.0000 -27.2558 0.0000
# 3 29.0564 41.0142 53.4061 0.0000 -29.4351 0.0000
# 4 0.0000 0.0000 0.0000 22.6624 0.0000 -7.6071
# 5 -30.6552 -27.2558 -29.4351 0.0000 30.5186 0.0000
# 6 0.0000 0.0000 0.0000 -7.6071 0.0000 25.7690
#
#
#
# Elastic Compliance Matrix: (Units=1/GPa)
#
#
# Indices 1 2 3 4 5 6 
#
# 1 0.012591 -0.005121 0.003271 0.000000 0.011229 0.000000
# 2 -0.005121 0.022140 -0.013138 0.000000 0.001958 0.000000
# 3 0.003271 -0.013138 0.047775 0.000000 0.037632 0.000000
# 4 0.000000 0.000000 0.000000 0.048979 0.000000 0.014459
# 5 0.011229 0.001958 0.037632 0.000000 0.082090 0.000000
# 6 0.000000 0.000000 0.000000 0.014459 0.000000 0.043075
#
#
# Mechanical properties :
#
#
# Convention : Reuss Voigt Hill
#
# Bulk Modulus (GPa) = 19.03620 54.39968 36.71794
# Shear Modulus (GPa) = 16.44003 24.94470 20.69237
#
# Velocity S-wave (km/s) = 3.01723 3.71661 3.38503
# Velocity P-wave (km/s) = 4.76231 6.96717 5.96745
#
# Compressibility (1/GPa) = 0.05253148
#
# Stress axis : x y z
#
# Youngs Moduli (GPa) = 79.42256 45.16636 20.93152
#
# Poissons Ratio (x) = 0.23130 -0.06848
# Poissons Ratio (y) = 0.40672 0.27499
# Poissons Ratio (z) = -0.25983 0.59339
#
# Static dielectric constant tensor:
#      x y z
#    x 1.659900 0.000000 0.008290 
#    y 0.000000 1.589740 0.000000 
#    z 0.008290 0.000000 1.604500 
# 
# From -- ./inp_files/131670.got.cif
#   From: 2010.05.17/outbox.cif.g08.bks.cpg/sg12_66_cif.got.tgz:131670.got - 2010.06.03 13:09:07.
