data_PCOD9189662
_publ_section_title
;
Structure prediction by ZEFSAII (Michael W. Deem and Ramdas Pophale) SiO2 
 PCOD9189662
Probable space group: C 2/M
;
_chemical_formula_sum "Si O2"
_cell_formula_units_Z 48
_cell_length_a 9.902877
_cell_length_b 23.810210
_cell_length_c 11.447707
_cell_angle_alpha 90.000000
_cell_angle_beta 46.151347
_cell_angle_gamma 90.000000
_cell_volume 1946.624171
_symmetry_space_group_name_H-M "C 2/M"
_symmetry_group_IT_number 12
_symmetry_cell_setting 'monoclinic'
loop_
_space_group_symop_operation_xyz
x,y,z
-x,y,-z
-x,-y,-z
x,-y,z
1/2+x,1/2+y,z
1/2-x,1/2+y,-z
1/2-x,1/2-y,-z
1/2+x,1/2-y,z
loop_
_atom_site_type_symbol
_atom_site_label
_atom_site_fract_x
_atom_site_fract_y
_atom_site_fract_z
Si Si1 0.833030 0.361049 0.901826
Si Si2 0.683284 0.565987 0.811864
Si Si3 0.229618 0.563788 0.856035
Si Si4 0.245269 0.153561 0.328958
Si Si5 0.218433 0.341591 0.416429
Si Si6 0.305725 0.258895 0.173709
O O1 0.848542 0.409917 0.794773
O O2 0.765674 0.305438 0.876112
O O3 0.034433 0.346433 0.827277
O O4 0.722011 0.391254 0.072029
O O5 0.687553 0.500000 0.795362
O O6 0.708508 0.599379 0.677760
O O7 0.500000 0.581416 0.000000
O O8 0.297641 0.500000 0.835164
O O9 0.308143 0.593179 0.692036
O O10 0.000000 0.559683 0.000000
O O11 0.241566 0.161639 0.470150
O O12 0.178520 0.206270 0.290335
O O13 0.328894 0.293599 0.279714
O O14 0.000000 0.334979 0.500000
O O15 0.500000 0.241849 0.000000
#
# Coordination Sequence:
#
# PCOD9189662 Si02
#       6
#     8   8   8   8   8   8
#     4  10  19  38  59  88 122 158 203 255 305 358
#     4  10  21  38  65  93 120 162 210 254 301 366
#     4   9  19  34  56  87 121 155 194 248 309 368
#     4  11  22  37  59  88 125 158 206 255 311 364
#     4  11  21  41  58  88 128 163 201 256 317 365
#     4  11  23  39  63  87 119 163 210 258 303 369
#
# _framework density 24.658073000000002
#
# number of rings (size 3 to 8) (size 9 to 14) (size 15 to 20)
#    0.000    1.667    3.333    4.500    0.000    4.333 
#    0.000    0.000    0.000    0.000    0.000    7.000 
#    0.000    0.000    0.000    0.000    0.000    0.000 
#
# Total GULP energy -133954.811941 kJ/mol
# GULP energy per Si atom -5581.450498 kJ/mol
# Density = 2.460195 g / cm^3
# Si number density = 24.658073 Si / 1000 Ang^3
#
#
#
# Elastic Constant Matrix: (Units=GPa)
#
#
# Indices 1 2 3 4 5 6 
#
# 1 65.3344 39.1551 44.9769 0.0000 13.2484 0.0000
# 2 39.1551 159.2074 76.7542 0.0000 26.9432 0.0000
# 3 44.9769 76.7542 138.5537 0.0000 28.7779 0.0000
# 4 0.0000 0.0000 0.0000 23.8078 0.0000 4.1592
# 5 13.2484 26.9432 28.7779 0.0000 35.6163 0.0000
# 6 0.0000 0.0000 0.0000 4.1592 0.0000 10.4377
#
#
#
# Elastic Compliance Matrix: (Units=1/GPa)
#
#
# Indices 1 2 3 4 5 6 
#
# 1 0.020506 -0.002329 -0.004985 0.000000 -0.001838 0.000000
# 2 -0.002329 0.009145 -0.003669 0.000000 -0.003087 0.000000
# 3 -0.004985 -0.003669 0.011904 0.000000 -0.004989 0.000000
# 4 0.000000 0.000000 0.000000 0.045146 0.000000 -0.017990
# 5 -0.001838 -0.003087 -0.004989 0.000000 0.035128 0.000000
# 6 0.000000 0.000000 0.000000 -0.017990 0.000000 0.102975
#
#
# Mechanical properties :
#
#
# Convention : Reuss Voigt Hill
#
# Bulk Modulus (GPa) = 51.04543 76.09643 63.57093
# Shear Modulus (GPa) = 19.73956 27.45299 23.59627
#
# Velocity S-wave (km/s) = 2.83244 3.34030 3.09680
# Velocity P-wave (km/s) = 5.60742 6.76790 6.21481
#
# Compressibility (1/GPa) = 0.01959039
#
# Stress axis : x y z
#
# Youngs Moduli (GPa) = 48.76668 109.34768 84.00465
#
# Poissons Ratio (x) = 0.25467 0.41872
# Poissons Ratio (y) = 0.11358 0.30820
# Poissons Ratio (z) = 0.24308 0.40118
#
# Static dielectric constant tensor:
#      x y z
#    x 2.060740 0.000000 -0.020140 
#    y 0.000000 1.962130 0.000000 
#    z -0.020140 0.000000 1.967020 
# 
# From -- ./inp_files/135189.got.cif
#   From: 2010.05.17/outbox.cif.g08.bks.cpg/sg12_68_cif.got.tgz:135189.got - 2010.06.03 13:09:07.
