data_PCOD9189219
_publ_section_title
;
Structure prediction by ZEFSAII (Michael W. Deem and Ramdas Pophale) SiO2 
 PCOD9189219
Probable space group: C 2/M
;
_chemical_formula_sum "Si O2"
_cell_formula_units_Z 52
_cell_length_a 9.838260
_cell_length_b 22.285375
_cell_length_c 16.364842
_cell_angle_alpha 90.000000
_cell_angle_beta 48.400700
_cell_angle_gamma 90.000000
_cell_volume 2683.113975
_symmetry_space_group_name_H-M "C 2/M"
_symmetry_group_IT_number 12
_symmetry_cell_setting 'monoclinic'
loop_
_space_group_symop_operation_xyz
x,y,z
-x,y,-z
-x,-y,-z
x,-y,z
1/2+x,1/2+y,z
1/2-x,1/2+y,-z
1/2-x,1/2-y,-z
1/2+x,1/2-y,z
loop_
_atom_site_type_symbol
_atom_site_label
_atom_site_fract_x
_atom_site_fract_y
_atom_site_fract_z
Si Si1 0.885319 0.121339 0.414051
Si Si2 0.772907 0.623361 0.348725
Si Si3 0.305679 0.000000 0.534644
Si Si4 0.288950 0.500000 0.063884
Si Si5 0.547415 0.000000 0.707452
Si Si6 0.162533 0.602615 0.991527
Si Si7 0.584043 0.315321 0.199118
Si Si8 0.063985 0.288856 0.840913
O O1 0.753702 0.134459 0.543853
O O2 0.810818 0.059926 0.404657
O O3 0.079413 0.114269 0.381583
O O4 0.925694 0.169875 0.327608
O O5 0.880224 0.562397 0.285520
O O6 0.871805 0.678933 0.267851
O O7 0.500000 0.000000 0.500000
O O8 0.361805 0.000000 0.417297
O O9 0.167712 0.500000 0.194568
O O10 0.500000 0.500000 0.000000
O O11 0.229755 0.557372 0.033522
O O12 0.330731 0.622673 0.867900
O O13 0.000000 0.576882 0.000000
O O14 0.076323 0.664414 0.062111
O O15 0.755700 0.284185 0.175645
O O16 0.518352 0.274452 0.151028
#
# Coordination Sequence:
#
# PCOD9189219 Si02
#       8
#     8   8   4   4   4   8   8   8
#     4   9  19  35  56  88 110 146 194 236 290 339
#     4   9  17  35  63  81 111 144 196 244 277 350
#     4  10  21  37  57  83 124 155 183 233 297 364
#     4  12  25  38  59  96 121 147 191 249 302 341
#     4  10  19  37  60  83 110 154 192 234 295 345
#     4  10  22  41  60  82 117 157 199 237 292 357
#     4  10  22  37  58  85 115 154 197 245 287 344
#     4  10  20  38  59  83 112 155 199 241 291 342
#
# _framework density 19.380465000000001
#
# number of rings (size 3 to 8) (size 9 to 14) (size 15 to 20)
#    0.000    2.154    1.538    1.154    0.000    5.538 
#    5.538    0.000    0.000    0.000    0.000    0.000 
#    0.000    0.000    0.000    0.000    0.000    0.000 
#
# Total GULP energy -144950.008318 kJ/mol
# GULP energy per Si atom -5575.000320 kJ/mol
# Density = 1.933635 g / cm^3
# Si number density = 19.380465 Si / 1000 Ang^3
#
#
#
# Elastic Constant Matrix: (Units=GPa)
#
#
# Indices 1 2 3 4 5 6 
#
# 1 44.3283 27.5094 7.9979 0.0000 0.2490 0.0000
# 2 27.5094 44.2110 7.8681 0.0000 -2.2401 0.0000
# 3 7.9979 7.8681 76.4008 0.0000 -7.1656 0.0000
# 4 0.0000 0.0000 0.0000 19.1275 0.0000 7.8503
# 5 0.2490 -2.2401 -7.1656 0.0000 18.0565 0.0000
# 6 0.0000 0.0000 0.0000 7.8503 0.0000 18.1983
#
#
#
# Elastic Compliance Matrix: (Units=1/GPa)
#
#
# Indices 1 2 3 4 5 6 
#
# 1 0.037217 -0.023026 -0.001912 0.000000 -0.004129 0.000000
# 2 -0.023026 0.037357 -0.001010 0.000000 0.004551 0.000000
# 3 -0.001912 -0.001010 0.013901 0.000000 0.005418 0.000000
# 4 0.000000 0.000000 0.000000 0.063528 0.000000 -0.027404
# 5 -0.004129 0.004551 0.005418 0.000000 0.058153 0.000000
# 6 0.000000 0.000000 0.000000 -0.027404 0.000000 0.066772
#
#
# Mechanical properties :
#
#
# Convention : Reuss Voigt Hill
#
# Bulk Modulus (GPa) = 27.33833 27.96566 27.65200
# Shear Modulus (GPa) = 14.66204 19.18077 16.92140
#
# Velocity S-wave (km/s) = 2.75351 3.14936 2.95806
# Velocity P-wave (km/s) = 4.92400 5.26172 5.09566
#
# Compressibility (1/GPa) = 0.03657868
#
# Stress axis : x y z
#
# Youngs Moduli (GPa) = 26.86951 26.76882 71.93666
#
# Poissons Ratio (x) = 0.61639 0.13753
# Poissons Ratio (y) = 0.61871 0.07264
# Poissons Ratio (z) = 0.05137 0.02703
#
# Static dielectric constant tensor:
#      x y z
#    x 1.623740 0.000000 0.013030 
#    y 0.000000 1.668570 0.000000 
#    z 0.013030 0.000000 1.712980 
# 
# From -- ./inp_files/247194.got.cif
#   From: 2010.05.17/outbox.cif.g08.bks.cpg/sg12_124_cif.got.tgz:247194.got - 2010.06.03 13:09:07.
