data_PCOD9189228
_publ_section_title
;
Structure prediction by ZEFSAII (Michael W. Deem and Ramdas Pophale) SiO2 
 PCOD9189228
Probable space group: C 2/M
;
_chemical_formula_sum "Si O2"
_cell_formula_units_Z 48
_cell_length_a 25.552322
_cell_length_b 18.174797
_cell_length_c 8.158498
_cell_angle_alpha 90.000000
_cell_angle_beta 144.928218
_cell_angle_gamma 90.000000
_cell_volume 2177.095455
_symmetry_space_group_name_H-M "C 2/M"
_symmetry_group_IT_number 12
_symmetry_cell_setting 'monoclinic'
loop_
_space_group_symop_operation_xyz
x,y,z
-x,y,-z
-x,-y,-z
x,-y,z
1/2+x,1/2+y,z
1/2-x,1/2+y,-z
1/2-x,1/2-y,-z
1/2+x,1/2-y,z
loop_
_atom_site_type_symbol
_atom_site_label
_atom_site_fract_x
_atom_site_fract_y
_atom_site_fract_z
Si Si1 0.743486 0.418976 0.084071
Si Si2 0.746932 0.582607 0.694422
Si Si3 0.933602 0.354310 0.201368
Si Si4 0.923597 0.637964 0.700604
Si Si5 0.601865 0.703012 0.322541
Si Si6 0.601284 0.701741 0.715124
O O1 0.708731 0.500000 0.039128
O O2 0.842783 0.406805 0.414575
O O3 0.749322 0.415882 0.900619
O O4 0.677945 0.353781 0.973938
O O5 0.721263 0.500000 0.577642
O O6 0.676619 0.644538 0.453911
O O7 0.850934 0.600556 0.915075
O O8 0.891648 0.282567 0.184898
O O9 0.000000 0.396068 0.500000
O O10 0.008249 0.329343 0.262440
O O11 0.883291 0.711149 0.684213
O O12 0.000000 0.595405 0.000000
O O13 0.610398 0.701380 0.542182
O O14 0.500000 0.683550 0.000000
O O15 0.500000 0.675414 0.500000
#
# Coordination Sequence:
#
# PCOD9189228 Si02
#       6
#     8   8   8   8   8   8
#     4  10  21  37  58  83 115 153 185 224 279 337
#     4  10  21  36  59  86 112 150 190 225 274 335
#     4  11  19  36  62  85 109 142 190 237 270 325
#     4  11  22  38  59  85 114 146 184 233 287 329
#     4  10  20  37  58  85 114 145 184 235 284 322
#     4  10  19  37  60  85 108 144 196 233 269 326
#
# _framework density 22.047723999999999
#
# number of rings (size 3 to 8) (size 9 to 14) (size 15 to 20)
#    0.000    1.667    5.000    1.000    0.000    4.667 
#    3.000    2.500    0.000    0.000    0.000    0.000 
#    0.000    0.000    0.000    0.000    0.000    0.000 
#
# Total GULP energy -133882.182159 kJ/mol
# GULP energy per Si atom -5578.424257 kJ/mol
# Density = 2.199754 g / cm^3
# Si number density = 22.047724 Si / 1000 Ang^3
#
#
#
# Elastic Constant Matrix: (Units=GPa)
#
#
# Indices 1 2 3 4 5 6 
#
# 1 17.4081 6.3437 -17.0261 0.0000 10.2124 0.0000
# 2 6.3437 64.0636 13.8347 0.0000 6.9990 0.0000
# 3 -17.0261 13.8347 78.8364 0.0000 3.8800 0.0000
# 4 0.0000 0.0000 0.0000 -28.6207 0.0000 -49.5877
# 5 10.2124 6.9990 3.8800 0.0000 25.0911 0.0000
# 6 0.0000 0.0000 0.0000 -49.5877 0.0000 -50.7739
#
#
#
# Elastic Compliance Matrix: (Units=1/GPa)
#
#
# Indices 1 2 3 4 5 6 
#
# 1 0.123195 -0.013396 0.031480 0.000000 -0.051274 0.000000
# 2 -0.013396 0.018114 -0.006138 0.000000 0.001349 0.000000
# 3 0.031480 -0.006138 0.021269 0.000000 -0.014390 0.000000
# 4 0.000000 0.000000 0.000000 0.050483 0.000000 -0.049304
# 5 -0.051274 0.001349 -0.014390 0.000000 0.062573 0.000000
# 6 0.000000 0.000000 0.000000 -0.049304 0.000000 0.028457
#
#
# Mechanical properties :
#
#
# Convention : Reuss Voigt Hill
#
# Bulk Modulus (GPa) = 5.36277 18.51252 11.93764
# Shear Modulus (GPa) = 14.60475 -0.38364 7.11056
#
# Velocity S-wave (km/s) = 2.57654 -0.41759 1.79780
# Velocity P-wave (km/s) = 3.35991 2.86047 3.12020
#
# Compressibility (1/GPa) = 0.18647096
#
# Stress axis : x y z
#
# Youngs Moduli (GPa) = 8.11721 55.20540 47.01763
#
# Poissons Ratio (x) = 0.73951 -1.48013
# Poissons Ratio (y) = 0.10874 0.28860
# Poissons Ratio (z) = -0.25553 0.33886
#
# Static dielectric constant tensor:
#      x y z
#    x 1.892920 0.000000 -0.082250 
#    y 0.000000 1.806130 0.000000 
#    z -0.082250 0.000000 1.850750 
# 
# From -- ./inp_files/112955.got.cif
#   From: 2010.05.17/outbox.cif.g08.bks.cpg/sg12_57_cif.got.tgz:112955.got - 2010.06.03 13:09:07.
