data_PCOD9189413
_publ_section_title
;
Structure prediction by ZEFSAII (Michael W. Deem and Ramdas Pophale) SiO2 
 PCOD9189413
Probable space group: C 2/M
;
_chemical_formula_sum "Si O2"
_cell_formula_units_Z 58
_cell_length_a 19.733365
_cell_length_b 30.069678
_cell_length_c 13.716639
_cell_angle_alpha 90.000000
_cell_angle_beta 156.423094
_cell_angle_gamma 90.000000
_cell_volume 3255.483706
_symmetry_space_group_name_H-M "C 2/M"
_symmetry_group_IT_number 12
_symmetry_cell_setting 'monoclinic'
loop_
_space_group_symop_operation_xyz
x,y,z
-x,y,-z
-x,-y,-z
x,-y,z
1/2+x,1/2+y,z
1/2-x,1/2+y,-z
1/2-x,1/2-y,-z
1/2+x,1/2-y,z
loop_
_atom_site_type_symbol
_atom_site_label
_atom_site_fract_x
_atom_site_fract_y
_atom_site_fract_z
Si Si1 0.714152 0.676586 0.036621
Si Si2 0.695173 0.552193 0.782582
Si Si3 0.880047 0.631354 0.934687
Si Si4 0.692099 0.715881 0.220497
Si Si5 0.917396 0.799909 0.495164
Si Si6 0.500000 0.000000 0.500000
Si Si7 0.467663 0.845053 0.657643
Si Si8 0.830456 0.418107 0.167968
O O1 0.562670 0.686492 0.762766
O O2 0.698790 0.703943 0.114838
O O3 0.728975 0.623625 0.080113
O O4 0.891542 0.684980 0.213485
O O5 0.500000 0.561323 0.500000
O O6 0.727387 0.500000 0.813568
O O7 0.818206 0.581888 0.879018
O O8 0.731038 0.566740 0.940591
O O9 0.711119 0.659753 0.694202
O O10 0.000000 0.633230 0.000000
O O11 0.976067 0.650373 0.156639
O O12 0.803249 0.759703 0.383754
O O13 0.785948 0.675954 0.401094
O O14 0.500000 0.721947 0.000000
O O15 0.000000 0.787834 0.500000
O O16 0.376919 0.960308 0.292553
O O17 0.499241 0.892906 0.647600
#
# Coordination Sequence:
#
# PCOD9189413 Si02
#       8
#     8   8   8   8   8   2   8   8
#     4  10  22  42  64  84 125 160 213 249 305 374
#     4  10  19  37  62  91 124 157 207 257 306 372
#     4  11  23  38  62  93 126 162 203 259 320 375
#     4  12  27  39  59  93 124 164 209 258 314 368
#     4  12  23  41  67  88 120 164 212 261 307 367
#     4  12  16  28  62  96 120 136 202 262 300 342
#     4   9  21  43  59  84 124 161 211 245 308 378
#     4   9  19  34  60  93 113 158 200 254 301 358
#
# _framework density 17.816094
#
# number of rings (size 3 to 8) (size 9 to 14) (size 15 to 20)
#    0.828    0.690    2.069    3.724    3.862    1.931 
#    0.000    0.000    0.000    0.000    0.000    7.724 
#    0.000    0.000    0.000    0.000    0.000    0.000 
#
# Total GULP energy -161533.846567 kJ/mol
# GULP energy per Si atom -5570.132640 kJ/mol
# Density = 1.777554 g / cm^3
# Si number density = 17.816094 Si / 1000 Ang^3
#
#
#
# Elastic Constant Matrix: (Units=GPa)
#
#
# Indices 1 2 3 4 5 6 
#
# 1 63.7541 7.5541 12.3791 0.0000 10.0252 0.0000
# 2 7.5541 74.6568 35.6941 0.0000 -0.2277 0.0000
# 3 12.3791 35.6941 92.4461 -0.0001 0.0750 0.0000
# 4 0.0000 0.0000 -0.0001 -21.6856 -0.0001 17.0830
# 5 10.0252 -0.2277 0.0750 -0.0001 29.6307 0.0000
# 6 0.0000 0.0000 0.0000 17.0830 0.0000 -0.5933
#
#
#
# Elastic Compliance Matrix: (Units=1/GPa)
#
#
# Indices 1 2 3 4 5 6 
#
# 1 0.017072 -0.000802 -0.001971 0.000000 -0.005777 0.000000
# 2 -0.000802 0.016465 -0.006250 0.000000 0.000414 0.000000
# 3 -0.001971 -0.006250 0.013494 0.000000 0.000585 0.000000
# 4 0.000000 0.000000 0.000000 0.002127 0.000000 0.061237
# 5 -0.005777 0.000414 0.000585 0.000000 0.035705 0.000000
# 6 0.000000 0.000000 0.000000 0.061237 0.000000 0.077736
#
#
# Mechanical properties :
#
#
# Convention : Reuss Voigt Hill
#
# Bulk Modulus (GPa) = 34.50355 38.01240 36.25798
# Shear Modulus (GPa) = 26.27317 13.15235 19.71276
#
# Velocity S-wave (km/s) = 3.84433 2.71998 3.32996
# Velocity P-wave (km/s) = 6.25410 5.58988 5.93129
#
# Compressibility (1/GPa) = 0.02898252
#
# Stress axis : x y z
#
# Youngs Moduli (GPa) = 58.57684 60.73346 74.10755
#
# Poissons Ratio (x) = 0.04873 0.14610
# Poissons Ratio (y) = 0.04700 0.46319
# Poissons Ratio (z) = 0.11548 0.37960
#
# Static dielectric constant tensor:
#      x y z
#    x 1.596400 0.000000 -0.010760 
#    y 0.000000 1.623900 0.000000 
#    z -0.010760 0.000000 1.590590 
# 
# From -- ./inp_files/235945.got.cif
#   From: 2010.05.17/outbox.cif.g08.bks.cpg/sg12_118_cif.got.tgz:235945.got - 2010.06.03 13:09:07.
