data_PCOD9189912
_publ_section_title
;
Structure prediction by ZEFSAII (Michael W. Deem and Ramdas Pophale) SiO2 
 PCOD9189912
Probable space group: C 2/M
;
_chemical_formula_sum "Si O2"
_cell_formula_units_Z 48
_cell_length_a 17.070497
_cell_length_b 31.790191
_cell_length_c 8.310794
_cell_angle_alpha 90.000000
_cell_angle_beta 148.028240
_cell_angle_gamma 90.000000
_cell_volume 2388.079496
_symmetry_space_group_name_H-M "C 2/M"
_symmetry_group_IT_number 12
_symmetry_cell_setting 'monoclinic'
loop_
_space_group_symop_operation_xyz
x,y,z
-x,y,-z
-x,-y,-z
x,-y,z
1/2+x,1/2+y,z
1/2-x,1/2+y,-z
1/2-x,1/2-y,-z
1/2+x,1/2-y,z
loop_
_atom_site_type_symbol
_atom_site_label
_atom_site_fract_x
_atom_site_fract_y
_atom_site_fract_z
Si Si1 0.158166 0.728846 0.699902
Si Si2 0.653411 0.335463 0.109124
Si Si3 0.160282 0.807519 0.493194
Si Si4 0.027031 0.546209 0.356468
Si Si5 0.334021 0.427089 0.743531
Si Si6 0.639619 0.116852 0.133235
O O1 0.206907 0.682125 0.739657
O O2 0.180776 0.760153 0.587701
O O3 0.000000 0.727958 0.500000
O O4 0.250000 0.750000 0.000000
O O5 0.666154 0.316121 0.311638
O O6 0.638649 0.384810 0.105975
O O7 0.509567 0.318901 0.766127
O O8 0.273773 0.841085 0.768590
O O9 0.974677 0.500000 0.206471
O O10 0.199896 0.549625 0.602798
O O11 0.000000 0.547504 0.500000
O O12 0.934717 0.584627 0.120286
O O13 0.256335 0.410077 0.444195
O O14 0.500000 0.445333 0.000000
O O15 0.500000 0.130682 0.000000
#
# Coordination Sequence:
#
# PCOD9189912 Si02
#       6
#     8   8   8   8   8   8
#     4  12  25  38  54  85 123 159 201 250 297 353
#     4  10  20  40  62  83 117 155 200 249 300 352
#     4  10  20  40  60  82 114 156 198 250 298 350
#     4  10  23  42  61  91 130 162 192 239 306 373
#     4  10  19  38  67  93 117 152 205 254 295 354
#     4   9  19  37  64  91 113 151 203 250 295 358
#
# _framework density 20.099831999999999
#
# number of rings (size 3 to 8) (size 9 to 14) (size 15 to 20)
#    0.000    1.833    5.000    0.500    0.000    9.333 
#    3.000    0.833    0.000    2.000    0.000    0.000 
#    0.000    0.000    0.000    0.000    0.000    0.000 
#
# Total GULP energy -133758.486937 kJ/mol
# GULP energy per Si atom -5573.270289 kJ/mol
# Density = 2.005408 g / cm^3
# Si number density = 20.099832 Si / 1000 Ang^3
#
#
#
# Elastic Constant Matrix: (Units=GPa)
#
#
# Indices 1 2 3 4 5 6 
#
# 1 69.3585 26.4199 26.6699 0.0000 27.0710 0.0000
# 2 26.4199 80.3348 14.0162 0.0000 12.1149 0.0000
# 3 26.6699 14.0162 87.1936 0.0000 31.1177 0.0000
# 4 0.0000 0.0000 0.0000 10.0205 0.0000 10.0808
# 5 27.0710 12.1149 31.1177 0.0000 24.7962 0.0000
# 6 0.0000 0.0000 0.0000 10.0808 0.0000 40.1312
#
#
#
# Elastic Compliance Matrix: (Units=1/GPa)
#
#
# Indices 1 2 3 4 5 6 
#
# 1 0.027458 -0.004804 0.004046 0.000000 -0.032708 0.000000
# 2 -0.004804 0.014284 -0.000376 0.000000 -0.001262 0.000000
# 3 0.004046 -0.000376 0.021376 0.000000 -0.031059 0.000000
# 4 0.000000 0.000000 0.000000 0.133542 0.000000 -0.033545
# 5 -0.032708 -0.001262 -0.031059 0.000000 0.115631 0.000000
# 6 0.000000 0.000000 0.000000 -0.033545 0.000000 0.033345
#
#
# Mechanical properties :
#
#
# Convention : Reuss Voigt Hill
#
# Bulk Modulus (GPa) = 16.43378 41.23320 28.83349
# Shear Modulus (GPa) = 13.58012 26.30831 19.94422
#
# Velocity S-wave (km/s) = 2.60212 3.62177 3.15343
# Velocity P-wave (km/s) = 4.14992 6.16834 5.25691
#
# Compressibility (1/GPa) = 0.06085028
#
# Stress axis : x y z
#
# Youngs Moduli (GPa) = 36.41969 70.01008 46.78139
#
# Poissons Ratio (x) = 0.33630 -0.18930
# Poissons Ratio (y) = 0.17494 0.01761
# Poissons Ratio (z) = -0.14737 0.02635
#
# Static dielectric constant tensor:
#      x y z
#    x 1.731060 0.000000 0.006540 
#    y 0.000000 1.715490 0.000000 
#    z 0.006540 0.000000 1.724120 
# 
# From -- ./inp_files/80818.got.cif
#   From: 2010.05.17/outbox.cif.g08.bks.cpg/sg12_41_cif.got.tgz:80818.got - 2010.06.03 13:09:07.
