data_PCOD9189261
_publ_section_title
;
Structure prediction by ZEFSAII (Michael W. Deem and Ramdas Pophale) SiO2 
 PCOD9189261
Probable space group: C 2/M
;
_chemical_formula_sum "Si O2"
_cell_formula_units_Z 34
_cell_length_a 25.286734
_cell_length_b 7.475838
_cell_length_c 16.491211
_cell_angle_alpha 90.000000
_cell_angle_beta 24.111725
_cell_angle_gamma 90.000000
_cell_volume 1273.548751
_symmetry_space_group_name_H-M "C 2/M"
_symmetry_group_IT_number 12
_symmetry_cell_setting 'monoclinic'
loop_
_space_group_symop_operation_xyz
x,y,z
-x,y,-z
-x,-y,-z
x,-y,z
1/2+x,1/2+y,z
1/2-x,1/2+y,-z
1/2-x,1/2-y,-z
1/2+x,1/2-y,z
loop_
_atom_site_type_symbol
_atom_site_label
_atom_site_fract_x
_atom_site_fract_y
_atom_site_fract_z
Si Si1 0.311566 0.704352 0.292064
Si Si2 0.885119 0.287535 0.763576
Si Si3 0.532478 0.294907 0.711677
Si Si4 0.500000 0.000000 0.000000
Si Si5 0.727729 0.718092 0.838227
O O1 0.356209 0.500000 0.229229
O O2 0.172107 0.711370 0.529421
O O3 0.278960 0.769184 0.245461
O O4 0.421704 0.842363 0.160716
O O5 0.909610 0.500000 0.725928
O O6 0.849545 0.224324 0.722681
O O7 0.993874 0.210687 0.670137
O O8 0.750000 0.250000 0.000000
O O9 0.544363 0.500000 0.720866
O O10 0.405119 0.218980 0.933566
O O11 0.729749 0.500000 0.838324
#
# Coordination Sequence:
#
# PCOD9189261 Si02
#       5
#     8   8   8   2   8
#     4  11  23  44  68  87 118 163 197 260 317 363
#     4   9  16  30  52  88 127 166 199 239 284 355
#     4  10  19  37  60  92 129 162 202 244 295 364
#     4  12  26  48  64  92 116 146 214 272 324 352
#     4   8  18  36  61  87 127 166 201 239 298 365
#
# _framework density 26.697054000000001
#
# number of rings (size 3 to 8) (size 9 to 14) (size 15 to 20)
#    0.000    2.353    1.176    3.176    0.000    0.941 
#   12.706    5.882    0.000    0.000    0.000    0.000 
#    0.000    0.000    0.000    0.000    0.000    0.000 
#
# Total GULP energy -94902.710826 kJ/mol
# GULP energy per Si atom -5582.512402 kJ/mol
# Density = 2.663629 g / cm^3
# Si number density = 26.697054 Si / 1000 Ang^3
#
#
#
# Elastic Constant Matrix: (Units=GPa)
#
#
# Indices 1 2 3 4 5 6 
#
# 1 142.7153 -16.9117 22.3419 -0.0001 -9.4470 0.0000
# 2 -16.9117 133.0568 24.1305 -0.0032 -7.4636 0.0001
# 3 22.3419 24.1305 154.9420 -0.0029 -16.3113 0.0002
# 4 -0.0001 -0.0032 -0.0029 26.7308 0.0001 -10.4073
# 5 -9.4470 -7.4636 -16.3113 0.0001 40.1632 -0.0001
# 6 0.0000 0.0001 0.0002 -10.4073 -0.0001 -13.1208
#
#
#
# Elastic Compliance Matrix: (Units=1/GPa)
#
#
# Indices 1 2 3 4 5 6 
#
# 1 0.007426 0.001229 -0.001101 0.000000 0.001528 0.000000
# 2 0.001229 0.007975 -0.001288 0.000001 0.001248 0.000000
# 3 -0.001101 -0.001288 0.007063 0.000000 0.002370 0.000000
# 4 0.000000 0.000001 0.000000 0.028583 0.000000 -0.022672
# 5 0.001528 0.001248 0.002370 0.000000 0.026452 0.000000
# 6 0.000000 0.000000 0.000000 -0.022672 0.000000 -0.058232
#
#
# Mechanical properties :
#
#
# Convention : Reuss Voigt Hill
#
# Bulk Modulus (GPa) = 49.64143 54.42619 52.03381
# Shear Modulus (GPa) = 176.65883 37.49818 107.07850
#
# Velocity S-wave (km/s) = 8.14342 3.75184 6.34002
# Velocity P-wave (km/s) = 10.34674 6.26093 8.55144
#
# Compressibility (1/GPa) = 0.02014446
#
# Stress axis : x y z
#
# Youngs Moduli (GPa) = 134.65845 125.38509 141.58418
#
# Poissons Ratio (x) = -0.15414 0.15595
# Poissons Ratio (y) = -0.16554 0.18235
# Poissons Ratio (z) = 0.14832 0.16149
#
# Static dielectric constant tensor:
#      x y z
#    x 2.184760 0.000000 0.000500 
#    y 0.000000 2.753430 0.000010 
#    z 0.000500 0.000010 2.098420 
# 
# From -- ./inp_files/180362.got.cif
#   From: 2010.05.17/outbox.cif.g08.bks.cpg/sg12_91_cif.got.tgz:180362.got - 2010.06.03 13:09:07.
