data_PCOD9189905
_publ_section_title
;
Structure prediction by ZEFSAII (Michael W. Deem and Ramdas Pophale) SiO2 
 PCOD9189905
Probable space group: C 2/M
;
_chemical_formula_sum "Si O2"
_cell_formula_units_Z 60
_cell_length_a 10.506943
_cell_length_b 30.015851
_cell_length_c 9.360046
_cell_angle_alpha 90.000000
_cell_angle_beta 65.444093
_cell_angle_gamma 90.000000
_cell_volume 2684.939826
_symmetry_space_group_name_H-M "C 2/M"
_symmetry_group_IT_number 12
_symmetry_cell_setting 'monoclinic'
loop_
_space_group_symop_operation_xyz
x,y,z
-x,y,-z
-x,-y,-z
x,-y,z
1/2+x,1/2+y,z
1/2-x,1/2+y,-z
1/2-x,1/2-y,-z
1/2+x,1/2-y,z
loop_
_atom_site_type_symbol
_atom_site_label
_atom_site_fract_x
_atom_site_fract_y
_atom_site_fract_z
Si Si1 0.257210 0.644791 0.110350
Si Si2 0.740218 0.050680 0.777362
Si Si3 0.627363 0.275738 0.773599
Si Si4 0.167225 0.047151 0.935159
Si Si5 0.051628 0.636975 0.814167
Si Si6 0.335816 0.707874 0.821243
Si Si7 0.000000 0.094895 0.500000
Si Si8 0.822807 0.825405 0.530877
O O1 0.349055 0.677581 0.160204
O O2 0.293751 0.595123 0.139010
O O3 0.090785 0.645494 0.205368
O O4 0.291944 0.664711 0.934842
O O5 0.619827 0.087216 0.798910
O O6 0.887405 0.066076 0.638975
O O7 0.703435 0.000000 0.751122
O O8 0.773331 0.049784 0.930923
O O9 0.463135 0.266017 0.836397
O O10 0.713534 0.240963 0.828704
O O11 0.683785 0.288999 0.590050
O O12 0.220020 0.000000 0.847875
O O13 0.000000 0.045418 0.000000
O O14 0.170411 0.663327 0.670897
O O15 0.000000 0.649084 0.000000
O O16 0.395291 0.691522 0.642907
O O17 0.101320 0.128006 0.543989
#
# Coordination Sequence:
#
# PCOD9189905 Si02
#       8
#     8   8   8   8   8   8   4   8
#     4  12  25  43  70  97 141 181 228 279 350 409
#     4  10  21  37  65 101 134 173 228 289 348 411
#     4  12  28  44  72 101 138 180 235 293 347 422
#     4  10  21  37  63  98 130 169 223 278 337 406
#     4  11  22  41  67  96 130 182 224 282 338 422
#     4  12  25  48  70 102 137 184 234 289 346 415
#     4  10  19  38  66  98 134 174 230 278 349 410
#     4  11  23  43  71  95 135 179 231 282 347 406
#
# _framework density 22.346871
#
# number of rings (size 3 to 8) (size 9 to 14) (size 15 to 20)
#    0.000    0.933    4.000    3.000    3.733    1.333 
#    0.000    0.000    0.000    0.000    0.000    2.800 
#    0.000    0.000    0.000    0.000    0.000    0.000 
#
# Total GULP energy -167254.195287 kJ/mol
# GULP energy per Si atom -5575.139843 kJ/mol
# Density = 2.229601 g / cm^3
# Si number density = 22.346871 Si / 1000 Ang^3
#
#
#
# Elastic Constant Matrix: (Units=GPa)
#
#
# Indices 1 2 3 4 5 6 
#
# 1 115.1445 36.0652 20.1819 0.0000 -15.6390 0.0000
# 2 36.0652 115.6233 23.2197 0.0000 -5.2009 0.0000
# 3 20.1819 23.2197 84.4033 0.0000 -5.7912 0.0000
# 4 0.0000 0.0000 0.0000 35.7363 0.0000 -9.5877
# 5 -15.6390 -5.2009 -5.7912 0.0000 32.4089 0.0000
# 6 0.0000 0.0000 0.0000 -9.5877 0.0000 37.5619
#
#
#
# Elastic Compliance Matrix: (Units=1/GPa)
#
#
# Indices 1 2 3 4 5 6 
#
# 1 0.010385 -0.002758 -0.001428 0.000000 0.004313 0.000000
# 2 -0.002758 0.009921 -0.002077 0.000000 -0.000110 0.000000
# 3 -0.001428 -0.002077 0.012848 0.000000 0.001273 0.000000
# 4 0.000000 0.000000 0.000000 0.030040 0.000000 0.007668
# 5 0.004313 -0.000110 0.001273 0.000000 0.033147 0.000000
# 6 0.000000 0.000000 0.000000 0.007668 0.000000 0.028580
#
#
# Mechanical properties :
#
#
# Convention : Reuss Voigt Hill
#
# Bulk Modulus (GPa) = 48.48185 52.67831 50.58008
# Shear Modulus (GPa) = 34.64398 36.85503 35.74951
#
# Velocity S-wave (km/s) = 3.94164 4.06547 4.00403
# Velocity P-wave (km/s) = 6.51595 6.75734 6.63774
#
# Compressibility (1/GPa) = 0.02062627
#
# Stress axis : x y z
#
# Youngs Moduli (GPa) = 96.29348 100.79211 77.83136
#
# Poissons Ratio (x) = 0.27802 0.11117
# Poissons Ratio (y) = 0.26562 0.16169
# Poissons Ratio (z) = 0.13754 0.20939
#
# Static dielectric constant tensor:
#      x y z
#    x 1.808800 0.000000 -0.042820 
#    y 0.000000 1.909750 0.000000 
#    z -0.042820 0.000000 1.857250 
# 
# From -- ./inp_files/137612.got.cif
#   From: 2010.05.17/outbox.cif.g08.bks.cpg/sg12_69_cif.got.tgz:137612.got - 2010.06.03 13:09:07.
