data_PCOD9189651
_publ_section_title
;
Structure prediction by ZEFSAII (Michael W. Deem and Ramdas Pophale) SiO2 
 PCOD9189651
Probable space group: C 2/M
;
_chemical_formula_sum "Si O2"
_cell_formula_units_Z 28
_cell_length_a 12.570346
_cell_length_b 25.931881
_cell_length_c 7.373178
_cell_angle_alpha 90.000000
_cell_angle_beta 36.479875
_cell_angle_gamma 90.000000
_cell_volume 1428.951009
_symmetry_space_group_name_H-M "C 2/M"
_symmetry_group_IT_number 12
_symmetry_cell_setting 'monoclinic'
loop_
_space_group_symop_operation_xyz
x,y,z
-x,y,-z
-x,-y,-z
x,-y,z
1/2+x,1/2+y,z
1/2-x,1/2+y,-z
1/2-x,1/2-y,-z
1/2+x,1/2-y,z
loop_
_atom_site_type_symbol
_atom_site_label
_atom_site_fract_x
_atom_site_fract_y
_atom_site_fract_z
Si Si1 0.821320 0.000000 0.857635
Si Si2 0.842279 0.302134 0.587457
Si Si3 0.558657 0.000000 0.636466
Si Si4 0.303738 0.414352 0.188061
Si Si5 0.500000 0.230972 0.000000
O O1 0.000000 0.000000 0.500000
O O2 0.822944 0.050760 0.982495
O O3 0.633711 0.000000 0.005663
O O4 0.788546 0.359810 0.717296
O O5 0.665296 0.266938 0.836648
O O6 0.000000 0.282145 0.500000
O O7 0.921004 0.301141 0.275784
O O8 0.500000 0.000000 0.500000
O O9 0.680512 0.949616 0.488453
O O10 0.500000 0.406403 0.000000
#
# Coordination Sequence:
#
# PCOD9189651 Si02
#       5
#     4   8   4   8   4
#     4  10  20  37  58  92 117 155 207 248 302 378
#     4  11  21  42  64  89 126 165 203 262 310 360
#     4   8  16  33  56  79 112 152 194 234 304 365
#     4  10  19  38  59  83 122 164 196 248 310 367
#     4  10  24  40  62  96 120 160 222 250 310 370
#
# _framework density 19.594792999999999
#
# number of rings (size 3 to 8) (size 9 to 14) (size 15 to 20)
#    0.000    2.286    1.429    5.143    0.000    0.000 
#   10.286    2.857    0.000    0.000    0.000    0.000 
#    0.000    0.000    0.000    0.000    0.000    0.000 
#
# Total GULP energy -78113.745982 kJ/mol
# GULP energy per Si atom -5579.553284 kJ/mol
# Density = 1.955019 g / cm^3
# Si number density = 19.594793 Si / 1000 Ang^3
#
#
#
# Elastic Constant Matrix: (Units=GPa)
#
#
# Indices 1 2 3 4 5 6 
#
# 1 69.3787 17.9422 32.9574 0.0000 -31.3862 0.0000
# 2 17.9422 77.8227 36.4114 0.0000 9.5193 0.0000
# 3 32.9574 36.4114 150.7380 0.0000 -18.3296 0.0000
# 4 0.0000 0.0000 0.0000 101.3056 0.0000 -122.4015
# 5 -31.3862 9.5193 -18.3296 0.0000 44.3224 0.0000
# 6 0.0000 0.0000 0.0000 -122.4015 0.0000 172.1535
#
#
#
# Elastic Compliance Matrix: (Units=1/GPa)
#
#
# Indices 1 2 3 4 5 6 
#
# 1 0.025820 -0.007638 -0.001450 0.000000 0.019325 0.000000
# 2 -0.007638 0.017786 -0.003947 0.000000 -0.010861 0.000000
# 3 -0.001450 -0.003947 0.008300 0.000000 0.003253 0.000000
# 4 0.000000 0.000000 0.000000 0.070038 0.000000 0.049797
# 5 0.019325 -0.010861 0.003253 0.000000 0.039925 0.000000
# 6 0.000000 0.000000 0.000000 0.049797 0.000000 0.041215
#
#
# Mechanical properties :
#
#
# Convention : Reuss Voigt Hill
#
# Bulk Modulus (GPa) = 38.70669 52.50681 45.60675
# Shear Modulus (GPa) = 21.02899 77.59819 49.31359
#
# Velocity S-wave (km/s) = 3.27952 6.29979 5.02208
# Velocity P-wave (km/s) = 5.84267 8.93146 7.54678
#
# Compressibility (1/GPa) = 0.02583532
#
# Stress axis : x y z
#
# Youngs Moduli (GPa) = 38.72920 56.22426 120.47988
#
# Poissons Ratio (x) = 0.42945 0.17475
# Poissons Ratio (y) = 0.29582 0.47553
# Poissons Ratio (z) = 0.05617 0.22192
#
# Static dielectric constant tensor:
#      x y z
#    x 1.728830 0.000000 0.004690 
#    y 0.000000 1.664440 0.000000 
#    z 0.004690 0.000000 1.736030 
# 
# From -- ./inp_files/64577.got.cif
#   From: 2010.05.17/outbox.cif.g08.bks.cpg/sg12_33_cif.got.tgz:64577.got - 2010.06.03 13:09:07.
