data_PCOD9189312
_publ_section_title
;
Structure prediction by ZEFSAII (Michael W. Deem and Ramdas Pophale) SiO2 
 PCOD9189312
Probable space group: C 2/M
;
_chemical_formula_sum "Si O2"
_cell_formula_units_Z 44
_cell_length_a 29.487295
_cell_length_b 10.278265
_cell_length_c 16.503089
_cell_angle_alpha 90.000000
_cell_angle_beta 26.536631
_cell_angle_gamma 90.000000
_cell_volume 2234.620997
_symmetry_space_group_name_H-M "C 2/M"
_symmetry_group_IT_number 12
_symmetry_cell_setting 'monoclinic'
loop_
_space_group_symop_operation_xyz
x,y,z
-x,y,-z
-x,-y,-z
x,-y,z
1/2+x,1/2+y,z
1/2-x,1/2+y,-z
1/2-x,1/2-y,-z
1/2+x,1/2-y,z
loop_
_atom_site_type_symbol
_atom_site_label
_atom_site_fract_x
_atom_site_fract_y
_atom_site_fract_z
Si Si1 0.171020 0.000000 0.499424
Si Si2 0.412626 0.847569 0.824997
Si Si3 0.635401 0.731797 0.932361
Si Si4 0.358807 0.755499 0.560493
Si Si5 0.878575 0.352771 0.698699
Si Si6 0.599904 0.000000 0.895550
Si Si7 0.494343 0.500000 0.105411
O O1 0.141491 0.876817 0.490444
O O2 0.291466 0.000000 0.323292
O O3 0.112704 0.000000 0.677475
O O4 0.535674 0.828626 0.626789
O O5 0.364208 0.814747 0.815024
O O6 0.392313 0.000000 0.872479
O O7 0.368172 0.757885 0.966076
O O8 0.746427 0.687688 0.723369
O O9 0.605029 0.869685 0.941061
O O10 0.553364 0.626213 0.041258
O O11 0.355380 0.751308 0.664396
O O12 0.836282 0.500000 0.750277
O O13 0.000000 0.367298 0.500000
O O14 0.500000 0.000000 0.000000
O O15 0.500000 0.500000 0.000000
#
# Coordination Sequence:
#
# PCOD9189312 Si02
#       7
#     4   8   8   8   8   4   4
#     4  10  22  42  64  86 119 158 189 255 309 353
#     4  10  19  37  61  87 120 164 209 243 285 349
#     4  11  23  39  65  88 121 161 196 251 302 360
#     4  10  20  37  60  87 122 158 206 236 297 352
#     4   8  16  31  56  86 121 158 202 248 277 339
#     4  10  22  46  66  90 113 154 211 250 297 374
#     4  12  26  46  59  91 127 149 187 257 322 368
#
# _framework density 19.690138999999999
#
# number of rings (size 3 to 8) (size 9 to 14) (size 15 to 20)
#    0.000    2.000    2.727    2.182    2.545    0.727 
#    3.273    7.727    0.000    0.000    0.000    0.000 
#    0.000    0.000    0.000    0.000    0.000    0.000 
#
# Total GULP energy -122554.737109 kJ/mol
# GULP energy per Si atom -5570.669869 kJ/mol
# Density = 1.964532 g / cm^3
# Si number density = 19.690139 Si / 1000 Ang^3
#
#
#
# Elastic Constant Matrix: (Units=GPa)
#
#
# Indices 1 2 3 4 5 6 
#
# 1 77.6195 17.6039 37.1050 0.0000 20.7703 0.0000
# 2 17.6039 50.5502 31.4621 0.0000 10.5394 0.0000
# 3 37.1050 31.4621 108.2359 0.0000 11.6703 0.0000
# 4 0.0000 0.0000 0.0000 22.4334 0.0000 6.2043
# 5 20.7703 10.5394 11.6703 0.0000 37.2509 0.0000
# 6 0.0000 0.0000 0.0000 6.2043 0.0000 16.7056
#
#
#
# Elastic Compliance Matrix: (Units=1/GPa)
#
#
# Indices 1 2 3 4 5 6 
#
# 1 0.017611 -0.001536 -0.004739 0.000000 -0.007900 0.000000
# 2 -0.001536 0.025143 -0.006321 0.000000 -0.004277 0.000000
# 3 -0.004739 -0.006321 0.012651 0.000000 0.000467 0.000000
# 4 0.000000 0.000000 0.000000 0.049679 0.000000 -0.018450
# 5 -0.007900 -0.004277 0.000467 0.000000 0.032314 0.000000
# 6 0.000000 0.000000 0.000000 -0.018450 0.000000 0.066713
#
#
# Mechanical properties :
#
#
# Convention : Reuss Voigt Hill
#
# Bulk Modulus (GPa) = 33.09870 45.41641 39.25756
# Shear Modulus (GPa) = 20.88787 25.29361 23.09074
#
# Velocity S-wave (km/s) = 3.26057 3.58800 3.42819
# Velocity P-wave (km/s) = 5.56968 6.34670 5.97084
#
# Compressibility (1/GPa) = 0.03021267
#
# Stress axis : x y z
#
# Youngs Moduli (GPa) = 56.78170 39.77238 79.04745
#
# Poissons Ratio (x) = 0.06111 0.37461
# Poissons Ratio (y) = 0.08724 0.49964
# Poissons Ratio (z) = 0.26909 0.25139
#
# Static dielectric constant tensor:
#      x y z
#    x 1.710700 0.000000 0.001930 
#    y 0.000000 1.659700 0.000000 
#    z 0.001930 0.000000 1.722350 
# 
# From -- ./inp_files/245564.got.cif
#   From: 2010.05.17/outbox.cif.g08.bks.cpg/sg12_123_cif.got.tgz:245564.got - 2010.06.03 13:09:07.
