data_PCOD9189229
_publ_section_title
;
Structure prediction by ZEFSAII (Michael W. Deem and Ramdas Pophale) SiO2 
 PCOD9189229
Probable space group: C 2/M
;
_chemical_formula_sum "Si O2"
_cell_formula_units_Z 64
_cell_length_a 14.247110
_cell_length_b 27.932590
_cell_length_c 13.782598
_cell_angle_alpha 90.000000
_cell_angle_beta 138.977695
_cell_angle_gamma 90.000000
_cell_volume 3600.032367
_symmetry_space_group_name_H-M "C 2/M"
_symmetry_group_IT_number 12
_symmetry_cell_setting 'monoclinic'
loop_
_space_group_symop_operation_xyz
x,y,z
-x,y,-z
-x,-y,-z
x,-y,z
1/2+x,1/2+y,z
1/2-x,1/2+y,-z
1/2-x,1/2-y,-z
1/2+x,1/2-y,z
loop_
_atom_site_type_symbol
_atom_site_label
_atom_site_fract_x
_atom_site_fract_y
_atom_site_fract_z
Si Si1 0.181463 0.641650 0.322731
Si Si2 0.620385 0.120462 0.828717
Si Si3 0.806973 0.133491 0.623659
Si Si4 0.563321 0.946316 0.441232
Si Si5 0.346004 0.186939 0.329457
Si Si6 0.164515 0.944403 0.663256
Si Si7 0.139886 0.799449 0.677148
Si Si8 0.873013 0.119231 0.177456
O O1 0.263537 0.655710 0.485739
O O2 0.240795 0.590005 0.332013
O O3 0.226126 0.678708 0.275621
O O4 0.014696 0.640048 0.215728
O O5 0.555875 0.073641 0.725484
O O6 0.659767 0.156011 0.772078
O O7 0.753927 0.114597 0.002658
O O8 0.697320 0.089211 0.545659
O O9 0.770914 0.169325 0.683510
O O10 0.968731 0.115697 0.743626
O O11 0.500000 0.945908 0.500000
O O12 0.605865 0.000000 0.448270
O O13 0.500000 0.177511 0.500000
O O14 0.342497 0.242821 0.300793
O O15 0.160271 0.920222 0.765965
O O16 0.000000 0.942252 0.500000
O O17 0.210009 0.000000 0.698878
O O18 0.128456 0.829687 0.766934
O O19 0.000000 0.809170 0.500000
#
# Coordination Sequence:
#
# PCOD9189229 Si02
#       8
#     8   8   8   8   8   8   8   8
#     4  10  19  37  60  85 112 152 198 236 291 344
#     4  11  23  39  58  86 124 156 191 245 298 347
#     4  11  19  37  61  87 114 154 202 239 291 345
#     4  10  20  39  63  83 111 152 200 242 283 345
#     4  11  21  38  61  87 117 153 208 246 280 348
#     4  10  20  37  61  88 113 145 191 241 284 348
#     4  10  21  37  60  89 117 154 202 249 288 342
#     4  11  23  39  58  87 127 154 187 244 304 350
#
# _framework density 17.777619000000001
#
# number of rings (size 3 to 8) (size 9 to 14) (size 15 to 20)
#    0.000    1.500    6.250    0.750    0.000    7.500 
#    0.000    1.875    0.000    1.500    0.000    0.000 
#    0.000    0.000    0.000    0.000    0.000    0.000 
#
# Total GULP energy -178588.062174 kJ/mol
# GULP energy per Si atom -5580.876943 kJ/mol
# Density = 1.773716 g / cm^3
# Si number density = 17.777619 Si / 1000 Ang^3
#
#
#
# Elastic Constant Matrix: (Units=GPa)
#
#
# Indices 1 2 3 4 5 6 
#
# 1 95.2816 17.1548 33.7992 0.0000 -3.9443 0.0000
# 2 17.1548 92.7110 30.5488 0.0000 -17.7135 0.0000
# 3 33.7992 30.5488 116.8672 0.0000 1.8623 0.0000
# 4 0.0000 0.0000 0.0000 7.0767 0.0000 -1.1504
# 5 -3.9443 -17.7135 1.8623 0.0000 23.8058 0.0000
# 6 0.0000 0.0000 0.0000 -1.1504 0.0000 6.1967
#
#
#
# Elastic Compliance Matrix: (Units=1/GPa)
#
#
# Indices 1 2 3 4 5 6 
#
# 1 0.011859 -0.000819 -0.003241 0.000000 0.001609 0.000000
# 2 -0.000819 0.014182 -0.003641 0.000000 0.010702 0.000000
# 3 -0.003241 -0.003641 0.010511 0.000000 -0.004068 0.000000
# 4 0.000000 0.000000 0.000000 0.145707 0.000000 0.027051
# 5 0.001609 0.010702 -0.004068 0.000000 0.050554 0.000000
# 6 0.000000 0.000000 0.000000 0.027051 0.000000 0.166399
#
#
# Mechanical properties :
#
#
# Convention : Reuss Voigt Hill
#
# Bulk Modulus (GPa) = 47.28203 51.98507 49.63355
# Shear Modulus (GPa) = 11.85777 22.30630 17.08203
#
# Velocity S-wave (km/s) = 2.58545 3.54607 3.10316
# Velocity P-wave (km/s) = 5.96379 6.78760 6.38899
#
# Compressibility (1/GPa) = 0.02114969
#
# Stress axis : x y z
#
# Youngs Moduli (GPa) = 84.32376 70.51135 95.14113
#
# Poissons Ratio (x) = 0.05774 0.30839
# Poissons Ratio (y) = 0.06905 0.34640
# Poissons Ratio (z) = 0.27332 0.25672
#
# Static dielectric constant tensor:
#      x y z
#    x 1.614140 0.000000 -0.009330 
#    y 0.000000 1.610190 0.000000 
#    z -0.009330 0.000000 1.591400 
# 
# From -- ./inp_files/149822.got.cif
#   From: 2010.05.17/outbox.cif.g08.bks.cpg/sg12_75_cif.got.tgz:149822.got - 2010.06.03 13:09:07.
