data_PCOD9189761
_publ_section_title
;
Structure prediction by ZEFSAII (Michael W. Deem and Ramdas Pophale) SiO2 
 PCOD9189761
Probable space group: C 2/M
;
_chemical_formula_sum "Si O2"
_cell_formula_units_Z 36
_cell_length_a 5.377727
_cell_length_b 13.963177
_cell_length_c 25.667951
_cell_angle_alpha 90.000000
_cell_angle_beta 65.230441
_cell_angle_gamma 90.000000
_cell_volume 1750.089028
_symmetry_space_group_name_H-M "C 2/M"
_symmetry_group_IT_number 12
_symmetry_cell_setting 'monoclinic'
loop_
_space_group_symop_operation_xyz
x,y,z
-x,y,-z
-x,-y,-z
x,-y,z
1/2+x,1/2+y,z
1/2-x,1/2+y,-z
1/2-x,1/2-y,-z
1/2+x,1/2-y,z
loop_
_atom_site_type_symbol
_atom_site_label
_atom_site_fract_x
_atom_site_fract_y
_atom_site_fract_z
Si Si1 0.189159 0.655629 0.434587
Si Si2 0.280048 0.133890 0.388469
Si Si3 0.914006 0.500000 0.284211
Si Si4 0.936576 0.000000 0.790305
Si Si5 0.745475 0.684165 0.127730
Si Si6 0.000000 0.686851 0.000000
O O1 0.286085 0.751608 0.396167
O O2 0.467389 0.606983 0.428180
O O3 0.000000 0.682555 0.500000
O O4 0.001720 0.600065 0.410689
O O5 0.351068 0.091817 0.326236
O O6 0.234222 0.500000 0.242435
O O7 0.715327 0.500000 0.252131
O O8 0.845230 0.903469 0.828215
O O9 0.483909 0.750516 0.133921
O O10 0.874431 0.639959 0.062859
O O11 0.750000 0.750000 0.000000
#
# Coordination Sequence:
#
# PCOD9189761 Si02
#       6
#     8   8   4   4   8   4
#     4  10  19  38  62  89 111 144 195 247 305 393
#     4  10  20  37  57  80 116 149 192 241 301 364
#     4  12  26  44  55  85 126 168 208 260 304 352
#     4  12  26  45  62  90 135 168 230 274 288 382
#     4  10  21  42  66  99 129 171 214 264 335 370
#     4   8  16  33  64  95 132 158 206 269 316 397
#
# _framework density 20.570383
#
# number of rings (size 3 to 8) (size 9 to 14) (size 15 to 20)
#    0.000    1.778    0.000    6.000    0.000    0.444 
#   24.000    6.111    0.000    9.333    0.000    0.000 
#    0.000    0.000    0.000    0.000    0.000    0.000 
#
# Total GULP energy -100333.962862 kJ/mol
# GULP energy per Si atom -5574.109048 kJ/mol
# Density = 2.052356 g / cm^3
# Si number density = 20.570383 Si / 1000 Ang^3
#
#
#
# Elastic Constant Matrix: (Units=GPa)
#
#
# Indices 1 2 3 4 5 6 
#
# 1 132.5075 7.6330 -9.4712 0.0000 6.0166 0.0000
# 2 7.6330 115.4855 36.2319 0.0000 0.3499 0.0000
# 3 -9.4712 36.2319 87.1858 0.0000 1.6336 0.0000
# 4 0.0000 0.0000 0.0000 33.1864 0.0000 1.3146
# 5 6.0166 0.3499 1.6336 0.0000 42.6385 0.0000
# 6 0.0000 0.0000 0.0000 1.3146 0.0000 0.8289
#
#
#
# Elastic Compliance Matrix: (Units=1/GPa)
#
#
# Indices 1 2 3 4 5 6 
#
# 1 0.007738 -0.000895 0.001234 0.000000 -0.001132 0.000000
# 2 -0.000895 0.010061 -0.004282 0.000000 0.000208 0.000000
# 3 0.001234 -0.004282 0.013396 0.000000 -0.000652 0.000000
# 4 0.000000 0.000000 0.000000 0.032153 0.000000 -0.050992
# 5 -0.001132 0.000208 -0.000652 0.000000 0.023636 0.000000
# 6 0.000000 0.000000 0.000000 -0.050992 0.000000 1.287250
#
#
# Mechanical properties :
#
#
# Convention : Reuss Voigt Hill
#
# Bulk Modulus (GPa) = 42.90473 44.88514 43.89493
# Shear Modulus (GPa) = 3.59741 35.38309 19.49025
#
# Velocity S-wave (km/s) = 1.32387 4.15191 3.08147
# Velocity P-wave (km/s) = 4.82075 6.69717 5.83488
#
# Compressibility (1/GPa) = 0.02330745
#
# Stress axis : x y z
#
# Youngs Moduli (GPa) = 129.23443 99.39249 74.65147
#
# Poissons Ratio (x) = 0.08896 -0.09210
# Poissons Ratio (y) = 0.11568 0.31968
# Poissons Ratio (z) = -0.15944 0.42562
#
# Static dielectric constant tensor:
#      x y z
#    x 1.785620 0.000000 0.004670 
#    y 0.000000 1.741590 0.000000 
#    z 0.004670 0.000000 1.729880 
# 
# From -- ./inp_files/330818.got.cif
#   From: 2010.05.17/outbox.cif.g08.bks.cpg/sg12_166_cif.got.tgz:330818.got - 2010.06.03 13:09:07.
