data_PCOD9189605
_publ_section_title
;
Structure prediction by ZEFSAII (Michael W. Deem and Ramdas Pophale) SiO2 
 PCOD9189605
Probable space group: C 2/M
;
_chemical_formula_sum "Si O2"
_cell_formula_units_Z 44
_cell_length_a 5.862855
_cell_length_b 29.974393
_cell_length_c 11.456069
_cell_angle_alpha 90.000000
_cell_angle_beta 82.317333
_cell_angle_gamma 90.000000
_cell_volume 1995.166786
_symmetry_space_group_name_H-M "C 2/M"
_symmetry_group_IT_number 12
_symmetry_cell_setting 'monoclinic'
loop_
_space_group_symop_operation_xyz
x,y,z
-x,y,-z
-x,-y,-z
x,-y,z
1/2+x,1/2+y,z
1/2-x,1/2+y,-z
1/2-x,1/2-y,-z
1/2+x,1/2-y,z
loop_
_atom_site_type_symbol
_atom_site_label
_atom_site_fract_x
_atom_site_fract_y
_atom_site_fract_z
Si Si1 0.856574 0.859464 0.129493
Si Si2 0.500000 0.105859 0.500000
Si Si3 0.417943 0.635501 0.375349
Si Si4 0.181063 0.734259 0.135550
Si Si5 0.576487 0.050055 0.128517
Si Si6 0.691255 0.449149 0.345779
O O1 0.994160 0.849095 0.241657
O O2 0.673932 0.819408 0.135560
O O3 0.742374 0.908427 0.143293
O O4 0.000000 0.857252 0.000000
O O5 0.644731 0.137541 0.404942
O O6 0.649328 0.073711 0.568964
O O7 0.500000 0.650926 0.500000
O O8 0.474789 0.582924 0.361679
O O9 0.422785 0.748347 0.185089
O O10 0.250000 0.750000 0.000000
O O11 0.343301 0.053609 0.219057
O O12 0.676081 0.000000 0.145220
O O13 0.500000 0.052262 0.000000
O O14 0.634960 0.500000 0.372578
#
# Coordination Sequence:
#
# PCOD9189605 Si02
#       6
#     8   4   8   8   8   8
#     4  12  23  39  71  97 127 178 217 276 343 399
#     4  10  19  38  54  82 118 166 226 268 320 378
#     4  10  23  39  57  91 127 167 220 267 335 400
#     4  10  22  43  67 109 137 164 217 297 343 404
#     4  10  22  37  55  90 136 177 219 269 330 406
#     4  10  20  35  56  81 121 168 225 278 315 371
#
# _framework density 22.053291999999999
#
# number of rings (size 3 to 8) (size 9 to 14) (size 15 to 20)
#    0.000    1.636    3.636    1.364    2.545    6.545 
#    0.000    0.000    0.000    1.091    0.000    0.000 
#    0.000    0.000    0.000    0.000    0.000    0.000 
#
# Total GULP energy -122497.998193 kJ/mol
# GULP energy per Si atom -5568.090827 kJ/mol
# Density = 2.200310 g / cm^3
# Si number density = 22.053292 Si / 1000 Ang^3
#
#
#
# Elastic Constant Matrix: (Units=GPa)
#
#
# Indices 1 2 3 4 5 6 
#
# 1 75.5770 24.6617 23.9368 0.0000 -7.2036 0.0000
# 2 24.6617 91.7072 9.0557 0.0000 4.0255 0.0000
# 3 23.9368 9.0557 167.3823 0.0000 0.7231 0.0000
# 4 0.0000 0.0000 0.0000 9.9526 0.0000 23.5466
# 5 -7.2036 4.0255 0.7231 0.0000 23.7062 0.0000
# 6 0.0000 0.0000 0.0000 23.5466 0.0000 58.7977
#
#
#
# Elastic Compliance Matrix: (Units=1/GPa)
#
#
# Indices 1 2 3 4 5 6 
#
# 1 0.015818 -0.004297 -0.002054 0.000000 0.005599 0.000000
# 2 -0.004297 0.012211 -0.000032 0.000000 -0.003378 0.000000
# 3 -0.002054 -0.000032 0.006273 0.000000 -0.000810 0.000000
# 4 0.000000 0.000000 0.000000 1.912362 0.000000 -0.765842
# 5 0.005599 -0.003378 -0.000810 0.000000 0.044483 0.000000
# 6 0.000000 0.000000 0.000000 -0.765842 0.000000 0.323703
#
#
# Mechanical properties :
#
#
# Convention : Reuss Voigt Hill
#
# Bulk Modulus (GPa) = 46.42937 49.99721 48.21329
# Shear Modulus (GPa) = 2.14152 36.95877 19.55014
#
# Velocity S-wave (km/s) = 0.98650 4.09820 2.98064
# Velocity P-wave (km/s) = 4.73250 6.71669 5.80993
#
# Compressibility (1/GPa) = 0.02153809
#
# Stress axis : x y z
#
# Youngs Moduli (GPa) = 63.22028 81.89260 159.40678
#
# Poissons Ratio (x) = 0.35186 0.32739
# Poissons Ratio (y) = 0.27163 0.00504
# Poissons Ratio (z) = 0.12984 0.00259
#
# Static dielectric constant tensor:
#      x y z
#    x 1.933270 0.000000 0.005870 
#    y 0.000000 1.798810 0.000000 
#    z 0.005870 0.000000 1.890600 
# 
# From -- ./inp_files/116091.got.cif
#   From: 2010.05.17/outbox.cif.g08.bks.cpg/sg12_59_cif.got.tgz:116091.got - 2010.06.03 13:09:07.
