data_PCOD9189441
_publ_section_title
;
Structure prediction by ZEFSAII (Michael W. Deem and Ramdas Pophale) SiO2 
 PCOD9189441
Probable space group: C 2/M
;
_chemical_formula_sum "Si O2"
_cell_formula_units_Z 56
_cell_length_a 19.522340
_cell_length_b 8.655569
_cell_length_c 19.608867
_cell_angle_alpha 90.000000
_cell_angle_beta 65.965800
_cell_angle_gamma 90.000000
_cell_volume 3026.179245
_symmetry_space_group_name_H-M "C 2/M"
_symmetry_group_IT_number 12
_symmetry_cell_setting 'monoclinic'
loop_
_space_group_symop_operation_xyz
x,y,z
-x,y,-z
-x,-y,-z
x,-y,z
1/2+x,1/2+y,z
1/2-x,1/2+y,-z
1/2-x,1/2-y,-z
1/2+x,1/2-y,z
loop_
_atom_site_type_symbol
_atom_site_label
_atom_site_fract_x
_atom_site_fract_y
_atom_site_fract_z
Si Si1 0.481208 0.825402 0.428743
Si Si2 0.748528 0.184530 0.209812
Si Si3 0.799279 0.815915 0.918730
Si Si4 0.178704 0.315580 0.569820
Si Si5 0.872945 0.687418 0.256469
Si Si6 0.099910 0.178112 0.294109
Si Si7 0.046586 0.317654 0.176212
O O1 0.500000 0.833461 0.500000
O O2 0.396246 0.785985 0.443984
O O3 0.537392 0.701296 0.375438
O O4 0.494858 0.000000 0.394382
O O5 0.732598 0.248740 0.140080
O O6 0.822906 0.245127 0.216063
O O7 0.679841 0.253107 0.282082
O O8 0.746500 0.000000 0.208972
O O9 0.886563 0.765640 0.891938
O O10 0.794653 0.000000 0.918472
O O11 0.750000 0.750000 0.000000
O O12 0.189085 0.500000 0.569930
O O13 0.250000 0.250000 0.500000
O O14 0.159190 0.262526 0.655713
O O15 0.870543 0.500000 0.256668
O O16 0.959849 0.733131 0.208480
O O17 0.071110 0.280657 0.243227
O O18 0.108135 0.000000 0.270204
O O19 0.050041 0.500000 0.160801
#
# Coordination Sequence:
#
# PCOD9189441 Si02
#       7
#     8   8   8   8   8   8   8
#     4  10  21  38  57  78 108 148 196 245 299 355
#     4  11  23  38  60  88 119 155 198 241 290 346
#     4  11  22  40  65  94 126 156 193 237 287 346
#     4  10  22  39  56  81 116 156 197 247 303 355
#     4  10  21  39  60  84 120 158 197 246 299 354
#     4  11  21  35  56  82 112 147 194 244 292 347
#     4  10  19  37  63  87 116 155 195 236 290 347
#
# _framework density 18.505182000000001
#
# number of rings (size 3 to 8) (size 9 to 14) (size 15 to 20)
#    0.000    1.571    1.429    6.000    2.000    2.571 
#    0.000    0.714    0.000    4.286    0.000    0.000 
#    0.000    0.000    0.000    0.000    0.000    0.000 
#
# Total GULP energy -156173.135421 kJ/mol
# GULP energy per Si atom -5577.611979 kJ/mol
# Density = 1.846306 g / cm^3
# Si number density = 18.505182 Si / 1000 Ang^3
#
#
#
# Elastic Constant Matrix: (Units=GPa)
#
#
# Indices 1 2 3 4 5 6 
#
# 1 143.1250 37.9638 62.1460 0.0000 -20.4299 0.0000
# 2 37.9638 52.3272 44.9700 0.0000 -11.5619 -0.0002
# 3 62.1460 44.9700 118.5087 0.0000 -25.0522 0.0000
# 4 0.0000 0.0000 0.0000 30.2960 0.0000 -5.0486
# 5 -20.4299 -11.5619 -25.0522 0.0000 26.4623 0.0000
# 6 0.0000 -0.0002 0.0000 -5.0486 0.0000 26.8261
#
#
#
# Elastic Compliance Matrix: (Units=1/GPa)
#
#
# Indices 1 2 3 4 5 6 
#
# 1 0.009738 -0.003797 -0.003034 0.000000 0.002986 0.000000
# 2 -0.003797 0.030001 -0.009054 0.000000 0.001605 0.000000
# 3 -0.003034 -0.009054 0.015169 0.000000 0.008063 0.000000
# 4 0.000000 0.000000 0.000000 0.034076 0.000000 0.006413
# 5 0.002986 0.001605 0.008063 0.000000 0.048429 0.000000
# 6 0.000000 0.000000 0.000000 0.006413 0.000000 0.038484
#
#
# Mechanical properties :
#
#
# Convention : Reuss Voigt Hill
#
# Bulk Modulus (GPa) = 43.21996 67.12450 55.17223
# Shear Modulus (GPa) = 23.21461 27.97561 25.59511
#
# Velocity S-wave (km/s) = 3.54572 3.89237 3.72308
# Velocity P-wave (km/s) = 6.33792 7.52016 6.95421
#
# Compressibility (1/GPa) = 0.02313746
#
# Stress axis : x y z
#
# Youngs Moduli (GPa) = 102.69104 33.33225 65.92235
#
# Poissons Ratio (x) = 0.12658 0.20003
# Poissons Ratio (y) = 0.38996 0.59684
# Poissons Ratio (z) = 0.31159 0.30178
#
# Static dielectric constant tensor:
#      x y z
#    x 1.639750 0.000000 -0.025960 
#    y 0.000000 1.647780 0.000000 
#    z -0.025960 0.000000 1.665220 
# 
# From -- ./inp_files/313678.got.cif
#   From: 2010.05.17/outbox.cif.g08.bks.cpg/sg12_157_cif.got.tgz:313678.got - 2010.06.03 13:09:07.
