data_PCOD9189169
_publ_section_title
;
Structure prediction by ZEFSAII (Michael W. Deem and Ramdas Pophale) SiO2 
 PCOD9189169
Probable space group: C 2/M
;
_chemical_formula_sum "Si O2"
_cell_formula_units_Z 52
_cell_length_a 19.181432
_cell_length_b 14.926040
_cell_length_c 17.261409
_cell_angle_alpha 90.000000
_cell_angle_beta 145.669838
_cell_angle_gamma 90.000000
_cell_volume 2787.088938
_symmetry_space_group_name_H-M "C 2/M"
_symmetry_group_IT_number 12
_symmetry_cell_setting 'monoclinic'
loop_
_space_group_symop_operation_xyz
x,y,z
-x,y,-z
-x,-y,-z
x,-y,z
1/2+x,1/2+y,z
1/2-x,1/2+y,-z
1/2-x,1/2-y,-z
1/2+x,1/2-y,z
loop_
_atom_site_type_symbol
_atom_site_label
_atom_site_fract_x
_atom_site_fract_y
_atom_site_fract_z
Si Si1 0.500000 0.667518 0.000000
Si Si2 0.026437 0.900143 0.732465
Si Si3 0.609882 0.897745 0.478004
Si Si4 0.773549 0.246275 0.709500
Si Si5 0.746080 0.849060 0.460283
Si Si6 0.671827 0.600333 0.025995
Si Si7 0.123416 0.730589 0.727371
O O1 0.410812 0.727828 0.865402
O O2 0.586724 0.610014 0.023695
O O3 0.086054 0.888473 0.872033
O O4 0.074480 0.819215 0.724163
O O5 0.877991 0.893754 0.597436
O O6 0.061406 0.000000 0.736985
O O7 0.722727 0.844521 0.621930
O O8 0.639617 0.895731 0.412978
O O9 0.489850 0.838508 0.386251
O O10 0.599519 0.000000 0.494719
O O11 0.769784 0.327929 0.645145
O O12 0.685460 0.257347 0.702984
O O13 0.750000 0.750000 0.500000
O O14 0.726873 0.500000 0.074017
O O15 0.774707 0.676947 0.128886
#
# Coordination Sequence:
#
# PCOD9189169 Si02
#       7
#     4   8   8   8   8   8   8
#     4  10  21  34  60  88 115 156 189 238 292 358
#     4  11  22  38  60  85 114 155 204 243 283 343
#     4  11  22  36  61  90 119 154 191 241 300 357
#     4  10  22  38  58  84 123 155 196 237 296 351
#     4  10  19  37  59  81 117 152 195 237 289 344
#     4  10  21  36  57  89 121 153 192 237 292 355
#     4  11  22  38  58  86 124 158 191 241 299 347
#
# _framework density 18.65746
#
# number of rings (size 3 to 8) (size 9 to 14) (size 15 to 20)
#    0.000    1.538    3.077    3.923    0.000    5.538 
#    0.000    2.308    0.000    0.000    0.000    4.308 
#    0.000    0.000    0.000    0.000    0.000    0.000 
#
# Total GULP energy -145090.600484 kJ/mol
# GULP energy per Si atom -5580.407711 kJ/mol
# Density = 1.861499 g / cm^3
# Si number density = 18.657460 Si / 1000 Ang^3
#
#
#
# Elastic Constant Matrix: (Units=GPa)
#
#
# Indices 1 2 3 4 5 6 
#
# 1 43.3584 -0.5105 -0.6187 0.0000 0.7430 0.0000
# 2 -0.5105 61.2341 8.2293 0.0000 2.8697 0.0000
# 3 -0.6187 8.2293 92.9157 0.0000 2.0028 0.0000
# 4 0.0000 0.0000 0.0000 23.3597 0.0000 4.1212
# 5 0.7430 2.8697 2.0028 0.0000 26.4944 0.0000
# 6 0.0000 0.0000 0.0000 4.1212 0.0000 1.1535
#
#
#
# Elastic Compliance Matrix: (Units=1/GPa)
#
#
# Indices 1 2 3 4 5 6 
#
# 1 0.023080 0.000204 0.000150 0.000000 -0.000681 0.000000
# 2 0.000204 0.016604 -0.001433 0.000000 -0.001696 0.000000
# 3 0.000150 -0.001433 0.010905 0.000000 -0.000673 0.000000
# 4 0.000000 0.000000 0.000000 0.115804 0.000000 -0.413750
# 5 -0.000681 -0.001696 -0.000673 0.000000 0.037998 -0.000001
# 6 0.000000 0.000000 0.000000 -0.413750 -0.000001 2.345216
#
#
# Mechanical properties :
#
#
# Convention : Reuss Voigt Hill
#
# Bulk Modulus (GPa) = 20.64728 23.52315 22.08521
# Shear Modulus (GPa) = 1.94711 22.89538 12.42124
#
# Velocity S-wave (km/s) = 1.02268 3.50686 2.58302
# Velocity P-wave (km/s) = 3.53342 5.38820 4.55619
#
# Compressibility (1/GPa) = 0.04843253
#
# Stress axis : x y z
#
# Youngs Moduli (GPa) = 43.32792 60.22467 91.70235
#
# Poissons Ratio (x) = -0.01229 -0.01378
# Poissons Ratio (y) = -0.00884 0.13138
# Poissons Ratio (z) = -0.00651 0.08628
#
# Static dielectric constant tensor:
#      x y z
#    x 1.671930 0.000000 -0.016480 
#    y 0.000000 1.634800 0.000000 
#    z -0.016480 0.000000 1.656980 
# 
# From -- ./inp_files/284300.got.cif
#   From: 2010.05.17/outbox.cif.g08.bks.cpg/sg12_143_cif.got.tgz:284300.got - 2010.06.03 13:09:07.
