data_PCOD9189412
_publ_section_title
;
Structure prediction by ZEFSAII (Michael W. Deem and Ramdas Pophale) SiO2 
 PCOD9189412
Probable space group: C 2/M
;
_chemical_formula_sum "Si O2"
_cell_formula_units_Z 56
_cell_length_a 27.011730
_cell_length_b 15.884007
_cell_length_c 11.070089
_cell_angle_alpha 90.000000
_cell_angle_beta 31.864999
_cell_angle_gamma 90.000000
_cell_volume 2507.444795
_symmetry_space_group_name_H-M "C 2/M"
_symmetry_group_IT_number 12
_symmetry_cell_setting 'monoclinic'
loop_
_space_group_symop_operation_xyz
x,y,z
-x,y,-z
-x,-y,-z
x,-y,z
1/2+x,1/2+y,z
1/2-x,1/2+y,-z
1/2-x,1/2-y,-z
1/2+x,1/2-y,z
loop_
_atom_site_type_symbol
_atom_site_label
_atom_site_fract_x
_atom_site_fract_y
_atom_site_fract_z
Si Si1 0.388965 0.908455 0.260694
Si Si2 0.756709 0.797402 0.858450
Si Si3 0.605249 0.401724 0.553971
Si Si4 0.388872 0.592629 0.021123
Si Si5 0.699835 0.120684 0.302023
Si Si6 0.386473 0.718987 0.235660
Si Si7 0.397988 0.904259 0.750277
O O1 0.365316 0.908909 0.452883
O O2 0.351301 0.815799 0.299913
O O3 0.351883 0.000000 0.290662
O O4 0.500000 0.908621 0.000000
O O5 0.832898 0.870344 0.686294
O O6 0.791750 0.721159 0.704511
O O7 0.750000 0.750000 0.000000
O O8 0.656577 0.841969 0.047103
O O9 0.622062 0.500000 0.544808
O O10 0.632147 0.342467 0.611713
O O11 0.494317 0.390990 0.758592
O O12 0.391471 0.500000 0.075962
O O13 0.306546 0.590692 0.094640
O O14 0.360968 0.664592 0.172134
O O15 0.658990 0.095290 0.257593
O O16 0.500000 0.726200 0.000000
O O17 0.500000 0.873027 0.500000
O O18 0.405540 0.000000 0.781099
#
# Coordination Sequence:
#
# PCOD9189412 Si02
#       7
#     8   8   8   8   8   8   8
#     4  10  20  36  58  86 125 168 209 251 297 362
#     4  10  22  39  61  88 118 158 207 260 313 362
#     4  10  19  37  62  90 125 161 202 254 311 370
#     4  10  21  36  62  95 126 164 201 248 311 375
#     4  11  22  40  62  87 126 162 205 254 312 370
#     4   9  18  35  58  88 123 161 204 246 299 366
#     4  10  22  42  65  88 118 159 207 261 313 368
#
# _framework density 22.333490999999999
#
# number of rings (size 3 to 8) (size 9 to 14) (size 15 to 20)
#    0.000    2.000    1.429    2.143    0.000    4.571 
#    0.000    2.143    0.000    7.714    0.000    0.000 
#    0.000    0.000    0.000    0.000    0.000    0.000 
#
# Total GULP energy -156103.313195 kJ/mol
# GULP energy per Si atom -5575.118328 kJ/mol
# Density = 2.228266 g / cm^3
# Si number density = 22.333491 Si / 1000 Ang^3
#
#
#
# Elastic Constant Matrix: (Units=GPa)
#
#
# Indices 1 2 3 4 5 6 
#
# 1 56.5115 10.6661 13.4406 0.0000 -13.3020 0.0000
# 2 10.6661 172.8389 52.4075 0.0000 1.9057 0.0000
# 3 13.4406 52.4075 113.0772 0.0000 -7.3137 0.0000
# 4 0.0000 0.0000 0.0000 47.5248 0.0000 -3.4511
# 5 -13.3020 1.9057 -7.3137 0.0000 22.7453 0.0000
# 6 0.0000 0.0000 0.0000 -3.4511 0.0000 2.6454
#
#
#
# Elastic Compliance Matrix: (Units=1/GPa)
#
#
# Indices 1 2 3 4 5 6 
#
# 1 0.021007 -0.001054 -0.001234 0.000000 0.011977 0.000000
# 2 -0.001054 0.006842 -0.003189 0.000000 -0.002215 0.000000
# 3 -0.001234 -0.003189 0.010661 0.000000 0.002974 0.000000
# 4 0.000000 0.000000 0.000000 0.023244 0.000000 0.030324
# 5 0.011977 -0.002215 0.002974 0.000000 0.052111 0.000000
# 6 0.000000 0.000000 0.000000 0.030324 0.000000 0.417580
#
#
# Mechanical properties :
#
#
# Convention : Reuss Voigt Hill
#
# Bulk Modulus (GPa) = 36.29013 55.05067 45.67040
# Shear Modulus (GPa) = 9.06479 32.31065 20.68772
#
# Velocity S-wave (km/s) = 2.01684 3.80772 3.04683
# Velocity P-wave (km/s) = 4.65918 6.63586 5.73335
#
# Compressibility (1/GPa) = 0.02755570
#
# Stress axis : x y z
#
# Youngs Moduli (GPa) = 47.60280 146.15153 93.80409
#
# Poissons Ratio (x) = 0.15410 0.11572
# Poissons Ratio (y) = 0.05019 0.29915
# Poissons Ratio (z) = 0.05872 0.46609
#
# Static dielectric constant tensor:
#      x y z
#    x 1.807240 0.000000 -0.003850 
#    y 0.000000 1.901130 0.000000 
#    z -0.003850 0.000000 1.873120 
# 
# From -- ./inp_files/189630.got.cif
#   From: 2010.05.17/outbox.cif.g08.bks.cpg/sg12_95_cif.got.tgz:189630.got - 2010.06.03 13:09:07.
