data_PCOD9189340
_publ_section_title
;
Structure prediction by ZEFSAII (Michael W. Deem and Ramdas Pophale) SiO2 
 PCOD9189340
Probable space group: C 2/M
;
_chemical_formula_sum "Si O2"
_cell_formula_units_Z 48
_cell_length_a 16.986182
_cell_length_b 15.263999
_cell_length_c 16.976448
_cell_angle_alpha 90.000000
_cell_angle_beta 147.881082
_cell_angle_gamma 90.000000
_cell_volume 2340.236925
_symmetry_space_group_name_H-M "C 2/M"
_symmetry_group_IT_number 12
_symmetry_cell_setting 'monoclinic'
loop_
_space_group_symop_operation_xyz
x,y,z
-x,y,-z
-x,-y,-z
x,-y,z
1/2+x,1/2+y,z
1/2-x,1/2+y,-z
1/2-x,1/2-y,-z
1/2+x,1/2-y,z
loop_
_atom_site_type_symbol
_atom_site_label
_atom_site_fract_x
_atom_site_fract_y
_atom_site_fract_z
Si Si1 0.168779 0.905430 0.616563
Si Si2 0.189750 0.399495 0.601099
Si Si3 0.180412 0.742106 0.356634
Si Si4 0.645089 0.834559 0.910912
Si Si5 0.136925 0.346856 0.729032
Si Si6 0.663923 0.831373 0.103884
O O1 0.219695 0.824028 0.608541
O O2 0.268985 0.899960 0.778719
O O3 0.000000 0.896424 0.500000
O O4 0.188134 0.000000 0.592861
O O5 0.191298 0.500000 0.575707
O O6 0.321600 0.337801 0.683917
O O7 0.192203 0.397410 0.698168
O O8 0.040375 0.352452 0.439905
O O9 0.250000 0.750000 0.500000
O O10 0.020877 0.700909 0.229699
O O11 0.664846 0.880694 0.842207
O O12 0.750000 0.750000 0.000000
O O13 0.661417 0.871129 0.013460
O O14 0.222680 0.252691 0.798673
O O15 0.500000 0.806948 0.000000
#
# Coordination Sequence:
#
# PCOD9189340 Si02
#       6
#     8   8   8   8   8   8
#     4  11  25  44  67  96 128 169 220 270 323 389
#     4  11  22  38  66  97 125 166 219 264 314 377
#     4  12  23  41  68  94 124 171 211 268 322 374
#     4  10  22  37  63  97 127 171 214 258 322 389
#     4  10  19  37  61  90 132 163 211 259 315 372
#     4  11  20  38  65  93 128 173 213 260 322 390
#
# _framework density 20.510743000000002
#
# number of rings (size 3 to 8) (size 9 to 14) (size 15 to 20)
#    0.000    1.167    5.000    2.000    2.333    1.000 
#    0.000    1.667    0.000   23.000    0.000    0.000 
#    0.000    0.000    0.000    0.000    0.000    0.000 
#
# Total GULP energy -133734.670284 kJ/mol
# GULP energy per Si atom -5572.277928 kJ/mol
# Density = 2.046406 g / cm^3
# Si number density = 20.510743 Si / 1000 Ang^3
#
#
#
# Elastic Constant Matrix: (Units=GPa)
#
#
# Indices 1 2 3 4 5 6 
#
# 1 99.7831 33.0816 25.7334 0.0004 -37.5934 0.0000
# 2 33.0816 98.8129 30.3233 0.0003 4.0808 -0.0001
# 3 25.7334 30.3233 74.2429 0.0008 -23.6263 0.0001
# 4 0.0004 0.0003 0.0008 33.1417 0.0004 -7.4504
# 5 -37.5934 4.0808 -23.6263 0.0004 47.9331 0.0000
# 6 0.0000 -0.0001 0.0001 -7.4504 0.0000 -10.1070
#
#
#
# Elastic Compliance Matrix: (Units=1/GPa)
#
#
# Indices 1 2 3 4 5 6 
#
# 1 0.017698 -0.007048 0.001604 0.000000 0.015271 0.000000
# 2 -0.007048 0.015037 -0.006956 0.000000 -0.010237 0.000000
# 3 0.001604 -0.006956 0.019384 0.000000 0.011405 0.000001
# 4 0.000000 0.000000 0.000000 0.025884 -0.000001 -0.019081
# 5 0.015271 -0.010237 0.011405 -0.000001 0.039332 0.000001
# 6 0.000000 0.000000 0.000001 -0.019081 0.000001 -0.084876
#
#
# Mechanical properties :
#
#
# Convention : Reuss Voigt Hill
#
# Bulk Modulus (GPa) = 36.60544 50.12393 43.36468
# Shear Modulus (GPa) = 75.33890 26.44026 50.88958
#
# Velocity S-wave (km/s) = 6.06722 3.59429 4.98649
# Velocity P-wave (km/s) = 8.18335 6.45881 7.37168
#
# Compressibility (1/GPa) = 0.02731835
#
# Stress axis : x y z
#
# Youngs Moduli (GPa) = 56.50293 66.50140 51.58934
#
# Poissons Ratio (x) = 0.46871 -0.08275
# Poissons Ratio (y) = 0.39824 0.35888
# Poissons Ratio (z) = -0.09063 0.46261
#
# Static dielectric constant tensor:
#      x y z
#    x 1.802450 0.000000 -0.013170 
#    y 0.000000 1.758060 0.000000 
#    z -0.013170 0.000000 1.743480 
# 
# From -- ./inp_files/278248.got.cif
#   From: 2010.05.17/outbox.cif.g08.bks.cpg/sg12_140_cif.got.tgz:278248.got - 2010.06.03 13:09:07.
