data_PCOD9189199
_publ_section_title
;
Structure prediction by ZEFSAII (Michael W. Deem and Ramdas Pophale) SiO2 
 PCOD9189199
Probable space group: C 2/M
;
_chemical_formula_sum "Si O2"
_cell_formula_units_Z 64
_cell_length_a 23.965917
_cell_length_b 21.572047
_cell_length_c 17.076278
_cell_angle_alpha 90.000000
_cell_angle_beta 160.089814
_cell_angle_gamma 90.000000
_cell_volume 3006.459185
_symmetry_space_group_name_H-M "C 2/M"
_symmetry_group_IT_number 12
_symmetry_cell_setting 'monoclinic'
loop_
_space_group_symop_operation_xyz
x,y,z
-x,y,-z
-x,-y,-z
x,-y,z
1/2+x,1/2+y,z
1/2-x,1/2+y,-z
1/2-x,1/2-y,-z
1/2+x,1/2-y,z
loop_
_atom_site_type_symbol
_atom_site_label
_atom_site_fract_x
_atom_site_fract_y
_atom_site_fract_z
Si Si1 0.611326 0.675162 0.474349
Si Si2 0.452709 0.071511 0.716922
Si Si3 0.633279 0.266549 0.745268
Si Si4 0.160202 0.759624 0.298788
Si Si5 0.730175 0.069775 0.787298
Si Si6 0.958529 0.370214 0.330181
Si Si7 0.407195 0.385706 0.722999
Si Si8 0.372150 0.166504 0.947513
O O1 0.435048 0.686856 0.279142
O O2 0.697976 0.742570 0.574942
O O3 0.603456 0.640084 0.381048
O O4 0.733908 0.648447 0.701773
O O5 0.503603 0.109971 0.707436
O O6 0.258851 0.078049 0.477314
O O7 0.496255 0.000000 0.765251
O O8 0.546048 0.105242 0.910500
O O9 0.500000 0.267480 0.500000
O O10 0.621985 0.197265 0.764092
O O11 0.794475 0.291901 0.915452
O O12 0.250000 0.750000 0.500000
O O13 0.091904 0.828086 0.215073
O O14 0.016058 0.709716 0.103710
O O15 0.662175 0.082110 0.784664
O O16 0.630749 0.119876 0.604217
O O17 0.689091 0.000000 0.706699
O O18 0.923686 0.078971 0.042442
#
# Coordination Sequence:
#
# PCOD9189199 Si02
#       8
#     8   8   8   8   8   8   8   8
#     4  10  22  40  64  93 133 163 205 272 331 380
#     4  12  26  44  63  91 132 177 225 263 311 383
#     4  10  21  38  64 100 125 157 207 265 329 389
#     4  10  19  37  59  93 126 160 204 264 329 376
#     4  11  23  43  66  91 130 172 218 262 314 395
#     4  11  23  43  66  96 127 169 212 265 334 391
#     4  11  24  41  63  99 128 171 217 268 323 380
#     4  11  23  41  65  95 134 168 214 267 326 386
#
# _framework density 21.287500000000001
#
# number of rings (size 3 to 8) (size 9 to 14) (size 15 to 20)
#    0.000    1.250    3.750    3.750    5.250    1.000 
#    2.250    3.125    0.000    3.375    0.000    0.000 
#    0.000    0.000    0.000    0.000    0.000    0.000 
#
# Total GULP energy -178836.747190 kJ/mol
# GULP energy per Si atom -5588.648350 kJ/mol
# Density = 2.123905 g / cm^3
# Si number density = 21.287500 Si / 1000 Ang^3
#
#
#
# Elastic Constant Matrix: (Units=GPa)
#
#
# Indices 1 2 3 4 5 6 
#
# 1 71.3893 -0.4832 14.9711 0.0000 7.7830 0.0000
# 2 -0.4832 54.8173 11.1772 0.0000 0.7898 0.0000
# 3 14.9711 11.1772 89.2649 0.0000 3.0594 0.0000
# 4 0.0000 0.0000 0.0000 15.5638 0.0000 9.3986
# 5 7.7830 0.7898 3.0594 0.0000 30.8695 0.0000
# 6 0.0000 0.0000 0.0000 9.3986 0.0000 18.1173
#
#
#
# Elastic Compliance Matrix: (Units=1/GPa)
#
#
# Indices 1 2 3 4 5 6 
#
# 1 0.014915 0.000685 -0.002466 0.000000 -0.003533 0.000000
# 2 0.000685 0.018754 -0.002449 0.000000 -0.000410 0.000000
# 3 -0.002466 -0.002449 0.011940 0.000000 -0.000499 0.000000
# 4 0.000000 0.000000 0.000000 0.093561 0.000000 -0.048536
# 5 -0.003533 -0.000410 -0.000499 0.000000 0.033345 0.000000
# 6 0.000000 0.000000 0.000000 -0.048536 0.000000 0.080375
#
#
# Mechanical properties :
#
#
# Convention : Reuss Voigt Hill
#
# Bulk Modulus (GPa) = 26.91904 29.64465 28.28185
# Shear Modulus (GPa) = 18.26600 25.56389 21.91495
#
# Velocity S-wave (km/s) = 2.93245 3.46914 3.21202
# Velocity P-wave (km/s) = 4.91310 5.47747 5.20294
#
# Compressibility (1/GPa) = 0.03714842
#
# Stress axis : x y z
#
# Youngs Moduli (GPa) = 67.04777 53.32270 83.75219
#
# Poissons Ratio (x) = -0.03654 0.20654
# Poissons Ratio (y) = -0.04594 0.20512
# Poissons Ratio (z) = 0.16535 0.13059
#
# Static dielectric constant tensor:
#      x y z
#    x 1.774920 0.000000 0.041530 
#    y 0.000000 1.753560 0.000000 
#    z 0.041530 0.000000 1.665070 
# 
# From -- ./inp_files/290948.got.cif
#   From: 2010.05.17/outbox.cif.g08.bks.cpg/sg12_146_cif.got.tgz:290948.got - 2010.06.03 13:09:07.
