data_PCOD9189406
_publ_section_title
;
Structure prediction by ZEFSAII (Michael W. Deem and Ramdas Pophale) SiO2 
 PCOD9189406
Probable space group: C 2/M
;
_chemical_formula_sum "Si O2"
_cell_formula_units_Z 44
_cell_length_a 8.695704
_cell_length_b 30.983224
_cell_length_c 8.073189
_cell_angle_alpha 90.000000
_cell_angle_beta 99.491806
_cell_angle_gamma 90.000000
_cell_volume 2145.307528
_symmetry_space_group_name_H-M "C 2/M"
_symmetry_group_IT_number 12
_symmetry_cell_setting 'monoclinic'
loop_
_space_group_symop_operation_xyz
x,y,z
-x,y,-z
-x,-y,-z
x,-y,z
1/2+x,1/2+y,z
1/2-x,1/2+y,-z
1/2-x,1/2-y,-z
1/2+x,1/2-y,z
loop_
_atom_site_type_symbol
_atom_site_label
_atom_site_fract_x
_atom_site_fract_y
_atom_site_fract_z
Si Si1 0.824524 0.304386 0.742466
Si Si2 0.321154 0.500000 0.518069
Si Si3 0.311914 0.926819 0.269631
Si Si4 0.000000 0.356640 0.500000
Si Si5 0.834249 0.729216 0.174740
Si Si6 0.956230 0.500000 0.797607
Si Si7 0.813961 0.853441 0.965094
O O1 0.884349 0.328896 0.592499
O O2 0.697700 0.266520 0.697398
O O3 0.764606 0.338072 0.873843
O O4 0.985084 0.279946 0.819218
O O5 0.500000 0.500000 0.500000
O O6 0.288240 0.457834 0.627664
O O7 0.207653 0.500000 0.334271
O O8 0.389316 0.887971 0.379449
O O9 0.453638 0.957512 0.244642
O O10 0.229327 0.901929 0.101593
O O11 0.750000 0.750000 0.000000
O O12 0.751724 0.682859 0.174022
O O13 0.000000 0.500000 0.000000
O O14 0.000000 0.849340 0.000000
#
# Coordination Sequence:
#
# PCOD9189406 Si02
#       7
#     8   4   8   4   8   4   8
#     4  11  24  40  64  95 132 183 232 290 337 408
#     4  11  25  49  72 102 150 176 213 293 355 410
#     4  11  24  45  69 100 131 179 225 271 349 410
#     4  12  24  41  70  94 136 180 228 273 346 412
#     4  10  19  37  62  89 124 178 229 281 341 382
#     4  11  25  43  76 100 132 183 224 273 343 431
#     4  11  23  41  68 100 133 177 236 291 335 405
#
# _framework density 20.509881
#
# number of rings (size 3 to 8) (size 9 to 14) (size 15 to 20)
#    0.000    1.091    3.636    4.909    2.545    3.636 
#    0.000    1.818    0.000    0.000    0.000    0.000 
#    0.000    0.000    0.000    0.000    0.000    0.000 
#
# Total GULP energy -122579.980576 kJ/mol
# GULP energy per Si atom -5571.817299 kJ/mol
# Density = 2.046320 g / cm^3
# Si number density = 20.509881 Si / 1000 Ang^3
#
#
#
# Elastic Constant Matrix: (Units=GPa)
#
#
# Indices 1 2 3 4 5 6 
#
# 1 171.1905 62.7536 64.1868 0.0000 -0.1482 0.0000
# 2 62.7536 138.9615 60.7293 0.0000 -7.9375 0.0000
# 3 64.1868 60.7293 84.6046 0.0000 -20.7198 0.0000
# 4 0.0000 0.0000 0.0000 70.1900 0.0000 -16.1452
# 5 -0.1482 -7.9375 -20.7198 0.0000 26.6529 0.0000
# 6 0.0000 0.0000 0.0000 -16.1452 0.0000 8.5896
#
#
#
# Elastic Compliance Matrix: (Units=1/GPa)
#
#
# Indices 1 2 3 4 5 6 
#
# 1 0.009108 -0.001142 -0.007610 0.000000 -0.006205 0.000000
# 2 -0.001142 0.010880 -0.007598 0.000000 -0.002673 0.000000
# 3 -0.007610 -0.007598 0.027769 0.000000 0.019283 0.000000
# 4 0.000000 0.000000 0.000000 0.025098 0.000000 0.047175
# 5 -0.006205 -0.002673 0.019283 0.000000 0.051679 0.000000
# 6 0.000000 0.000000 0.000000 0.047175 0.000000 0.205091
#
#
# Mechanical properties :
#
#
# Convention : Reuss Voigt Hill
#
# Bulk Modulus (GPa) = 66.41140 85.56623 75.98881
# Shear Modulus (GPa) = 13.61123 34.89230 24.25176
#
# Velocity S-wave (km/s) = 2.57892 4.12909 3.44240
# Velocity P-wave (km/s) = 6.42793 8.03384 7.27533
#
# Compressibility (1/GPa) = 0.01505766
#
# Stress axis : x y z
#
# Youngs Moduli (GPa) = 109.79402 91.91573 36.01106
#
# Poissons Ratio (x) = 0.10494 0.27405
# Poissons Ratio (y) = 0.12536 0.27360
# Poissons Ratio (z) = 0.83554 0.69835
#
# Static dielectric constant tensor:
#      x y z
#    x 1.736000 0.000000 -0.066830 
#    y 0.000000 1.730900 0.000000 
#    z -0.066830 0.000000 2.005900 
# 
# From -- ./inp_files/41847.got.cif
#   From: 2010.05.17/outbox.cif.g08.bks.cpg/sg12_21_cif.got.tgz:41847.got - 2010.06.03 13:09:07.
