data_PCOD9189816
_publ_section_title
;
Structure prediction by ZEFSAII (Michael W. Deem and Ramdas Pophale) SiO2 
 PCOD9189816
Probable space group: C 2/M
;
_chemical_formula_sum "Si O2"
_cell_formula_units_Z 58
_cell_length_a 19.537291
_cell_length_b 15.208877
_cell_length_c 25.038605
_cell_angle_alpha 90.000000
_cell_angle_beta 19.385237
_cell_angle_gamma 90.000000
_cell_volume 2469.463099
_symmetry_space_group_name_H-M "C 2/M"
_symmetry_group_IT_number 12
_symmetry_cell_setting 'monoclinic'
loop_
_space_group_symop_operation_xyz
x,y,z
-x,y,-z
-x,-y,-z
x,-y,z
1/2+x,1/2+y,z
1/2-x,1/2+y,-z
1/2-x,1/2-y,-z
1/2+x,1/2-y,z
loop_
_atom_site_type_symbol
_atom_site_label
_atom_site_fract_x
_atom_site_fract_y
_atom_site_fract_z
Si Si1 0.176101 0.156748 0.717672
Si Si2 0.500000 0.500000 0.500000
Si Si3 0.678265 0.855731 0.833090
Si Si4 0.381243 0.898290 0.458034
Si Si5 0.702598 0.861257 0.695619
Si Si6 0.260746 0.605087 0.976381
Si Si7 0.468481 0.606219 0.711566
Si Si8 0.814901 0.848287 0.170840
O O1 0.283477 0.108064 0.589411
O O2 0.251440 0.258039 0.658646
O O3 0.218271 0.116444 0.744823
O O4 0.929777 0.152163 0.888964
O O5 0.389887 0.423210 0.542580
O O6 0.679366 0.896265 0.774029
O O7 0.627479 0.753347 0.861105
O O8 0.875961 0.859760 0.725000
O O9 0.500000 0.897199 0.000000
O O10 0.200337 0.862854 0.553280
O O11 0.601260 0.852488 0.296541
O O12 0.417309 0.000000 0.418360
O O13 0.477283 0.874378 0.836245
O O14 0.291011 0.500000 0.958914
O O15 0.323562 0.630488 0.869131
O O16 0.471528 0.500000 0.707952
O O17 0.000000 0.888172 0.000000
#
# Coordination Sequence:
#
# PCOD9189816 Si02
#       8
#     8   2   8   8   8   8   8   8
#     4  10  22  39  68  92 120 168 221 261 309 377
#     4  12  28  40  54  92 138 172 204 262 324 380
#     4  10  20  36  62  89 121 161 208 250 308 378
#     4  10  22  42  65  92 123 158 213 271 313 369
#     4  11  23  39  60  88 131 171 206 258 318 383
#     4  10  19  38  63  95 125 159 213 271 310 366
#     4   9  19  34  60  93 121 153 204 256 309 367
#     4  10  23  40  60  92 125 160 206 258 317 383
#
# _framework density 23.486885999999998
#
# number of rings (size 3 to 8) (size 9 to 14) (size 15 to 20)
#    0.000    1.931    2.069    2.069    4.828    2.759 
#    0.000    1.379    0.000    0.000    0.000    0.000 
#    0.000    0.000    0.000    0.000    0.000    0.000 
#
# Total GULP energy -161790.577763 kJ/mol
# GULP energy per Si atom -5578.985440 kJ/mol
# Density = 2.343343 g / cm^3
# Si number density = 23.486886 Si / 1000 Ang^3
#
#
#
# Elastic Constant Matrix: (Units=GPa)
#
#
# Indices 1 2 3 4 5 6 
#
# 1 74.8939 -9.7252 12.0467 0.0119 -20.1671 0.0006
# 2 -9.7252 68.5956 -3.3568 0.0469 -5.3065 -0.0331
# 3 12.0467 -3.3568 95.7184 -0.0581 -36.9982 -0.0017
# 4 0.0119 0.0469 -0.0581 -21.5568 -0.0227 -25.0950
# 5 -20.1671 -5.3065 -36.9982 -0.0227 37.5323 -0.0200
# 6 0.0006 -0.0331 -0.0017 -25.0950 -0.0200 16.8451
#
#
#
# Elastic Compliance Matrix: (Units=1/GPa)
#
#
# Indices 1 2 3 4 5 6 
#
# 1 0.016612 0.003420 0.002692 -0.000010 0.012063 0.000006
# 2 0.003420 0.015719 0.002731 -0.000009 0.006752 0.000026
# 3 0.002692 0.002731 0.017630 -0.000035 0.019212 -0.000022
# 4 -0.000010 -0.000009 -0.000035 -0.016966 -0.000065 -0.025275
# 5 0.012063 0.006752 0.019212 -0.000065 0.053019 -0.000019
# 6 0.000006 0.000026 -0.000022 -0.025275 -0.000019 0.021711
#
#
# Mechanical properties :
#
#
# Convention : Reuss Voigt Hill
#
# Bulk Modulus (GPa) = 14.78273 26.34857 20.56565
# Shear Modulus (GPa) = 44.40952 22.58033 33.49492
#
# Velocity S-wave (km/s) = 4.35308 3.10401 3.78049
# Velocity P-wave (km/s) = 5.61902 4.90808 5.27554
#
# Compressibility (1/GPa) = 0.06764652
#
# Stress axis : x y z
#
# Youngs Moduli (GPa) = 60.19880 63.61707 56.72068
#
# Poissons Ratio (x) = -0.21758 -0.15269
# Poissons Ratio (y) = -0.20588 -0.15489
# Poissons Ratio (z) = -0.16206 -0.17372
#
# Static dielectric constant tensor:
#      x y z
#    x 1.887300 -0.000020 0.032110 
#    y -0.000020 1.864890 0.000070 
#    z 0.032110 0.000070 2.052040 
# 
# From -- ./inp_files/366524.got.cif
#   From: 2010.05.17/outbox.cif.g08.bks.cpg/sg12_184_cif.got.tgz:366524.got - 2010.06.03 13:09:07.
