data_PCOD9189849
_publ_section_title
;
Structure prediction by ZEFSAII (Michael W. Deem and Ramdas Pophale) SiO2 
 PCOD9189849
Probable space group: C 2/M
;
_chemical_formula_sum "Si O2"
_cell_formula_units_Z 50
_cell_length_a 21.345937
_cell_length_b 7.514688
_cell_length_c 14.113899
_cell_angle_alpha 90.000000
_cell_angle_beta 95.427909
_cell_angle_gamma 90.000000
_cell_volume 2253.831423
_symmetry_space_group_name_H-M "C 2/M"
_symmetry_group_IT_number 12
_symmetry_cell_setting 'monoclinic'
loop_
_space_group_symop_operation_xyz
x,y,z
-x,y,-z
-x,-y,-z
x,-y,z
1/2+x,1/2+y,z
1/2-x,1/2+y,-z
1/2-x,1/2-y,-z
1/2+x,1/2-y,z
loop_
_atom_site_type_symbol
_atom_site_label
_atom_site_fract_x
_atom_site_fract_y
_atom_site_fract_z
Si Si1 0.247973 0.718516 0.302285
Si Si2 0.500000 0.000000 0.000000
Si Si3 0.116606 0.795702 0.607624
Si Si4 0.873734 0.294730 0.603482
Si Si5 0.501895 0.714249 0.716702
Si Si6 0.217035 0.211406 0.896235
Si Si7 0.925377 0.213469 0.082595
O O1 0.245356 0.500000 0.304432
O O2 0.314919 0.777460 0.355164
O O3 0.188344 0.779787 0.354555
O O4 0.248337 0.778916 0.192974
O O5 0.553974 0.841661 0.998172
O O6 0.109687 0.793452 0.494016
O O7 0.055716 0.718847 0.651610
O O8 0.118880 0.000000 0.642168
O O9 0.861256 0.500000 0.577903
O O10 0.933739 0.285121 0.680401
O O11 0.497669 0.500000 0.708436
O O12 0.526272 0.756223 0.825092
O O13 0.144039 0.264234 0.890964
O O14 0.215723 0.000000 0.885204
O O15 0.250000 0.250000 0.000000
O O16 0.926967 0.000000 0.063290
#
# Coordination Sequence:
#
# PCOD9189849 Si02
#       7
#     8   2   8   8   8   8   8
#     4   9  19  39  62  84 121 166 207 259 318 380
#     4  12  26  40  72  98 134 164 222 282 330 388
#     4  10  19  38  65  84 114 170 217 253 312 384
#     4  11  23  35  55  95 132 159 203 266 325 377
#     4  10  21  40  64  85 122 170 216 256 310 391
#     4  10  21  41  67  93 124 166 218 271 328 396
#     4  10  23  45  68  96 131 175 220 268 334 397
#
# _framework density 22.184443999999999
#
# number of rings (size 3 to 8) (size 9 to 14) (size 15 to 20)
#    0.000    1.920    1.600    1.680    2.240    3.840 
#    2.880    4.800    0.000    0.000    0.000    0.000 
#    0.000    0.000    0.000    0.000    0.000    0.000 
#
# Total GULP energy -139396.970096 kJ/mol
# GULP energy per Si atom -5575.878804 kJ/mol
# Density = 2.213395 g / cm^3
# Si number density = 22.184444 Si / 1000 Ang^3
#
#
#
# Elastic Constant Matrix: (Units=GPa)
#
#
# Indices 1 2 3 4 5 6 
#
# 1 82.0428 10.3014 -2.3040 0.0000 -7.1798 0.0000
# 2 10.3014 64.8504 0.9572 0.0000 -10.2289 0.0000
# 3 -2.3040 0.9572 52.5047 0.0000 7.0808 0.0000
# 4 0.0000 0.0000 0.0000 5.2317 0.0000 1.1396
# 5 -7.1798 -10.2289 7.0808 0.0000 35.8618 0.0000
# 6 0.0000 0.0000 0.0000 1.1396 0.0000 16.7169
#
#
#
# Elastic Compliance Matrix: (Units=1/GPa)
#
#
# Indices 1 2 3 4 5 6 
#
# 1 0.012583 -0.001692 0.000317 0.000000 0.001974 0.000000
# 2 -0.001692 0.016419 -0.000986 0.000000 0.004539 0.000000
# 3 0.000317 -0.000986 0.019630 0.000000 -0.004094 0.000000
# 4 0.000000 0.000000 0.000000 0.194022 0.000000 -0.013227
# 5 0.001974 0.004539 -0.004094 0.000000 0.030383 0.000000
# 6 0.000000 0.000000 0.000000 -0.013227 0.000000 0.060721
#
#
# Mechanical properties :
#
#
# Convention : Reuss Voigt Hill
#
# Bulk Modulus (GPa) = 22.77384 24.14524 23.45954
# Shear Modulus (GPa) = 14.15961 24.25831 19.20896
#
# Velocity S-wave (km/s) = 2.52914 3.31037 2.94577
# Velocity P-wave (km/s) = 4.33782 5.05162 4.70827
#
# Compressibility (1/GPa) = 0.04391003
#
# Stress axis : x y z
#
# Youngs Moduli (GPa) = 79.47319 60.90353 50.94287
#
# Poissons Ratio (x) = 0.10305 -0.01614
# Poissons Ratio (y) = 0.13448 0.05022
# Poissons Ratio (z) = -0.02518 0.06003
#
# Static dielectric constant tensor:
#      x y z
#    x 1.788040 0.000000 -0.063120 
#    y 0.000000 1.875870 0.000000 
#    z -0.063120 0.000000 1.771540 
# 
# From -- ./inp_files/230241.got.cif
#   From: 2010.05.17/outbox.cif.g08.bks.cpg/sg12_116_cif.got.tgz:230241.got - 2010.06.03 13:09:07.
