data_PCOD9189402
_publ_section_title
;
Structure prediction by ZEFSAII (Michael W. Deem and Ramdas Pophale) SiO2 
 PCOD9189402
Probable space group: C 2/M
;
_chemical_formula_sum "Si O2"
_cell_formula_units_Z 44
_cell_length_a 25.040722
_cell_length_b 10.120103
_cell_length_c 9.655910
_cell_angle_alpha 90.000000
_cell_angle_beta 119.793670
_cell_angle_gamma 90.000000
_cell_volume 2123.512492
_symmetry_space_group_name_H-M "C 2/M"
_symmetry_group_IT_number 12
_symmetry_cell_setting 'monoclinic'
loop_
_space_group_symop_operation_xyz
x,y,z
-x,y,-z
-x,-y,-z
x,-y,z
1/2+x,1/2+y,z
1/2-x,1/2+y,-z
1/2-x,1/2-y,-z
1/2+x,1/2-y,z
loop_
_atom_site_type_symbol
_atom_site_label
_atom_site_fract_x
_atom_site_fract_y
_atom_site_fract_z
Si Si1 0.920189 0.000000 0.459030
Si Si2 0.011062 0.272138 0.366809
Si Si3 0.288322 0.000000 0.603592
Si Si4 0.848290 0.000000 0.628208
Si Si5 0.211033 0.500000 0.062026
Si Si6 0.109134 0.708277 0.264916
Si Si7 0.842699 0.000000 0.080685
Si Si8 0.884295 0.725636 0.039773
O O1 0.958727 0.129749 0.552489
O O2 0.860452 0.000000 0.479202
O O3 0.894185 0.000000 0.270229
O O4 0.057916 0.327547 0.312162
O O5 0.000000 0.341683 0.500000
O O6 0.944845 0.265542 0.210531
O O7 0.328957 0.871626 0.621005
O O8 0.224159 0.000000 0.442066
O O9 0.278703 0.000000 0.757992
O O10 0.879480 0.134585 0.718067
O O11 0.275300 0.500000 0.063701
O O12 0.167873 0.625718 0.974074
O O13 0.095261 0.678326 0.086738
O O14 0.853845 0.129940 0.004313
#
# Coordination Sequence:
#
# PCOD9189402 Si02
#       8
#     4   8   4   4   4   8   4   8
#     4  10  20  35  64  94 116 161 202 259 305 360
#     4  11  21  39  63  90 121 160 208 248 309 364
#     4  10  20  40  61  83 127 169 199 237 308 383
#     4  10  19  37  62  89 121 152 207 256 297 352
#     4  10  24  41  60  93 128 171 197 242 320 369
#     4  10  23  38  60  93 119 160 204 252 309 352
#     4  12  20  40  67  91 122 156 216 250 300 363
#     4  11  23  40  64  91 127 160 204 259 303 365
#
# _framework density 20.720386000000001
#
# number of rings (size 3 to 8) (size 9 to 14) (size 15 to 20)
#    0.000    1.455    2.727    3.000    0.000    0.727 
#    0.000   10.000    0.000    0.000    0.000    0.000 
#    0.000    0.000    0.000    0.000    0.000    0.000 
#
# Total GULP energy -122793.627076 kJ/mol
# GULP energy per Si atom -5581.528503 kJ/mol
# Density = 2.067323 g / cm^3
# Si number density = 20.720386 Si / 1000 Ang^3
#
#
#
# Elastic Constant Matrix: (Units=GPa)
#
#
# Indices 1 2 3 4 5 6 
#
# 1 168.6097 15.9434 57.3867 0.0000 -5.6299 0.0000
# 2 15.9434 78.1144 7.9720 0.0000 6.9865 0.0000
# 3 57.3867 7.9720 66.2006 0.0000 -2.4547 0.0000
# 4 0.0000 0.0000 0.0000 26.2663 0.0000 -27.3018
# 5 -5.6299 6.9865 -2.4547 0.0000 39.6061 0.0000
# 6 0.0000 0.0000 0.0000 -27.3018 0.0000 108.1147
#
#
#
# Elastic Compliance Matrix: (Units=1/GPa)
#
#
# Indices 1 2 3 4 5 6 
#
# 1 0.008524 -0.001088 -0.007223 0.000000 0.000956 0.000000
# 2 -0.001088 0.013329 -0.000757 0.000000 -0.002553 0.000000
# 3 -0.007223 -0.000757 0.021474 0.000000 0.000438 0.000000
# 4 0.000000 0.000000 0.000000 0.051621 0.000000 0.013036
# 5 0.000956 -0.002553 0.000438 0.000000 0.025862 0.000000
# 6 0.000000 0.000000 0.000000 0.013036 0.000000 0.012541
#
#
# Mechanical properties :
#
#
# Convention : Reuss Voigt Hill
#
# Bulk Modulus (GPa) = 39.69407 52.83655 46.26531
# Shear Modulus (GPa) = 31.27274 50.23891 40.75583
#
# Velocity S-wave (km/s) = 3.88915 4.92938 4.43983
# Velocity P-wave (km/s) = 6.27423 7.61272 6.97565
#
# Compressibility (1/GPa) = 0.02519268
#
# Stress axis : x y z
#
# Youngs Moduli (GPa) = 117.31757 75.02236 46.56829
#
# Poissons Ratio (x) = 0.08164 0.33634
# Poissons Ratio (y) = 0.12766 0.03523
# Poissons Ratio (z) = 0.84733 0.05676
#
# Static dielectric constant tensor:
#      x y z
#    x 1.741900 0.000000 -0.032040 
#    y 0.000000 1.759620 0.000000 
#    z -0.032040 0.000000 1.711480 
# 
# From -- ./inp_files/94880.got.cif
#   From: 2010.05.17/outbox.cif.g08.bks.cpg/sg12_48_cif.got.tgz:94880.got - 2010.06.03 13:09:07.
