data_PCOD9189822
_publ_section_title
;
Structure prediction by ZEFSAII (Michael W. Deem and Ramdas Pophale) SiO2 
 PCOD9189822
Probable space group: C 2/M
;
_chemical_formula_sum "Si O2"
_cell_formula_units_Z 64
_cell_length_a 31.540870
_cell_length_b 7.973699
_cell_length_c 20.190212
_cell_angle_alpha 90.000000
_cell_angle_beta 141.756375
_cell_angle_gamma 90.000000
_cell_volume 3143.182817
_symmetry_space_group_name_H-M "C 2/M"
_symmetry_group_IT_number 12
_symmetry_cell_setting 'monoclinic'
loop_
_space_group_symop_operation_xyz
x,y,z
-x,y,-z
-x,-y,-z
x,-y,z
1/2+x,1/2+y,z
1/2-x,1/2+y,-z
1/2-x,1/2-y,-z
1/2+x,1/2-y,z
loop_
_atom_site_type_symbol
_atom_site_label
_atom_site_fract_x
_atom_site_fract_y
_atom_site_fract_z
Si Si1 0.427589 0.798475 0.603521
Si Si2 0.306544 0.693852 0.761113
Si Si3 0.785927 0.198229 0.238348
Si Si4 0.722501 0.202904 0.537390
Si Si5 0.067138 0.703298 0.542614
Si Si6 0.052279 0.794551 0.005638
Si Si7 0.550732 0.300609 0.851796
Si Si8 0.705698 0.799964 0.009539
O O1 0.354657 0.736800 0.542621
O O2 0.435109 0.739367 0.536741
O O3 0.491247 0.756563 0.728947
O O4 0.424097 0.000000 0.596343
O O5 0.323923 0.500000 0.768173
O O6 0.245263 0.704410 0.737957
O O7 0.276551 0.770428 0.657632
O O8 0.373360 0.765738 0.878371
O O9 0.866389 0.228784 0.338451
O O10 0.747446 0.259019 0.125447
O O11 0.772334 0.000000 0.229879
O O12 0.750000 0.250000 0.500000
O O13 0.721025 0.000000 0.541755
O O14 0.070870 0.500000 0.547163
O O15 0.000000 0.754202 0.500000
O O16 0.051402 0.000000 0.001817
O O17 0.040771 0.736315 0.915630
O O18 0.000000 0.745727 0.000000
O O19 0.546406 0.500000 0.850163
O O20 0.626948 0.258433 0.918600
O O21 0.703769 0.000000 0.008745
O O22 0.750000 0.750000 0.000000
#
# Coordination Sequence:
#
# PCOD9189822 Si02
#       8
#     8   8   8   8   8   8   8   8
#     4  10  22  41  59  84 123 161 199 247 298 355
#     4  10  19  38  64  85 115 157 202 248 293 358
#     4  11  23  39  62  91 122 152 193 254 304 345
#     4  10  22  38  60  87 119 159 202 248 298 354
#     4  10  22  41  65  89 115 158 204 238 291 362
#     4   9  19  35  59  89 117 152 200 247 291 348
#     4  11  23  39  63  91 121 159 201 249 303 356
#     4  11  25  43  63  90 124 160 201 247 301 361
#
# _framework density 20.361528
#
# number of rings (size 3 to 8) (size 9 to 14) (size 15 to 20)
#    0.000    1.750    2.500    1.125    3.500    3.250 
#    0.000    0.000    0.000    1.875    0.000    0.000 
#    0.000    0.000    0.000    0.000    0.000    0.000 
#
# Total GULP energy -178664.613346 kJ/mol
# GULP energy per Si atom -5583.269167 kJ/mol
# Density = 2.031518 g / cm^3
# Si number density = 20.361528 Si / 1000 Ang^3
#
#
#
# Elastic Constant Matrix: (Units=GPa)
#
#
# Indices 1 2 3 4 5 6 
#
# 1 104.0588 3.2546 30.2436 0.0000 -5.3284 0.0000
# 2 3.2546 18.4509 7.9402 0.0000 -1.2481 0.0000
# 3 30.2436 7.9402 124.2540 0.0000 -4.0449 0.0000
# 4 0.0000 0.0000 0.0000 18.9645 0.0000 4.2118
# 5 -5.3284 -1.2481 -4.0449 0.0000 39.2644 0.0000
# 6 0.0000 0.0000 0.0000 4.2118 0.0000 17.2276
#
#
#
# Elastic Compliance Matrix: (Units=1/GPa)
#
#
# Indices 1 2 3 4 5 6 
#
# 1 0.010402 -0.000704 -0.002450 0.000000 0.001137 0.000000
# 2 -0.000704 0.055856 -0.003355 0.000000 0.001334 0.000000
# 3 -0.002450 -0.003355 0.008874 0.000000 0.000475 0.000000
# 4 0.000000 0.000000 0.000000 0.055758 0.000000 -0.013632
# 5 0.001137 0.001334 0.000475 0.000000 0.025714 0.000000
# 6 0.000000 0.000000 0.000000 -0.013632 0.000000 0.061379
#
#
# Mechanical properties :
#
#
# Convention : Reuss Voigt Hill
#
# Bulk Modulus (GPa) = 16.09894 36.62675 26.36284
# Shear Modulus (GPa) = 19.86452 28.77963 24.32207
#
# Velocity S-wave (km/s) = 3.12683 3.76364 3.45992
# Velocity P-wave (km/s) = 4.57819 6.07568 5.37930
#
# Compressibility (1/GPa) = 0.06211588
#
# Stress axis : x y z
#
# Youngs Moduli (GPa) = 96.13328 17.90317 112.68637
#
# Poissons Ratio (x) = 0.01260 0.27608
# Poissons Ratio (y) = 0.06765 0.37802
# Poissons Ratio (z) = 0.23552 0.06006
#
# Static dielectric constant tensor:
#      x y z
#    x 1.711350 0.000000 0.003390 
#    y 0.000000 1.740480 0.000000 
#    z 0.003390 0.000000 1.756390 
# 
# From -- ./inp_files/295602.got.cif
#   From: 2010.05.17/outbox.cif.g08.bks.cpg/sg12_148_cif.got.tgz:295602.got - 2010.06.03 13:09:07.
