data_PCOD9189175
_publ_section_title
;
Structure prediction by ZEFSAII (Michael W. Deem and Ramdas Pophale) SiO2 
 PCOD9189175
Probable space group: C 2/M
;
_chemical_formula_sum "Si O2"
_cell_formula_units_Z 64
_cell_length_a 14.125264
_cell_length_b 25.110503
_cell_length_c 13.490368
_cell_angle_alpha 90.000000
_cell_angle_beta 136.644767
_cell_angle_gamma 90.000000
_cell_volume 3284.949722
_symmetry_space_group_name_H-M "C 2/M"
_symmetry_group_IT_number 12
_symmetry_cell_setting 'monoclinic'
loop_
_space_group_symop_operation_xyz
x,y,z
-x,y,-z
-x,-y,-z
x,-y,z
1/2+x,1/2+y,z
1/2-x,1/2+y,-z
1/2-x,1/2-y,-z
1/2+x,1/2-y,z
loop_
_atom_site_type_symbol
_atom_site_label
_atom_site_fract_x
_atom_site_fract_y
_atom_site_fract_z
Si Si1 0.121449 0.844325 0.172668
Si Si2 0.416225 0.059652 0.653531
Si Si3 0.875258 0.728653 0.827250
Si Si4 0.064714 0.770553 0.659688
Si Si5 0.376003 0.889156 0.827369
Si Si6 0.618017 0.440287 0.322451
Si Si7 0.066788 0.654319 0.660752
Si Si8 0.565298 0.388909 0.659408
O O1 0.118115 0.785583 0.222206
O O2 0.106400 0.893741 0.233831
O O3 0.269321 0.848116 0.231119
O O4 0.000000 0.845201 0.000000
O O5 0.393763 0.069485 0.752681
O O6 0.267736 0.064468 0.487693
O O7 0.513216 0.105464 0.684038
O O8 0.469478 0.000000 0.675362
O O9 0.729844 0.729697 0.773941
O O10 0.877182 0.670513 0.779618
O O11 0.000000 0.728340 0.000000
O O12 0.027557 0.712777 0.675091
O O13 0.030311 0.829146 0.673380
O O14 0.000000 0.769983 0.500000
O O15 0.229047 0.894925 0.769912
O O16 0.500000 0.892721 0.000000
O O17 0.605436 0.500000 0.271484
O O18 0.503838 0.430331 0.319691
O O19 0.000000 0.650743 0.500000
O O20 0.500000 0.393273 0.500000
#
# Coordination Sequence:
#
# PCOD9189175 Si02
#       8
#     8   8   8   8   8   8   8   8
#     4  10  21  39  61  87 118 149 185 234 287 338
#     4  11  24  39  58  85 112 151 203 235 275 342
#     4   8  16  33  57  83 115 149 177 219 287 349
#     4   8  16  29  53  85 113 138 185 229 275 342
#     4  10  21  39  61  87 118 149 185 234 287 338
#     4  11  24  39  58  85 112 151 203 235 275 342
#     4  10  19  37  59  84 116 151 182 235 289 331
#     4  10  19  37  59  84 116 151 182 235 289 331
#
# _framework density 19.482794999999999
#
# number of rings (size 3 to 8) (size 9 to 14) (size 15 to 20)
#    0.000    2.250    2.500    0.000    0.000    4.000 
#    0.000    2.500    0.000    9.000    0.000    0.000 
#    0.000    0.000    0.000    0.000    0.000    0.000 
#
# Total GULP energy -178378.732686 kJ/mol
# GULP energy per Si atom -5574.335396 kJ/mol
# Density = 1.943845 g / cm^3
# Si number density = 19.482795 Si / 1000 Ang^3
#
#
#
# Elastic Constant Matrix: (Units=GPa)
#
#
# Indices 1 2 3 4 5 6 
#
# 1 37.7425 5.4967 12.3044 0.0000 14.3742 0.0000
# 2 5.4967 81.8748 13.2426 0.0000 0.1977 0.0000
# 3 12.3044 13.2426 63.2665 0.0000 26.8586 0.0000
# 4 0.0000 0.0000 0.0000 21.3252 0.0000 -3.4810
# 5 14.3742 0.1977 26.8586 0.0000 25.9853 0.0000
# 6 0.0000 0.0000 0.0000 -3.4810 0.0000 37.0934
#
#
#
# Elastic Compliance Matrix: (Units=1/GPa)
#
#
# Indices 1 2 3 4 5 6 
#
# 1 0.034378 -0.002821 0.003508 0.000000 -0.022621 0.000000
# 2 -0.002821 0.013204 -0.005052 0.000000 0.006681 0.000000
# 3 0.003508 -0.005052 0.030272 0.000000 -0.033191 0.000000
# 4 0.000000 0.000000 0.000000 0.047622 0.000000 0.004469
# 5 -0.022621 0.006681 -0.033191 0.000000 0.085252 0.000000
# 6 0.000000 0.000000 0.000000 0.004469 0.000000 0.027378
#
#
# Mechanical properties :
#
#
# Convention : Reuss Voigt Hill
#
# Bulk Modulus (GPa) = 14.46668 27.21902 20.84285
# Shear Modulus (GPa) = 18.52693 27.00346 22.76520
#
# Velocity S-wave (km/s) = 3.08707 3.72696 3.42201
# Velocity P-wave (km/s) = 4.48867 5.70276 5.13175
#
# Compressibility (1/GPa) = 0.06912438
#
# Stress axis : x y z
#
# Youngs Moduli (GPa) = 29.08867 75.73432 33.03378
#
# Poissons Ratio (x) = 0.21362 -0.11587
# Poissons Ratio (y) = 0.08205 0.16687
# Poissons Ratio (z) = -0.10203 0.38258
#
# Static dielectric constant tensor:
#      x y z
#    x 1.649420 0.000000 0.018440 
#    y 0.000000 1.733190 0.000000 
#    z 0.018440 0.000000 1.622010 
# 
# From -- ./inp_files/218535.got.cif
#   From: 2010.05.17/outbox.cif.g08.bks.cpg/sg12_110_cif.got.tgz:218535.got - 2010.06.03 13:09:07.
