data_PCOD9189447
_publ_section_title
;
Structure prediction by ZEFSAII (Michael W. Deem and Ramdas Pophale) SiO2 
 PCOD9189447
Probable space group: C 2/M
;
_chemical_formula_sum "Si O2"
_cell_formula_units_Z 64
_cell_length_a 31.389761
_cell_length_b 8.540383
_cell_length_c 12.127163
_cell_angle_alpha 90.000000
_cell_angle_beta 92.132760
_cell_angle_gamma 90.000000
_cell_volume 3248.804829
_symmetry_space_group_name_H-M "C 2/M"
_symmetry_group_IT_number 12
_symmetry_cell_setting 'monoclinic'
loop_
_space_group_symop_operation_xyz
x,y,z
-x,y,-z
-x,-y,-z
x,-y,z
1/2+x,1/2+y,z
1/2-x,1/2+y,-z
1/2-x,1/2-y,-z
1/2+x,1/2-y,z
loop_
_atom_site_type_symbol
_atom_site_label
_atom_site_fract_x
_atom_site_fract_y
_atom_site_fract_z
Si Si1 0.913798 0.818463 0.744893
Si Si2 0.414202 0.821549 0.184144
Si Si3 0.378121 0.673288 0.983171
Si Si4 0.164233 0.188366 0.681489
Si Si5 0.841692 0.812134 0.574826
Si Si6 0.762172 0.317309 0.696050
Si Si7 0.291434 0.182338 0.948674
Si Si8 0.501522 0.312125 0.130376
O O1 0.887025 0.820509 0.855217
O O2 0.881967 0.749029 0.649948
O O3 0.958635 0.749683 0.792985
O O4 0.922390 0.000000 0.712621
O O5 0.373112 0.756991 0.245647
O O6 0.458387 0.727505 0.191676
O O7 0.421403 0.000000 0.215982
O O8 0.402417 0.802870 0.054211
O O9 0.390961 0.500000 0.024513
O O10 0.328969 0.707548 0.993467
O O11 0.153786 0.225104 0.553246
O O12 0.213447 0.243731 0.703072
O O13 0.164011 0.000000 0.697541
O O14 0.795475 0.758563 0.614691
O O15 0.842253 0.000000 0.587046
O O16 0.757945 0.500000 0.664653
O O17 0.784606 0.306981 0.817097
O O18 0.299203 0.000000 0.977150
O O19 0.250000 0.250000 0.000000
O O20 0.507123 0.500000 0.123878
O O21 0.500000 0.259284 0.000000
#
# Coordination Sequence:
#
# PCOD9189447 Si02
#       8
#     8   8   8   8   8   8   8   8
#     4   9  18  34  59  89 114 143 189 238 289 346
#     4  12  25  39  58  88 121 152 194 243 296 356
#     4  11  20  36  59  82 115 153 190 238 294 352
#     4  10  22  40  60  83 116 159 203 243 288 343
#     4  10  20  37  62  89 115 151 202 249 286 339
#     4  10  21  36  55  83 117 154 196 241 292 346
#     4  11  22  34  50  79 117 159 201 242 292 349
#     4  10  19  37  63  88 115 153 192 233 294 361
#
# _framework density 19.699552000000001
#
# number of rings (size 3 to 8) (size 9 to 14) (size 15 to 20)
#    0.000    1.625    2.500    3.000    0.000    2.750 
#    0.000    1.250    0.000    3.750    0.000    0.000 
#    0.000    0.000    0.000    0.000    0.000    0.000 
#
# Total GULP energy -178423.599222 kJ/mol
# GULP energy per Si atom -5575.737476 kJ/mol
# Density = 1.965472 g / cm^3
# Si number density = 19.699552 Si / 1000 Ang^3
#
#
#
# Elastic Constant Matrix: (Units=GPa)
#
#
# Indices 1 2 3 4 5 6 
#
# 1 128.0457 6.4016 15.6560 0.0000 9.1665 0.0000
# 2 6.4016 21.2783 19.5852 0.0000 -3.1104 0.0000
# 3 15.6560 19.5852 41.9439 0.0000 -2.8576 0.0000
# 4 0.0000 0.0000 0.0000 13.8634 0.0000 -3.0015
# 5 9.1665 -3.1104 -2.8576 0.0000 22.5583 0.0000
# 6 0.0000 0.0000 0.0000 -3.0015 0.0000 24.4814
#
#
#
# Elastic Compliance Matrix: (Units=1/GPa)
#
#
# Indices 1 2 3 4 5 6 
#
# 1 0.008509 0.000068 -0.003473 0.000000 -0.003888 0.000000
# 2 0.000068 0.083388 -0.038514 0.000000 0.006591 0.000000
# 3 -0.003473 -0.038514 0.043229 0.000000 0.001577 0.000000
# 4 0.000000 0.000000 0.000000 0.074099 0.000000 0.009085
# 5 -0.003888 0.006591 0.001577 0.000000 0.047018 0.000000
# 6 0.000000 0.000000 0.000000 0.009085 0.000000 0.041961
#
#
# Mechanical properties :
#
#
# Convention : Reuss Voigt Hill
#
# Bulk Modulus (GPa) = 19.49715 30.50595 25.00155
# Shear Modulus (GPa) = 12.52697 22.15559 17.34128
#
# Velocity S-wave (km/s) = 2.52444 3.35726 2.97018
# Velocity P-wave (km/s) = 4.29137 5.52697 4.94789
#
# Compressibility (1/GPa) = 0.05128955
#
# Stress axis : x y z
#
# Youngs Moduli (GPa) = 117.51861 11.99208 23.13279
#
# Poissons Ratio (x) = -0.00082 0.08034
# Poissons Ratio (y) = -0.00802 0.89093
# Poissons Ratio (z) = 0.40814 0.46186
#
# Static dielectric constant tensor:
#      x y z
#    x 1.715700 0.000000 0.039720 
#    y 0.000000 1.709890 0.000000 
#    z 0.039720 0.000000 1.697750 
# 
# From -- ./inp_files/187610.got.cif
#   From: 2010.05.17/outbox.cif.g08.bks.cpg/sg12_94_cif.got.tgz:187610.got - 2010.06.03 13:09:07.
