data_PCOD9189101
_publ_section_title
;
Structure prediction by ZEFSAII (Michael W. Deem and Ramdas Pophale) SiO2 
 PCOD9189101
Probable space group: C 2/M
;
_chemical_formula_sum "Si O2"
_cell_formula_units_Z 48
_cell_length_a 20.161048
_cell_length_b 16.578499
_cell_length_c 10.155254
_cell_angle_alpha 90.000000
_cell_angle_beta 128.467363
_cell_angle_gamma 90.000000
_cell_volume 2657.603179
_symmetry_space_group_name_H-M "C 2/M"
_symmetry_group_IT_number 12
_symmetry_cell_setting 'monoclinic'
loop_
_space_group_symop_operation_xyz
x,y,z
-x,y,-z
-x,-y,-z
x,-y,z
1/2+x,1/2+y,z
1/2-x,1/2+y,-z
1/2-x,1/2-y,-z
1/2+x,1/2-y,z
loop_
_atom_site_type_symbol
_atom_site_label
_atom_site_fract_x
_atom_site_fract_y
_atom_site_fract_z
Si Si1 0.673095 0.254580 0.244237
Si Si2 0.152845 0.231260 0.916830
Si Si3 0.000806 0.337194 0.354649
Si Si4 0.399906 0.591038 0.346062
Si Si5 0.640136 0.704209 0.483325
Si Si6 0.420058 0.910089 0.803282
O O1 0.636830 0.305669 0.321867
O O2 0.774590 0.254015 0.380284
O O3 0.641620 0.163120 0.234391
O O4 0.645641 0.279851 0.065064
O O5 0.123308 0.153671 0.797460
O O6 0.091577 0.305337 0.801292
O O7 0.250000 0.250000 0.000000
O O8 0.060616 0.257548 0.430868
O O9 0.042406 0.393025 0.295292
O O10 0.000000 0.372234 0.500000
O O11 0.500000 0.591717 0.500000
O O12 0.373985 0.500000 0.282345
O O13 0.357344 0.624385 0.426817
O O14 0.382938 0.000000 0.765671
O O15 0.500000 0.905765 0.000000
#
# Coordination Sequence:
#
# PCOD9189101 Si02
#       6
#     8   8   8   8   8   8
#     4  10  21  34  60  85 112 150 197 237 278 345
#     4  12  20  36  59  89 111 150 197 244 281 347
#     4  11  19  35  58  80 114 152 192 233 283 349
#     4  11  22  38  59  86 119 155 194 241 293 343
#     4  10  19  37  56  85 111 151 195 233 282 351
#     4  10  21  35  53  84 118 146 183 235 288 338
#
# _framework density 18.061388000000001
#
# number of rings (size 3 to 8) (size 9 to 14) (size 15 to 20)
#    0.000    1.333    6.667    0.000    0.000    1.000 
#    0.000    1.667    0.000   12.000    0.000    0.000 
#    0.000    0.000    0.000    0.000    0.000    0.000 
#
# Total GULP energy -133916.299710 kJ/mol
# GULP energy per Si atom -5579.845821 kJ/mol
# Density = 1.802028 g / cm^3
# Si number density = 18.061388 Si / 1000 Ang^3
#
#
#
# Elastic Constant Matrix: (Units=GPa)
#
#
# Indices 1 2 3 4 5 6 
#
# 1 75.1516 20.9959 35.6444 0.0000 -14.1046 0.0000
# 2 20.9959 78.4855 28.9849 0.0000 -14.8729 0.0000
# 3 35.6444 28.9849 115.0668 0.0000 -33.8283 0.0000
# 4 0.0000 0.0000 0.0000 16.1563 0.0000 -1.6027
# 5 -14.1046 -14.8729 -33.8283 0.0000 49.7598 0.0000
# 6 0.0000 0.0000 0.0000 -1.6027 0.0000 14.9764
#
#
#
# Elastic Compliance Matrix: (Units=1/GPa)
#
#
# Indices 1 2 3 4 5 6 
#
# 1 0.016151 -0.002633 -0.004031 0.000000 0.001051 0.000000
# 2 -0.002633 0.014680 -0.002264 0.000000 0.002102 0.000000
# 3 -0.004031 -0.002264 0.012466 0.000000 0.006656 0.000000
# 4 0.000000 0.000000 0.000000 0.062560 0.000000 0.006695
# 5 0.001051 0.002102 0.006656 0.000000 0.025547 0.000000
# 6 0.000000 0.000000 0.000000 0.006695 0.000000 0.067488
#
#
# Mechanical properties :
#
#
# Convention : Reuss Voigt Hill
#
# Bulk Modulus (GPa) = 39.30627 48.88380 44.09503
# Shear Modulus (GPa) = 22.19958 28.38374 25.29166
#
# Velocity S-wave (km/s) = 3.50968 3.96853 3.74614
# Velocity P-wave (km/s) = 6.18334 6.93708 6.57103
#
# Compressibility (1/GPa) = 0.02544123
#
# Stress axis : x y z
#
# Youngs Moduli (GPa) = 61.91517 68.11954 80.21588
#
# Poissons Ratio (x) = 0.17935 0.32336
# Poissons Ratio (y) = 0.16301 0.18163
# Poissons Ratio (z) = 0.24958 0.15424
#
# Static dielectric constant tensor:
#      x y z
#    x 1.642160 0.000000 -0.012450 
#    y 0.000000 1.601260 0.000000 
#    z -0.012450 0.000000 1.633850 
# 
# From -- ./inp_files/88172.got.cif
#   From: 2010.05.17/outbox.cif.g08.bks.cpg/sg12_45_cif.got.tgz:88172.got - 2010.06.03 13:09:07.
