data_PCOD9189381
_publ_section_title
;
Structure prediction by ZEFSAII (Michael W. Deem and Ramdas Pophale) SiO2 
 PCOD9189381
Probable space group: C 2/M
;
_chemical_formula_sum "Si O2"
_cell_formula_units_Z 56
_cell_length_a 17.003635
_cell_length_b 16.256990
_cell_length_c 10.390538
_cell_angle_alpha 90.000000
_cell_angle_beta 120.906333
_cell_angle_gamma 90.000000
_cell_volume 2464.400875
_symmetry_space_group_name_H-M "C 2/M"
_symmetry_group_IT_number 12
_symmetry_cell_setting 'monoclinic'
loop_
_space_group_symop_operation_xyz
x,y,z
-x,y,-z
-x,-y,-z
x,-y,z
1/2+x,1/2+y,z
1/2-x,1/2+y,-z
1/2-x,1/2-y,-z
1/2+x,1/2-y,z
loop_
_atom_site_type_symbol
_atom_site_label
_atom_site_fract_x
_atom_site_fract_y
_atom_site_fract_z
Si Si1 0.931417 0.866840 0.559975
Si Si2 0.381695 0.095106 0.300844
Si Si3 0.064328 0.673564 0.389272
Si Si4 0.219109 0.798054 0.102319
Si Si5 0.221651 0.132727 0.750104
Si Si6 0.584612 0.593893 0.874438
Si Si7 0.587650 0.907070 0.151870
O O1 0.927431 0.768298 0.568314
O O2 0.832005 0.893698 0.424660
O O3 0.000000 0.888111 0.500000
O O4 0.982049 0.897462 0.730685
O O5 0.456737 0.150394 0.291042
O O6 0.396084 0.118212 0.462403
O O7 0.282104 0.122572 0.174094
O O8 0.399878 0.000000 0.294048
O O9 0.106801 0.649188 0.290277
O O10 0.251374 0.729852 0.232296
O O11 0.250000 0.750000 0.000000
O O12 0.117075 0.834525 0.000204
O O13 0.153248 0.111112 0.810159
O O14 0.319850 0.091704 0.852468
O O15 0.596784 0.500000 0.929821
O O16 0.566186 0.000000 0.177483
O O17 0.500000 0.876692 0.000000
#
# Coordination Sequence:
#
# PCOD9189381 Si02
#       7
#     8   8   8   8   8   8   8
#     4  10  19  37  62  87 114 150 198 245 291 355
#     4  11  20  34  61  89 118 152 195 252 306 349
#     4  11  20  38  58  85 118 156 198 241 299 353
#     4  10  20  35  56  85 118 152 193 243 298 349
#     4  10  21  39  58  81 117 161 194 238 295 357
#     4  10  21  34  59  92 119 149 193 251 304 344
#     4  11  26  40  56  86 122 157 197 242 296 362
#
# _framework density 22.723573999999999
#
# number of rings (size 3 to 8) (size 9 to 14) (size 15 to 20)
#    0.000    1.571    2.857    4.286    6.000    3.714 
#    0.000    0.000    0.000    0.000    0.000    1.000 
#    0.000    0.000    0.000    0.000    0.000    0.000 
#
# Total GULP energy -156316.414020 kJ/mol
# GULP energy per Si atom -5582.729072 kJ/mol
# Density = 2.267185 g / cm^3
# Si number density = 22.723574 Si / 1000 Ang^3
#
#
#
# Elastic Constant Matrix: (Units=GPa)
#
#
# Indices 1 2 3 4 5 6 
#
# 1 37.2914 -10.8761 19.7040 0.0000 8.4645 0.0000
# 2 -10.8761 87.1823 10.7896 0.0000 10.0941 0.0000
# 3 19.7040 10.7896 88.0539 0.0000 35.2040 0.0000
# 4 0.0000 0.0000 0.0000 28.4907 0.0000 5.9481
# 5 8.4645 10.0941 35.2040 0.0000 26.0710 0.0000
# 6 0.0000 0.0000 0.0000 5.9481 0.0000 2.2650
#
#
#
# Elastic Compliance Matrix: (Units=1/GPa)
#
#
# Indices 1 2 3 4 5 6 
#
# 1 0.032642 0.005333 -0.006292 0.000000 -0.004166 0.000000
# 2 0.005333 0.012909 -0.000184 0.000000 -0.006481 0.000000
# 3 -0.006292 -0.000184 0.025953 0.000000 -0.032930 0.000000
# 4 0.000000 0.000000 0.000000 0.077698 0.000000 -0.204045
# 5 -0.004166 -0.006481 -0.032930 0.000000 0.086685 0.000000
# 6 0.000000 0.000000 0.000000 -0.204045 0.000000 0.977354
#
#
# Mechanical properties :
#
#
# Convention : Reuss Voigt Hill
#
# Bulk Modulus (GPa) = 14.44729 27.97361 21.21045
# Shear Modulus (GPa) = 4.03682 24.22601 14.13142
#
# Velocity S-wave (km/s) = 1.33430 3.26869 2.49646
# Velocity P-wave (km/s) = 2.95727 5.15586 4.20288
#
# Compressibility (1/GPa) = 0.06921712
#
# Stress axis : x y z
#
# Youngs Moduli (GPa) = 30.63585 77.46716 38.53157
#
# Poissons Ratio (x) = -0.41315 0.24244
# Poissons Ratio (y) = -0.16339 0.00709
# Poissons Ratio (z) = 0.19276 0.01426
#
# Static dielectric constant tensor:
#      x y z
#    x 1.894580 0.000000 0.000650 
#    y 0.000000 1.854950 0.000000 
#    z 0.000650 0.000000 1.891680 
# 
# From -- ./inp_files/158330.got.cif
#   From: 2010.05.17/outbox.cif.g08.bks.cpg/sg12_80_cif.got.tgz:158330.got - 2010.06.03 13:09:07.
