data_PCOD9189108
_publ_section_title
;
Structure prediction by ZEFSAII (Michael W. Deem and Ramdas Pophale) SiO2 
 PCOD9189108
Probable space group: C 2/M
;
_chemical_formula_sum "Si O2"
_cell_formula_units_Z 64
_cell_length_a 15.004298
_cell_length_b 18.275109
_cell_length_c 21.911467
_cell_angle_alpha 90.000000
_cell_angle_beta 148.629273
_cell_angle_gamma 90.000000
_cell_volume 3127.729228
_symmetry_space_group_name_H-M "C 2/M"
_symmetry_group_IT_number 12
_symmetry_cell_setting 'monoclinic'
loop_
_space_group_symop_operation_xyz
x,y,z
-x,y,-z
-x,-y,-z
x,-y,z
1/2+x,1/2+y,z
1/2-x,1/2+y,-z
1/2-x,1/2-y,-z
1/2+x,1/2-y,z
loop_
_atom_site_type_symbol
_atom_site_label
_atom_site_fract_x
_atom_site_fract_y
_atom_site_fract_z
Si Si1 0.209302 0.315428 0.021667
Si Si2 0.732434 0.281432 0.812924
Si Si3 0.538052 0.084594 0.343258
Si Si4 0.079670 0.583672 0.115584
Si Si5 0.651232 0.234804 0.379766
Si Si6 0.837954 0.631447 0.448529
Si Si7 0.850385 0.127104 0.862015
Si Si8 0.478223 0.421543 0.806167
O O1 0.172275 0.281796 0.066165
O O2 0.382244 0.361401 0.126852
O O3 0.250000 0.250000 0.000000
O O4 0.056820 0.373263 0.921638
O O5 0.763634 0.359401 0.799746
O O6 0.537309 0.265868 0.716526
O O7 0.806483 0.211870 0.820571
O O8 0.624275 0.148490 0.352481
O O9 0.602396 0.106267 0.449302
O O10 0.331557 0.095065 0.221320
O O11 0.579376 0.000000 0.354212
O O12 0.115594 0.500000 0.155092
O O13 0.000000 0.579490 0.000000
O O14 0.750000 0.250000 0.500000
O O15 0.759597 0.286094 0.398287
O O16 0.681789 0.583643 0.332461
O O17 0.000000 0.624410 0.500000
O O18 0.909965 0.089145 0.834809
O O19 0.000000 0.121314 0.000000
O O20 0.564470 0.500000 0.850371
#
# Coordination Sequence:
#
# PCOD9189108 Si02
#       8
#     8   8   8   8   8   8   8   8
#     4  11  21  36  56  82 116 152 192 231 284 344
#     4  10  19  37  57  80 109 147 197 228 276 340
#     4  10  21  37  61  86 117 153 190 243 295 343
#     4   9  18  33  54  79 112 145 182 232 284 334
#     4   9  20  38  58  86 112 148 195 233 281 356
#     4  11  21  39  61  88 118 149 189 244 303 352
#     4  11  22  37  56  83 115 158 200 232 282 358
#     4  12  24  36  58  89 121 150 188 246 304 347
#
# _framework density 20.462129999999998
#
# number of rings (size 3 to 8) (size 9 to 14) (size 15 to 20)
#    0.000    1.625    2.500    3.750    0.000    2.000 
#    0.000    0.625    0.000    1.125    0.000    0.000 
#    0.000    0.000    0.000    0.000    0.000    0.000 
#
# Total GULP energy -178530.317483 kJ/mol
# GULP energy per Si atom -5579.072421 kJ/mol
# Density = 2.041556 g / cm^3
# Si number density = 20.462130 Si / 1000 Ang^3
#
#
#
# Elastic Constant Matrix: (Units=GPa)
#
#
# Indices 1 2 3 4 5 6 
#
# 1 23.1030 22.5149 -3.4988 -0.0001 5.6103 -0.0008
# 2 22.5149 185.2882 32.2866 0.0019 13.4999 0.0007
# 3 -3.4988 32.2866 65.8151 0.0012 1.5978 0.0017
# 4 -0.0001 0.0019 0.0012 26.2954 -0.0006 -6.7125
# 5 5.6103 13.4999 1.5978 -0.0006 21.4951 -0.0010
# 6 -0.0008 0.0007 0.0017 -6.7125 -0.0010 75.4692
#
#
#
# Elastic Compliance Matrix: (Units=1/GPa)
#
#
# Indices 1 2 3 4 5 6 
#
# 1 0.053422 -0.006881 0.006461 0.000000 -0.010102 0.000000
# 2 -0.006881 0.007063 -0.003773 0.000000 -0.002359 0.000000
# 3 0.006461 -0.003773 0.017403 -0.000001 -0.000610 0.000000
# 4 0.000000 0.000000 -0.000001 0.038913 0.000002 0.003461
# 5 -0.010102 -0.002359 -0.000610 0.000002 0.050686 0.000001
# 6 0.000000 0.000000 0.000000 0.003461 0.000001 0.013558
#
#
# Mechanical properties :
#
#
# Convention : Reuss Voigt Hill
#
# Bulk Modulus (GPa) = 14.38828 41.86797 28.12812
# Shear Modulus (GPa) = 23.51842 39.51216 31.51529
#
# Velocity S-wave (km/s) = 3.39390 4.39907 3.92877
# Velocity P-wave (km/s) = 4.73340 6.80500 5.86145
#
# Compressibility (1/GPa) = 0.06950101
#
# Stress axis : x y z
#
# Youngs Moduli (GPa) = 18.71881 141.59248 57.46017
#
# Poissons Ratio (x) = 0.97434 -0.37125
# Poissons Ratio (y) = 0.12881 0.21681
# Poissons Ratio (z) = -0.12094 0.53425
#
# Static dielectric constant tensor:
#      x y z
#    x 1.741560 0.000000 -0.023580 
#    y 0.000000 1.801140 0.000000 
#    z -0.023580 0.000000 1.731810 
# 
# From -- ./inp_files/340848.got.cif
#   From: 2010.05.17/outbox.cif.g08.bks.cpg/sg12_171_cif.got.tgz:340848.got - 2010.06.03 13:09:07.
