data_PCOD9189428
_publ_section_title
;
Structure prediction by ZEFSAII (Michael W. Deem and Ramdas Pophale) SiO2 
 PCOD9189428
Probable space group: C 2/M
;
_chemical_formula_sum "Si O2"
_cell_formula_units_Z 56
_cell_length_a 20.149004
_cell_length_b 22.609854
_cell_length_c 9.012422
_cell_angle_alpha 90.000000
_cell_angle_beta 45.838135
_cell_angle_gamma 90.000000
_cell_volume 2945.362657
_symmetry_space_group_name_H-M "C 2/M"
_symmetry_group_IT_number 12
_symmetry_cell_setting 'monoclinic'
loop_
_space_group_symop_operation_xyz
x,y,z
-x,y,-z
-x,-y,-z
x,-y,z
1/2+x,1/2+y,z
1/2-x,1/2+y,-z
1/2-x,1/2-y,-z
1/2+x,1/2-y,z
loop_
_atom_site_type_symbol
_atom_site_label
_atom_site_fract_x
_atom_site_fract_y
_atom_site_fract_z
Si Si1 0.267050 0.642876 0.483453
Si Si2 0.105233 0.166296 0.163125
Si Si3 0.899403 0.566953 0.582091
Si Si4 0.098269 0.200012 0.490340
Si Si5 0.099384 0.932243 0.924132
Si Si6 0.205459 0.686005 0.267336
Si Si7 0.901684 0.431805 0.220429
O O1 0.333337 0.678874 0.488009
O O2 0.325865 0.591991 0.308884
O O3 0.229549 0.681207 0.404587
O O4 0.180490 0.611811 0.697166
O O5 0.108027 0.155909 0.334882
O O6 0.007751 0.199906 0.291062
O O7 0.101647 0.108533 0.065586
O O8 0.198656 0.198961 0.965825
O O9 0.865938 0.500000 0.671325
O O10 0.833713 0.622198 0.723814
O O11 0.907919 0.569776 0.389918
O O12 0.000000 0.574007 0.500000
O O13 0.129628 0.262952 0.375839
O O14 0.118132 0.000000 0.931309
O O15 0.000000 0.927367 0.000000
O O16 0.882989 0.500000 0.205917
O O17 0.000000 0.414384 0.000000
#
# Coordination Sequence:
#
# PCOD9189428 Si02
#       7
#     8   8   8   8   8   8   8
#     4  10  20  37  58  86 114 150 199 245 286 349
#     4  10  23  39  59  85 117 154 194 246 292 348
#     4   9  19  36  60  86 112 143 192 244 283 340
#     4  11  22  40  56  84 123 152 194 247 293 347
#     4  10  19  37  63  85 109 152 197 237 292 351
#     4  10  22  38  61  84 113 161 196 234 293 353
#     4   9  18  34  53  79 114 148 184 232 292 344
#
# _framework density 19.012938999999999
#
# number of rings (size 3 to 8) (size 9 to 14) (size 15 to 20)
#    0.000    2.143    1.429    1.286    2.000    4.571 
#    5.143    2.857    0.000    0.000    0.000    0.000 
#    0.000    0.000    0.000    0.000    0.000    0.000 
#
# Total GULP energy -156188.033509 kJ/mol
# GULP energy per Si atom -5578.144054 kJ/mol
# Density = 1.896966 g / cm^3
# Si number density = 19.012939 Si / 1000 Ang^3
#
#
#
# Elastic Constant Matrix: (Units=GPa)
#
#
# Indices 1 2 3 4 5 6 
#
# 1 81.1047 38.3590 13.4392 0.0000 -12.8268 0.0000
# 2 38.3590 92.2154 49.9589 0.0000 -18.1806 0.0000
# 3 13.4392 49.9589 93.9992 0.0000 -36.7083 0.0000
# 4 0.0000 0.0000 0.0000 17.5647 0.0000 -5.6909
# 5 -12.8268 -18.1806 -36.7083 0.0000 33.3676 0.0000
# 6 0.0000 0.0000 0.0000 -5.6909 0.0000 20.0195
#
#
#
# Elastic Compliance Matrix: (Units=1/GPa)
#
#
# Indices 1 2 3 4 5 6 
#
# 1 0.016448 -0.007963 0.004656 0.000000 0.007106 0.000000
# 2 -0.007963 0.019106 -0.010776 0.000000 -0.004505 0.000000
# 3 0.004656 -0.010776 0.024730 0.000000 0.023125 0.000000
# 4 0.000000 0.000000 0.000000 0.062708 0.000000 0.017826
# 5 0.007106 -0.004505 0.023125 0.000000 0.055686 0.000000
# 6 0.000000 0.000000 0.000000 0.017826 0.000000 0.055019
#
#
# Mechanical properties :
#
#
# Convention : Reuss Voigt Hill
#
# Bulk Modulus (GPa) = 31.13453 52.31485 41.72469
# Shear Modulus (GPa) = 18.34387 25.22784 21.78586
#
# Velocity S-wave (km/s) = 3.10951 3.64658 3.38870
# Velocity P-wave (km/s) = 5.41323 6.73092 6.10771
#
# Compressibility (1/GPa) = 0.03211868
#
# Stress axis : x y z
#
# Youngs Moduli (GPa) = 60.79602 52.33881 40.43592
#
# Poissons Ratio (x) = 0.41680 -0.18826
# Poissons Ratio (y) = 0.48415 0.43572
# Poissons Ratio (z) = -0.28305 0.56398
#
# Static dielectric constant tensor:
#      x y z
#    x 1.669330 0.000000 -0.016710 
#    y 0.000000 1.672950 0.000000 
#    z -0.016710 0.000000 1.651550 
# 
# From -- ./inp_files/89497.got.cif
#   From: 2010.05.17/outbox.cif.g08.bks.cpg/sg12_45_cif.got.tgz:89497.got - 2010.06.03 13:09:07.
