data_PCOD9189440
_publ_section_title
;
Structure prediction by ZEFSAII (Michael W. Deem and Ramdas Pophale) SiO2 
 PCOD9189440
Probable space group: C 2/M
;
_chemical_formula_sum "Si O2"
_cell_formula_units_Z 56
_cell_length_a 19.491708
_cell_length_b 8.926491
_cell_length_c 19.083712
_cell_angle_alpha 90.000000
_cell_angle_beta 66.345204
_cell_angle_gamma 90.000000
_cell_volume 3041.439922
_symmetry_space_group_name_H-M "C 2/M"
_symmetry_group_IT_number 12
_symmetry_cell_setting 'monoclinic'
loop_
_space_group_symop_operation_xyz
x,y,z
-x,y,-z
-x,-y,-z
x,-y,z
1/2+x,1/2+y,z
1/2-x,1/2+y,-z
1/2-x,1/2-y,-z
1/2+x,1/2-y,z
loop_
_atom_site_type_symbol
_atom_site_label
_atom_site_fract_x
_atom_site_fract_y
_atom_site_fract_z
Si Si1 0.782491 0.677336 0.698013
Si Si2 0.440053 0.171397 0.462141
Si Si3 0.787549 0.825184 0.551373
Si Si4 0.774699 0.819719 0.125161
Si Si5 0.920791 0.679910 0.994996
Si Si6 0.119999 0.179122 0.135424
Si Si7 0.558856 0.821350 0.297823
O O1 0.777700 0.500000 0.687009
O O2 0.760155 0.761379 0.636996
O O3 0.736757 0.711872 0.787386
O O4 0.868945 0.711027 0.682850
O O5 0.500000 0.171313 0.500000
O O6 0.374610 0.283254 0.507937
O O7 0.484305 0.207571 0.372674
O O8 0.410380 0.000000 0.469383
O O9 0.750000 0.750000 0.500000
O O10 0.774930 0.000000 0.554829
O O11 0.702609 0.749455 0.115353
O O12 0.773814 0.000000 0.115875
O O13 0.851044 0.748926 0.066112
O O14 0.912983 0.500000 0.993641
O O15 0.914739 0.751787 0.920522
O O16 0.000000 0.713239 0.000000
O O17 0.070571 0.228860 0.222488
O O18 0.125666 0.000000 0.128277
O O19 0.562410 0.000000 0.280508
#
# Coordination Sequence:
#
# PCOD9189440 Si02
#       7
#     8   8   8   8   8   8   8
#     4   9  18  37  61  86 116 152 192 238 293 346
#     4  10  19  37  63  87 116 155 194 238 295 349
#     4  12  25  39  57  83 118 158 201 246 291 346
#     4  10  21  39  65  91 117 152 193 240 290 345
#     4  11  24  42  62  86 119 156 194 238 291 349
#     4  11  22  37  61  90 122 155 194 240 285 343
#     4   9  18  35  61  89 118 152 192 240 292 344
#
# _framework density 18.412331999999999
#
# number of rings (size 3 to 8) (size 9 to 14) (size 15 to 20)
#    0.000    1.714    1.429    4.714    0.000    4.857 
#    2.571    0.000    0.000    0.000    0.000    0.000 
#    0.000    0.000    0.000    0.000    0.000    0.000 
#
# Total GULP energy -156409.716985 kJ/mol
# GULP energy per Si atom -5586.061321 kJ/mol
# Density = 1.837042 g / cm^3
# Si number density = 18.412332 Si / 1000 Ang^3
#
#
#
# Elastic Constant Matrix: (Units=GPa)
#
#
# Indices 1 2 3 4 5 6 
#
# 1 74.7525 53.5228 63.6459 0.0000 22.1534 0.0000
# 2 53.5228 103.4096 78.0800 0.0000 23.8700 0.0000
# 3 63.6459 78.0800 129.7817 0.0000 23.0518 0.0000
# 4 0.0000 0.0000 0.0000 35.9596 0.0000 -0.5556
# 5 22.1534 23.8700 23.0518 0.0000 28.3436 0.0000
# 6 0.0000 0.0000 0.0000 -0.5556 0.0000 24.7744
#
#
#
# Elastic Compliance Matrix: (Units=1/GPa)
#
#
# Indices 1 2 3 4 5 6 
#
# 1 0.027416 -0.005638 -0.008288 0.000000 -0.009940 0.000000
# 2 -0.005638 0.020276 -0.008396 0.000000 -0.005841 0.000000
# 3 -0.008288 -0.008396 0.016848 0.000000 -0.000154 0.000000
# 4 0.000000 0.000000 0.000000 0.027819 0.000000 0.000624
# 5 -0.009940 -0.005841 -0.000154 0.000000 0.048095 0.000000
# 6 0.000000 0.000000 0.000000 0.000624 0.000000 0.040378
#
#
# Mechanical properties :
#
#
# Convention : Reuss Voigt Hill
#
# Bulk Modulus (GPa) = 50.25897 77.60458 63.93178
# Shear Modulus (GPa) = 21.54156 25.32853 23.43505
#
# Velocity S-wave (km/s) = 3.42417 3.71297 3.57149
# Velocity P-wave (km/s) = 6.55659 7.78596 7.19757
#
# Compressibility (1/GPa) = 0.01989694
#
# Stress axis : x y z
#
# Youngs Moduli (GPa) = 36.47442 49.31840 59.35271
#
# Poissons Ratio (x) = 0.27806 0.49189
# Poissons Ratio (y) = 0.20565 0.49835
# Poissons Ratio (z) = 0.30229 0.41410
#
# Static dielectric constant tensor:
#      x y z
#    x 1.638160 0.000000 -0.003060 
#    y 0.000000 1.618710 0.000000 
#    z -0.003060 0.000000 1.643390 
# 
# From -- ./inp_files/275169.got.cif
#   From: 2010.05.17/outbox.cif.g08.bks.cpg/sg12_138_cif.got.tgz:275169.got - 2010.06.03 13:09:07.
