data_PCOD9189842
_publ_section_title
;
Structure prediction by ZEFSAII (Michael W. Deem and Ramdas Pophale) SiO2 
 PCOD9189842
Probable space group: C 2/M
;
_chemical_formula_sum "Si O2"
_cell_formula_units_Z 52
_cell_length_a 12.942602
_cell_length_b 15.478414
_cell_length_c 17.703442
_cell_angle_alpha 90.000000
_cell_angle_beta 38.645686
_cell_angle_gamma 90.000000
_cell_volume 2214.827924
_symmetry_space_group_name_H-M "C 2/M"
_symmetry_group_IT_number 12
_symmetry_cell_setting 'monoclinic'
loop_
_space_group_symop_operation_xyz
x,y,z
-x,y,-z
-x,-y,-z
x,-y,z
1/2+x,1/2+y,z
1/2-x,1/2+y,-z
1/2-x,1/2-y,-z
1/2+x,1/2-y,z
loop_
_atom_site_type_symbol
_atom_site_label
_atom_site_fract_x
_atom_site_fract_y
_atom_site_fract_z
Si Si1 0.043127 0.150992 0.818533
Si Si2 0.314949 0.136666 0.482788
Si Si3 0.204925 0.254292 0.849733
Si Si4 0.716567 0.000000 0.376571
Si Si5 0.489069 0.317098 0.419335
Si Si6 0.326412 0.098337 0.011201
Si Si7 0.509327 0.829718 0.226443
O O1 0.070358 0.198963 0.882207
O O2 0.178630 0.077659 0.726501
O O3 0.860127 0.112685 0.913577
O O4 0.056726 0.232800 0.753232
O O5 0.365294 0.072394 0.519090
O O6 0.381046 0.229231 0.474004
O O7 0.119387 0.123660 0.575401
O O8 0.399070 0.124767 0.352591
O O9 0.331644 0.294902 0.715428
O O10 0.160749 0.333050 0.929229
O O11 0.314664 0.188084 0.835443
O O12 0.500000 0.345434 0.500000
O O13 0.345339 0.000000 0.025010
O O14 0.456325 0.121262 0.870914
#
# Coordination Sequence:
#
# PCOD9189842 Si02
#       7
#     8   8   8   4   8   8   8
#     4  11  22  42  69 100 133 180 228 284 342 414
#     4  10  21  36  61  94 132 176 223 276 339 401
#     4  10  21  40  69  99 134 179 227 271 354 417
#     4  12  22  38  66  97 134 169 228 281 337 392
#     4  10  19  38  64  93 129 178 222 269 340 422
#     4  11  24  44  72 100 135 176 237 293 336 400
#     4  10  23  42  65  93 139 185 226 274 356 415
#
# _framework density 23.478120000000001
#
# number of rings (size 3 to 8) (size 9 to 14) (size 15 to 20)
#    0.000    1.538    0.769    7.385    1.077    2.462 
#    1.385   10.000    3.385    0.000    0.000    0.000 
#    0.000    0.000    0.000    0.000    0.000    0.000 
#
# Total GULP energy -144917.047351 kJ/mol
# GULP energy per Si atom -5573.732590 kJ/mol
# Density = 2.342468 g / cm^3
# Si number density = 23.478120 Si / 1000 Ang^3
#
#
#
# Elastic Constant Matrix: (Units=GPa)
#
#
# Indices 1 2 3 4 5 6 
#
# 1 103.6995 17.4108 9.1452 -0.0001 9.3716 0.0000
# 2 17.4108 100.7709 25.2609 -0.0001 8.2726 0.0000
# 3 9.1452 25.2609 115.4166 -0.0002 13.9598 0.0000
# 4 -0.0001 -0.0001 -0.0002 28.8572 0.0002 1.7914
# 5 9.3716 8.2726 13.9598 0.0002 35.6599 -0.0001
# 6 0.0000 0.0000 0.0000 1.7914 -0.0001 8.6282
#
#
#
# Elastic Compliance Matrix: (Units=1/GPa)
#
#
# Indices 1 2 3 4 5 6 
#
# 1 0.010117 -0.001515 -0.000201 0.000000 -0.002229 0.000000
# 2 -0.001515 0.010815 -0.002091 0.000000 -0.001292 0.000000
# 3 -0.000201 -0.002091 0.009524 0.000000 -0.003191 0.000000
# 4 0.000000 0.000000 0.000000 0.035106 0.000000 -0.007289
# 5 -0.002229 -0.001292 -0.003191 0.000000 0.030177 0.000000
# 6 0.000000 0.000000 0.000000 -0.007289 0.000000 0.117413
#
#
# Mechanical properties :
#
#
# Convention : Reuss Voigt Hill
#
# Bulk Modulus (GPa) = 43.77563 47.05787 45.41675
# Shear Modulus (GPa) = 21.89351 32.50038 27.19695
#
# Velocity S-wave (km/s) = 3.05701 3.72463 3.40721
# Velocity P-wave (km/s) = 5.58088 6.21160 5.90467
#
# Compressibility (1/GPa) = 0.02284376
#
# Stress axis : x y z
#
# Youngs Moduli (GPa) = 98.84672 92.46063 105.00166
#
# Poissons Ratio (x) = 0.14005 0.02105
# Poissons Ratio (y) = 0.14972 0.21954
# Poissons Ratio (z) = 0.01982 0.19332
#
# Static dielectric constant tensor:
#      x y z
#    x 2.029540 0.000000 -0.053220 
#    y 0.000000 1.857140 0.000000 
#    z -0.053220 0.000000 1.949980 
# 
# From -- ./inp_files/270593.got.cif
#   From: 2010.05.17/outbox.cif.g08.bks.cpg/sg12_136_cif.got.tgz:270593.got - 2010.06.03 13:09:07.
