data_PCOD9189856
_publ_section_title
;
Structure prediction by ZEFSAII (Michael W. Deem and Ramdas Pophale) SiO2 
 PCOD9189856
Probable space group: C 2/M
;
_chemical_formula_sum "Si O2"
_cell_formula_units_Z 56
_cell_length_a 24.480956
_cell_length_b 8.524856
_cell_length_c 14.090919
_cell_angle_alpha 90.000000
_cell_angle_beta 75.383494
_cell_angle_gamma 90.000000
_cell_volume 2845.555046
_symmetry_space_group_name_H-M "C 2/M"
_symmetry_group_IT_number 12
_symmetry_cell_setting 'monoclinic'
loop_
_space_group_symop_operation_xyz
x,y,z
-x,y,-z
-x,-y,-z
x,-y,z
1/2+x,1/2+y,z
1/2-x,1/2+y,-z
1/2-x,1/2-y,-z
1/2+x,1/2-y,z
loop_
_atom_site_type_symbol
_atom_site_label
_atom_site_fract_x
_atom_site_fract_y
_atom_site_fract_z
Si Si1 0.780226 0.689257 0.844619
Si Si2 0.685775 0.188312 0.534438
Si Si3 0.364214 0.191531 0.645262
Si Si4 0.670608 0.188587 0.975255
Si Si5 0.989618 0.683974 0.617288
Si Si6 0.088479 0.185342 0.704494
Si Si7 0.442193 0.189993 0.074260
O O1 0.778770 0.500000 0.844793
O O2 0.815062 0.741112 0.738195
O O3 0.717221 0.752037 0.881015
O O4 0.811527 0.742058 0.927544
O O5 0.750000 0.250000 0.500000
O O6 0.651940 0.239810 0.454020
O O7 0.647365 0.244276 0.639108
O O8 0.687800 0.000000 0.534351
O O9 0.425399 0.243253 0.656220
O O10 0.366726 0.000000 0.643269
O O11 0.609331 0.240207 0.970124
O O12 0.671832 0.000000 0.975684
O O13 0.992278 0.500000 0.644458
O O14 0.000000 0.691076 0.500000
O O15 0.038109 0.770771 0.653722
O O16 0.070118 0.250107 0.814910
O O17 0.095001 0.000000 0.706778
O O18 0.443296 0.000000 0.077865
O O19 0.500000 0.243033 0.000000
#
# Coordination Sequence:
#
# PCOD9189856 Si02
#       7
#     8   8   8   8   8   8   8
#     4   9  18  34  58  86 116 150 187 238 300 362
#     4  11  23  42  63  92 127 165 210 253 305 369
#     4   9  19  35  61  90 116 152 199 245 300 362
#     4   9  19  36  57  85 115 147 194 244 296 358
#     4  10  19  38  65  88 115 156 201 249 301 360
#     4  12  26  42  61  90 126 166 205 255 315 370
#     4  10  23  42  65  89 116 158 210 258 307 370
#
# _framework density 19.679817
#
# number of rings (size 3 to 8) (size 9 to 14) (size 15 to 20)
#    0.000    2.000    1.429    1.714    4.000    1.143 
#    0.000    1.429    0.000    0.000    0.000    0.000 
#    0.000    0.000    0.000    0.000    0.000    0.000 
#
# Total GULP energy -156343.460927 kJ/mol
# GULP energy per Si atom -5583.695033 kJ/mol
# Density = 1.963503 g / cm^3
# Si number density = 19.679817 Si / 1000 Ang^3
#
#
#
# Elastic Constant Matrix: (Units=GPa)
#
#
# Indices 1 2 3 4 5 6 
#
# 1 144.6142 28.7719 53.7658 0.0000 -29.2210 0.0000
# 2 28.7719 27.8742 22.6356 0.0000 -5.5155 0.0000
# 3 53.7658 22.6356 115.4875 0.0000 -32.0185 0.0000
# 4 0.0000 0.0000 0.0000 17.8804 0.0000 -7.6383
# 5 -29.2210 -5.5155 -32.0185 0.0000 29.8873 0.0000
# 6 0.0000 0.0000 0.0000 -7.6383 0.0000 24.3304
#
#
#
# Elastic Compliance Matrix: (Units=1/GPa)
#
#
# Indices 1 2 3 4 5 6 
#
# 1 0.010547 -0.008449 -0.001177 0.000000 0.007492 0.000000
# 2 -0.008449 0.049484 -0.007858 0.000000 -0.007546 0.000000
# 3 -0.001177 -0.007858 0.014262 0.000000 0.012678 0.000000
# 4 0.000000 0.000000 0.000000 0.064590 0.000000 0.020277
# 5 0.007492 -0.007546 0.012678 0.000000 0.052973 0.000000
# 6 0.000000 0.000000 0.000000 0.020277 0.000000 0.047467
#
#
# Mechanical properties :
#
#
# Convention : Reuss Voigt Hill
#
# Bulk Modulus (GPa) = 25.42858 55.36917 40.39887
# Shear Modulus (GPa) = 17.39742 26.60645 22.00194
#
# Velocity S-wave (km/s) = 2.97648 3.68090 3.34727
# Velocity P-wave (km/s) = 4.97612 6.80158 5.95916
#
# Compressibility (1/GPa) = 0.03932584
#
# Stress axis : x y z
#
# Youngs Moduli (GPa) = 94.81026 20.20859 70.11574
#
# Poissons Ratio (x) = 0.17073 0.08255
# Poissons Ratio (y) = 0.80101 0.55096
# Poissons Ratio (z) = 0.11163 0.15880
#
# Static dielectric constant tensor:
#      x y z
#    x 1.692030 0.000000 -0.003540 
#    y 0.000000 1.677070 0.000000 
#    z -0.003540 0.000000 1.680540 
# 
# From -- ./inp_files/237332.got.cif
#   From: 2010.05.17/outbox.cif.g08.bks.cpg/sg12_119_cif.got.tgz:237332.got - 2010.06.03 13:09:07.
