data_PCOD9189007
_publ_section_title
;
Structure prediction by ZEFSAII (Michael W. Deem and Ramdas Pophale) SiO2 
 PCOD9189007
Probable space group: C 2/M
;
_chemical_formula_sum "Si O2"
_cell_formula_units_Z 56
_cell_length_a 11.589729
_cell_length_b 29.223730
_cell_length_c 7.241813
_cell_angle_alpha 90.000000
_cell_angle_beta 111.462521
_cell_angle_gamma 90.000000
_cell_volume 2282.684728
_symmetry_space_group_name_H-M "C 2/M"
_symmetry_group_IT_number 12
_symmetry_cell_setting 'monoclinic'
loop_
_space_group_symop_operation_xyz
x,y,z
-x,y,-z
-x,-y,-z
x,-y,z
1/2+x,1/2+y,z
1/2-x,1/2+y,-z
1/2-x,1/2-y,-z
1/2+x,1/2-y,z
loop_
_atom_site_type_symbol
_atom_site_label
_atom_site_fract_x
_atom_site_fract_y
_atom_site_fract_z
Si Si1 0.859646 0.869933 0.214560
Si Si2 0.957698 0.798026 0.755933
Si Si3 0.496234 0.802559 0.221697
Si Si4 0.733460 0.148761 0.759222
Si Si5 0.096278 0.395955 0.226170
Si Si6 0.528415 0.450961 0.235985
Si Si7 0.676597 0.050837 0.592447
O O1 0.734811 0.885148 0.239418
O O2 0.929660 0.822231 0.286971
O O3 0.959914 0.909393 0.287917
O O4 0.820460 0.866126 0.978858
O O5 0.832112 0.828367 0.675697
O O6 0.946009 0.745502 0.687764
O O7 0.000000 0.795877 0.000000
O O8 0.359190 0.812100 0.219551
O O9 0.566285 0.848821 0.317350
O O10 0.500000 0.803468 0.000000
O O11 0.663301 0.100269 0.683659
O O12 0.102133 0.439907 0.360368
O O13 0.000000 0.401159 0.000000
O O14 0.478704 0.500000 0.271324
O O15 0.675042 0.449449 0.352537
O O16 0.500000 0.448753 0.000000
O O17 0.648120 0.000000 0.653218
#
# Coordination Sequence:
#
# PCOD9189007 Si02
#       7
#     8   8   8   8   8   8   8
#     4  11  19  38  68  98 136 171 217 278 336 397
#     4   9  20  33  66 106 129 174 225 267 335 398
#     4  10  21  39  64  98 138 181 223 269 329 396
#     4  11  20  40  69  99 137 174 221 275 330 401
#     4  11  25  45  64  92 137 182 224 274 331 395
#     4  10  19  36  65 100 128 161 215 280 342 395
#     4  11  25  45  71 100 132 176 229 282 340 401
#
# _framework density 24.532515
#
# number of rings (size 3 to 8) (size 9 to 14) (size 15 to 20)
#    0.000    1.571    5.714    0.429    2.000    3.714 
#    0.000    3.571    3.143    0.429    0.000    0.000 
#    0.000    0.000    0.000    0.000    0.000    0.000 
#
# Total GULP energy -156407.005218 kJ/mol
# GULP energy per Si atom -5585.964472 kJ/mol
# Density = 2.447668 g / cm^3
# Si number density = 24.532515 Si / 1000 Ang^3
#
#
#
# Elastic Constant Matrix: (Units=GPa)
#
#
# Indices 1 2 3 4 5 6 
#
# 1 100.9431 37.5495 2.2376 0.0000 13.7730 0.0000
# 2 37.5495 170.8163 31.9758 0.0000 6.8575 0.0000
# 3 2.2376 31.9758 103.7706 0.0000 7.8326 0.0000
# 4 0.0000 0.0000 0.0000 36.6397 0.0000 2.9584
# 5 13.7730 6.8575 7.8326 0.0000 22.6521 0.0000
# 6 0.0000 0.0000 0.0000 2.9584 0.0000 9.7653
#
#
#
# Elastic Compliance Matrix: (Units=1/GPa)
#
#
# Indices 1 2 3 4 5 6 
#
# 1 0.011733 -0.002501 0.001026 0.000000 -0.006731 0.000000
# 2 -0.002501 0.006780 -0.002049 0.000000 0.000176 0.000000
# 3 0.001026 -0.002049 0.010521 0.000000 -0.003641 0.000000
# 4 0.000000 0.000000 0.000000 0.027977 0.000000 -0.008476
# 5 -0.006731 0.000176 -0.003641 0.000000 0.049444 0.000000
# 6 0.000000 0.000000 0.000000 -0.008476 0.000000 0.104971
#
#
# Mechanical properties :
#
#
# Convention : Reuss Voigt Hill
#
# Bulk Modulus (GPa) = 45.48373 57.67287 51.57830
# Shear Modulus (GPa) = 22.14321 34.06254 28.10288
#
# Velocity S-wave (km/s) = 3.00760 3.73025 3.38825
# Velocity P-wave (km/s) = 5.53546 6.48944 6.03134
#
# Compressibility (1/GPa) = 0.02198588
#
# Stress axis : x y z
#
# Youngs Moduli (GPa) = 85.23295 147.48348 95.05112
#
# Poissons Ratio (x) = 0.36884 -0.09749
# Poissons Ratio (y) = 0.21316 0.19473
# Poissons Ratio (z) = -0.08742 0.30215
#
# Static dielectric constant tensor:
#      x y z
#    x 2.023790 0.000000 -0.040190 
#    y 0.000000 1.928120 0.000000 
#    z -0.040190 0.000000 2.005540 
# 
# From -- ./inp_files/54803.got.cif
#   From: 2010.05.17/outbox.cif.g08.bks.cpg/sg12_28_cif.got.tgz:54803.got - 2010.06.03 13:09:07.
