data_PCOD9189339
_publ_section_title
;
Structure prediction by ZEFSAII (Michael W. Deem and Ramdas Pophale) SiO2 
 PCOD9189339
Probable space group: C 2/M
;
_chemical_formula_sum "Si O2"
_cell_formula_units_Z 48
_cell_length_a 8.836251
_cell_length_b 25.389315
_cell_length_c 19.744858
_cell_angle_alpha 90.000000
_cell_angle_beta 148.038579
_cell_angle_gamma 90.000000
_cell_volume 2344.846530
_symmetry_space_group_name_H-M "C 2/M"
_symmetry_group_IT_number 12
_symmetry_cell_setting 'monoclinic'
loop_
_space_group_symop_operation_xyz
x,y,z
-x,y,-z
-x,-y,-z
x,-y,z
1/2+x,1/2+y,z
1/2-x,1/2+y,-z
1/2-x,1/2-y,-z
1/2+x,1/2-y,z
loop_
_atom_site_type_symbol
_atom_site_label
_atom_site_fract_x
_atom_site_fract_y
_atom_site_fract_z
Si Si1 0.792572 0.693220 0.484498
Si Si2 0.315831 0.308919 0.860594
Si Si3 0.151242 0.705008 0.215810
Si Si4 0.221430 0.386779 0.711832
Si Si5 0.830938 0.500000 0.863906
Si Si6 0.826822 0.613070 0.865464
Si Si7 0.844789 0.500000 0.366754
O O1 0.750000 0.750000 0.500000
O O2 0.468244 0.681053 0.343067
O O3 0.000000 0.698661 0.500000
O O4 0.958394 0.651388 0.592962
O O5 0.378125 0.261971 0.830569
O O6 0.321519 0.364211 0.822706
O O7 0.000609 0.295799 0.769844
O O8 0.500000 0.306248 0.000000
O O9 0.029633 0.661557 0.118730
O O10 0.495153 0.380845 0.764735
O O11 0.108421 0.446177 0.657631
O O12 0.877734 0.556882 0.847658
O O13 0.494539 0.500000 0.750486
O O14 0.000000 0.500000 0.000000
O O15 0.000000 0.609167 0.000000
O O16 0.000000 0.500000 0.500000
#
# Coordination Sequence:
#
# PCOD9189339 Si02
#       7
#     8   8   8   8   4   8   4
#     4  12  23  39  61  90 125 162 212 262 318 384
#     4  12  25  42  62  93 132 172 216 268 327 390
#     4  12  23  38  61  91 125 170 212 263 324 379
#     4  11  23  41  64  95 129 166 219 265 325 389
#     4   8  18  34  59  92 125 161 212 260 311 381
#     4  10  19  37  61  90 125 165 213 267 318 381
#     4  10  22  40  70  99 126 172 215 271 327 389
#
# _framework density 20.470424000000001
#
# number of rings (size 3 to 8) (size 9 to 14) (size 15 to 20)
#    0.000    1.000    3.333    4.500    2.333    0.000 
#    0.000    1.250    0.000    1.000    0.000    0.000 
#    0.000    0.000    0.000    0.000    0.000    0.000 
#
# Total GULP energy -133737.908651 kJ/mol
# GULP energy per Si atom -5572.412860 kJ/mol
# Density = 2.042383 g / cm^3
# Si number density = 20.470424 Si / 1000 Ang^3
#
#
#
# Elastic Constant Matrix: (Units=GPa)
#
#
# Indices 1 2 3 4 5 6 
#
# 1 72.7920 30.2761 1.4595 -0.0005 -0.4960 0.0009
# 2 30.2761 154.3147 18.6409 -0.0016 -17.1952 0.0008
# 3 1.4595 18.6409 99.7264 0.0088 1.1430 0.0021
# 4 -0.0005 -0.0016 0.0088 28.5986 -0.0002 -5.5164
# 5 -0.4960 -17.1952 1.1430 -0.0002 22.6924 -0.0013
# 6 0.0009 0.0008 0.0021 -5.5164 -0.0013 21.8814
#
#
#
# Elastic Compliance Matrix: (Units=1/GPa)
#
#
# Indices 1 2 3 4 5 6 
#
# 1 0.015064 -0.003245 0.000411 0.000000 -0.002150 -0.000001
# 2 -0.003245 0.007973 -0.001512 0.000001 0.006047 0.000001
# 3 0.000411 -0.001512 0.010323 -0.000004 -0.001657 -0.000002
# 4 0.000000 0.000001 -0.000004 0.036754 0.000002 0.009266
# 5 -0.002150 0.006047 -0.001657 0.000002 0.048686 0.000003
# 6 -0.000001 0.000001 -0.000002 0.009266 0.000003 0.048037
#
#
# Mechanical properties :
#
#
# Convention : Reuss Voigt Hill
#
# Bulk Modulus (GPa) = 40.53785 47.50956 44.02371
# Shear Modulus (GPa) = 27.21034 33.06491 30.13763
#
# Velocity S-wave (km/s) = 3.64985 4.02338 3.84116
# Velocity P-wave (km/s) = 6.13253 6.69647 6.42070
#
# Compressibility (1/GPa) = 0.02466830
#
# Stress axis : x y z
#
# Youngs Moduli (GPa) = 66.38126 125.41733 96.87035
#
# Poissons Ratio (x) = 0.40696 -0.03978
# Poissons Ratio (y) = 0.21540 0.14649
# Poissons Ratio (z) = -0.02726 0.18966
#
# Static dielectric constant tensor:
#      x y z
#    x 1.728330 0.000000 -0.049800 
#    y 0.000000 1.918300 0.000000 
#    z -0.049800 0.000000 1.763190 
# 
# From -- ./inp_files/302806.got.cif
#   From: 2010.05.17/outbox.cif.g08.bks.cpg/sg12_152_cif.got.tgz:302806.got - 2010.06.03 13:09:07.
