data_PCOD9189292
_publ_section_title
;
Structure prediction by ZEFSAII (Michael W. Deem and Ramdas Pophale) SiO2 
 PCOD9189292
Probable space group: C 2/M
;
_chemical_formula_sum "Si O2"
_cell_formula_units_Z 48
_cell_length_a 25.260226
_cell_length_b 9.118661
_cell_length_c 12.683722
_cell_angle_alpha 90.000000
_cell_angle_beta 109.320155
_cell_angle_gamma 90.000000
_cell_volume 2757.032576
_symmetry_space_group_name_H-M "C 2/M"
_symmetry_group_IT_number 12
_symmetry_cell_setting 'monoclinic'
loop_
_space_group_symop_operation_xyz
x,y,z
-x,y,-z
-x,-y,-z
x,-y,z
1/2+x,1/2+y,z
1/2-x,1/2+y,-z
1/2-x,1/2-y,-z
1/2+x,1/2-y,z
loop_
_atom_site_type_symbol
_atom_site_label
_atom_site_fract_x
_atom_site_fract_y
_atom_site_fract_z
Si Si1 0.250985 0.175163 0.886144
Si Si2 0.944293 0.325628 0.127969
Si Si3 0.439732 0.325460 0.736331
Si Si4 0.060416 0.674902 0.488302
Si Si5 0.641235 0.825764 0.736094
Si Si6 0.872592 0.674756 0.871769
O O1 0.197723 0.235056 0.787533
O O2 0.309674 0.209599 0.867623
O O3 0.248034 0.000000 0.896929
O O4 0.250000 0.250000 0.000000
O O5 0.957477 0.500000 0.140656
O O6 0.900501 0.295204 0.193417
O O7 0.000681 0.235897 0.182765
O O8 0.914120 0.294691 0.997389
O O9 0.439892 0.500000 0.735584
O O10 0.431692 0.262135 0.613907
O O11 0.392866 0.263264 0.784247
O O12 0.060272 0.500000 0.465805
O O13 0.107744 0.704992 0.606715
O O14 0.000000 0.709763 0.500000
O O15 0.653804 0.000000 0.748450
O O16 0.875818 0.500000 0.852874
#
# Coordination Sequence:
#
# PCOD9189292 Si02
#       6
#     8   8   8   8   8   8
#     4  11  22  38  61  88 119 154 194 240 288 343
#     4  10  19  37  61  85 117 155 195 233 284 357
#     4  12  25  37  55  88 124 152 191 246 297 338
#     4  10  20  39  64  84 112 156 199 234 281 354
#     4  10  20  37  62  91 116 147 196 241 286 343
#     4  10  22  40  60  82 115 161 200 230 281 355
#
# _framework density 17.410022999999999
#
# number of rings (size 3 to 8) (size 9 to 14) (size 15 to 20)
#    0.000    1.500    3.333    2.500    0.000    5.667 
#    0.000    0.833    0.000    0.000    0.000    0.000 
#    0.000    0.000    0.000    0.000    0.000    0.000 
#
# Total GULP energy -134135.729155 kJ/mol
# GULP energy per Si atom -5588.988715 kJ/mol
# Density = 1.737040 g / cm^3
# Si number density = 17.410023 Si / 1000 Ang^3
#
#
#
# Elastic Constant Matrix: (Units=GPa)
#
#
# Indices 1 2 3 4 5 6 
#
# 1 120.5623 81.7890 94.0353 0.0000 -10.8020 0.0000
# 2 81.7890 78.4677 81.7681 0.0000 -11.0518 0.0000
# 3 94.0353 81.7681 125.4372 0.0000 -10.8528 0.0000
# 4 0.0000 0.0000 0.0000 22.2872 0.0000 6.9424
# 5 -10.8020 -11.0518 -10.8528 0.0000 29.8263 0.0000
# 6 0.0000 0.0000 0.0000 6.9424 0.0000 28.8101
#
#
#
# Elastic Compliance Matrix: (Units=1/GPa)
#
#
# Indices 1 2 3 4 5 6 
#
# 1 0.029965 -0.024494 -0.006549 0.000000 -0.000607 0.000000
# 2 -0.024494 0.060642 -0.020641 0.000000 0.006089 0.000000
# 3 -0.006549 -0.020641 0.026298 0.000000 -0.000451 0.000000
# 4 0.000000 0.000000 0.000000 0.048510 0.000000 -0.011689
# 5 -0.000607 0.006089 -0.000451 0.000000 0.035400 0.000000
# 6 0.000000 0.000000 0.000000 -0.011689 0.000000 0.037527
#
#
# Mechanical properties :
#
#
# Convention : Reuss Voigt Hill
#
# Bulk Modulus (GPa) = 73.87809 93.29467 83.58638
# Shear Modulus (GPa) = 14.44153 20.64304 17.54228
#
# Velocity S-wave (km/s) = 2.88322 3.44713 3.17771
# Velocity P-wave (km/s) = 7.32191 8.33947 7.84720
#
# Compressibility (1/GPa) = 0.01353581
#
# Stress axis : x y z
#
# Youngs Moduli (GPa) = 33.37218 16.49016 38.02533
#
# Poissons Ratio (x) = 0.40391 0.24904
# Poissons Ratio (y) = 0.81742 0.78490
# Poissons Ratio (z) = 0.21856 0.34038
#
# Static dielectric constant tensor:
#      x y z
#    x 1.572610 0.000000 0.001280 
#    y 0.000000 1.574340 0.000000 
#    z 0.001280 0.000000 1.573940 
# 
# From -- ./inp_files/172061.got.cif
#   From: 2010.05.17/outbox.cif.g08.bks.cpg/sg12_87_cif.got.tgz:172061.got - 2010.06.03 13:09:07.
