data_PCOD9189376
_publ_section_title
;
Structure prediction by ZEFSAII (Michael W. Deem and Ramdas Pophale) SiO2 
 PCOD9189376
Probable space group: C 2/M
;
_chemical_formula_sum "Si O2"
_cell_formula_units_Z 64
_cell_length_a 13.516997
_cell_length_b 14.019332
_cell_length_c 15.228144
_cell_angle_alpha 90.000000
_cell_angle_beta 114.814305
_cell_angle_gamma 90.000000
_cell_volume 2619.291290
_symmetry_space_group_name_H-M "C 2/M"
_symmetry_group_IT_number 12
_symmetry_cell_setting 'monoclinic'
loop_
_space_group_symop_operation_xyz
x,y,z
-x,y,-z
-x,-y,-z
x,-y,z
1/2+x,1/2+y,z
1/2-x,1/2+y,-z
1/2-x,1/2-y,-z
1/2+x,1/2-y,z
loop_
_atom_site_type_symbol
_atom_site_label
_atom_site_fract_x
_atom_site_fract_y
_atom_site_fract_z
Si Si1 0.513544 0.386707 0.304193
Si Si2 0.672972 0.896042 0.692611
Si Si3 0.105357 0.700472 0.989532
Si Si4 0.570432 0.765206 0.212434
Si Si5 0.806962 0.111522 0.495085
Si Si6 0.075198 0.609971 0.388308
Si Si7 0.230732 0.108373 0.074731
Si Si8 0.206972 0.183667 0.704752
O O1 0.502528 0.500000 0.298408
O O2 0.574539 0.346020 0.241383
O O3 0.587993 0.351732 0.414133
O O4 0.393567 0.342145 0.271468
O O5 0.545305 0.893671 0.618320
O O6 0.697539 0.892324 0.807873
O O7 0.710666 0.793299 0.676059
O O8 0.715491 0.000000 0.678235
O O9 0.199503 0.631917 0.987651
O O10 0.042986 0.729390 0.877855
O O11 0.149053 0.800304 0.047965
O O12 0.000000 0.657692 0.000000
O O13 0.564320 0.823159 0.300432
O O14 0.673339 0.820097 0.206706
O O15 0.685104 0.142313 0.478846
O O16 0.808812 0.126297 0.391184
O O17 0.813696 0.000000 0.515775
O O18 0.097142 0.500000 0.369058
O O19 0.185167 0.000000 0.051387
#
# Coordination Sequence:
#
# PCOD9189376 Si02
#       8
#     8   8   8   8   8   8   8   8
#     4  11  23  42  63  88 126 167 206 255 306 361
#     4  10  19  37  62  86 121 164 203 246 301 364
#     4  11  23  40  63  93 126 155 200 258 308 367
#     4  11  23  39  61  90 122 160 204 249 313 366
#     4   9  20  37  60  90 122 159 205 253 304 357
#     4   9  17  34  60  85 114 156 203 243 293 359
#     4  10  22  41  64  90 124 164 203 247 306 370
#     4  11  21  36  61  92 121 158 206 251 300 359
#
# _framework density 24.434089
#
# number of rings (size 3 to 8) (size 9 to 14) (size 15 to 20)
#    0.000    1.750    2.500    1.500    0.000    6.000 
#    2.250    0.000    0.000    6.000    0.000    0.000 
#    0.000    0.000    0.000    0.000    0.000    0.000 
#
# Total GULP energy -178402.125793 kJ/mol
# GULP energy per Si atom -5575.066431 kJ/mol
# Density = 2.437848 g / cm^3
# Si number density = 24.434089 Si / 1000 Ang^3
#
#
#
# Elastic Constant Matrix: (Units=GPa)
#
#
# Indices 1 2 3 4 5 6 
#
# 1 64.9690 11.4142 3.4072 0.0000 13.2475 0.0000
# 2 11.4142 70.3401 21.3424 0.0000 6.2894 0.0000
# 3 3.4072 21.3424 52.3127 0.0000 9.7820 0.0000
# 4 0.0000 0.0000 0.0000 17.1351 0.0000 -1.2675
# 5 13.2475 6.2894 9.7820 0.0000 37.3319 0.0000
# 6 0.0000 0.0000 0.0000 -1.2675 0.0000 22.0664
#
#
#
# Elastic Compliance Matrix: (Units=1/GPa)
#
#
# Indices 1 2 3 4 5 6 
#
# 1 0.016981 -0.002543 0.001029 0.000000 -0.005867 0.000000
# 2 -0.002543 0.016645 -0.006593 0.000000 -0.000174 0.000000
# 3 0.001029 -0.006593 0.022712 0.000000 -0.005205 0.000000
# 4 0.000000 0.000000 0.000000 0.058609 0.000000 0.003367
# 5 -0.005867 -0.000174 -0.005205 0.000000 0.030262 0.000000
# 6 0.000000 0.000000 0.000000 0.003367 0.000000 0.045511
#
#
# Mechanical properties :
#
#
# Convention : Reuss Voigt Hill
#
# Bulk Modulus (GPa) = 24.92276 28.88326 26.90301
# Shear Modulus (GPa) = 22.69539 25.40388 24.04963
#
# Velocity S-wave (km/s) = 3.05100 3.22792 3.14070
# Velocity P-wave (km/s) = 4.75748 5.07338 4.91796
#
# Compressibility (1/GPa) = 0.04012396
#
# Stress axis : x y z
#
# Youngs Moduli (GPa) = 58.88898 60.07727 44.02984
#
# Poissons Ratio (x) = 0.15278 -0.04529
# Poissons Ratio (y) = 0.14976 0.29027
# Poissons Ratio (z) = -0.06057 0.39607
#
# Static dielectric constant tensor:
#      x y z
#    x 2.047640 0.000000 0.017570 
#    y 0.000000 1.937910 0.000000 
#    z 0.017570 0.000000 2.009960 
# 
# From -- ./inp_files/270688.got.cif
#   From: 2010.05.17/outbox.cif.g08.bks.cpg/sg12_136_cif.got.tgz:270688.got - 2010.06.03 13:09:07.
