data_PCOD9189388
_publ_section_title
;
Structure prediction by ZEFSAII (Michael W. Deem and Ramdas Pophale) SiO2 
 PCOD9189388
Probable space group: C 2/M
;
_chemical_formula_sum "Si O2"
_cell_formula_units_Z 56
_cell_length_a 15.528882
_cell_length_b 8.645131
_cell_length_c 22.209122
_cell_angle_alpha 90.000000
_cell_angle_beta 77.159747
_cell_angle_gamma 90.000000
_cell_volume 2906.998871
_symmetry_space_group_name_H-M "C 2/M"
_symmetry_group_IT_number 12
_symmetry_cell_setting 'monoclinic'
loop_
_space_group_symop_operation_xyz
x,y,z
-x,y,-z
-x,-y,-z
x,-y,z
1/2+x,1/2+y,z
1/2-x,1/2+y,-z
1/2-x,1/2-y,-z
1/2+x,1/2-y,z
loop_
_atom_site_type_symbol
_atom_site_label
_atom_site_fract_x
_atom_site_fract_y
_atom_site_fract_z
Si Si1 0.868351 0.315849 0.120595
Si Si2 0.042385 0.814765 0.143076
Si Si3 0.848404 0.185353 0.994253
Si Si4 0.700126 0.685650 0.566502
Si Si5 0.489708 0.813247 0.431163
Si Si6 0.325455 0.811824 0.655331
Si Si7 0.189862 0.314111 0.204453
O O1 0.870036 0.500000 0.120178
O O2 0.772475 0.256935 0.156062
O O3 0.943848 0.249296 0.152280
O O4 0.884885 0.253557 0.050652
O O5 0.092826 0.774842 0.072816
O O6 0.099820 0.741843 0.187348
O O7 0.041023 0.000000 0.149047
O O8 0.845053 0.000000 0.999683
O O9 0.750000 0.250000 0.000000
O O10 0.703112 0.500000 0.563814
O O11 0.750000 0.750000 0.500000
O O12 0.599723 0.742237 0.580572
O O13 0.752794 0.738121 0.617891
O O14 0.500000 0.771753 0.500000
O O15 0.577668 0.763435 0.382404
O O16 0.483280 0.000000 0.429189
O O17 0.307168 0.763738 0.726362
O O18 0.325414 0.000000 0.654937
O O19 0.195115 0.500000 0.200511
#
# Coordination Sequence:
#
# PCOD9189388 Si02
#       7
#     8   8   8   8   8   8   8
#     4  12  25  41  63  92 126 165 211 256 304 365
#     4  11  24  42  64  92 125 161 206 257 311 368
#     4  11  22  38  64  94 126 160 203 258 316 367
#     4  11  21  37  60  90 122 154 197 244 299 359
#     4  10  19  37  62  87 120 156 191 241 304 361
#     4   9  21  40  61  87 122 161 198 244 306 367
#     4  11  23  42  65  88 122 165 208 254 307 367
#
# _framework density 19.263853999999998
#
# number of rings (size 3 to 8) (size 9 to 14) (size 15 to 20)
#    0.000    1.286    2.857    3.429    0.000    4.857 
#    0.000    7.143    0.000    0.000    0.000    0.000 
#    0.000    0.000    0.000    0.000    0.000    0.000 
#
# Total GULP energy -156575.695371 kJ/mol
# GULP energy per Si atom -5591.989120 kJ/mol
# Density = 1.922001 g / cm^3
# Si number density = 19.263854 Si / 1000 Ang^3
#
#
#
# Elastic Constant Matrix: (Units=GPa)
#
#
# Indices 1 2 3 4 5 6 
#
# 1 108.1085 15.3642 23.3972 0.0000 34.5871 0.0000
# 2 15.3642 43.9717 23.0324 0.0000 8.5546 0.0000
# 3 23.3972 23.0324 106.8822 0.0000 27.3440 0.0000
# 4 0.0000 0.0000 0.0000 16.0750 0.0000 7.1077
# 5 34.5871 8.5546 27.3440 0.0000 31.8129 0.0000
# 6 0.0000 0.0000 0.0000 7.1077 0.0000 34.4366
#
#
#
# Elastic Compliance Matrix: (Units=1/GPa)
#
#
# Indices 1 2 3 4 5 6 
#
# 1 0.014563 -0.002728 0.001619 0.000000 -0.016491 0.000000
# 2 -0.002728 0.026336 -0.005160 0.000000 0.000319 0.000000
# 3 0.001619 -0.005160 0.013087 0.000000 -0.011621 0.000000
# 4 0.000000 0.000000 0.000000 0.068456 0.000000 -0.014129
# 5 -0.016491 0.000319 -0.011621 0.000000 0.059266 0.000000
# 6 0.000000 0.000000 0.000000 -0.014129 0.000000 0.031955
#
#
# Mechanical properties :
#
#
# Convention : Reuss Voigt Hill
#
# Bulk Modulus (GPa) = 24.12676 42.50556 33.31616
# Shear Modulus (GPa) = 20.83193 29.60946 25.22069
#
# Velocity S-wave (km/s) = 3.29203 3.92477 3.62224
# Velocity P-wave (km/s) = 5.19630 6.53080 5.90139
#
# Compressibility (1/GPa) = 0.04144775
#
# Stress axis : x y z
#
# Youngs Moduli (GPa) = 68.66542 37.97123 76.41413
#
# Poissons Ratio (x) = 0.10360 -0.12371
# Poissons Ratio (y) = 0.18734 0.39427
# Poissons Ratio (z) = -0.11116 0.19592
#
# Static dielectric constant tensor:
#      x y z
#    x 1.653200 0.000000 0.005440 
#    y 0.000000 1.650410 0.000000 
#    z 0.005440 0.000000 1.661550 
# 
# From -- ./inp_files/309028.got.cif
#   From: 2010.05.17/outbox.cif.g08.bks.cpg/sg12_155_cif.got.tgz:309028.got - 2010.06.03 13:09:07.
