data_PCOD9189936
_publ_section_title
;
Structure prediction by ZEFSAII (Michael W. Deem and Ramdas Pophale) SiO2 
 PCOD9189936
Probable space group: C 2/M
;
_chemical_formula_sum "Si O2"
_cell_formula_units_Z 56
_cell_length_a 14.781643
_cell_length_b 28.624965
_cell_length_c 9.128837
_cell_angle_alpha 90.000000
_cell_angle_beta 51.166588
_cell_angle_gamma 90.000000
_cell_volume 3008.882390
_symmetry_space_group_name_H-M "C 2/M"
_symmetry_group_IT_number 12
_symmetry_cell_setting 'monoclinic'
loop_
_space_group_symop_operation_xyz
x,y,z
-x,y,-z
-x,-y,-z
x,-y,z
1/2+x,1/2+y,z
1/2-x,1/2+y,-z
1/2-x,1/2-y,-z
1/2+x,1/2-y,z
loop_
_atom_site_type_symbol
_atom_site_label
_atom_site_fract_x
_atom_site_fract_y
_atom_site_fract_z
Si Si1 0.233507 0.359280 0.452408
Si Si2 0.640140 0.947539 0.360208
Si Si3 0.217574 0.605558 0.014290
Si Si4 0.012095 0.672098 0.319463
Si Si5 0.135469 0.139487 0.379581
Si Si6 0.112131 0.839310 0.957014
Si Si7 0.127244 0.770028 0.180980
O O1 0.197835 0.408506 0.409009
O O2 0.323097 0.360949 0.494916
O O3 0.293009 0.328862 0.263358
O O4 0.112868 0.336226 0.624561
O O5 0.500000 0.944683 0.500000
O O6 0.678645 0.937825 0.152663
O O7 0.672913 0.000000 0.371792
O O8 0.111318 0.642311 0.137628
O O9 0.324486 0.626844 0.996321
O O10 0.272032 0.605870 0.798122
O O11 0.050094 0.725469 0.293393
O O12 0.000000 0.655124 0.500000
O O13 0.142180 0.191201 0.294281
O O14 0.000000 0.125644 0.500000
O O15 0.074037 0.795998 0.093776
O O16 0.000000 0.861792 0.000000
O O17 0.250000 0.750000 0.000000
#
# Coordination Sequence:
#
# PCOD9189936 Si02
#       7
#     8   8   8   8   8   8   8
#     4  11  21  38  63  89 119 159 199 250 309 353
#     4  10  19  38  69  98 119 144 189 246 313 381
#     4  10  19  39  59  80 123 151 187 242 307 348
#     4  12  19  37  58  83 116 156 197 255 300 343
#     4  11  24  40  58  83 122 172 203 244 298 352
#     4  10  20  35  55  75 109 161 204 242 283 341
#     4  11  21  37  53  78 121 159 205 254 290 336
#
# _framework density 18.611561999999999
#
# number of rings (size 3 to 8) (size 9 to 14) (size 15 to 20)
#    0.000    1.286    7.143    2.143    0.000    1.714 
#    0.000    3.571    0.000   18.000    0.000    0.000 
#    0.000    0.000    0.000    0.000    0.000    0.000 
#
# Total GULP energy -156003.733973 kJ/mol
# GULP energy per Si atom -5571.561928 kJ/mol
# Density = 1.856920 g / cm^3
# Si number density = 18.611562 Si / 1000 Ang^3
#
#
#
# Elastic Constant Matrix: (Units=GPa)
#
#
# Indices 1 2 3 4 5 6 
#
# 1 79.6450 17.3264 2.9395 0.0000 1.7240 0.0000
# 2 17.3264 82.7250 31.5690 0.0000 -1.5271 0.0000
# 3 2.9395 31.5690 67.5280 0.0000 4.1338 0.0000
# 4 0.0000 0.0000 0.0000 12.2406 0.0000 6.4591
# 5 1.7240 -1.5271 4.1338 0.0000 34.8219 0.0000
# 6 0.0000 0.0000 0.0000 6.4591 0.0000 -50.2013
#
#
#
# Elastic Compliance Matrix: (Units=1/GPa)
#
#
# Indices 1 2 3 4 5 6 
#
# 1 0.013225 -0.003150 0.000952 0.000000 -0.000906 0.000000
# 2 -0.003150 0.015539 -0.007231 0.000000 0.001696 0.000000
# 3 0.000952 -0.007231 0.018303 0.000000 -0.002537 0.000000
# 4 0.000000 0.000000 0.000000 0.076501 0.000000 0.009843
# 5 -0.000906 0.001696 -0.002537 0.000000 0.029138 0.000000
# 6 0.000000 0.000000 0.000000 0.009843 0.000000 -0.018653
#
#
# Mechanical properties :
#
#
# Convention : Reuss Voigt Hill
#
# Bulk Modulus (GPa) = 35.44872 37.06309 36.25591
# Shear Modulus (GPa) = 30.80456 11.24312 21.02384
#
# Velocity S-wave (km/s) = 4.07274 2.46050 3.36462
# Velocity P-wave (km/s) = 6.41906 5.29427 5.88360
#
# Compressibility (1/GPa) = 0.02820976
#
# Stress axis : x y z
#
# Youngs Moduli (GPa) = 75.61153 64.35516 54.63602
#
# Poissons Ratio (x) = 0.20273 -0.05204
# Poissons Ratio (y) = 0.23819 0.39507
# Poissons Ratio (z) = -0.07202 0.46535
#
# Static dielectric constant tensor:
#      x y z
#    x 1.674790 0.000000 0.003770 
#    y 0.000000 1.676450 0.000000 
#    z 0.003770 0.000000 1.729950 
# 
# From -- ./inp_files/68157.got.cif
#   From: 2010.05.17/outbox.cif.g08.bks.cpg/sg12_35_cif.got.tgz:68157.got - 2010.06.03 13:09:07.
