data_PCOD9189775
_publ_section_title
;
Structure prediction by ZEFSAII (Michael W. Deem and Ramdas Pophale) SiO2 
 PCOD9189775
Probable space group: C 2/M
;
_chemical_formula_sum "Si O2"
_cell_formula_units_Z 64
_cell_length_a 20.140698
_cell_length_b 8.064198
_cell_length_c 32.083714
_cell_angle_alpha 90.000000
_cell_angle_beta 37.789412
_cell_angle_gamma 90.000000
_cell_volume 3193.092289
_symmetry_space_group_name_H-M "C 2/M"
_symmetry_group_IT_number 12
_symmetry_cell_setting 'monoclinic'
loop_
_space_group_symop_operation_xyz
x,y,z
-x,y,-z
-x,-y,-z
x,-y,z
1/2+x,1/2+y,z
1/2-x,1/2+y,-z
1/2-x,1/2-y,-z
1/2+x,1/2-y,z
loop_
_atom_site_type_symbol
_atom_site_label
_atom_site_fract_x
_atom_site_fract_y
_atom_site_fract_z
Si Si1 0.033532 0.700216 0.436913
Si Si2 0.281439 0.700287 0.937632
Si Si3 0.874682 0.297025 0.060770
Si Si4 0.521648 0.300204 0.297703
Si Si5 0.737680 0.798606 0.798450
Si Si6 0.226621 0.301941 0.711707
Si Si7 0.127364 0.306376 0.555556
Si Si8 0.998930 0.799860 0.214204
O O1 0.027482 0.500000 0.440355
O O2 0.948767 0.765562 0.443834
O O3 0.000000 0.758475 0.500000
O O4 0.157369 0.742376 0.363133
O O5 0.281767 0.500000 0.935941
O O6 0.194847 0.756345 0.945169
O O7 0.402139 0.758294 0.864314
O O8 0.250000 0.750000 0.000000
O O9 0.871862 0.500000 0.061651
O O10 0.821316 0.240043 0.130605
O O11 0.000000 0.246819 0.000000
O O12 0.511359 0.500000 0.303122
O O13 0.636585 0.256637 0.260275
O O14 0.430269 0.227066 0.372074
O O15 0.521039 0.244642 0.250390
O O16 0.702394 0.738392 0.770671
O O17 0.727760 0.000000 0.803923
O O18 0.234288 0.500000 0.709783
O O19 0.121414 0.253937 0.737827
O O20 0.131392 0.500000 0.545064
O O21 0.250000 0.250000 0.500000
O O22 0.002220 0.000000 0.211939
#
# Coordination Sequence:
#
# PCOD9189775 Si02
#       8
#     8   8   8   8   8   8   8   8
#     4  10  23  43  62  82 115 159 197 227 277 352
#     4  10  21  37  57  83 116 154 192 237 290 345
#     4   9  17  31  55  84 111 146 193 237 277 332
#     4  10  19  38  63  82 110 152 198 242 285 340
#     4   9  17  33  56  83 111 143 189 239 286 332
#     4  11  23  37  60  91 118 145 187 249 298 332
#     4  11  24  40  61  89 119 152 193 239 287 341
#     4  10  22  39  59  82 116 160 197 231 286 360
#
# _framework density 20.043267
#
# number of rings (size 3 to 8) (size 9 to 14) (size 15 to 20)
#    0.000    2.000    2.500    0.750    3.500    1.750 
#    0.000    0.000    0.000    1.875    0.000    0.000 
#    0.000    0.000    0.000    0.000    0.000    0.000 
#
# Total GULP energy -178568.730814 kJ/mol
# GULP energy per Si atom -5580.272838 kJ/mol
# Density = 1.999765 g / cm^3
# Si number density = 20.043267 Si / 1000 Ang^3
#
#
#
# Elastic Constant Matrix: (Units=GPa)
#
#
# Indices 1 2 3 4 5 6 
#
# 1 52.3426 6.1741 22.0340 0.0141 -0.3590 0.0226
# 2 6.1741 11.2002 16.4880 0.0193 -0.0779 -0.0053
# 3 22.0340 16.4880 114.4469 -0.0071 -3.9158 0.0014
# 4 0.0141 0.0193 -0.0071 22.2666 -0.0018 3.8518
# 5 -0.3590 -0.0779 -3.9158 -0.0018 38.1515 0.0009
# 6 0.0226 -0.0053 0.0014 3.8518 0.0009 18.1111
#
#
#
# Elastic Compliance Matrix: (Units=1/GPa)
#
#
# Indices 1 2 3 4 5 6 
#
# 1 0.021241 -0.007213 -0.003055 -0.000003 -0.000128 -0.000028
# 2 -0.007213 0.115846 -0.015349 -0.000113 -0.001407 0.000068
# 3 -0.003055 -0.015349 0.011576 0.000020 0.001128 -0.000006
# 4 -0.000003 -0.000113 0.000020 0.046626 0.000004 -0.009916
# 5 -0.000128 -0.001407 0.001128 0.000004 0.026323 -0.000002
# 6 -0.000028 0.000068 -0.000006 -0.009916 -0.000002 0.057324
#
#
# Mechanical properties :
#
#
# Convention : Reuss Voigt Hill
#
# Bulk Modulus (GPa) = 10.26388 29.70910 19.98649
# Shear Modulus (GPa) = 13.78761 24.59209 19.18985
#
# Velocity S-wave (km/s) = 2.62562 3.50659 3.09758
# Velocity P-wave (km/s) = 3.78468 5.59013 4.77354
#
# Compressibility (1/GPa) = 0.09742907
#
# Stress axis : x y z
#
# Youngs Moduli (GPa) = 47.07940 8.63215 86.38817
#
# Poissons Ratio (x) = 0.06226 0.26388
# Poissons Ratio (y) = 0.33958 1.32598
# Poissons Ratio (z) = 0.14381 0.13250
#
# Static dielectric constant tensor:
#      x y z
#    x 1.697950 0.000000 0.000880 
#    y 0.000000 1.736030 0.000000 
#    z 0.000880 0.000000 1.691380 
# 
# From -- ./inp_files/378157.got.cif
#   From: 2010.05.17/outbox.cif.g08.bks.cpg/sg12_190_cif.got.tgz:378157.got - 2010.06.03 13:09:07.
