data_PCOD9189302
_publ_section_title
;
Structure prediction by ZEFSAII (Michael W. Deem and Ramdas Pophale) SiO2 
 PCOD9189302
Probable space group: C 2/M
;
_chemical_formula_sum "Si O2"
_cell_formula_units_Z 56
_cell_length_a 30.732660
_cell_length_b 7.626761
_cell_length_c 11.805628
_cell_angle_alpha 90.000000
_cell_angle_beta 55.545398
_cell_angle_gamma 90.000000
_cell_volume 2281.704495
_symmetry_space_group_name_H-M "C 2/M"
_symmetry_group_IT_number 12
_symmetry_cell_setting 'monoclinic'
loop_
_space_group_symop_operation_xyz
x,y,z
-x,y,-z
-x,-y,-z
x,-y,z
1/2+x,1/2+y,z
1/2-x,1/2+y,-z
1/2-x,1/2-y,-z
1/2+x,1/2-y,z
loop_
_atom_site_type_symbol
_atom_site_label
_atom_site_fract_x
_atom_site_fract_y
_atom_site_fract_z
Si Si1 0.898405 0.294186 0.591023
Si Si2 0.956854 0.292123 0.280860
Si Si3 0.783570 0.302481 0.792260
Si Si4 0.332269 0.715627 0.053295
Si Si5 0.565766 0.292028 0.230855
Si Si6 0.122524 0.207864 0.771129
Si Si7 0.205804 0.790964 0.474852
O O1 0.887839 0.500000 0.586609
O O2 0.923167 0.218527 0.439035
O O3 0.841833 0.217147 0.717483
O O4 0.938500 0.279180 0.636008
O O5 0.951952 0.500000 0.291532
O O6 0.936773 0.234741 0.186202
O O7 0.017082 0.248838 0.221351
O O8 0.785007 0.500000 0.836799
O O9 0.725634 0.224367 0.904018
O O10 0.780967 0.305583 0.659329
O O11 0.329910 0.500000 0.057765
O O12 0.351743 0.774551 0.150268
O O13 0.379557 0.773406 0.903055
O O14 0.569234 0.500000 0.235122
O O15 0.154288 0.276214 0.615363
O O16 0.131282 0.000000 0.763427
O O17 0.250000 0.750000 0.500000
O O18 0.202435 0.000000 0.457433
#
# Coordination Sequence:
#
# PCOD9189302 Si02
#       7
#     8   8   8   8   8   8   8
#     4  10  22  39  62  88 116 150 190 244 303 347
#     4  11  23  40  62  88 117 149 192 245 302 348
#     4  10  19  37  61  86 118 155 191 235 292 350
#     4   9  20  39  60  85 119 160 195 229 284 351
#     4  11  24  41  61  83 114 157 203 243 282 342
#     4  10  20  36  60  87 118 153 193 237 286 348
#     4  11  20  31  54  87 121 155 190 236 290 346
#
# _framework density 24.543054999999999
#
# number of rings (size 3 to 8) (size 9 to 14) (size 15 to 20)
#    0.000    1.714    2.857    1.714    0.000    5.143 
#    0.000    5.714    0.000    0.000    0.000    0.000 
#    0.000    0.000    0.000    0.000    0.000    0.000 
#
# Total GULP energy -156324.962962 kJ/mol
# GULP energy per Si atom -5583.034392 kJ/mol
# Density = 2.448719 g / cm^3
# Si number density = 24.543055 Si / 1000 Ang^3
#
#
#
# Elastic Constant Matrix: (Units=GPa)
#
#
# Indices 1 2 3 4 5 6 
#
# 1 85.3002 -2.3369 15.7615 0.0000 -15.8572 0.0000
# 2 -2.3369 71.7821 10.1638 0.0000 -0.5831 0.0000
# 3 15.7615 10.1638 63.3968 0.0000 -14.8169 0.0000
# 4 0.0000 0.0000 0.0000 10.3278 0.0000 4.4175
# 5 -15.8572 -0.5831 -14.8169 0.0000 33.4535 0.0000
# 6 0.0000 0.0000 0.0000 4.4175 0.0000 24.1693
#
#
#
# Elastic Compliance Matrix: (Units=1/GPa)
#
#
# Indices 1 2 3 4 5 6 
#
# 1 0.013124 0.000775 -0.002153 0.000000 0.005281 0.000000
# 2 0.000775 0.014322 -0.002615 0.000000 -0.000541 0.000000
# 3 -0.002153 -0.002615 0.018382 0.000000 0.007075 0.000000
# 4 0.000000 0.000000 0.000000 0.105038 0.000000 -0.019198
# 5 0.005281 -0.000541 0.007075 0.000000 0.035520 0.000000
# 6 0.000000 0.000000 0.000000 -0.019198 0.000000 0.044884
#
#
# Mechanical properties :
#
#
# Convention : Reuss Voigt Hill
#
# Bulk Modulus (GPa) = 26.42592 29.73955 28.08273
# Shear Modulus (GPa) = 19.85148 26.71616 23.28382
#
# Velocity S-wave (km/s) = 2.84710 3.30289 3.08343
# Velocity P-wave (km/s) = 4.64742 5.16614 4.91363
#
# Compressibility (1/GPa) = 0.03784164
#
# Stress axis : x y z
#
# Youngs Moduli (GPa) = 76.19598 69.82172 54.40152
#
# Poissons Ratio (x) = -0.05411 0.11712
# Poissons Ratio (y) = -0.05905 0.14228
# Poissons Ratio (z) = 0.16404 0.18261
#
# Static dielectric constant tensor:
#      x y z
#    x 2.256680 0.000000 -0.135270 
#    y 0.000000 1.963870 0.000000 
#    z -0.135270 0.000000 2.001540 
# 
# From -- ./inp_files/187191.got.cif
#   From: 2010.05.17/outbox.cif.g08.bks.cpg/sg12_94_cif.got.tgz:187191.got - 2010.06.03 13:09:07.
