data_PCOD9189100
_publ_section_title
;
Structure prediction by ZEFSAII (Michael W. Deem and Ramdas Pophale) SiO2 
 PCOD9189100
Probable space group: C 2/M
;
_chemical_formula_sum "Si O2"
_cell_formula_units_Z 44
_cell_length_a 9.217138
_cell_length_b 23.333053
_cell_length_c 10.761939
_cell_angle_alpha 90.000000
_cell_angle_beta 68.757079
_cell_angle_gamma 90.000000
_cell_volume 2157.240799
_symmetry_space_group_name_H-M "C 2/M"
_symmetry_group_IT_number 12
_symmetry_cell_setting 'monoclinic'
loop_
_space_group_symop_operation_xyz
x,y,z
-x,y,-z
-x,-y,-z
x,-y,z
1/2+x,1/2+y,z
1/2-x,1/2+y,-z
1/2-x,1/2-y,-z
1/2+x,1/2-y,z
loop_
_atom_site_type_symbol
_atom_site_label
_atom_site_fract_x
_atom_site_fract_y
_atom_site_fract_z
Si Si1 0.657556 0.204695 0.191169
Si Si2 0.181425 0.435614 0.479492
Si Si3 0.000000 0.189513 0.500000
Si Si4 0.094752 0.137110 0.734286
Si Si5 0.178689 0.669967 0.664888
Si Si6 0.720805 0.334728 0.094652
O O1 0.799961 0.186262 0.235048
O O2 0.491008 0.195823 0.307113
O O3 0.665726 0.268900 0.136048
O O4 0.681764 0.165126 0.061377
O O5 0.224267 0.500000 0.504599
O O6 0.289009 0.414890 0.331502
O O7 0.199595 0.387774 0.579729
O O8 0.000000 0.434966 0.500000
O O9 0.028942 0.155779 0.619882
O O10 0.175571 0.211470 0.416356
O O11 0.938034 0.128849 0.862039
O O12 0.186570 0.653906 0.807715
#
# Coordination Sequence:
#
# PCOD9189100 Si02
#       6
#     8   8   4   8   8   8
#     4  11  20  35  61  80 113 165 189 216 274 335
#     4  10  20  38  62  82 104 145 195 237 291 349
#     4   8  20  34  49  76 116 136 176 236 275 318
#     4  10  19  37  56  84 113 146 189 234 281 330
#     4  10  19  37  56  84 113 146 189 234 281 330
#     4  10  22  36  54  86 119 149 193 228 266 339
#
# _framework density 20.396426000000002
#
# number of rings (size 3 to 8) (size 9 to 14) (size 15 to 20)
#    0.000    2.000    1.818    2.182    0.000    2.909 
#    0.000   54.545    0.000    6.545    0.000    0.000 
#    0.000    0.000    0.000    0.000    0.000    0.000 
#
# Total GULP energy -122606.255099 kJ/mol
# GULP energy per Si atom -5573.011595 kJ/mol
# Density = 2.035000 g / cm^3
# Si number density = 20.396426 Si / 1000 Ang^3
#
#
#
# Elastic Constant Matrix: (Units=GPa)
#
#
# Indices 1 2 3 4 5 6 
#
# 1 114.3638 11.9899 27.9097 0.0000 -20.3769 0.0000
# 2 11.9899 59.5094 19.5710 0.0000 -8.5961 0.0000
# 3 27.9097 19.5710 80.2178 0.0000 -14.1812 0.0000
# 4 0.0000 0.0000 0.0000 6.6778 0.0000 8.7626
# 5 -20.3769 -8.5961 -14.1812 0.0000 41.9338 0.0000
# 6 0.0000 0.0000 0.0000 8.7626 0.0000 -13.5160
#
#
#
# Elastic Compliance Matrix: (Units=1/GPa)
#
#
# Indices 1 2 3 4 5 6 
#
# 1 0.010161 -0.000596 -0.002700 0.000000 0.003902 0.000000
# 2 -0.000596 0.018531 -0.003928 0.000000 0.002181 0.000000
# 3 -0.002700 -0.003928 0.014879 0.000000 0.002915 0.000000
# 4 0.000000 0.000000 0.000000 0.080914 0.000000 0.052458
# 5 0.003902 0.002181 0.002915 0.000000 0.027176 0.000000
# 6 0.000000 0.000000 0.000000 0.052458 0.000000 -0.039977
#
#
# Mechanical properties :
#
#
# Convention : Reuss Voigt Hill
#
# Bulk Modulus (GPa) = 34.33708 41.44802 37.89255
# Shear Modulus (GPa) = 36.80808 19.99379 28.40094
#
# Velocity S-wave (km/s) = 4.25271 3.13431 3.73560
# Velocity P-wave (km/s) = 6.40199 5.78479 6.10120
#
# Compressibility (1/GPa) = 0.02912304
#
# Stress axis : x y z
#
# Youngs Moduli (GPa) = 98.41882 53.96364 67.20828
#
# Poissons Ratio (x) = 0.03214 0.18146
# Poissons Ratio (y) = 0.05861 0.26402
# Poissons Ratio (z) = 0.26573 0.21199
#
# Static dielectric constant tensor:
#      x y z
#    x 1.782490 0.000000 -0.029920 
#    y 0.000000 1.724370 0.000000 
#    z -0.029920 0.000000 1.778070 
# 
# From -- ./inp_files/121753.got.cif
#   From: 2010.05.17/outbox.cif.g08.bks.cpg/sg12_61_cif.got.tgz:121753.got - 2010.06.03 13:09:07.
