data_PCOD9189731
_publ_section_title
;
Structure prediction by ZEFSAII (Michael W. Deem and Ramdas Pophale) SiO2 
 PCOD9189731
Probable space group: C 2/M
;
_chemical_formula_sum "Si O2"
_cell_formula_units_Z 46
_cell_length_a 14.861636
_cell_length_b 14.650569
_cell_length_c 14.472204
_cell_angle_alpha 90.000000
_cell_angle_beta 138.778487
_cell_angle_gamma 90.000000
_cell_volume 2076.455844
_symmetry_space_group_name_H-M "C 2/M"
_symmetry_group_IT_number 12
_symmetry_cell_setting 'monoclinic'
loop_
_space_group_symop_operation_xyz
x,y,z
-x,y,-z
-x,-y,-z
x,-y,z
1/2+x,1/2+y,z
1/2-x,1/2+y,-z
1/2-x,1/2-y,-z
1/2+x,1/2-y,z
loop_
_atom_site_type_symbol
_atom_site_label
_atom_site_fract_x
_atom_site_fract_y
_atom_site_fract_z
Si Si1 0.574181 0.662726 0.934376
Si Si2 0.000000 0.000000 0.000000
Si Si3 0.860804 0.610409 0.240029
Si Si4 0.816034 0.899358 0.373061
Si Si5 0.004130 0.358435 0.155521
Si Si6 0.289827 0.400045 0.137288
Si Si7 0.500000 0.237442 0.500000
O O1 0.491116 0.579296 0.911877
O O2 0.488355 0.754098 0.871495
O O3 0.631306 0.663090 0.873234
O O4 0.714922 0.654037 0.100926
O O5 0.841780 0.500000 0.242563
O O6 0.954181 0.622429 0.221337
O O7 0.924116 0.669694 0.370819
O O8 0.654264 0.897429 0.262538
O O9 0.834305 0.892891 0.276400
O O10 0.893713 0.808556 0.466912
O O11 0.865029 0.000000 0.443432
O O12 0.873987 0.392588 0.995812
O O13 0.323906 0.500000 0.126108
#
# Coordination Sequence:
#
# PCOD9189731 Si02
#       7
#     8   2   8   8   8   8   4
#     4  11  22  39  63  96 134 162 200 256 323 385
#     4  12  24  36  64  98 140 166 200 250 322 388
#     4  11  23  44  65  92 134 170 210 266 318 375
#     4  11  24  41  65  90 127 166 219 269 314 379
#     4  11  22  37  67  96 124 159 208 262 326 389
#     4  10  19  38  61  94 125 159 196 257 327 383
#     4  12  26  42  62  86 120 182 228 262 316 368
#
# _framework density 22.153131999999999
#
# number of rings (size 3 to 8) (size 9 to 14) (size 15 to 20)
#    0.000    1.043    1.739    7.826    4.870    2.087 
#    0.000    0.000    0.000    0.000    0.000    0.000 
#    0.000    0.000    0.000    0.000    0.000    0.000 
#
# Total GULP energy -128166.053611 kJ/mol
# GULP energy per Si atom -5572.437114 kJ/mol
# Density = 2.210271 g / cm^3
# Si number density = 22.153132 Si / 1000 Ang^3
#
#
#
# Elastic Constant Matrix: (Units=GPa)
#
#
# Indices 1 2 3 4 5 6 
#
# 1 68.6245 8.9439 5.8884 0.0000 14.7949 0.0000
# 2 8.9439 150.2655 23.9613 0.0000 8.7689 0.0000
# 3 5.8884 23.9613 39.9200 0.0000 5.8376 0.0000
# 4 0.0000 0.0000 0.0000 -0.0822 0.0000 -9.1505
# 5 14.7949 8.7689 5.8376 0.0000 19.4538 0.0000
# 6 0.0000 0.0000 0.0000 -9.1505 0.0000 12.9401
#
#
#
# Elastic Compliance Matrix: (Units=1/GPa)
#
#
# Indices 1 2 3 4 5 6 
#
# 1 0.017451 -0.000190 -0.000556 0.000000 -0.013019 0.000000
# 2 -0.000190 0.007443 -0.004152 0.000000 -0.001964 0.000000
# 3 -0.000556 -0.004152 0.028541 0.000000 -0.006270 0.000000
# 4 0.000000 0.000000 0.000000 -0.152605 0.000000 -0.107913
# 5 -0.013019 -0.001964 -0.006270 0.000000 0.064072 0.000000
# 6 0.000000 0.000000 0.000000 -0.107913 0.000000 0.000970
#
#
# Mechanical properties :
#
#
# Convention : Reuss Voigt Hill
#
# Bulk Modulus (GPa) = 22.91550 37.37747 30.14648
# Shear Modulus (GPa) = -511.04643 21.13010 -244.95817
#
# Velocity S-wave (km/s) = -15.20490 3.09175 -10.52687
# Velocity P-wave (km/s) = 17.25935 5.44556 11.58083
#
# Compressibility (1/GPa) = 0.04363858
#
# Stress axis : x y z
#
# Youngs Moduli (GPa) = 57.30179 134.35533 35.03695
#
# Poissons Ratio (x) = 0.02557 0.01948
# Poissons Ratio (y) = 0.01090 0.14548
# Poissons Ratio (z) = 0.03186 0.55787
#
# Static dielectric constant tensor:
#      x y z
#    x 1.842010 0.000000 0.012960 
#    y 0.000000 1.889610 0.000000 
#    z 0.012960 0.000000 1.819460 
# 
# From -- ./inp_files/215035.got.cif
#   From: 2010.05.17/outbox.cif.g08.bks.cpg/sg12_108_cif.got.tgz:215035.got - 2010.06.03 13:09:07.
