data_PCOD9189368
_publ_section_title
;
Structure prediction by ZEFSAII (Michael W. Deem and Ramdas Pophale) SiO2 
 PCOD9189368
Probable space group: C 2/M
;
_chemical_formula_sum "Si O2"
_cell_formula_units_Z 48
_cell_length_a 25.694155
_cell_length_b 8.397567
_cell_length_c 12.799400
_cell_angle_alpha 90.000000
_cell_angle_beta 109.128629
_cell_angle_gamma 90.000000
_cell_volume 2609.219125
_symmetry_space_group_name_H-M "C 2/M"
_symmetry_group_IT_number 12
_symmetry_cell_setting 'monoclinic'
loop_
_space_group_symop_operation_xyz
x,y,z
-x,y,-z
-x,-y,-z
x,-y,z
1/2+x,1/2+y,z
1/2-x,1/2+y,-z
1/2-x,1/2-y,-z
1/2+x,1/2-y,z
loop_
_atom_site_type_symbol
_atom_site_label
_atom_site_fract_x
_atom_site_fract_y
_atom_site_fract_z
Si Si1 0.307773 0.688772 0.370748
Si Si2 0.003615 0.807466 0.379444
Si Si3 0.621683 0.813701 0.392428
Si Si4 0.687960 0.689048 0.246336
Si Si5 0.692309 0.692568 0.009623
Si Si6 0.384516 0.693924 0.226665
O O1 0.297952 0.500000 0.353921
O O2 0.341312 0.721687 0.498091
O O3 0.249279 0.774968 0.328552
O O4 0.345577 0.742057 0.297890
O O5 0.058538 0.735733 0.366837
O O6 0.000000 0.766903 0.500000
O O7 0.946990 0.754116 0.287582
O O8 0.007286 0.000000 0.375282
O O9 0.644464 0.771544 0.293488
O O10 0.628260 0.000000 0.416979
O O11 0.678347 0.500000 0.242099
O O12 0.685612 0.745864 0.124660
O O13 0.693109 0.500000 0.010590
O O14 0.750000 0.750000 0.000000
O O15 0.643792 0.745200 0.899621
O O16 0.385338 0.500000 0.228484
#
# Coordination Sequence:
#
# PCOD9189368 Si02
#       6
#     8   8   8   8   8   8
#     4  11  20  36  61  87 118 151 187 235 290 348
#     4  10  19  37  62  86 112 150 192 234 285 344
#     4  12  25  39  56  83 119 155 193 238 290 344
#     4  11  23  38  57  85 119 155 195 236 285 343
#     4  10  20  36  59  87 116 150 191 235 281 338
#     4   9  18  34  59  88 116 146 186 231 284 341
#
# _framework density 18.39631
#
# number of rings (size 3 to 8) (size 9 to 14) (size 15 to 20)
#    0.000    1.500    3.333    3.000    0.000    1.000 
#    0.000    1.667    0.000    5.000    0.000    0.000 
#    0.000    0.000    0.000    0.000    0.000    0.000 
#
# Total GULP energy -134106.017162 kJ/mol
# GULP energy per Si atom -5587.750715 kJ/mol
# Density = 1.835444 g / cm^3
# Si number density = 18.396310 Si / 1000 Ang^3
#
#
#
# Elastic Constant Matrix: (Units=GPa)
#
#
# Indices 1 2 3 4 5 6 
#
# 1 127.4868 2.8140 62.8432 0.0000 -4.7498 0.0000
# 2 2.8140 12.0557 -5.0358 0.0000 -0.6140 0.0000
# 3 62.8432 -5.0358 94.7274 0.0000 8.1648 0.0000
# 4 0.0000 0.0000 0.0000 10.0419 0.0000 -2.0231
# 5 -4.7498 -0.6140 8.1648 0.0000 33.4203 0.0000
# 6 0.0000 0.0000 0.0000 -2.0231 0.0000 30.2281
#
#
#
# Elastic Compliance Matrix: (Units=1/GPa)
#
#
# Indices 1 2 3 4 5 6 
#
# 1 0.012582 -0.006510 -0.009027 0.000000 0.003874 0.000000
# 2 -0.006510 0.088208 0.009141 0.000000 -0.001538 0.000000
# 3 -0.009027 0.009141 0.017496 0.000000 -0.005389 0.000000
# 4 0.000000 0.000000 0.000000 0.100943 0.000000 0.006756
# 5 0.003874 -0.001538 -0.005389 0.000000 0.031761 0.000000
# 6 0.000000 0.000000 0.000000 0.006756 0.000000 0.033534
#
#
# Mechanical properties :
#
#
# Convention : Reuss Voigt Hill
#
# Bulk Modulus (GPa) = 9.47935 39.50141 24.49038
# Shear Modulus (GPa) = 15.03851 26.31464 20.67657
#
# Velocity S-wave (km/s) = 2.86225 3.78621 3.35618
# Velocity P-wave (km/s) = 4.01090 6.37439 5.32542
#
# Compressibility (1/GPa) = 0.10549251
#
# Stress axis : x y z
#
# Youngs Moduli (GPa) = 79.48103 11.33687 57.15752
#
# Poissons Ratio (x) = 0.07380 0.51595
# Poissons Ratio (y) = 0.51743 -0.52246
# Poissons Ratio (z) = 0.71746 -0.10363
#
# Static dielectric constant tensor:
#      x y z
#    x 1.598040 0.000000 -0.000730 
#    y 0.000000 1.634610 0.000000 
#    z -0.000730 0.000000 1.632460 
# 
# From -- ./inp_files/172055.got.cif
#   From: 2010.05.17/outbox.cif.g08.bks.cpg/sg12_87_cif.got.tgz:172055.got - 2010.06.03 13:09:07.
