data_PCOD9189633
_publ_section_title
;
Structure prediction by ZEFSAII (Michael W. Deem and Ramdas Pophale) SiO2 
 PCOD9189633
Probable space group: C 2/M
;
_chemical_formula_sum "Si O2"
_cell_formula_units_Z 56
_cell_length_a 23.969583
_cell_length_b 15.256646
_cell_length_c 16.235711
_cell_angle_alpha 90.000000
_cell_angle_beta 29.950073
_cell_angle_gamma 90.000000
_cell_volume 2964.181053
_symmetry_space_group_name_H-M "C 2/M"
_symmetry_group_IT_number 12
_symmetry_cell_setting 'monoclinic'
loop_
_space_group_symop_operation_xyz
x,y,z
-x,y,-z
-x,-y,-z
x,-y,z
1/2+x,1/2+y,z
1/2-x,1/2+y,-z
1/2-x,1/2-y,-z
1/2+x,1/2-y,z
loop_
_atom_site_type_symbol
_atom_site_label
_atom_site_fract_x
_atom_site_fract_y
_atom_site_fract_z
Si Si1 0.861822 0.799821 0.825965
Si Si2 0.869985 0.758512 0.304221
Si Si3 0.734231 0.286248 0.327334
Si Si4 0.481947 0.904916 0.253409
Si Si5 0.555813 0.394100 0.670268
Si Si6 0.273747 0.902417 0.125780
Si Si7 0.461032 0.157647 0.461471
O O1 0.825655 0.867791 0.802751
O O2 0.936103 0.853758 0.796229
O O3 0.943730 0.728825 0.681422
O O4 0.750000 0.750000 0.000000
O O5 0.750000 0.750000 0.500000
O O6 0.835723 0.748674 0.253519
O O7 0.936333 0.677020 0.259711
O O8 0.919796 0.850159 0.272021
O O9 0.649286 0.349102 0.489525
O O10 0.786383 0.340593 0.187039
O O11 0.656435 0.209865 0.388621
O O12 0.455824 0.898043 0.383878
O O13 0.441127 0.000000 0.274379
O O14 0.614788 0.902096 0.071348
O O15 0.559683 0.500000 0.663003
O O16 0.252042 0.000000 0.183069
O O17 0.500000 0.118939 0.500000
#
# Coordination Sequence:
#
# PCOD9189633 Si02
#       7
#     8   8   8   8   8   8   8
#     4  11  19  35  58  82 118 156 193 235 295 356
#     4  10  19  38  58  81 117 153 201 236 293 348
#     4  10  21  36  56  87 118 155 193 235 293 353
#     4  11  23  39  59  86 118 154 199 242 289 348
#     4  10  20  34  58  89 117 152 199 248 291 350
#     4  11  22  35  56  90 123 152 189 241 302 356
#     4  11  20  37  60  85 111 150 199 241 284 343
#
# _framework density 18.892233000000001
#
# number of rings (size 3 to 8) (size 9 to 14) (size 15 to 20)
#    0.000    1.429    7.143    0.857    0.000    3.714 
#    0.000    3.571    0.000    0.000    0.000    5.000 
#    0.000    0.000    0.000    0.000    0.000    0.000 
#
# Total GULP energy -156019.496455 kJ/mol
# GULP energy per Si atom -5572.124873 kJ/mol
# Density = 1.884923 g / cm^3
# Si number density = 18.892233 Si / 1000 Ang^3
#
#
#
# Elastic Constant Matrix: (Units=GPa)
#
#
# Indices 1 2 3 4 5 6 
#
# 1 121.9054 29.0471 4.2116 0.0000 3.6124 0.0000
# 2 29.0471 71.7984 13.9165 0.0000 -4.4940 0.0000
# 3 4.2116 13.9165 14.2722 0.0000 4.7353 0.0000
# 4 0.0000 0.0000 0.0000 19.8988 0.0000 6.8830
# 5 3.6124 -4.4940 4.7353 0.0000 26.2831 0.0000
# 6 0.0000 0.0000 0.0000 6.8830 0.0000 2.1603
#
#
#
# Elastic Compliance Matrix: (Units=1/GPa)
#
#
# Indices 1 2 3 4 5 6 
#
# 1 0.009227 -0.004332 0.002305 0.000000 -0.002424 0.000000
# 2 -0.004332 0.020258 -0.021082 0.000000 0.007858 0.000000
# 3 0.002305 -0.021082 0.097045 0.000000 -0.021406 0.000000
# 4 0.000000 0.000000 0.000000 -0.492274 0.000000 1.568444
# 5 -0.002424 0.007858 -0.021406 0.000000 0.043581 0.000000
# 6 0.000000 0.000000 0.000000 1.568444 0.000000 -4.534357
#
#
# Mechanical properties :
#
#
# Convention : Reuss Voigt Hill
#
# Bulk Modulus (GPa) = 12.45129 33.59183 23.02156
# Shear Modulus (GPa) = -1.04525 20.38851 9.67163
#
# Velocity S-wave (km/s) = -0.74463 3.28868 2.26506
# Velocity P-wave (km/s) = 2.42192 5.67802 4.36495
#
# Compressibility (1/GPa) = 0.08031293
#
# Stress axis : x y z
#
# Youngs Moduli (GPa) = 108.37304 49.36218 10.30451
#
# Poissons Ratio (x) = 0.21382 -0.02375
# Poissons Ratio (y) = 0.46943 0.21724
# Poissons Ratio (z) = -0.24980 1.04067
#
# Static dielectric constant tensor:
#      x y z
#    x 1.638930 0.000000 0.023800 
#    y 0.000000 1.678840 0.000000 
#    z 0.023800 0.000000 1.656160 
# 
# From -- ./inp_files/240861.got.cif
#   From: 2010.05.17/outbox.cif.g08.bks.cpg/sg12_121_cif.got.tgz:240861.got - 2010.06.03 13:09:07.
