data_PCOD9189880
_publ_section_title
;
Structure prediction by ZEFSAII (Michael W. Deem and Ramdas Pophale) SiO2 
 PCOD9189880
Probable space group: C 2/M
;
_chemical_formula_sum "Si O2"
_cell_formula_units_Z 52
_cell_length_a 17.970396
_cell_length_b 21.214974
_cell_length_c 8.732977
_cell_angle_alpha 90.000000
_cell_angle_beta 45.156131
_cell_angle_gamma 90.000000
_cell_volume 2360.628811
_symmetry_space_group_name_H-M "C 2/M"
_symmetry_group_IT_number 12
_symmetry_cell_setting 'monoclinic'
loop_
_space_group_symop_operation_xyz
x,y,z
-x,y,-z
-x,-y,-z
x,-y,z
1/2+x,1/2+y,z
1/2-x,1/2+y,-z
1/2-x,1/2-y,-z
1/2+x,1/2-y,z
loop_
_atom_site_type_symbol
_atom_site_label
_atom_site_fract_x
_atom_site_fract_y
_atom_site_fract_z
Si Si1 0.187914 0.861563 0.028043
Si Si2 0.378913 0.000000 0.436742
Si Si3 0.095199 0.363621 0.473503
Si Si4 0.738378 0.500000 0.943300
Si Si5 0.974368 0.846348 0.190007
Si Si6 0.784155 0.863095 0.671413
Si Si7 0.320022 0.000000 0.159186
Si Si8 0.103707 0.289272 0.765462
O O1 0.294773 0.859205 0.775984
O O2 0.085639 0.830538 0.104072
O O3 0.204242 0.837087 0.174803
O O4 0.170742 0.937170 0.064430
O O5 0.425831 0.067519 0.418894
O O6 0.375508 0.000000 0.253977
O O7 0.281162 0.000000 0.704340
O O8 0.100963 0.313369 0.598095
O O9 0.000000 0.350438 0.500000
O O10 0.828609 0.500000 0.950941
O O11 0.895453 0.873069 0.428548
O O12 0.911695 0.785398 0.218308
O O13 0.000000 0.886139 0.000000
O O14 0.732556 0.931915 0.751017
O O15 0.707072 0.816110 0.693899
O O16 0.000000 0.315583 0.000000
#
# Coordination Sequence:
#
# PCOD9189880 Si02
#       8
#     8   4   8   4   8   8   4   8
#     4  10  22  42  67  95 132 167 210 266 325 385
#     4  10  19  38  65  94 138 167 215 263 334 385
#     4  11  22  40  66  96 130 169 213 264 326 390
#     4   8  20  36  64  99 138 163 215 262 325 394
#     4  11  25  42  63  93 129 172 217 268 319 380
#     4  11  22  43  67  94 131 167 214 266 322 390
#     4  10  20  38  67 100 127 174 210 266 329 398
#     4  11  24  43  62  91 127 168 221 268 318 381
#
# _framework density 22.028030000000001
#
# number of rings (size 3 to 8) (size 9 to 14) (size 15 to 20)
#    0.000    1.538    1.538    3.000    2.154    3.077 
#    0.000   10.769    0.000    0.000    0.000    0.000 
#    0.000    0.000    0.000    0.000    0.000    0.000 
#
# Total GULP energy -144875.037311 kJ/mol
# GULP energy per Si atom -5572.116820 kJ/mol
# Density = 2.197789 g / cm^3
# Si number density = 22.028030 Si / 1000 Ang^3
#
#
#
# Elastic Constant Matrix: (Units=GPa)
#
#
# Indices 1 2 3 4 5 6 
#
# 1 136.6364 2.7860 39.8713 0.0000 12.2275 0.0000
# 2 2.7860 28.9787 -6.2557 0.0000 0.0426 0.0000
# 3 39.8713 -6.2557 104.5098 0.0000 4.7638 0.0000
# 4 0.0000 0.0000 0.0000 10.9240 0.0000 8.7902
# 5 12.2275 0.0426 4.7638 0.0000 39.7349 0.0000
# 6 0.0000 0.0000 0.0000 8.7902 0.0000 14.6132
#
#
#
# Elastic Compliance Matrix: (Units=1/GPa)
#
#
# Indices 1 2 3 4 5 6 
#
# 1 0.008491 -0.001510 -0.003228 0.000000 -0.002224 0.000000
# 2 -0.001510 0.035232 0.002680 0.000000 0.000106 0.000000
# 3 -0.003228 0.002680 0.010975 0.000000 -0.000325 0.000000
# 4 0.000000 0.000000 0.000000 0.177416 0.000000 -0.106720
# 5 -0.002224 0.000106 -0.000325 0.000000 0.025890 0.000000
# 6 0.000000 0.000000 0.000000 -0.106720 0.000000 0.132626
#
#
# Mechanical properties :
#
#
# Convention : Reuss Voigt Hill
#
# Bulk Modulus (GPa) = 19.77005 38.10311 28.93658
# Shear Modulus (GPa) = 12.14754 28.63597 20.39175
#
# Velocity S-wave (km/s) = 2.35086 3.60943 3.04586
# Velocity P-wave (km/s) = 4.04514 5.89116 5.05317
#
# Compressibility (1/GPa) = 0.05058157
#
# Stress axis : x y z
#
# Youngs Moduli (GPa) = 117.77842 28.38354 91.11356
#
# Poissons Ratio (x) = 0.04286 0.29413
# Poissons Ratio (y) = 0.17783 -0.24419
# Poissons Ratio (z) = 0.38021 -0.07607
#
# Static dielectric constant tensor:
#      x y z
#    x 1.907530 0.000000 0.037580 
#    y 0.000000 1.817030 0.000000 
#    z 0.037580 0.000000 1.863540 
# 
# From -- ./inp_files/77975.got.cif
#   From: 2010.05.17/outbox.cif.g08.bks.cpg/sg12_39_cif.got.tgz:77975.got - 2010.06.03 13:09:07.
