data_PCOD9189283
_publ_section_title
;
Structure prediction by ZEFSAII (Michael W. Deem and Ramdas Pophale) SiO2 
 PCOD9189283
Probable space group: C 2/M
;
_chemical_formula_sum "Si O2"
_cell_formula_units_Z 64
_cell_length_a 23.801196
_cell_length_b 7.537796
_cell_length_c 16.470219
_cell_angle_alpha 90.000000
_cell_angle_beta 72.861252
_cell_angle_gamma 90.000000
_cell_volume 2823.682891
_symmetry_space_group_name_H-M "C 2/M"
_symmetry_group_IT_number 12
_symmetry_cell_setting 'monoclinic'
loop_
_space_group_symop_operation_xyz
x,y,z
-x,y,-z
-x,-y,-z
x,-y,z
1/2+x,1/2+y,z
1/2-x,1/2+y,-z
1/2-x,1/2-y,-z
1/2+x,1/2-y,z
loop_
_atom_site_type_symbol
_atom_site_label
_atom_site_fract_x
_atom_site_fract_y
_atom_site_fract_z
Si Si1 0.173550 0.785376 0.327952
Si Si2 0.104836 0.797591 0.067554
Si Si3 0.276030 0.787398 0.400987
Si Si4 0.340482 0.716272 0.115838
Si Si5 0.609889 0.206399 0.728719
Si Si6 0.544570 0.716749 0.412068
Si Si7 0.708559 0.205842 0.134103
Si Si8 0.521501 0.703765 0.240438
O O1 0.229976 0.720341 0.353438
O O2 0.112527 0.733921 0.396270
O O3 0.176176 0.721368 0.234569
O O4 0.175331 0.000000 0.324621
O O5 0.168412 0.798399 0.084366
O O6 0.060003 0.713823 0.151407
O O7 0.084680 0.000000 0.062570
O O8 0.115758 0.720894 0.973847
O O9 0.250000 0.750000 0.500000
O O10 0.341593 0.720609 0.354927
O O11 0.278999 0.000000 0.389932
O O12 0.339836 0.500000 0.116924
O O13 0.360644 0.777659 0.195385
O O14 0.274329 0.774968 0.121607
O O15 0.546810 0.296260 0.752725
O O16 0.598921 0.000000 0.715433
O O17 0.500000 0.779872 0.500000
O O18 0.541409 0.500000 0.413991
O O19 0.528576 0.778478 0.327947
O O20 0.712567 0.000000 0.108867
O O21 0.543339 0.500000 0.237782
#
# Coordination Sequence:
#
# PCOD9189283 Si02
#       8
#     8   8   8   8   8   8   8   8
#     4  10  19  37  61  84 114 151 190 234 283 342
#     4  10  21  39  61  85 115 153 196 238 287 349
#     4  10  23  39  60  87 116 154 193 237 287 341
#     4  10  22  39  60  86 115 152 197 240 285 345
#     4  11  24  41  59  83 118 154 192 241 294 345
#     4   9  18  33  58  88 111 141 191 238 279 333
#     4  11  21  34  57  90 121 149 185 237 294 342
#     4  10  21  38  61  84 112 153 195 241 289 342
#
# _framework density 22.665434999999999
#
# number of rings (size 3 to 8) (size 9 to 14) (size 15 to 20)
#    0.000    1.875    2.500    1.125    1.750    3.500 
#    0.000    2.500    0.000    0.750    0.000    0.000 
#    0.000    0.000    0.000    0.000    0.000    0.000 
#
# Total GULP energy -178846.237062 kJ/mol
# GULP energy per Si atom -5588.944908 kJ/mol
# Density = 2.261385 g / cm^3
# Si number density = 22.665435 Si / 1000 Ang^3
#
#
#
# Elastic Constant Matrix: (Units=GPa)
#
#
# Indices 1 2 3 4 5 6 
#
# 1 83.3895 -4.2181 15.1125 0.0000 -22.4971 0.0000
# 2 -4.2181 61.6149 -5.5412 0.0000 -6.4363 0.0000
# 3 15.1125 -5.5412 114.5787 0.0000 -28.9800 0.0000
# 4 0.0000 0.0000 0.0000 8.6795 0.0000 5.5894
# 5 -22.4971 -6.4363 -28.9800 0.0000 35.3524 0.0000
# 6 0.0000 0.0000 0.0000 5.5894 0.0000 11.4062
#
#
#
# Elastic Compliance Matrix: (Units=1/GPa)
#
#
# Indices 1 2 3 4 5 6 
#
# 1 0.014778 0.002176 0.000801 0.000000 0.010457 0.000000
# 2 0.002176 0.017225 0.002131 0.000000 0.006268 0.000000
# 3 0.000801 0.002131 0.011294 0.000000 0.010156 0.000000
# 4 0.000000 0.000000 0.000000 0.168337 0.000000 -0.082490
# 5 0.010457 0.006268 0.010156 0.000000 0.044407 0.000000
# 6 0.000000 0.000000 0.000000 -0.082490 0.000000 0.128095
#
#
# Mechanical properties :
#
#
# Convention : Reuss Voigt Hill
#
# Bulk Modulus (GPa) = 18.68685 30.03216 24.35951
# Shear Modulus (GPa) = 12.76302 28.03626 20.39964
#
# Velocity S-wave (km/s) = 2.37556 3.52086 3.00331
# Velocity P-wave (km/s) = 3.97327 5.45963 4.77465
#
# Compressibility (1/GPa) = 0.05351357
#
# Stress axis : x y z
#
# Youngs Moduli (GPa) = 67.66844 58.05429 88.54491
#
# Poissons Ratio (x) = -0.12633 -0.07092
# Poissons Ratio (y) = -0.14725 -0.18872
# Poissons Ratio (z) = -0.05420 -0.12374
#
# Static dielectric constant tensor:
#      x y z
#    x 1.812970 0.000000 -0.032280 
#    y 0.000000 1.815810 0.000000 
#    z -0.032280 0.000000 1.830780 
# 
# From -- ./inp_files/243832.got.cif
#   From: 2010.05.17/outbox.cif.g08.bks.cpg/sg12_122_cif.got.tgz:243832.got - 2010.06.03 13:09:07.
