data_PCOD9189393
_publ_section_title
;
Structure prediction by ZEFSAII (Michael W. Deem and Ramdas Pophale) SiO2 
 PCOD9189393
Probable space group: C 2/M
;
_chemical_formula_sum "Si O2"
_cell_formula_units_Z 58
_cell_length_a 28.296429
_cell_length_b 7.771001
_cell_length_c 24.997706
_cell_angle_alpha 90.000000
_cell_angle_beta 148.919740
_cell_angle_gamma 90.000000
_cell_volume 2837.650901
_symmetry_space_group_name_H-M "C 2/M"
_symmetry_group_IT_number 12
_symmetry_cell_setting 'monoclinic'
loop_
_space_group_symop_operation_xyz
x,y,z
-x,y,-z
-x,-y,-z
x,-y,z
1/2+x,1/2+y,z
1/2-x,1/2+y,-z
1/2-x,1/2-y,-z
1/2+x,1/2-y,z
loop_
_atom_site_type_symbol
_atom_site_label
_atom_site_fract_x
_atom_site_fract_y
_atom_site_fract_z
Si Si1 0.606570 0.696306 0.090194
Si Si2 0.997566 0.704201 0.693248
Si Si3 0.411263 0.210993 0.495820
Si Si4 0.120007 0.309519 0.985418
Si Si5 0.500000 0.500000 0.500000
Si Si6 0.297513 0.204083 0.101557
Si Si7 0.939877 0.803572 0.754042
Si Si8 0.193713 0.792153 0.283611
O O1 0.640433 0.500000 0.112699
O O2 0.657079 0.771170 0.190796
O O3 0.500000 0.685246 0.000000
O O4 0.612638 0.798792 0.041547
O O5 0.005813 0.500000 0.696114
O O6 0.100708 0.778662 0.796069
O O7 0.948952 0.758292 0.591463
O O8 0.948470 0.733199 0.702441
O O9 0.455617 0.344001 0.496381
O O10 0.301572 0.235400 0.391546
O O11 0.427260 0.000000 0.501590
O O12 0.102890 0.500000 0.947456
O O13 0.040023 0.201856 0.879395
O O14 0.223854 0.261998 0.073258
O O15 0.304392 0.000000 0.111438
O O16 0.250000 0.250000 0.000000
O O17 0.867328 0.724736 0.725951
O O18 0.911838 0.000000 0.719695
O O19 0.177575 0.000000 0.266443
#
# Coordination Sequence:
#
# PCOD9189393 Si02
#       8
#     8   8   8   8   2   8   8   8
#     4  10  19  37  62  87 122 165 217 264 316 386
#     4  10  23  42  65  94 130 171 212 271 336 387
#     4  10  24  49  73  98 137 173 218 279 328 387
#     4  12  24  37  54  89 129 172 214 259 329 387
#     4  12  26  48  76 106 126 172 238 266 340 388
#     4  11  22  38  60  88 122 166 215 263 322 385
#     4  11  21  37  66  96 129 171 217 265 323 392
#     4   9  20  41  67  94 127 173 214 265 334 391
#
# _framework density 20.439440999999999
#
# number of rings (size 3 to 8) (size 9 to 14) (size 15 to 20)
#    0.000    1.517    2.759    2.276    0.966    2.483 
#    6.207    4.138    0.000    0.000    0.000    0.000 
#    0.000    0.000    0.000    0.000    0.000    0.000 
#
# Total GULP energy -161500.109733 kJ/mol
# GULP energy per Si atom -5568.969301 kJ/mol
# Density = 2.039292 g / cm^3
# Si number density = 20.439441 Si / 1000 Ang^3
#
#
#
# Elastic Constant Matrix: (Units=GPa)
#
#
# Indices 1 2 3 4 5 6 
#
# 1 134.3803 25.1567 53.1157 0.0000 -8.9505 0.0000
# 2 25.1567 63.3420 11.6601 0.0000 -0.3383 0.0000
# 3 53.1157 11.6601 114.7296 0.0000 -13.9890 0.0000
# 4 0.0000 0.0000 0.0000 11.1178 0.0000 -5.4119
# 5 -8.9505 -0.3383 -13.9890 0.0000 13.9254 0.0000
# 6 0.0000 0.0000 0.0000 -5.4119 0.0000 43.6893
#
#
#
# Elastic Compliance Matrix: (Units=1/GPa)
#
#
# Indices 1 2 3 4 5 6 
#
# 1 0.009722 -0.003130 -0.003909 0.000000 0.002246 0.000000
# 2 -0.003130 0.017121 -0.000553 0.000000 -0.002152 0.000000
# 3 -0.003909 -0.000553 0.011708 0.000000 0.009236 0.000000
# 4 0.000000 0.000000 0.000000 0.095718 0.000000 0.011857
# 5 0.002246 -0.002152 0.009236 0.000000 0.082481 0.000000
# 6 0.000000 0.000000 0.000000 0.011857 0.000000 0.024358
#
#
# Mechanical properties :
#
#
# Convention : Reuss Voigt Hill
#
# Bulk Modulus (GPa) = 42.79578 54.70187 48.74882
# Shear Modulus (GPa) = 18.93363 28.58112 23.75737
#
# Velocity S-wave (km/s) = 3.04687 3.74348 3.41299
# Velocity P-wave (km/s) = 5.77591 6.74581 6.27961
#
# Compressibility (1/GPa) = 0.02336679
#
# Stress axis : x y z
#
# Youngs Moduli (GPa) = 102.85773 58.40895 85.40952
#
# Poissons Ratio (x) = 0.18280 0.33387
# Poissons Ratio (y) = 0.32191 0.04727
# Poissons Ratio (z) = 0.40208 0.03232
#
# Static dielectric constant tensor:
#      x y z
#    x 1.618740 0.000000 -0.007010 
#    y 0.000000 1.798520 0.000000 
#    z -0.007010 0.000000 1.710390 
# 
# From -- ./inp_files/351465.got.cif
#   From: 2010.05.17/outbox.cif.g08.bks.cpg/sg12_176_cif.got.tgz:351465.got - 2010.06.03 13:09:07.
