data_PCOD9189969
_publ_section_title
;
Structure prediction by ZEFSAII (Michael W. Deem and Ramdas Pophale) SiO2 
 PCOD9189969
Probable space group: C 2/M
;
_chemical_formula_sum "Si O2"
_cell_formula_units_Z 64
_cell_length_a 12.780468
_cell_length_b 28.367951
_cell_length_c 9.194955
_cell_angle_alpha 90.000000
_cell_angle_beta 91.529152
_cell_angle_gamma 90.000000
_cell_volume 3332.496052
_symmetry_space_group_name_H-M "C 2/M"
_symmetry_group_IT_number 12
_symmetry_cell_setting 'monoclinic'
loop_
_space_group_symop_operation_xyz
x,y,z
-x,y,-z
-x,-y,-z
x,-y,z
1/2+x,1/2+y,z
1/2-x,1/2+y,-z
1/2-x,1/2-y,-z
1/2+x,1/2-y,z
loop_
_atom_site_type_symbol
_atom_site_label
_atom_site_fract_x
_atom_site_fract_y
_atom_site_fract_z
Si Si1 0.796419 0.841596 0.681787
Si Si2 0.804439 0.146286 0.337062
Si Si3 0.209079 0.555866 0.711797
Si Si4 0.013589 0.816490 0.829875
Si Si5 0.388311 0.826944 0.852240
Si Si6 0.512113 0.071355 0.155253
Si Si7 0.604103 0.212684 0.822342
Si Si8 0.804880 0.450558 0.631304
O O1 0.806243 0.839956 0.506913
O O2 0.785387 0.897711 0.726307
O O3 0.695197 0.811778 0.732426
O O4 0.898042 0.817656 0.757378
O O5 0.915033 0.148853 0.261761
O O6 0.715968 0.175507 0.246060
O O7 0.763453 0.093217 0.325003
O O8 0.236077 0.500000 0.753140
O O9 0.181064 0.553409 0.540406
O O10 0.105031 0.573028 0.789574
O O11 0.080472 0.768128 0.818261
O O12 0.000000 0.827126 0.000000
O O13 0.425199 0.880499 0.878805
O O14 0.489947 0.807046 0.774295
O O15 0.376841 0.801872 0.007878
O O16 0.585058 0.050175 0.282239
O O17 0.500000 0.047246 0.000000
O O18 0.751022 0.500000 0.662498
#
# Coordination Sequence:
#
# PCOD9189969 Si02
#       8
#     8   8   8   8   8   8   8   8
#     4  11  24  44  63  92 127 155 204 262 303 352
#     4  10  24  41  64  91 124 157 200 258 306 347
#     4  10  20  37  60  86 120 163 200 239 303 370
#     4  12  26  43  66  86 117 165 211 250 303 367
#     4  10  19  39  60  90 122 161 202 235 293 373
#     4  11  18  30  54  89 127 154 190 245 296 349
#     4  11  22  41  65  87 120 166 203 242 297 373
#     4   9  20  37  58  84 120 162 200 239 298 370
#
# _framework density 19.204825
#
# number of rings (size 3 to 8) (size 9 to 14) (size 15 to 20)
#    0.000    1.500    3.750    1.875    1.750    5.000 
#    2.250    0.625    0.000    3.750    0.000    0.000 
#    0.000    0.000    0.000    0.000    0.000    0.000 
#
# Total GULP energy -178235.155922 kJ/mol
# GULP energy per Si atom -5569.848623 kJ/mol
# Density = 1.916111 g / cm^3
# Si number density = 19.204825 Si / 1000 Ang^3
#
#
#
# Elastic Constant Matrix: (Units=GPa)
#
#
# Indices 1 2 3 4 5 6 
#
# 1 104.7126 23.1565 48.0387 0.0000 -11.5833 0.0000
# 2 23.1565 68.6719 40.5475 0.0000 -2.3032 0.0000
# 3 48.0387 40.5475 59.8037 0.0000 -2.0971 0.0000
# 4 0.0000 0.0000 0.0000 32.6178 0.0000 -9.8127
# 5 -11.5833 -2.3032 -2.0971 0.0000 26.0416 0.0000
# 6 0.0000 0.0000 0.0000 -9.8127 0.0000 19.7674
#
#
#
# Elastic Compliance Matrix: (Units=1/GPa)
#
#
# Indices 1 2 3 4 5 6 
#
# 1 0.016655 0.003946 -0.015827 0.000000 0.006483 0.000000
# 2 0.003946 0.025236 -0.020198 0.000000 0.002361 0.000000
# 3 -0.015827 -0.020198 0.042941 0.000000 -0.005368 0.000000
# 4 0.000000 0.000000 0.000000 0.036040 0.000000 0.017891
# 5 0.006483 0.002361 -0.005368 0.000000 0.041060 0.000000
# 6 0.000000 0.000000 0.000000 0.017891 0.000000 0.059469
#
#
# Mechanical properties :
#
#
# Convention : Reuss Voigt Hill
#
# Bulk Modulus (GPa) = 48.36625 50.74151 49.55388
# Shear Modulus (GPa) = 17.09689 23.78172 20.43931
#
# Velocity S-wave (km/s) = 2.98692 3.52280 3.26587
# Velocity P-wave (km/s) = 6.09383 6.55937 6.33088
#
# Compressibility (1/GPa) = 0.02067557
#
# Stress axis : x y z
#
# Youngs Moduli (GPa) = 60.04083 39.62565 23.28786
#
# Poissons Ratio (x) = -0.15638 0.36858
# Poissons Ratio (y) = -0.23694 0.47036
# Poissons Ratio (z) = 0.95027 0.80034
#
# Static dielectric constant tensor:
#      x y z
#    x 1.643930 0.000000 0.001720 
#    y 0.000000 1.805000 0.000000 
#    z 0.001720 0.000000 1.674300 
# 
# From -- ./inp_files/54721.got.cif
#   From: 2010.05.17/outbox.cif.g08.bks.cpg/sg12_28_cif.got.tgz:54721.got - 2010.06.03 13:09:07.
