data_PCOD9189248
_publ_section_title
;
Structure prediction by ZEFSAII (Michael W. Deem and Ramdas Pophale) SiO2 
 PCOD9189248
Probable space group: C 2/M
;
_chemical_formula_sum "Si O2"
_cell_formula_units_Z 60
_cell_length_a 10.912352
_cell_length_b 23.112016
_cell_length_c 15.922484
_cell_angle_alpha 90.000000
_cell_angle_beta 47.330221
_cell_angle_gamma 90.000000
_cell_volume 2952.671680
_symmetry_space_group_name_H-M "C 2/M"
_symmetry_group_IT_number 12
_symmetry_cell_setting 'monoclinic'
loop_
_space_group_symop_operation_xyz
x,y,z
-x,y,-z
-x,-y,-z
x,-y,z
1/2+x,1/2+y,z
1/2-x,1/2+y,-z
1/2-x,1/2-y,-z
1/2+x,1/2-y,z
loop_
_atom_site_type_symbol
_atom_site_label
_atom_site_fract_x
_atom_site_fract_y
_atom_site_fract_z
Si Si1 0.170917 0.870527 0.112781
Si Si2 0.400992 0.566104 0.335880
Si Si3 0.891413 0.565061 0.667242
Si Si4 0.186177 0.893968 0.914047
Si Si5 0.401722 0.713426 0.162971
Si Si6 0.304672 0.152527 0.474973
Si Si7 0.500000 0.190629 0.000000
Si Si8 0.690291 0.738526 0.402614
O O1 0.074975 0.918786 0.210502
O O2 0.026475 0.822465 0.164420
O O3 0.227831 0.888313 0.992364
O O4 0.332328 0.845806 0.082841
O O5 0.397542 0.500000 0.365770
O O6 0.257695 0.573316 0.330440
O O7 0.349863 0.610436 0.432625
O O8 0.958909 0.500000 0.624295
O O9 0.811179 0.571840 0.796632
O O10 0.031553 0.613437 0.591297
O O11 0.162974 0.831473 0.878007
O O12 0.000000 0.920436 0.000000
O O13 0.249051 0.740668 0.284677
O O14 0.505259 0.765802 0.075840
O O15 0.295446 0.204392 0.546228
O O16 0.298762 0.186049 0.389355
O O17 0.500000 0.719849 0.500000
#
# Coordination Sequence:
#
# PCOD9189248 Si02
#       8
#     8   8   8   8   8   8   4   8
#     4  11  23  41  58  95 121 163 210 250 302 375
#     4  11  22  41  66  88 121 162 208 259 309 363
#     4  11  22  37  63  92 122 160 202 256 311 361
#     4  10  19  37  60  87 129 154 203 256 301 360
#     4  11  21  39  61  93 125 164 200 251 307 366
#     4  11  23  39  60  92 126 158 202 252 305 370
#     4  12  26  36  67  86 129 170 200 244 310 376
#     4  11  24  38  63  91 126 161 198 247 307 373
#
# _framework density 20.320578999999999
#
# number of rings (size 3 to 8) (size 9 to 14) (size 15 to 20)
#    0.000    1.067    6.000    2.800    3.733    1.867 
#    0.000    0.333    0.000    3.200    0.000    0.000 
#    0.000    0.000    0.000    0.000    0.000    0.000 
#
# Total GULP energy -167628.652003 kJ/mol
# GULP energy per Si atom -5587.621733 kJ/mol
# Density = 2.027433 g / cm^3
# Si number density = 20.320579 Si / 1000 Ang^3
#
#
#
# Elastic Constant Matrix: (Units=GPa)
#
#
# Indices 1 2 3 4 5 6 
#
# 1 15.2396 25.3094 -2.9170 0.0000 -6.4506 0.0000
# 2 25.3094 111.7167 28.0930 0.0000 -8.7580 0.0000
# 3 -2.9170 28.0930 91.1113 0.0000 2.2649 0.0000
# 4 0.0000 0.0000 0.0000 23.2684 0.0000 -7.8465
# 5 -6.4506 -8.7580 2.2649 0.0000 20.5673 0.0000
# 6 0.0000 0.0000 0.0000 -7.8465 0.0000 19.0930
#
#
#
# Elastic Compliance Matrix: (Units=1/GPa)
#
#
# Indices 1 2 3 4 5 6 
#
# 1 0.130257 -0.030709 0.012984 0.000000 0.026346 0.000000
# 2 -0.030709 0.017372 -0.006301 0.000000 -0.001540 0.000000
# 3 0.012984 -0.006301 0.013336 0.000000 -0.000080 0.000000
# 4 0.000000 0.000000 0.000000 0.049891 0.000000 0.020503
# 5 0.026346 -0.001540 -0.000080 0.000000 0.056237 0.000000
# 6 0.000000 0.000000 0.000000 0.020503 0.000000 0.060801
#
#
# Mechanical properties :
#
#
# Convention : Reuss Voigt Hill
#
# Bulk Modulus (GPa) = 8.85644 35.44873 22.15259
# Shear Modulus (GPa) = 12.08942 23.75789 17.92365
#
# Velocity S-wave (km/s) = 2.44177 3.42300 2.97315
# Velocity P-wave (km/s) = 3.50963 5.75371 4.76564
#
# Compressibility (1/GPa) = 0.11291215
#
# Stress axis : x y z
#
# Youngs Moduli (GPa) = 7.67714 57.56299 74.98378
#
# Poissons Ratio (x) = 1.76772 -0.97360
# Poissons Ratio (y) = 0.23576 0.47250
# Poissons Ratio (z) = -0.09968 0.36273
#
# Static dielectric constant tensor:
#      x y z
#    x 1.738930 0.000000 0.023480 
#    y 0.000000 1.717530 0.000000 
#    z 0.023480 0.000000 1.745060 
# 
# From -- ./inp_files/265253.got.cif
#   From: 2010.05.17/outbox.cif.g08.bks.cpg/sg12_133_cif.got.tgz:265253.got - 2010.06.03 13:09:07.
