data_PCOD9189158
_publ_section_title
;
Structure prediction by ZEFSAII (Michael W. Deem and Ramdas Pophale) SiO2 
 PCOD9189158
Probable space group: C 2/M
;
_chemical_formula_sum "Si O2"
_cell_formula_units_Z 64
_cell_length_a 27.848145
_cell_length_b 11.702068
_cell_length_c 19.589033
_cell_angle_alpha 90.000000
_cell_angle_beta 29.191188
_cell_angle_gamma 90.000000
_cell_volume 3113.488456
_symmetry_space_group_name_H-M "C 2/M"
_symmetry_group_IT_number 12
_symmetry_cell_setting 'monoclinic'
loop_
_space_group_symop_operation_xyz
x,y,z
-x,y,-z
-x,-y,-z
x,-y,z
1/2+x,1/2+y,z
1/2-x,1/2+y,-z
1/2-x,1/2-y,-z
1/2+x,1/2-y,z
loop_
_atom_site_type_symbol
_atom_site_label
_atom_site_fract_x
_atom_site_fract_y
_atom_site_fract_z
Si Si1 0.106253 0.367711 0.877133
Si Si2 0.919738 0.701531 0.654598
Si Si3 0.795423 0.127770 0.716036
Si Si4 0.615389 0.789305 0.720055
Si Si5 0.256494 0.369503 0.036560
Si Si6 0.205387 0.627098 0.475580
Si Si7 0.028399 0.871161 0.166184
Si Si8 0.925175 0.806364 0.435022
O O1 0.092071 0.500000 0.915757
O O2 0.189934 0.322360 0.823339
O O3 0.138361 0.361163 0.758850
O O4 0.000000 0.309803 0.000000
O O5 0.856123 0.793595 0.691359
O O6 0.838062 0.628965 0.795954
O O7 0.000000 0.652568 0.500000
O O8 0.982943 0.762923 0.635015
O O9 0.859615 0.119496 0.567217
O O10 0.782334 0.000000 0.760371
O O11 0.692970 0.685739 0.629096
O O12 0.639133 0.866074 0.625565
O O13 0.511415 0.727553 0.834593
O O14 0.260715 0.500000 0.998628
O O15 0.250000 0.250000 0.000000
O O16 0.358356 0.357851 0.952128
O O17 0.221179 0.500000 0.431822
O O18 0.146011 0.701158 0.495021
O O19 0.963540 0.858790 0.316531
O O20 0.014445 0.000000 0.156417
#
# Coordination Sequence:
#
# PCOD9189158 Si02
#       8
#     8   8   8   8   8   8   8   8
#     4  10  21  37  57  82 113 153 197 251 304 360
#     4  10  23  40  63  92 126 164 213 256 314 377
#     4  10  21  37  61  88 120 160 207 259 313 369
#     4  10  20  36  57  83 116 149 191 247 299 369
#     4  11  24  45  68  95 130 169 214 266 323 384
#     4  10  20  34  57  87 116 150 191 241 305 369
#     4  10  21  36  61  90 120 156 199 250 307 370
#     4  10  19  37  58  90 122 152 200 251 309 367
#
# _framework density 20.555721999999999
#
# number of rings (size 3 to 8) (size 9 to 14) (size 15 to 20)
#    0.000    1.875    2.500    1.125    1.750    4.000 
#    0.000    2.500    0.000    1.500    0.000    0.000 
#    0.000    0.000    0.000    0.000    0.000    0.000 
#
# Total GULP energy -178222.138475 kJ/mol
# GULP energy per Si atom -5569.441827 kJ/mol
# Density = 2.050894 g / cm^3
# Si number density = 20.555722 Si / 1000 Ang^3
#
#
#
# Elastic Constant Matrix: (Units=GPa)
#
#
# Indices 1 2 3 4 5 6 
#
# 1 89.1533 31.1901 9.9065 0.0002 -23.3085 -0.0001
# 2 31.1901 88.8959 25.3545 0.0000 -15.0655 0.0001
# 3 9.9065 25.3545 73.8205 0.0001 -21.1367 0.0000
# 4 0.0002 0.0000 0.0001 -172.3852 0.0000 135.4246
# 5 -23.3085 -15.0655 -21.1367 0.0000 37.3679 0.0000
# 6 -0.0001 0.0001 0.0000 135.4246 0.0000 -89.5182
#
#
#
# Elastic Compliance Matrix: (Units=1/GPa)
#
#
# Indices 1 2 3 4 5 6 
#
# 1 0.014735 -0.004272 0.001943 0.000000 0.008568 0.000000
# 2 -0.004272 0.014020 -0.004041 0.000000 0.000702 0.000000
# 3 0.001943 -0.004041 0.017367 0.000000 0.009406 0.000000
# 4 0.000000 0.000000 0.000000 0.030781 0.000000 0.046567
# 5 0.008568 0.000702 0.009406 0.000000 0.037709 0.000000
# 6 0.000000 0.000000 0.000000 0.046567 0.000000 0.059276
#
#
# Mechanical properties :
#
#
# Convention : Reuss Voigt Hill
#
# Bulk Modulus (GPa) = 29.95665 42.75246 36.35455
# Shear Modulus (GPa) = 25.28385 -32.54587 -3.63101
#
# Velocity S-wave (km/s) = 3.51096 -3.98339 -1.33051
# Velocity P-wave (km/s) = 5.57143 0.55948 3.91968
#
# Compressibility (1/GPa) = 0.03338157
#
# Stress axis : x y z
#
# Youngs Moduli (GPa) = 67.86373 71.32906 57.58133
#
# Poissons Ratio (x) = 0.30474 -0.11189
# Poissons Ratio (y) = 0.28993 0.23268
# Poissons Ratio (z) = -0.13187 0.28824
#
# Static dielectric constant tensor:
#      x y z
#    x 1.713090 0.000000 0.026840 
#    y 0.000000 1.773080 0.000000 
#    z 0.026840 0.000000 1.816930 
# 
# From -- ./inp_files/327818.got.cif
#   From: 2010.05.17/outbox.cif.g08.bks.cpg/sg12_164_cif.got.tgz:327818.got - 2010.06.03 13:09:07.
