data_PCOD9189068
_publ_section_title
;
Structure prediction by ZEFSAII (Michael W. Deem and Ramdas Pophale) SiO2 
 PCOD9189068
Probable space group: C 2/M
;
_chemical_formula_sum "Si O2"
_cell_formula_units_Z 48
_cell_length_a 16.508994
_cell_length_b 31.950764
_cell_length_c 17.236349
_cell_angle_alpha 90.000000
_cell_angle_beta 162.447050
_cell_angle_gamma 90.000000
_cell_volume 2741.951860
_symmetry_space_group_name_H-M "C 2/M"
_symmetry_group_IT_number 12
_symmetry_cell_setting 'monoclinic'
loop_
_space_group_symop_operation_xyz
x,y,z
-x,y,-z
-x,-y,-z
x,-y,z
1/2+x,1/2+y,z
1/2-x,1/2+y,-z
1/2-x,1/2-y,-z
1/2+x,1/2-y,z
loop_
_atom_site_type_symbol
_atom_site_label
_atom_site_fract_x
_atom_site_fract_y
_atom_site_fract_z
Si Si1 0.704633 0.453613 0.508024
Si Si2 0.346003 0.749004 0.997913
Si Si3 0.731678 0.364613 0.467031
Si Si4 0.900808 0.698346 0.496145
Si Si5 0.366610 0.843238 0.028080
Si Si6 0.893507 0.432603 0.986483
O O1 0.723577 0.500000 0.490986
O O2 0.746818 0.414803 0.488303
O O3 0.409577 0.447201 0.275266
O O4 0.919349 0.449166 0.773360
O O5 0.626795 0.725077 0.246901
O O6 0.250000 0.750000 0.000000
O O7 0.373592 0.797335 0.998307
O O8 0.124317 0.724944 0.745831
O O9 0.845317 0.343966 0.493394
O O10 0.423712 0.350588 0.197368
O O11 0.904641 0.346885 0.697272
O O12 0.000000 0.690585 0.500000
O O13 0.401108 0.882089 0.001613
O O14 0.000000 0.445528 0.000000
#
# Coordination Sequence:
#
# PCOD9189068 Si02
#       6
#     8   8   8   8   8   8
#     4  10  21  35  55  77  98 135 182 216 261 327
#     4  12  21  37  60  79 110 151 187 221 260 322
#     4  10  19  37  54  76 103 140 174 223 263 320
#     4  12  24  36  55  86 111 139 182 231 275 310
#     4  10  20  34  56  74 103 147 188 207 255 316
#     4  10  21  34  50  76 110 139 169 217 268 307
#
# _framework density 17.505776999999998
#
# number of rings (size 3 to 8) (size 9 to 14) (size 15 to 20)
#    0.000    1.333    3.333    3.000    0.000    3.333 
#    0.000    0.000    0.000    0.500    0.000    0.000 
#    0.000   10.667    0.000    0.000    0.000    1.667 
#
# Total GULP energy -134095.203618 kJ/mol
# GULP energy per Si atom -5587.300151 kJ/mol
# Density = 1.746593 g / cm^3
# Si number density = 17.505777 Si / 1000 Ang^3
#
#
#
# Elastic Constant Matrix: (Units=GPa)
#
#
# Indices 1 2 3 4 5 6 
#
# 1 81.9056 40.9238 6.1237 -0.1242 3.2096 -0.0881
# 2 40.9238 160.3192 16.8472 -0.1069 3.7313 -0.0749
# 3 6.1237 16.8472 75.8124 -0.5415 16.6512 -0.3787
# 4 -0.1242 -0.1069 -0.5415 149.0912 -0.3247 100.1911
# 5 3.2096 3.7313 16.6512 -0.3247 18.8556 -0.2278
# 6 -0.0881 -0.0749 -0.3787 100.1911 -0.2278 82.2434
#
#
#
# Elastic Compliance Matrix: (Units=1/GPa)
#
#
# Indices 1 2 3 4 5 6 
#
# 1 0.014047 -0.003549 0.000031 0.000004 -0.001716 0.000003
# 2 -0.003549 0.007283 -0.001424 -0.000002 0.000421 -0.000001
# 3 0.000031 -0.001424 0.016679 0.000023 -0.014452 0.000007
# 4 0.000004 -0.000002 0.000023 0.036988 0.000071 -0.045060
# 5 -0.001716 0.000421 -0.014452 0.000071 0.066007 0.000028
# 6 0.000003 -0.000001 0.000007 -0.045060 0.000028 0.067052
#
#
# Mechanical properties :
#
#
# Convention : Reuss Voigt Hill
#
# Bulk Modulus (GPa) = 35.55572 49.53627 42.54600
# Shear Modulus (GPa) = 21.99574 66.98088 44.48831
#
# Velocity S-wave (km/s) = 3.54854 6.19235 5.04665
# Velocity P-wave (km/s) = 6.09462 8.91546 7.63642
#
# Compressibility (1/GPa) = 0.02812487
#
# Stress axis : x y z
#
# Youngs Moduli (GPa) = 71.18741 137.29856 59.95632
#
# Poissons Ratio (x) = 0.48729 -0.00186
# Poissons Ratio (y) = 0.25265 0.08539
# Poissons Ratio (z) = -0.00220 0.19554
#
# Static dielectric constant tensor:
#      x y z
#    x 1.555470 -0.000010 0.004990 
#    y -0.000010 1.620030 -0.000010 
#    z 0.004990 -0.000010 1.584710 
# 
# From -- ./inp_files/219524.got.cif
#   From: 2010.05.17/outbox.cif.g08.bks.cpg/sg12_110_cif.got.tgz:219524.got - 2010.06.03 13:09:07.
