data_PCOD9189170
_publ_section_title
;
Structure prediction by ZEFSAII (Michael W. Deem and Ramdas Pophale) SiO2 
 PCOD9189170
Probable space group: C 2/M
;
_chemical_formula_sum "Si O2"
_cell_formula_units_Z 64
_cell_length_a 30.408273
_cell_length_b 17.520832
_cell_length_c 12.838660
_cell_angle_alpha 90.000000
_cell_angle_beta 148.545663
_cell_angle_gamma 90.000000
_cell_volume 3569.323893
_symmetry_space_group_name_H-M "C 2/M"
_symmetry_group_IT_number 12
_symmetry_cell_setting 'monoclinic'
loop_
_space_group_symop_operation_xyz
x,y,z
-x,y,-z
-x,-y,-z
x,-y,z
1/2+x,1/2+y,z
1/2-x,1/2+y,-z
1/2-x,1/2-y,-z
1/2+x,1/2-y,z
loop_
_atom_site_type_symbol
_atom_site_label
_atom_site_fract_x
_atom_site_fract_y
_atom_site_fract_z
Si Si1 0.943382 0.587714 0.781511
Si Si2 0.675433 0.216394 0.920494
Si Si3 0.166390 0.786879 0.130297
Si Si4 0.065913 0.806089 0.556964
Si Si5 0.757076 0.911118 0.594916
Si Si6 0.690875 0.671232 0.509427
Si Si7 0.978153 0.251994 0.760751
Si Si8 0.283427 0.590149 0.220920
O O1 0.954849 0.500000 0.766343
O O2 0.844288 0.597897 0.606779
O O3 0.969116 0.657060 0.758181
O O4 0.000000 0.595314 0.000000
O O5 0.597072 0.234175 0.688924
O O6 0.750000 0.250000 0.000000
O O7 0.668454 0.263993 0.013266
O O8 0.700156 0.131660 0.006779
O O9 0.199362 0.871466 0.218288
O O10 0.235845 0.733976 0.327060
O O11 0.072397 0.772616 0.982903
O O12 0.032932 0.774752 0.380851
O O13 0.140050 0.865481 0.680752
O O14 0.000000 0.846093 0.500000
O O15 0.795069 0.870144 0.570658
O O16 0.775461 0.000000 0.628197
O O17 0.599450 0.711158 0.336028
O O18 0.705186 0.613122 0.634772
O O19 0.283920 0.500000 0.207888
#
# Coordination Sequence:
#
# PCOD9189170 Si02
#       8
#     8   8   8   8   8   8   8   8
#     4  10  22  39  60  89 120 154 197 246 294 340
#     4   9  19  36  60  80 112 150 195 239 282 346
#     4  11  21  37  60  89 114 155 202 234 288 355
#     4  10  19  37  59  82 112 150 196 239 285 346
#     4  11  23  39  58  86 124 156 189 244 298 344
#     4  10  21  37  58  85 116 157 200 233 286 361
#     4  11  22  36  63  87 116 158 198 244 287 353
#     4   9  19  35  57  86 112 146 190 241 294 342
#
# _framework density 17.930567
#
# number of rings (size 3 to 8) (size 9 to 14) (size 15 to 20)
#    0.000    1.875    2.500    2.250    1.750    0.250 
#    0.000    9.375    0.000    0.750    0.000    0.000 
#    0.000    0.000    0.000    0.000    0.000    0.000 
#
# Total GULP energy -178398.538258 kJ/mol
# GULP energy per Si atom -5574.954321 kJ/mol
# Density = 1.788976 g / cm^3
# Si number density = 17.930567 Si / 1000 Ang^3
#
#
#
# Elastic Constant Matrix: (Units=GPa)
#
#
# Indices 1 2 3 4 5 6 
#
# 1 57.9184 38.6847 39.3730 0.0000 7.5231 0.0000
# 2 38.6847 90.7614 44.1811 0.0000 -2.2168 0.0000
# 3 39.3730 44.1811 84.0833 0.0000 23.0909 0.0000
# 4 0.0000 0.0000 0.0000 20.4024 0.0000 0.8500
# 5 7.5231 -2.2168 23.0909 0.0000 24.2248 0.0000
# 6 0.0000 0.0000 0.0000 0.8500 0.0000 11.1996
#
#
#
# Elastic Compliance Matrix: (Units=1/GPa)
#
#
# Indices 1 2 3 4 5 6 
#
# 1 0.028845 -0.007906 -0.009068 0.000000 -0.001038 0.000000
# 2 -0.007906 0.020014 -0.010825 0.000000 0.014605 0.000000
# 3 -0.009068 -0.010825 0.028887 0.000000 -0.025710 0.000000
# 4 0.000000 0.000000 0.000000 0.049169 0.000000 -0.003732
# 5 -0.001038 0.014605 -0.025710 0.000000 0.067445 0.000000
# 6 0.000000 0.000000 0.000000 -0.003732 0.000000 0.089572
#
#
# Mechanical properties :
#
#
# Convention : Reuss Voigt Hill
#
# Bulk Modulus (GPa) = 45.14872 53.02674 49.08773
# Shear Modulus (GPa) = 14.41283 18.53365 16.47324
#
# Velocity S-wave (km/s) = 2.83824 3.21851 3.03433
# Velocity P-wave (km/s) = 5.99793 6.59161 6.30176
#
# Compressibility (1/GPa) = 0.02214902
#
# Stress axis : x y z
#
# Youngs Moduli (GPa) = 34.66756 49.96618 34.61709
#
# Poissons Ratio (x) = 0.39502 0.31391
# Poissons Ratio (y) = 0.27407 0.37472
# Poissons Ratio (z) = 0.31437 0.54087
#
# Static dielectric constant tensor:
#      x y z
#    x 1.846080 0.000000 0.099990 
#    y 0.000000 1.600700 0.000000 
#    z 0.099990 0.000000 1.672780 
# 
# From -- ./inp_files/190064.got.cif
#   From: 2010.05.17/outbox.cif.g08.bks.cpg/sg12_96_cif.got.tgz:190064.got - 2010.06.03 13:09:07.
