data_PCOD9189392
_publ_section_title
;
Structure prediction by ZEFSAII (Michael W. Deem and Ramdas Pophale) SiO2 
 PCOD9189392
Probable space group: C 2/M
;
_chemical_formula_sum "Si O2"
_cell_formula_units_Z 44
_cell_length_a 29.216270
_cell_length_b 13.084430
_cell_length_c 5.783280
_cell_angle_alpha 90.000000
_cell_angle_beta 96.877979
_cell_angle_gamma 90.000000
_cell_volume 2194.911788
_symmetry_space_group_name_H-M "C 2/M"
_symmetry_group_IT_number 12
_symmetry_cell_setting 'monoclinic'
loop_
_space_group_symop_operation_xyz
x,y,z
-x,y,-z
-x,-y,-z
x,-y,z
1/2+x,1/2+y,z
1/2-x,1/2+y,-z
1/2-x,1/2-y,-z
1/2+x,1/2-y,z
loop_
_atom_site_type_symbol
_atom_site_label
_atom_site_fract_x
_atom_site_fract_y
_atom_site_fract_z
Si Si1 0.914113 0.279270 0.209922
Si Si2 0.000000 0.765267 0.000000
Si Si3 0.850948 0.812486 0.796792
Si Si4 0.155149 0.387157 0.532688
Si Si5 0.938905 0.885058 0.601744
Si Si6 0.250083 0.809816 0.248922
O O1 0.957224 0.301483 0.069538
O O2 0.889117 0.369818 0.330193
O O3 0.934713 0.196688 0.397433
O O4 0.873064 0.220958 0.051705
O O5 0.976256 0.840164 0.800393
O O6 0.847004 0.705671 0.651395
O O7 0.889093 0.880635 0.695908
O O8 0.800469 0.860724 0.782165
O O9 0.154519 0.500000 0.426667
O O10 0.202825 0.373540 0.704221
O O11 0.948592 0.000000 0.533077
O O12 0.250000 0.750000 0.500000
O O13 0.250000 0.750000 0.000000
#
# Coordination Sequence:
#
# PCOD9189392 Si02
#       6
#     8   4   8   8   8   8
#     4  10  20  37  57  83 116 155 194 250 300 362
#     4  10  21  36  59  82 116 152 193 240 311 360
#     4   9  20  37  58  82 124 157 193 244 304 354
#     4  10  21  37  60  87 116 159 206 246 295 359
#     4  10  21  36  58  87 117 152 194 242 302 371
#     4  10  19  37  62  87 121 162 203 248 304 353
#
# _framework density 20.046365000000002
#
# number of rings (size 3 to 8) (size 9 to 14) (size 15 to 20)
#    0.000    2.182    1.818    0.818    0.000    5.818 
#    0.000    0.455    0.000   14.182    0.000    0.000 
#    0.000    0.000    0.000    0.000    0.000    0.000 
#
# Total GULP energy -122524.367193 kJ/mol
# GULP energy per Si atom -5569.289418 kJ/mol
# Density = 2.000074 g / cm^3
# Si number density = 20.046365 Si / 1000 Ang^3
#
#
#
# Elastic Constant Matrix: (Units=GPa)
#
#
# Indices 1 2 3 4 5 6 
#
# 1 147.9056 20.3714 11.8728 0.0000 12.8142 0.0000
# 2 20.3714 75.4586 10.0781 0.0000 4.7718 0.0000
# 3 11.8728 10.0781 75.6527 0.0000 26.1755 0.0000
# 4 0.0000 0.0000 0.0000 2.7718 0.0000 4.4330
# 5 12.8142 4.7718 26.1755 0.0000 36.4107 0.0000
# 6 0.0000 0.0000 0.0000 4.4330 0.0000 5.4464
#
#
#
# Elastic Compliance Matrix: (Units=1/GPa)
#
#
# Indices 1 2 3 4 5 6 
#
# 1 0.007209 -0.001789 -0.000128 0.000000 -0.002211 0.000000
# 2 -0.001789 0.013947 -0.001548 0.000000 -0.000086 0.000000
# 3 -0.000128 -0.001548 0.017782 0.000000 -0.012535 0.000000
# 4 0.000000 0.000000 0.000000 -1.195683 0.000000 0.973200
# 5 -0.002211 -0.000086 -0.012535 0.000000 0.037265 0.000000
# 6 0.000000 0.000000 0.000000 0.973200 0.000000 -0.608509
#
#
# Mechanical properties :
#
#
# Convention : Reuss Voigt Hill
#
# Bulk Modulus (GPa) = 31.24199 42.62905 36.93552
# Shear Modulus (GPa) = -2.92331 26.03876 11.55773
#
# Velocity S-wave (km/s) = -1.20890 3.60797 2.40375
# Velocity P-wave (km/s) = 3.69731 6.21836 5.11557
#
# Compressibility (1/GPa) = 0.03200820
#
# Stress axis : x y z
#
# Youngs Moduli (GPa) = 138.70905 71.69757 56.23753
#
# Poissons Ratio (x) = 0.12829 0.00721
# Poissons Ratio (y) = 0.24820 0.08703
# Poissons Ratio (z) = 0.01778 0.11096
#
# Static dielectric constant tensor:
#      x y z
#    x 1.756710 0.000000 -0.053840 
#    y 0.000000 1.646210 0.000000 
#    z -0.053840 0.000000 1.758560 
# 
# From -- ./inp_files/30883.got.cif
#   From: 2010.05.17/outbox.cif.g08.bks.cpg/sg12_16_cif.got.tgz:30883.got - 2010.06.03 13:09:07.
