data_PCOD9189574
_publ_section_title
;
Structure prediction by ZEFSAII (Michael W. Deem and Ramdas Pophale) SiO2 
 PCOD9189574
Probable space group: C 2/M
;
_chemical_formula_sum "Si O2"
_cell_formula_units_Z 42
_cell_length_a 18.034767
_cell_length_b 14.640943
_cell_length_c 8.317390
_cell_angle_alpha 90.000000
_cell_angle_beta 126.163089
_cell_angle_gamma 90.000000
_cell_volume 1773.060103
_symmetry_space_group_name_H-M "C 2/M"
_symmetry_group_IT_number 12
_symmetry_cell_setting 'monoclinic'
loop_
_space_group_symop_operation_xyz
x,y,z
-x,y,-z
-x,-y,-z
x,-y,z
1/2+x,1/2+y,z
1/2-x,1/2+y,-z
1/2-x,1/2-y,-z
1/2+x,1/2-y,z
loop_
_atom_site_type_symbol
_atom_site_label
_atom_site_fract_x
_atom_site_fract_y
_atom_site_fract_z
Si Si1 0.299174 0.102708 0.124350
Si Si2 0.128134 0.289892 0.482777
Si Si3 0.500000 0.500000 0.000000
Si Si4 0.116999 0.139265 0.023320
Si Si5 0.712177 0.604592 0.481792
Si Si6 0.945865 0.340379 0.078706
O O1 0.342210 0.173008 0.306007
O O2 0.191469 0.127009 0.978263
O O3 0.359975 0.107830 0.043348
O O4 0.306691 0.000000 0.198921
O O5 0.189993 0.348461 0.434650
O O6 0.156001 0.183587 0.502663
O O7 0.023357 0.314206 0.309293
O O8 0.526593 0.579483 0.900403
O O9 0.164790 0.098652 0.244670
O O10 0.094634 0.243217 0.027368
O O11 0.716849 0.500000 0.549988
O O12 0.000000 0.384374 0.000000
#
# Coordination Sequence:
#
# PCOD9189574 Si02
#       6
#     8   8   2   8   8   8
#     4  11  25  45  68  93 132 179 223 272 327 394
#     4  10  21  39  65  95 130 173 221 267 324 392
#     4  12  16  32  72  96 124 148 226 256 320 388
#     4  11  20  38  66 101 128 166 212 271 328 387
#     4  10  19  37  67  96 131 171 220 268 326 391
#     4  12  24  40  66  98 134 172 217 274 334 387
#
# _framework density 23.687861000000002
#
# number of rings (size 3 to 8) (size 9 to 14) (size 15 to 20)
#    0.000    1.143    4.762    2.857    0.000    2.667 
#    0.000    0.000    2.095    1.143    0.000    0.000 
#    0.000    0.000    0.000    0.000    0.000    0.000 
#
# Total GULP energy -117129.390571 kJ/mol
# GULP energy per Si atom -5577.590027 kJ/mol
# Density = 2.363395 g / cm^3
# Si number density = 23.687861 Si / 1000 Ang^3
#
#
#
# Elastic Constant Matrix: (Units=GPa)
#
#
# Indices 1 2 3 4 5 6 
#
# 1 181.9499 29.4310 9.9847 0.0000 4.0267 0.0000
# 2 29.4310 157.4661 18.0976 0.0000 -3.3078 0.0000
# 3 9.9847 18.0976 22.2237 0.0000 3.9785 0.0000
# 4 0.0000 0.0000 0.0000 35.2245 0.0000 1.8253
# 5 4.0267 -3.3078 3.9785 0.0000 30.3828 0.0000
# 6 0.0000 0.0000 0.0000 1.8253 0.0000 35.9101
#
#
#
# Elastic Compliance Matrix: (Units=1/GPa)
#
#
# Indices 1 2 3 4 5 6 
#
# 1 0.005749 -0.000887 -0.001748 0.000000 -0.000630 0.000000
# 2 -0.000887 0.007215 -0.005774 0.000000 0.001659 0.000000
# 3 -0.001748 -0.005774 0.051769 0.000000 -0.007176 0.000000
# 4 0.000000 0.000000 0.000000 0.028464 0.000000 -0.001447
# 5 -0.000630 0.001659 -0.007176 0.000000 0.034117 0.000000
# 6 0.000000 0.000000 0.000000 -0.001447 0.000000 0.027921
#
#
# Mechanical properties :
#
#
# Convention : Reuss Voigt Hill
#
# Bulk Modulus (GPa) = 20.87017 52.96294 36.91655
# Shear Modulus (GPa) = 26.59225 40.57855 33.58540
#
# Velocity S-wave (km/s) = 3.35417 4.14339 3.76950
# Velocity P-wave (km/s) = 4.88162 6.73034 5.87911
#
# Compressibility (1/GPa) = 0.04791528
#
# Stress axis : x y z
#
# Youngs Moduli (GPa) = 173.93302 138.60457 19.31664
#
# Poissons Ratio (x) = 0.12293 0.03377
# Poissons Ratio (y) = 0.15426 0.11153
# Poissons Ratio (z) = 0.30406 0.80028
#
# Static dielectric constant tensor:
#      x y z
#    x 2.098170 0.000000 0.102410 
#    y 0.000000 1.868320 0.000000 
#    z 0.102410 0.000000 2.009870 
# 
# From -- ./inp_files/73542.got.cif
#   From: 2010.05.17/outbox.cif.g08.bks.cpg/sg12_37_cif.got.tgz:73542.got - 2010.06.03 13:09:07.
