data_PCOD9189000
_publ_section_title
;
Structure prediction by ZEFSAII (Michael W. Deem and Ramdas Pophale) SiO2 
 PCOD9189000
Probable space group: C 2/M
;
_chemical_formula_sum "Si O2"
_cell_formula_units_Z 44
_cell_length_a 10.779334
_cell_length_b 21.096463
_cell_length_c 8.816282
_cell_angle_alpha 90.000000
_cell_angle_beta 79.401844
_cell_angle_gamma 90.000000
_cell_volume 1970.673242
_symmetry_space_group_name_H-M "C 2/M"
_symmetry_group_IT_number 12
_symmetry_cell_setting 'monoclinic'
loop_
_space_group_symop_operation_xyz
x,y,z
-x,y,-z
-x,-y,-z
x,-y,z
1/2+x,1/2+y,z
1/2-x,1/2+y,-z
1/2-x,1/2-y,-z
1/2+x,1/2-y,z
loop_
_atom_site_type_symbol
_atom_site_label
_atom_site_fract_x
_atom_site_fract_y
_atom_site_fract_z
Si Si1 0.849904 0.428806 0.004680
Si Si2 0.500000 0.327800 0.500000
Si Si3 0.587881 0.763284 0.734935
Si Si4 0.826924 0.068116 0.661346
Si Si5 0.864976 0.377944 0.492863
Si Si6 0.685514 0.806048 0.183814
O O1 0.835295 0.500000 0.938631
O O2 0.768753 0.429356 0.176481
O O3 0.802915 0.368710 0.920228
O O4 0.000000 0.420604 0.000000
O O5 0.417824 0.283706 0.408991
O O6 0.579535 0.373148 0.372251
O O7 0.621612 0.831137 0.654768
O O8 0.444442 0.769625 0.825828
O O9 0.692730 0.738913 0.828459
O O10 0.743281 0.074064 0.527969
O O11 0.892748 0.000000 0.654173
O O12 0.834916 0.334061 0.642522
O O13 0.000000 0.408255 0.500000
#
# Coordination Sequence:
#
# PCOD9189000 Si02
#       6
#     8   4   8   8   8   8
#     4  10  23  45  66  91 134 177 218 271 325 380
#     4  12  21  42  68  92 131 174 212 264 330 386
#     4  11  21  38  68  95 133 169 213 269 327 389
#     4  11  24  41  64  94 128 170 217 265 322 382
#     4  10  19  36  64  94 125 164 213 266 320 377
#     4  11  21  39  66  98 130 172 212 266 330 391
#
# _framework density 22.327394000000002
#
# number of rings (size 3 to 8) (size 9 to 14) (size 15 to 20)
#    0.000    1.273    4.545    4.091    0.000    1.091 
#    0.000   10.909    0.000    2.182    0.000    0.000 
#    0.000    0.000    0.000    0.000    0.000    0.000 
#
# Total GULP energy -122980.493474 kJ/mol
# GULP energy per Si atom -5590.022431 kJ/mol
# Density = 2.227658 g / cm^3
# Si number density = 22.327394 Si / 1000 Ang^3
#
#
#
# Elastic Constant Matrix: (Units=GPa)
#
#
# Indices 1 2 3 4 5 6 
#
# 1 81.8898 30.0024 28.7118 0.0000 5.3983 0.0000
# 2 30.0024 116.6764 28.7889 0.0000 9.8183 0.0000
# 3 28.7118 28.7889 57.7909 0.0000 -13.1038 0.0000
# 4 0.0000 0.0000 0.0000 1461.9978 0.0000 337.2608
# 5 5.3983 9.8183 -13.1038 0.0000 29.0007 0.0000
# 6 0.0000 0.0000 0.0000 337.2608 0.0000 104.3094
#
#
#
# Elastic Compliance Matrix: (Units=1/GPa)
#
#
# Indices 1 2 3 4 5 6 
#
# 1 0.016275 -0.001453 -0.008843 0.000000 -0.006533 0.000000
# 2 -0.001453 0.010991 -0.006168 0.000000 -0.006237 0.000000
# 3 -0.008843 -0.006168 0.028541 0.000000 0.016630 0.000000
# 4 0.000000 0.000000 0.000000 0.002691 0.000000 -0.008702
# 5 -0.006533 -0.006237 0.016630 0.000000 0.045324 0.000000
# 6 0.000000 0.000000 0.000000 -0.008702 0.000000 0.037724
#
#
# Mechanical properties :
#
#
# Convention : Reuss Voigt Hill
#
# Bulk Modulus (GPa) = 43.70908 47.92925 45.81916
# Shear Modulus (GPa) = 27.45732 330.31851 178.88791
#
# Velocity S-wave (km/s) = 3.51060 12.17638 8.96071
# Velocity P-wave (km/s) = 6.00428 14.80537 11.29713
#
# Compressibility (1/GPa) = 0.02287854
#
# Stress axis : x y z
#
# Youngs Moduli (GPa) = 61.44281 90.98302 35.03783
#
# Poissons Ratio (x) = 0.13222 0.30985
# Poissons Ratio (y) = 0.08929 0.21610
# Poissons Ratio (z) = 0.54336 0.56114
#
# Static dielectric constant tensor:
#      x y z
#    x 1.838860 0.000000 -0.023730 
#    y 0.000000 1.834610 0.000000 
#    z -0.023730 0.000000 1.819000 
# 
# From -- ./inp_files/49280.got.cif
#   From: 2010.05.17/outbox.cif.g08.bks.cpg/sg12_25_cif.got.tgz:49280.got - 2010.06.03 13:09:07.
