data_PCOD9189408
_publ_section_title
;
Structure prediction by ZEFSAII (Michael W. Deem and Ramdas Pophale) SiO2 
 PCOD9189408
Probable space group: C 2/M
;
_chemical_formula_sum "Si O2"
_cell_formula_units_Z 64
_cell_length_a 11.968237
_cell_length_b 28.223105
_cell_length_c 14.092243
_cell_angle_alpha 90.000000
_cell_angle_beta 141.773106
_cell_angle_gamma 90.000000
_cell_volume 2945.434695
_symmetry_space_group_name_H-M "C 2/M"
_symmetry_group_IT_number 12
_symmetry_cell_setting 'monoclinic'
loop_
_space_group_symop_operation_xyz
x,y,z
-x,y,-z
-x,-y,-z
x,-y,z
1/2+x,1/2+y,z
1/2-x,1/2+y,-z
1/2-x,1/2-y,-z
1/2+x,1/2-y,z
loop_
_atom_site_type_symbol
_atom_site_label
_atom_site_fract_x
_atom_site_fract_y
_atom_site_fract_z
Si Si1 0.447729 0.157107 0.355533
Si Si2 0.200309 0.643956 0.173350
Si Si3 0.595116 0.282958 0.154007
Si Si4 0.804574 0.150696 0.045074
Si Si5 0.146576 0.553226 0.682728
Si Si6 0.586265 0.806366 0.271738
Si Si7 0.475961 0.553661 0.175365
Si Si8 0.595742 0.554386 0.661888
O O1 0.500000 0.153597 0.500000
O O2 0.283265 0.194650 0.247424
O O3 0.395813 0.102826 0.291889
O O4 0.603028 0.178882 0.391982
O O5 0.324031 0.662311 0.170214
O O6 0.220180 0.668479 0.287442
O O7 0.238351 0.588925 0.212338
O O8 0.000000 0.649925 0.000000
O O9 0.464520 0.325784 0.094102
O O10 0.596978 0.247558 0.244310
O O11 0.500000 0.257844 0.000000
O O12 0.831599 0.094242 0.055500
O O13 0.614562 0.172270 0.884702
O O14 0.141980 0.500000 0.725449
O O15 0.344193 0.559207 0.767077
O O16 0.000000 0.550941 0.500000
O O17 0.408595 0.500000 0.116789
O O18 0.519788 0.558688 0.317624
O O19 0.500000 0.567874 0.500000
O O20 0.649731 0.500000 0.689233
#
# Coordination Sequence:
#
# PCOD9189408 Si02
#       8
#     8   8   8   8   8   8   8   8
#     4  11  25  42  61  93 130 160 202 257 314 365
#     4   9  20  37  56  84 118 153 197 249 302 351
#     4  12  23  40  70  90 115 162 207 255 304 363
#     4  10  19  37  62  90 116 152 204 255 294 362
#     4   9  18  35  58  84 117 162 206 242 295 367
#     4  11  24  40  63  87 122 157 208 252 301 368
#     4   9  17  32  56  86 120 156 197 255 314 361
#     4   9  18  32  53  83 116 155 202 244 292 361
#
# _framework density 21.728541
#
# number of rings (size 3 to 8) (size 9 to 14) (size 15 to 20)
#    0.000    2.000    2.500    1.500    1.750    2.750 
#    0.000    5.000    0.000    2.250    0.000    0.000 
#    0.000    0.000    0.000    0.000    0.000    0.000 
#
# Total GULP energy -178410.121130 kJ/mol
# GULP energy per Si atom -5575.316285 kJ/mol
# Density = 2.167909 g / cm^3
# Si number density = 21.728541 Si / 1000 Ang^3
#
#
#
# Elastic Constant Matrix: (Units=GPa)
#
#
# Indices 1 2 3 4 5 6 
#
# 1 69.2746 25.4264 8.6752 0.0000 -22.8635 0.0000
# 2 25.4264 117.3699 15.7366 0.0000 -4.8225 0.0000
# 3 8.6752 15.7366 25.9405 0.0000 -13.7824 0.0000
# 4 0.0000 0.0000 0.0000 21.7319 0.0000 -6.2997
# 5 -22.8635 -4.8225 -13.7824 0.0000 28.2915 0.0000
# 6 0.0000 0.0000 0.0000 -6.2997 0.0000 25.7166
#
#
#
# Elastic Compliance Matrix: (Units=1/GPa)
#
#
# Indices 1 2 3 4 5 6 
#
# 1 0.022005 -0.004770 0.006140 0.000000 0.019962 0.000000
# 2 -0.004770 0.010360 -0.007825 0.000000 -0.005901 0.000000
# 3 0.006140 -0.007825 0.058247 0.000000 0.032004 0.000000
# 4 0.000000 0.000000 0.000000 0.049533 0.000000 0.012134
# 5 0.019962 -0.005901 0.032004 0.000000 0.066063 0.000000
# 6 0.000000 0.000000 0.000000 0.012134 0.000000 0.041858
#
#
# Mechanical properties :
#
#
# Convention : Reuss Voigt Hill
#
# Bulk Modulus (GPa) = 12.86945 34.69571 23.78258
# Shear Modulus (GPa) = 17.42909 25.99779 21.71344
#
# Velocity S-wave (km/s) = 2.83526 3.46277 3.16461
# Velocity P-wave (km/s) = 4.08093 5.65599 4.93174
#
# Compressibility (1/GPa) = 0.07770340
#
# Stress axis : x y z
#
# Youngs Moduli (GPa) = 45.44351 96.52386 17.16820
#
# Poissons Ratio (x) = 0.46044 -0.10542
# Poissons Ratio (y) = 0.21678 0.13434
# Poissons Ratio (z) = -0.27904 0.75528
#
# Static dielectric constant tensor:
#      x y z
#    x 1.840760 0.000000 -0.097490 
#    y 0.000000 1.809900 0.000000 
#    z -0.097490 0.000000 1.850910 
# 
# From -- ./inp_files/209408.got.cif
#   From: 2010.05.17/outbox.cif.g08.bks.cpg/sg12_105_cif.got.tgz:209408.got - 2010.06.03 13:09:07.
