data_PCOD9189955
_publ_section_title
;
Structure prediction by ZEFSAII (Michael W. Deem and Ramdas Pophale) SiO2 
 PCOD9189955
Probable space group: C 2/M
;
_chemical_formula_sum "Si O2"
_cell_formula_units_Z 50
_cell_length_a 11.958579
_cell_length_b 25.943130
_cell_length_c 9.229777
_cell_angle_alpha 90.000000
_cell_angle_beta 60.063525
_cell_angle_gamma 90.000000
_cell_volume 2481.426601
_symmetry_space_group_name_H-M "C 2/M"
_symmetry_group_IT_number 12
_symmetry_cell_setting 'monoclinic'
loop_
_space_group_symop_operation_xyz
x,y,z
-x,y,-z
-x,-y,-z
x,-y,z
1/2+x,1/2+y,z
1/2-x,1/2+y,-z
1/2-x,1/2-y,-z
1/2+x,1/2-y,z
loop_
_atom_site_type_symbol
_atom_site_label
_atom_site_fract_x
_atom_site_fract_y
_atom_site_fract_z
Si Si1 0.461588 0.106336 0.181583
Si Si2 0.910790 0.058771 0.203830
Si Si3 0.784131 0.628526 0.822698
Si Si4 0.739641 0.679963 0.359798
Si Si5 0.144620 0.213160 0.737226
Si Si6 0.920963 0.853316 0.803217
Si Si7 0.500000 0.000000 0.000000
O O1 0.568957 0.120575 0.230335
O O2 0.324982 0.128746 0.317385
O O3 0.465292 0.045999 0.140804
O O4 0.500000 0.130902 0.000000
O O5 0.776789 0.083995 0.239086
O O6 0.982824 0.097696 0.266228
O O7 0.900191 0.000000 0.259821
O O8 0.000000 0.059411 0.000000
O O9 0.745142 0.681654 0.770942
O O10 0.702454 0.628310 0.024863
O O11 0.834351 0.726716 0.252026
O O12 0.680342 0.698332 0.548912
O O13 0.630557 0.669551 0.311852
O O14 0.001210 0.189646 0.840630
#
# Coordination Sequence:
#
# PCOD9189955 Si02
#       7
#     8   8   8   8   8   8   2
#     4  10  21  38  62  93 117 158 203 247 306 361
#     4   8  16  30  56  86 110 145 188 239 296 341
#     4  10  20  37  60  90 119 149 197 260 296 363
#     4  11  23  40  58  86 122 164 199 243 301 377
#     4  10  24  38  60  85 122 163 195 247 309 355
#     4  10  19  39  58  86 117 152 203 251 296 358
#     4   8  20  40  60  94 120 156 200 254 306 350
#
# _framework density 20.149699999999999
#
# number of rings (size 3 to 8) (size 9 to 14) (size 15 to 20)
#    0.480    1.760    1.600    1.920    3.360    2.560 
#    7.200    0.000    7.040    4.800    0.000    0.000 
#    0.000    0.000    0.000    0.000    0.000    0.000 
#
# Total GULP energy -139168.080884 kJ/mol
# GULP energy per Si atom -5566.723235 kJ/mol
# Density = 2.010384 g / cm^3
# Si number density = 20.149700 Si / 1000 Ang^3
#
#
#
# Elastic Constant Matrix: (Units=GPa)
#
#
# Indices 1 2 3 4 5 6 
#
# 1 125.6471 42.0536 20.0030 0.0000 18.8112 0.0000
# 2 42.0536 96.9395 11.7951 0.0000 12.4438 0.0000
# 3 20.0030 11.7951 30.0307 0.0000 15.5806 0.0000
# 4 0.0000 0.0000 0.0000 25.7789 0.0000 2.2751
# 5 18.8112 12.4438 15.5806 0.0000 24.3088 0.0000
# 6 0.0000 0.0000 0.0000 2.2751 0.0000 12.0509
#
#
#
# Elastic Compliance Matrix: (Units=1/GPa)
#
#
# Indices 1 2 3 4 5 6 
#
# 1 0.010277 -0.003536 -0.003400 0.000000 -0.003963 0.000000
# 2 -0.003536 0.012347 -0.000951 0.000000 -0.002975 0.000000
# 3 -0.003400 -0.000951 0.051418 0.000000 -0.029838 0.000000
# 4 0.000000 0.000000 0.000000 0.039449 0.000000 -0.007447
# 5 -0.003963 -0.002975 -0.029838 0.000000 0.064852 0.000000
# 6 0.000000 0.000000 0.000000 -0.007447 0.000000 0.084387
#
#
# Mechanical properties :
#
#
# Convention : Reuss Voigt Hill
#
# Bulk Modulus (GPa) = 17.16196 44.48008 30.82102
# Shear Modulus (GPa) = 16.78262 24.34543 20.56403
#
# Velocity S-wave (km/s) = 2.88913 3.47973 3.19809
# Velocity P-wave (km/s) = 4.43454 6.18607 5.38203
#
# Compressibility (1/GPa) = 0.05826841
#
# Stress axis : x y z
#
# Youngs Moduli (GPa) = 97.30562 80.99024 19.44829
#
# Poissons Ratio (x) = 0.28636 0.06613
# Poissons Ratio (y) = 0.34405 0.01849
# Poissons Ratio (z) = 0.33087 0.07702
#
# Static dielectric constant tensor:
#      x y z
#    x 1.721310 0.000000 -0.030520 
#    y 0.000000 1.700100 0.000000 
#    z -0.030520 0.000000 1.780710 
# 
# From -- ./inp_files/52519.got.cif
#   From: 2010.05.17/outbox.cif.g08.bks.cpg/sg12_27_cif.got.tgz:52519.got - 2010.06.03 13:09:07.
