data_PCOD9189059
_publ_section_title
;
Structure prediction by ZEFSAII (Michael W. Deem and Ramdas Pophale) SiO2 
 PCOD9189059
Probable space group: C 2/M
;
_chemical_formula_sum "Si O2"
_cell_formula_units_Z 56
_cell_length_a 10.888596
_cell_length_b 29.072011
_cell_length_c 10.877459
_cell_angle_alpha 90.000000
_cell_angle_beta 121.506839
_cell_angle_gamma 90.000000
_cell_volume 2935.678075
_symmetry_space_group_name_H-M "C 2/M"
_symmetry_group_IT_number 12
_symmetry_cell_setting 'monoclinic'
loop_
_space_group_symop_operation_xyz
x,y,z
-x,y,-z
-x,-y,-z
x,-y,z
1/2+x,1/2+y,z
1/2-x,1/2+y,-z
1/2-x,1/2-y,-z
1/2+x,1/2-y,z
loop_
_atom_site_type_symbol
_atom_site_label
_atom_site_fract_x
_atom_site_fract_y
_atom_site_fract_z
Si Si1 0.796159 0.733472 0.657945
Si Si2 0.911564 0.448053 0.750113
Si Si3 0.827310 0.323814 0.300205
Si Si4 0.083462 0.766551 0.911885
Si Si5 0.870431 0.864398 0.017446
Si Si6 0.154734 0.355900 0.426018
Si Si7 0.284790 0.948604 0.958046
O O1 0.750000 0.750000 0.500000
O O2 0.711030 0.769521 0.700827
O O3 0.774387 0.678425 0.638346
O O4 0.966335 0.741089 0.768024
O O5 0.890706 0.500000 0.689509
O O6 0.860277 0.407291 0.634228
O O7 0.078619 0.443177 0.878439
O O8 0.834618 0.445747 0.842770
O O9 0.744969 0.343493 0.139172
O O10 0.778216 0.348803 0.402507
O O11 0.993246 0.336504 0.365385
O O12 0.250000 0.750000 0.000000
O O13 0.085016 0.820281 0.879650
O O14 0.000000 0.763162 0.000000
O O15 0.816398 0.906475 0.066774
O O16 0.000000 0.879925 0.000000
O O17 0.225749 0.000000 0.947047
#
# Coordination Sequence:
#
# PCOD9189059 Si02
#       7
#     8   8   8   8   8   8   8
#     4  10  21  37  56  81 118 161 199 236 292 356
#     4   9  18  36  58  85 113 143 190 248 291 345
#     4  10  19  37  52  84 116 152 189 245 287 352
#     4  11  23  37  56  85 117 155 197 245 289 347
#     4  11  20  36  57  79 118 148 185 240 292 337
#     4  10  20  34  61  79 114 157 191 234 304 349
#     4   9  19  35  57  83 112 146 190 238 292 350
#
# _framework density 19.075661
#
# number of rings (size 3 to 8) (size 9 to 14) (size 15 to 20)
#    0.000    2.000    4.286    1.714    0.000    1.429 
#    0.000    2.143    0.000    0.857    0.000    2.000 
#    0.000    0.000    0.000    0.000    0.000    0.000 
#
# Total GULP energy -155953.286835 kJ/mol
# GULP energy per Si atom -5569.760244 kJ/mol
# Density = 1.903224 g / cm^3
# Si number density = 19.075661 Si / 1000 Ang^3
#
#
#
# Elastic Constant Matrix: (Units=GPa)
#
#
# Indices 1 2 3 4 5 6 
#
# 1 47.5669 24.4642 -24.3797 0.0000 1.7379 0.0000
# 2 24.4642 154.1592 16.4487 0.0000 -20.9247 0.0000
# 3 -24.3797 16.4487 33.3515 0.0000 -4.0077 0.0000
# 4 0.0000 0.0000 0.0000 29.3964 0.0000 -4.1667
# 5 1.7379 -20.9247 -4.0077 0.0000 15.9554 0.0000
# 6 0.0000 0.0000 0.0000 -4.1667 0.0000 32.0795
#
#
#
# Elastic Compliance Matrix: (Units=1/GPa)
#
#
# Indices 1 2 3 4 5 6 
#
# 1 0.050851 -0.014500 0.042660 0.000000 -0.013839 0.000000
# 2 -0.014500 0.012275 -0.014981 0.000000 0.013914 0.000000
# 3 0.042660 -0.014981 0.067680 0.000000 -0.007294 0.000000
# 4 0.000000 0.000000 0.000000 0.034656 0.000000 0.004501
# 5 -0.013839 0.013914 -0.007294 0.000000 0.080598 0.000000
# 6 0.000000 0.000000 0.000000 0.004501 0.000000 0.031757
#
#
# Mechanical properties :
#
#
# Convention : Reuss Voigt Hill
#
# Bulk Modulus (GPa) = 6.36284 29.79379 18.07832
# Shear Modulus (GPa) = 16.45563 30.05588 23.25576
#
# Velocity S-wave (km/s) = 2.94028 3.97371 3.49540
# Velocity P-wave (km/s) = 3.85614 6.05858 5.07820
#
# Compressibility (1/GPa) = 0.15716245
#
# Stress axis : x y z
#
# Youngs Moduli (GPa) = 19.66542 81.46616 14.77545
#
# Poissons Ratio (x) = 1.18126 -0.63032
# Poissons Ratio (y) = 0.28515 0.22136
# Poissons Ratio (z) = -0.83892 1.22047
#
# Static dielectric constant tensor:
#      x y z
#    x 1.715570 0.000000 -0.002470 
#    y 0.000000 1.683330 0.000000 
#    z -0.002470 0.000000 2.159560 
# 
# From -- ./inp_files/136738.got.cif
#   From: 2010.05.17/outbox.cif.g08.bks.cpg/sg12_69_cif.got.tgz:136738.got - 2010.06.03 13:09:07.
