data_PCOD9189378
_publ_section_title
;
Structure prediction by ZEFSAII (Michael W. Deem and Ramdas Pophale) SiO2 
 PCOD9189378
Probable space group: C 2/M
;
_chemical_formula_sum "Si O2"
_cell_formula_units_Z 58
_cell_length_a 9.104081
_cell_length_b 29.749313
_cell_length_c 11.031533
_cell_angle_alpha 90.000000
_cell_angle_beta 91.030640
_cell_angle_gamma 90.000000
_cell_volume 2987.298745
_symmetry_space_group_name_H-M "C 2/M"
_symmetry_group_IT_number 12
_symmetry_cell_setting 'monoclinic'
loop_
_space_group_symop_operation_xyz
x,y,z
-x,y,-z
-x,-y,-z
x,-y,z
1/2+x,1/2+y,z
1/2-x,1/2+y,-z
1/2-x,1/2-y,-z
1/2+x,1/2-y,z
loop_
_atom_site_type_symbol
_atom_site_label
_atom_site_fract_x
_atom_site_fract_y
_atom_site_fract_z
Si Si1 0.675643 0.360277 0.997514
Si Si2 0.720880 0.345518 0.270464
Si Si3 0.568348 0.672825 0.632469
Si Si4 0.424201 0.924675 0.296119
Si Si5 0.334014 0.050355 0.036253
Si Si6 0.437048 0.778543 0.362919
Si Si7 0.350402 0.152637 0.757967
Si Si8 0.000000 0.500000 0.500000
O O1 0.762534 0.340869 0.882576
O O2 0.500000 0.352142 0.000000
O O3 0.747815 0.344215 0.126212
O O4 0.715016 0.413373 0.993585
O O5 0.547807 0.350558 0.281368
O O6 0.807451 0.386476 0.333511
O O7 0.777901 0.301082 0.339794
O O8 0.500000 0.667327 0.500000
O O9 0.573987 0.725840 0.661310
O O10 0.727522 0.652576 0.652071
O O11 0.345836 0.948360 0.181512
O O12 0.559063 0.893707 0.249601
O O13 0.470182 0.960278 0.396436
O O14 0.305124 0.000000 0.990987
O O15 0.500000 0.063257 0.000000
O O16 0.500000 0.784793 0.500000
O O17 0.540654 0.806416 0.272878
#
# Coordination Sequence:
#
# PCOD9189378 Si02
#       8
#     8   8   8   8   8   8   8   2
#     4  11  22  40  59  88 125 160 201 251 307 368
#     4  10  22  38  61  89 121 162 201 243 309 354
#     4  11  22  38  61  88 122 158 205 252 299 365
#     4  10  23  37  61  89 120 157 195 247 297 356
#     4  10  19  37  62  87 110 149 205 249 292 351
#     4  10  22  39  61  89 119 158 210 258 290 352
#     4  11  22  39  62  88 122 163 202 243 312 354
#     4  12  24  40  62  94 128 148 204 252 296 352
#
# _framework density 19.415534000000001
#
# number of rings (size 3 to 8) (size 9 to 14) (size 15 to 20)
#    0.000    1.517    3.448    1.655    5.793    2.483 
#    0.000    4.138    0.000    1.655    0.000    0.000 
#    0.000    0.000    0.000    0.000    0.000    0.000 
#
# Total GULP energy -161514.570598 kJ/mol
# GULP energy per Si atom -5569.467952 kJ/mol
# Density = 1.937134 g / cm^3
# Si number density = 19.415534 Si / 1000 Ang^3
#
#
#
# Elastic Constant Matrix: (Units=GPa)
#
#
# Indices 1 2 3 4 5 6 
#
# 1 64.4337 11.5911 -4.2129 0.0000 0.8529 0.0000
# 2 11.5911 62.5069 24.7050 0.0000 2.7434 0.0000
# 3 -4.2129 24.7050 68.1596 0.0000 -2.5246 0.0000
# 4 0.0000 0.0000 0.0000 12.6646 0.0000 2.1114
# 5 0.8529 2.7434 -2.5246 0.0000 25.3453 0.0000
# 6 0.0000 0.0000 0.0000 2.1114 0.0000 13.2908
#
#
#
# Elastic Compliance Matrix: (Units=1/GPa)
#
#
# Indices 1 2 3 4 5 6 
#
# 1 0.016405 -0.004027 0.002479 0.000000 0.000131 0.000000
# 2 -0.004027 0.019849 -0.007546 0.000000 -0.002764 0.000000
# 3 0.002479 -0.007546 0.017652 0.000000 0.002492 0.000000
# 4 0.000000 0.000000 0.000000 0.081108 0.000000 -0.012885
# 5 0.000131 -0.002764 0.002492 0.000000 0.039998 0.000000
# 6 0.000000 0.000000 0.000000 -0.012885 0.000000 0.077287
#
#
# Mechanical properties :
#
#
# Convention : Reuss Voigt Hill
#
# Bulk Modulus (GPa) = 27.99842 28.80741 28.40291
# Shear Modulus (GPa) = 17.70585 21.12795 19.41690
#
# Velocity S-wave (km/s) = 3.02311 3.30236 3.16582
# Velocity P-wave (km/s) = 5.16116 5.42313 5.29376
#
# Compressibility (1/GPa) = 0.03571631
#
# Stress axis : x y z
#
# Youngs Moduli (GPa) = 60.95836 50.38113 56.65111
#
# Poissons Ratio (x) = 0.20290 -0.14041
# Poissons Ratio (y) = 0.24550 0.42747
# Poissons Ratio (z) = -0.15109 0.38016
#
# Static dielectric constant tensor:
#      x y z
#    x 1.698430 0.000000 -0.025390 
#    y 0.000000 1.673990 0.000000 
#    z -0.025390 0.000000 1.724290 
# 
# From -- ./inp_files/125298.got.cif
#   From: 2010.05.17/outbox.cif.g08.bks.cpg/sg12_63_cif.got.tgz:125298.got - 2010.06.03 13:09:07.
