data_PCOD9189798
_publ_section_title
;
Structure prediction by ZEFSAII (Michael W. Deem and Ramdas Pophale) SiO2 
 PCOD9189798
Probable space group: C 2/M
;
_chemical_formula_sum "Si O2"
_cell_formula_units_Z 56
_cell_length_a 11.323257
_cell_length_b 15.329645
_cell_length_c 20.104957
_cell_angle_alpha 90.000000
_cell_angle_beta 126.284506
_cell_angle_gamma 90.000000
_cell_volume 2813.126443
_symmetry_space_group_name_H-M "C 2/M"
_symmetry_group_IT_number 12
_symmetry_cell_setting 'monoclinic'
loop_
_space_group_symop_operation_xyz
x,y,z
-x,y,-z
-x,-y,-z
x,-y,z
1/2+x,1/2+y,z
1/2-x,1/2+y,-z
1/2-x,1/2-y,-z
1/2+x,1/2-y,z
loop_
_atom_site_type_symbol
_atom_site_label
_atom_site_fract_x
_atom_site_fract_y
_atom_site_fract_z
Si Si1 0.183591 0.402374 0.814190
Si Si2 0.825606 0.751958 0.952367
Si Si3 0.110327 0.675315 0.258023
Si Si4 0.285000 0.900670 0.842303
Si Si5 0.964848 0.852225 0.697924
Si Si6 0.064690 0.784319 0.592771
Si Si7 0.670273 0.095769 0.656530
O O1 0.227933 0.500000 0.849495
O O2 0.246996 0.327170 0.882227
O O3 0.223742 0.388917 0.750388
O O4 0.007203 0.393979 0.755837
O O5 0.800104 0.655969 0.913232
O O6 0.750000 0.750000 0.000000
O O7 0.000000 0.768396 0.000000
O O8 0.133819 0.654395 0.188442
O O9 0.042940 0.768399 0.255732
O O10 0.270944 0.677597 0.344240
O O11 0.114331 0.901090 0.764662
O O12 0.338783 0.000000 0.864421
O O13 0.815844 0.902686 0.660754
O O14 0.974748 0.819245 0.625637
O O15 0.076253 0.679423 0.604796
O O16 0.000000 0.806627 0.500000
O O17 0.599893 0.000000 0.629937
#
# Coordination Sequence:
#
# PCOD9189798 Si02
#       7
#     8   8   8   8   8   8   8
#     4  11  22  42  67  91 122 167 216 262 311 383
#     4  12  27  43  65  96 137 170 207 269 335 394
#     4  10  19  38  65  92 121 163 217 261 304 371
#     4  11  23  40  67  93 123 166 214 259 310 380
#     4  10  19  38  63  88 119 165 216 252 307 370
#     4  10  21  36  62  89 127 168 208 254 322 378
#     4  10  21  36  60  89 120 159 213 262 304 363
#
# _framework density 19.906676999999998
#
# number of rings (size 3 to 8) (size 9 to 14) (size 15 to 20)
#    0.000    1.429    2.857    3.429    2.000    3.714 
#    0.000    0.000    0.000   14.571    0.000    0.000 
#    0.000    0.000    0.000    0.000    0.000    0.000 
#
# Total GULP energy -156258.234016 kJ/mol
# GULP energy per Si atom -5580.651215 kJ/mol
# Density = 1.986137 g / cm^3
# Si number density = 19.906677 Si / 1000 Ang^3
#
#
#
# Elastic Constant Matrix: (Units=GPa)
#
#
# Indices 1 2 3 4 5 6 
#
# 1 115.8045 34.0797 54.2163 0.0000 -28.4825 0.0000
# 2 34.0797 105.0721 56.7147 0.0000 -18.4043 0.0000
# 3 54.2163 56.7147 87.3738 0.0000 -18.5710 0.0000
# 4 0.0000 0.0000 0.0000 -5.3121 0.0000 12.9819
# 5 -28.4825 -18.4043 -18.5710 0.0000 19.4307 0.0000
# 6 0.0000 0.0000 0.0000 12.9819 0.0000 -6.0416
#
#
#
# Elastic Compliance Matrix: (Units=1/GPa)
#
#
# Indices 1 2 3 4 5 6 
#
# 1 0.015975 0.001963 -0.007297 0.000000 0.018303 0.000000
# 2 0.001963 0.015472 -0.009456 0.000000 0.008495 0.000000
# 3 -0.007297 -0.009456 0.022505 0.000000 0.001857 0.000000
# 4 0.000000 0.000000 0.000000 0.044282 0.000000 0.095150
# 5 0.018303 0.008495 0.001857 0.000000 0.088116 0.000000
# 6 0.000000 0.000000 0.000000 0.095150 0.000000 0.038935
#
#
# Mechanical properties :
#
#
# Convention : Reuss Voigt Hill
#
# Bulk Modulus (GPa) = 41.02712 66.47464 53.75088
# Shear Modulus (GPa) = 19.01219 12.49804 15.75511
#
# Velocity S-wave (km/s) = 3.09377 2.50837 2.81632
# Velocity P-wave (km/s) = 5.78069 6.46954 6.13479
#
# Compressibility (1/GPa) = 0.02437412
#
# Stress axis : x y z
#
# Youngs Moduli (GPa) = 62.59643 64.63085 44.43392
#
# Poissons Ratio (x) = -0.12687 0.32423
# Poissons Ratio (y) = -0.12287 0.42015
# Poissons Ratio (z) = 0.45675 0.61113
#
# Static dielectric constant tensor:
#      x y z
#    x 1.732660 0.000000 0.005330 
#    y 0.000000 1.715630 0.000000 
#    z 0.005330 0.000000 1.686790 
# 
# From -- ./inp_files/263238.got.cif
#   From: 2010.05.17/outbox.cif.g08.bks.cpg/sg12_132_cif.got.tgz:263238.got - 2010.06.03 13:09:07.
