data_PCOD9189636
_publ_section_title
;
Structure prediction by ZEFSAII (Michael W. Deem and Ramdas Pophale) SiO2 
 PCOD9189636
Probable space group: C 2/M
;
_chemical_formula_sum "Si O2"
_cell_formula_units_Z 60
_cell_length_a 11.393162
_cell_length_b 30.157024
_cell_length_c 9.040218
_cell_angle_alpha 90.000000
_cell_angle_beta 77.733872
_cell_angle_gamma 90.000000
_cell_volume 3035.165518
_symmetry_space_group_name_H-M "C 2/M"
_symmetry_group_IT_number 12
_symmetry_cell_setting 'monoclinic'
loop_
_space_group_symop_operation_xyz
x,y,z
-x,y,-z
-x,-y,-z
x,-y,z
1/2+x,1/2+y,z
1/2-x,1/2+y,-z
1/2-x,1/2-y,-z
1/2+x,1/2-y,z
loop_
_atom_site_type_symbol
_atom_site_label
_atom_site_fract_x
_atom_site_fract_y
_atom_site_fract_z
Si Si1 0.938063 0.826841 0.173278
Si Si2 0.859757 0.601821 0.532796
Si Si3 0.000000 0.609850 0.000000
Si Si4 0.748177 0.318779 0.376094
Si Si5 0.635763 0.613419 0.183672
Si Si6 0.783355 0.371009 0.859804
Si Si7 0.077528 0.247670 0.607142
Si Si8 0.179234 0.551524 0.743854
O O1 0.794518 0.830564 0.188686
O O2 0.978833 0.786374 0.263622
O O3 0.996245 0.872638 0.220996
O O4 0.000000 0.820572 0.000000
O O5 0.790099 0.642363 0.474243
O O6 0.814751 0.597718 0.712872
O O7 0.844331 0.561540 0.422409
O O8 0.000000 0.612774 0.500000
O O9 0.084171 0.579855 0.869071
O O10 0.906143 0.636218 0.919810
O O11 0.698572 0.344326 0.247344
O O12 0.857008 0.285519 0.318085
O O13 0.658174 0.286499 0.488088
O O14 0.688568 0.571063 0.253500
O O15 0.688518 0.609889 0.004169
O O16 0.000000 0.270280 0.500000
O O17 0.168725 0.500000 0.780825
#
# Coordination Sequence:
#
# PCOD9189636 Si02
#       8
#     8   8   4   8   8   8   8   8
#     4  10  20  38  62  83 112 156 199 239 286 341
#     4  11  20  36  55  82 118 153 188 234 292 343
#     4  10  19  38  58  84 120 154 188 236 298 346
#     4  10  21  35  54  84 113 150 190 239 288 344
#     4   9  20  39  61  82 116 154 193 236 293 342
#     4  10  20  36  58  86 110 155 198 231 284 354
#     4  11  20  35  56  84 115 147 195 240 289 339
#     4  10  21  36  60  90 119 151 191 238 288 350
#
# _framework density 19.768279
#
# number of rings (size 3 to 8) (size 9 to 14) (size 15 to 20)
#    0.000    1.867    4.000    0.600    0.000    0.267 
#    0.000    6.000    0.000   12.400    0.000    0.000 
#    0.000    0.000    0.000    0.000    0.000    0.000 
#
# Total GULP energy -167030.175435 kJ/mol
# GULP energy per Si atom -5567.672515 kJ/mol
# Density = 1.972329 g / cm^3
# Si number density = 19.768279 Si / 1000 Ang^3
#
#
#
# Elastic Constant Matrix: (Units=GPa)
#
#
# Indices 1 2 3 4 5 6 
#
# 1 91.0839 27.6232 24.3466 0.0000 19.0068 0.0000
# 2 27.6232 50.1056 14.8815 0.0000 2.0550 0.0000
# 3 24.3466 14.8815 90.3803 0.0000 14.5472 0.0000
# 4 0.0000 0.0000 0.0000 4.2584 0.0000 -7.4600
# 5 19.0068 2.0550 14.5472 0.0000 23.2792 0.0000
# 6 0.0000 0.0000 0.0000 -7.4600 0.0000 13.6217
#
#
#
# Elastic Compliance Matrix: (Units=1/GPa)
#
#
# Indices 1 2 3 4 5 6 
#
# 1 0.016206 -0.008115 -0.001129 0.000000 -0.011810 0.000000
# 2 -0.008115 0.025050 -0.002945 0.000000 0.006255 0.000000
# 3 -0.001129 -0.002945 0.012967 0.000000 -0.006922 0.000000
# 4 0.000000 0.000000 0.000000 5.781097 0.000000 3.166033
# 5 -0.011810 0.006255 -0.006922 0.000000 0.056373 0.000000
# 6 0.000000 0.000000 0.000000 3.166033 0.000000 1.807298
#
#
# Mechanical properties :
#
#
# Convention : Reuss Voigt Hill
#
# Bulk Modulus (GPa) = 33.50541 40.58583 37.04562
# Shear Modulus (GPa) = 0.64655 19.21310 9.92982
#
# Velocity S-wave (km/s) = 0.57252 3.12094 2.24366
# Velocity P-wave (km/s) = 4.17408 5.79330 5.04902
#
# Compressibility (1/GPa) = 0.02984592
#
# Stress axis : x y z
#
# Youngs Moduli (GPa) = 61.70545 39.92047 77.11614
#
# Poissons Ratio (x) = 0.32395 0.08703
# Poissons Ratio (y) = 0.50073 0.22713
# Poissons Ratio (z) = 0.06963 0.11758
#
# Static dielectric constant tensor:
#      x y z
#    x 1.807790 0.000000 0.014960 
#    y 0.000000 1.658800 0.000000 
#    z 0.014960 0.000000 1.727400 
# 
# From -- ./inp_files/54668.got.cif
#   From: 2010.05.17/outbox.cif.g08.bks.cpg/sg12_28_cif.got.tgz:54668.got - 2010.06.03 13:09:07.
