data_PCOD9189287
_publ_section_title
;
Structure prediction by ZEFSAII (Michael W. Deem and Ramdas Pophale) SiO2 
 PCOD9189287
Probable space group: C 2/M
;
_chemical_formula_sum "Si O2"
_cell_formula_units_Z 64
_cell_length_a 30.998780
_cell_length_b 8.487769
_cell_length_c 18.202315
_cell_angle_alpha 90.000000
_cell_angle_beta 43.943209
_cell_angle_gamma 90.000000
_cell_volume 3323.455338
_symmetry_space_group_name_H-M "C 2/M"
_symmetry_group_IT_number 12
_symmetry_cell_setting 'monoclinic'
loop_
_space_group_symop_operation_xyz
x,y,z
-x,y,-z
-x,-y,-z
x,-y,z
1/2+x,1/2+y,z
1/2-x,1/2+y,-z
1/2-x,1/2-y,-z
1/2+x,1/2-y,z
loop_
_atom_site_type_symbol
_atom_site_label
_atom_site_fract_x
_atom_site_fract_y
_atom_site_fract_z
Si Si1 0.549509 0.188148 0.223274
Si Si2 0.748770 0.819458 0.920811
Si Si3 0.365901 0.682288 0.012018
Si Si4 0.343871 0.810506 0.611984
Si Si5 0.107954 0.178690 0.301479
Si Si6 0.690012 0.810448 0.617741
Si Si7 0.701785 0.690862 0.768212
Si Si8 0.592040 0.192029 0.617994
O O1 0.591112 0.238858 0.102373
O O2 0.574677 0.247198 0.271331
O O3 0.479064 0.245230 0.297495
O O4 0.549860 0.000000 0.225788
O O5 0.818968 0.822184 0.807777
O O6 0.724582 0.000000 0.948250
O O7 0.750000 0.750000 0.000000
O O8 0.704021 0.703307 0.932302
O O9 0.384094 0.500000 0.993449
O O10 0.353714 0.746583 0.109322
O O11 0.389559 0.761340 0.622244
O O12 0.271819 0.753861 0.705056
O O13 0.371640 0.757117 0.499954
O O14 0.341221 0.000000 0.615397
O O15 0.085619 0.000000 0.337213
O O16 0.750000 0.750000 0.500000
O O17 0.690656 0.743258 0.698782
O O18 0.630065 0.760671 0.643532
O O19 0.691834 0.000000 0.618377
O O20 0.702169 0.500000 0.771536
O O21 0.591703 0.000000 0.617294
#
# Coordination Sequence:
#
# PCOD9189287 Si02
#       8
#     8   8   8   8   8   8   8   8
#     4  11  23  40  61  81 111 161 208 238 282 344
#     4  11  21  32  52  80 114 151 195 243 287 339
#     4  11  22  37  57  84 120 155 193 243 295 346
#     4  10  19  37  61  84 117 155 194 239 291 348
#     4  11  23  36  53  85 123 153 194 244 293 342
#     4  11  21  38  65  94 122 149 188 241 297 350
#     4  10  21  37  60  91 122 151 187 239 300 350
#     4   9  21  41  62  85 114 152 198 241 284 352
#
# _framework density 19.257065999999998
#
# number of rings (size 3 to 8) (size 9 to 14) (size 15 to 20)
#    0.000    1.500    3.750    1.875    0.000    3.000 
#    0.000    6.875    0.000    3.750    0.000    0.000 
#    0.000    0.000    0.000    0.000    0.000    0.000 
#
# Total GULP energy -178490.349143 kJ/mol
# GULP energy per Si atom -5577.823411 kJ/mol
# Density = 1.921324 g / cm^3
# Si number density = 19.257066 Si / 1000 Ang^3
#
#
#
# Elastic Constant Matrix: (Units=GPa)
#
#
# Indices 1 2 3 4 5 6 
#
# 1 141.9565 18.3411 73.1331 -0.0045 15.7562 0.0003
# 2 18.3411 29.2430 10.5761 -0.0097 1.6489 0.0056
# 3 73.1331 10.5761 77.7748 -0.0079 12.0073 0.0041
# 4 -0.0045 -0.0097 -0.0079 18.1838 0.0019 5.8541
# 5 15.7562 1.6489 12.0073 0.0019 38.9604 -0.0003
# 6 0.0003 0.0056 0.0041 5.8541 -0.0003 27.8184
#
#
#
# Elastic Compliance Matrix: (Units=1/GPa)
#
#
# Indices 1 2 3 4 5 6 
#
# 1 0.014262 -0.004306 -0.012561 -0.000005 -0.001714 0.000004
# 2 -0.004306 0.037265 -0.001096 0.000022 0.000502 -0.000012
# 3 -0.012561 -0.001096 0.025227 0.000009 -0.002649 -0.000005
# 4 -0.000005 0.000022 0.000009 0.058991 -0.000005 -0.012414
# 5 -0.001714 0.000502 -0.002649 -0.000005 0.027155 0.000002
# 6 0.000004 -0.000012 -0.000005 -0.012414 0.000002 0.038560
#
#
# Mechanical properties :
#
#
# Convention : Reuss Voigt Hill
#
# Bulk Modulus (GPa) = 24.49276 50.34166 37.41721
# Shear Modulus (GPa) = 19.92080 26.78744 23.35412
#
# Velocity S-wave (km/s) = 3.21980 3.73372 3.48624
# Velocity P-wave (km/s) = 5.15454 6.69225 5.97308
#
# Compressibility (1/GPa) = 0.04082839
#
# Stress axis : x y z
#
# Youngs Moduli (GPa) = 70.11647 26.83496 39.64070
#
# Poissons Ratio (x) = 0.11554 0.49791
# Poissons Ratio (y) = 0.30190 0.04345
# Poissons Ratio (z) = 0.88071 0.02942
#
# Static dielectric constant tensor:
#      x y z
#    x 1.671260 0.000000 0.016470 
#    y 0.000000 1.701570 0.000000 
#    z 0.016470 0.000000 1.697220 
# 
# From -- ./inp_files/295543.got.cif
#   From: 2010.05.17/outbox.cif.g08.bks.cpg/sg12_148_cif.got.tgz:295543.got - 2010.06.03 13:09:07.
