data_PCOD9189921
_publ_section_title
;
Structure prediction by ZEFSAII (Michael W. Deem and Ramdas Pophale) SiO2 
 PCOD9189921
Probable space group: C 2/M
;
_chemical_formula_sum "Si O2"
_cell_formula_units_Z 44
_cell_length_a 24.051842
_cell_length_b 11.494452
_cell_length_c 11.985560
_cell_angle_alpha 90.000000
_cell_angle_beta 145.629566
_cell_angle_gamma 90.000000
_cell_volume 1870.641423
_symmetry_space_group_name_H-M "C 2/M"
_symmetry_group_IT_number 12
_symmetry_cell_setting 'monoclinic'
loop_
_space_group_symop_operation_xyz
x,y,z
-x,y,-z
-x,-y,-z
x,-y,z
1/2+x,1/2+y,z
1/2-x,1/2+y,-z
1/2-x,1/2-y,-z
1/2+x,1/2-y,z
loop_
_atom_site_type_symbol
_atom_site_label
_atom_site_fract_x
_atom_site_fract_y
_atom_site_fract_z
Si Si1 0.341383 0.000000 0.316119
Si Si2 0.213793 0.633064 0.373577
Si Si3 0.609221 0.368784 0.736548
Si Si4 0.931331 0.500000 0.223267
Si Si5 0.000000 0.292661 0.000000
Si Si6 0.313764 0.248153 0.341230
Si Si7 0.968221 0.253385 0.188095
O O1 0.292422 0.112495 0.290647
O O2 0.357258 0.000000 0.207256
O O3 0.456676 0.000000 0.543570
O O4 0.248831 0.500000 0.458054
O O5 0.250000 0.750000 0.500000
O O6 0.245233 0.668874 0.300535
O O7 0.096114 0.634238 0.191034
O O8 0.500000 0.361095 0.500000
O O9 0.641933 0.500000 0.784660
O O10 0.675394 0.291932 0.766744
O O11 0.596926 0.327632 0.841613
O O12 0.928617 0.383494 0.145699
O O13 0.028680 0.223047 0.936450
O O14 0.420550 0.254522 0.579415
#
# Coordination Sequence:
#
# PCOD9189921 Si02
#       7
#     4   8   8   4   4   8   8
#     4   9  16  30  64 101 132 169 227 296 346 413
#     4  12  28  49  74 104 143 192 245 295 354 428
#     4   9  17  32  59  93 131 176 227 284 351 418
#     4   9  16  29  58 100 130 166 228 283 337 409
#     4  12  27  48  71 104 145 192 241 292 357 430
#     4  10  19  38  67  99 134 178 235 288 354 416
#     4  10  20  35  62  98 134 179 227 285 344 421
#
# _framework density 23.521343999999999
#
# number of rings (size 3 to 8) (size 9 to 14) (size 15 to 20)
#    0.000    1.818    3.636    0.818    3.818    0.727 
#    0.000    2.727    0.000    0.000    0.000    0.000 
#    0.000    0.000    0.000    0.000    0.000    0.000 
#
# Total GULP energy -122935.563220 kJ/mol
# GULP energy per Si atom -5587.980146 kJ/mol
# Density = 2.346781 g / cm^3
# Si number density = 23.521344 Si / 1000 Ang^3
#
#
#
# Elastic Constant Matrix: (Units=GPa)
#
#
# Indices 1 2 3 4 5 6 
#
# 1 63.5117 18.0979 32.2964 0.0000 -39.9617 0.0000
# 2 18.0979 137.8554 23.5349 0.0000 -9.6048 0.0000
# 3 32.2964 23.5349 94.5692 0.0000 0.6694 0.0000
# 4 0.0000 0.0000 0.0000 -3.7035 0.0000 5.3545
# 5 -39.9617 -9.6048 0.6694 0.0000 51.0548 0.0000
# 6 0.0000 0.0000 0.0000 5.3545 0.0000 17.1913
#
#
#
# Elastic Compliance Matrix: (Units=1/GPa)
#
#
# Indices 1 2 3 4 5 6 
#
# 1 0.048081 -0.000875 -0.016469 0.000000 0.037685 0.000000
# 2 -0.000875 0.007701 -0.001623 0.000000 0.000785 0.000000
# 3 -0.016469 -0.001623 0.016698 0.000000 -0.013415 0.000000
# 4 0.000000 0.000000 0.000000 -0.186176 0.000000 0.057987
# 5 0.037685 0.000785 -0.013415 0.000000 0.049408 0.000000
# 6 0.000000 0.000000 0.000000 0.057987 0.000000 0.040108
#
#
# Mechanical properties :
#
#
# Convention : Reuss Voigt Hill
#
# Bulk Modulus (GPa) = 28.94801 49.31052 39.12927
# Shear Modulus (GPa) = 197.87659 27.70899 112.79279
#
# Velocity S-wave (km/s) = 9.18199 3.43598 6.93235
# Velocity P-wave (km/s) = 11.16897 6.06225 8.98601
#
# Compressibility (1/GPa) = 0.03454469
#
# Stress axis : x y z
#
# Youngs Moduli (GPa) = 20.79826 129.85907 59.88885
#
# Poissons Ratio (x) = 0.11361 0.98632
# Poissons Ratio (y) = 0.01820 0.09721
# Poissons Ratio (z) = 0.34253 0.21079
#
# Static dielectric constant tensor:
#      x y z
#    x 1.872660 0.000000 0.007250 
#    y 0.000000 1.851720 0.000000 
#    z 0.007250 0.000000 1.994430 
# 
# From -- ./inp_files/175425.got.cif
#   From: 2010.05.17/outbox.cif.g08.bks.cpg/sg12_88_cif.got.tgz:175425.got - 2010.06.03 13:09:07.
