data_PCOD9189957
_publ_section_title
;
Structure prediction by ZEFSAII (Michael W. Deem and Ramdas Pophale) SiO2 
 PCOD9189957
Probable space group: C 2/M
;
_chemical_formula_sum "Si O2"
_cell_formula_units_Z 64
_cell_length_a 27.601972
_cell_length_b 12.770837
_cell_length_c 16.904145
_cell_angle_alpha 90.000000
_cell_angle_beta 31.811449
_cell_angle_gamma 90.000000
_cell_volume 3140.991789
_symmetry_space_group_name_H-M "C 2/M"
_symmetry_group_IT_number 12
_symmetry_cell_setting 'monoclinic'
loop_
_space_group_symop_operation_xyz
x,y,z
-x,y,-z
-x,-y,-z
x,-y,z
1/2+x,1/2+y,z
1/2-x,1/2+y,-z
1/2-x,1/2-y,-z
1/2+x,1/2-y,z
loop_
_atom_site_type_symbol
_atom_site_label
_atom_site_fract_x
_atom_site_fract_y
_atom_site_fract_z
Si Si1 0.354268 0.235788 0.679282
Si Si2 0.796519 0.622163 0.204831
Si Si3 0.563858 0.383047 0.834220
Si Si4 0.806177 0.880765 0.023487
Si Si5 0.741334 0.267726 0.604559
Si Si6 0.560675 0.788367 0.593566
Si Si7 0.933011 0.120343 0.702721
Si Si8 0.548528 0.219660 0.108547
O O1 0.281005 0.309691 0.733884
O O2 0.415610 0.175388 0.528669
O O3 0.410869 0.312309 0.656830
O O4 0.295214 0.159281 0.816655
O O5 0.774176 0.500000 0.233444
O O6 0.796188 0.668727 0.293744
O O7 0.895428 0.643519 0.026926
O O8 0.556761 0.500000 0.808099
O O9 0.667364 0.359639 0.718111
O O10 0.530701 0.288312 0.823873
O O11 0.500000 0.380161 0.000000
O O12 0.841176 0.874867 0.884717
O O13 0.876023 0.806488 0.972830
O O14 0.816776 0.000000 0.035100
O O15 0.750000 0.250000 0.500000
O O16 0.841548 0.290179 0.499676
O O17 0.515646 0.674257 0.637154
O O18 0.489765 0.832446 0.757411
O O19 0.953531 0.000000 0.657590
#
# Coordination Sequence:
#
# PCOD9189957 Si02
#       8
#     8   8   8   8   8   8   8   8
#     4  10  20  36  59  90 125 157 194 254 302 345
#     4  10  22  39  61  87 119 163 202 239 300 364
#     4  11  22  38  64  87 107 149 201 246 299 351
#     4   9  19  35  59  88 117 158 204 246 296 352
#     4  11  22  40  59  85 123 149 187 250 301 352
#     4  10  22  36  57  82 119 158 188 238 304 348
#     4  10  20  36  61  91 120 156 203 245 294 356
#     4  10  19  39  59  82 120 153 198 252 288 349
#
# _framework density 20.375730000000001
#
# number of rings (size 3 to 8) (size 9 to 14) (size 15 to 20)
#    0.000    1.875    2.500    1.500    0.000    4.000 
#    0.000    2.500    0.000    2.250    0.000    0.000 
#    0.000    0.000    0.000    0.000    0.000    0.000 
#
# Total GULP energy -178409.504395 kJ/mol
# GULP energy per Si atom -5575.297012 kJ/mol
# Density = 2.032935 g / cm^3
# Si number density = 20.375730 Si / 1000 Ang^3
#
#
#
# Elastic Constant Matrix: (Units=GPa)
#
#
# Indices 1 2 3 4 5 6 
#
# 1 72.1908 2.2488 18.3021 0.0000 7.1105 0.0000
# 2 2.2488 23.5107 21.3999 0.0000 6.5931 0.0000
# 3 18.3021 21.3999 128.7643 0.0000 7.9253 0.0000
# 4 0.0000 0.0000 0.0000 2.3403 0.0000 -0.7826
# 5 7.1105 6.5931 7.9253 0.0000 25.6129 0.0000
# 6 0.0000 0.0000 0.0000 -0.7826 0.0000 13.4968
#
#
#
# Elastic Compliance Matrix: (Units=1/GPa)
#
#
# Indices 1 2 3 4 5 6 
#
# 1 0.014719 0.001601 -0.002122 0.000000 -0.003842 0.000000
# 2 0.001601 0.053235 -0.008363 0.000000 -0.011560 0.000000
# 3 -0.002122 -0.008363 0.009469 0.000000 -0.000188 0.000000
# 4 0.000000 0.000000 0.000000 0.435739 0.000000 0.025265
# 5 -0.003842 -0.011560 -0.000188 0.000000 0.043143 0.000000
# 6 0.000000 0.000000 0.000000 0.025265 0.000000 0.075557
#
#
# Mechanical properties :
#
#
# Convention : Reuss Voigt Hill
#
# Bulk Modulus (GPa) = 16.76332 34.26304 25.51318
# Shear Modulus (GPa) = 7.46809 20.45767 13.96288
#
# Velocity S-wave (km/s) = 1.91655 3.17207 2.62061
# Velocity P-wave (km/s) = 3.62526 5.50165 4.65890
#
# Compressibility (1/GPa) = 0.05965406
#
# Stress axis : x y z
#
# Youngs Moduli (GPa) = 67.94134 18.78465 105.60541
#
# Poissons Ratio (x) = -0.03007 0.22405
# Poissons Ratio (y) = -0.10875 0.88322
# Poissons Ratio (z) = 0.14415 0.15710
#
# Static dielectric constant tensor:
#      x y z
#    x 1.740340 0.000000 0.028730 
#    y 0.000000 1.683170 0.000000 
#    z 0.028730 0.000000 1.811640 
# 
# From -- ./inp_files/296472.got.cif
#   From: 2010.05.17/outbox.cif.g08.bks.cpg/sg12_149_cif.got.tgz:296472.got - 2010.06.03 13:09:07.
