data_PCOD9189899
_publ_section_title
;
Structure prediction by ZEFSAII (Michael W. Deem and Ramdas Pophale) SiO2 
 PCOD9189899
Probable space group: C 2/M
;
_chemical_formula_sum "Si O2"
_cell_formula_units_Z 34
_cell_length_a 14.205939
_cell_length_b 14.794970
_cell_length_c 11.942042
_cell_angle_alpha 90.000000
_cell_angle_beta 146.290359
_cell_angle_gamma 90.000000
_cell_volume 1392.975289
_symmetry_space_group_name_H-M "C 2/M"
_symmetry_group_IT_number 12
_symmetry_cell_setting 'monoclinic'
loop_
_space_group_symop_operation_xyz
x,y,z
-x,y,-z
-x,-y,-z
x,-y,z
1/2+x,1/2+y,z
1/2-x,1/2+y,-z
1/2-x,1/2-y,-z
1/2+x,1/2-y,z
loop_
_atom_site_type_symbol
_atom_site_label
_atom_site_fract_x
_atom_site_fract_y
_atom_site_fract_z
Si Si1 0.774603 0.831601 0.233420
Si Si2 0.037031 0.098843 0.902671
Si Si3 0.500000 0.500000 0.500000
Si Si4 0.077249 0.640778 0.689680
Si Si5 0.932996 0.701612 0.759994
O O1 0.881380 0.920813 0.326608
O O2 0.872416 0.743879 0.288340
O O3 0.721478 0.818223 0.310520
O O4 0.601071 0.831211 0.991882
O O5 0.241654 0.100810 0.094442
O O6 0.973615 0.000000 0.801834
O O7 0.000000 0.107012 0.000000
O O8 0.959150 0.189981 0.773245
O O9 0.000000 0.600928 0.500000
O O10 0.939708 0.647205 0.651478
#
# Coordination Sequence:
#
# PCOD9189899 Si02
#       5
#     8   8   2   8   8
#     4  10  21  43  66  97 128 165 212 269 321 385
#     4  10  19  38  66  94 124 165 222 264 310 388
#     4  12  24  42  68 108 128 150 222 280 318 380
#     4  11  22  42  64  90 134 176 213 262 325 375
#     4  10  21  43  69  90 130 181 207 253 340 386
#
# _framework density 24.408186000000001
#
# number of rings (size 3 to 8) (size 9 to 14) (size 15 to 20)
#    0.000    1.647    5.882    2.824    0.000    3.294 
#   10.588    0.000   10.353    0.000    0.000    0.000 
#    0.000    0.000    0.000    0.000    0.000    0.000 
#
# Total GULP energy -94912.019924 kJ/mol
# GULP energy per Si atom -5583.059996 kJ/mol
# Density = 2.435263 g / cm^3
# Si number density = 24.408186 Si / 1000 Ang^3
#
#
#
# Elastic Constant Matrix: (Units=GPa)
#
#
# Indices 1 2 3 4 5 6 
#
# 1 117.4836 -1.3562 1.4498 0.0000 -26.3573 0.0000
# 2 -1.3562 152.8195 3.0419 0.0000 -1.0152 0.0000
# 3 1.4498 3.0419 66.6563 0.0000 -0.6769 0.0000
# 4 0.0000 0.0000 0.0000 -7.3866 0.0000 4.5551
# 5 -26.3573 -1.0152 -0.6769 0.0000 34.0044 0.0000
# 6 0.0000 0.0000 0.0000 4.5551 0.0000 -15.5185
#
#
#
# Elastic Compliance Matrix: (Units=1/GPa)
#
#
# Indices 1 2 3 4 5 6 
#
# 1 0.010308 0.000148 -0.000150 0.000000 0.007992 0.000000
# 2 0.000148 0.006553 -0.000299 0.000000 0.000304 0.000000
# 3 -0.000150 -0.000299 0.015021 0.000000 0.000174 0.000000
# 4 0.000000 0.000000 0.000000 -0.165302 0.000000 -0.048521
# 5 0.007992 0.000304 0.000174 0.000000 0.035615 0.000000
# 6 0.000000 0.000000 0.000000 -0.048521 0.000000 -0.078682
#
#
# Mechanical properties :
#
#
# Convention : Reuss Voigt Hill
#
# Bulk Modulus (GPa) = 31.96991 38.13671 35.05331
# Shear Modulus (GPa) = -30.21922 24.47479 -2.87222
#
# Velocity S-wave (km/s) = -3.52245 3.17002 -1.08596
# Velocity P-wave (km/s) = 1.84853 5.39047 3.58051
#
# Compressibility (1/GPa) = 0.03127941
#
# Stress axis : x y z
#
# Youngs Moduli (GPa) = 97.00947 152.60299 66.57340
#
# Poissons Ratio (x) = -0.02252 0.00997
# Poissons Ratio (y) = -0.01431 0.01992
# Poissons Ratio (z) = 0.01453 0.04565
#
# Static dielectric constant tensor:
#      x y z
#    x 1.959780 0.000000 -0.024730 
#    y 0.000000 1.866670 0.000000 
#    z -0.024730 0.000000 1.993040 
# 
# From -- ./inp_files/58337.got.cif
#   From: 2010.05.17/outbox.cif.g08.bks.cpg/sg12_30_cif.got.tgz:58337.got - 2010.06.03 13:09:07.
