data_PCOD9189530
_publ_section_title
;
Structure prediction by ZEFSAII (Michael W. Deem and Ramdas Pophale) SiO2 
 PCOD9189530
Probable space group: C 2/M
;
_chemical_formula_sum "Si O2"
_cell_formula_units_Z 64
_cell_length_a 32.256768
_cell_length_b 16.329121
_cell_length_c 13.008514
_cell_angle_alpha 90.000000
_cell_angle_beta 27.244262
_cell_angle_gamma 90.000000
_cell_volume 3136.698609
_symmetry_space_group_name_H-M "C 2/M"
_symmetry_group_IT_number 12
_symmetry_cell_setting 'monoclinic'
loop_
_space_group_symop_operation_xyz
x,y,z
-x,y,-z
-x,-y,-z
x,-y,z
1/2+x,1/2+y,z
1/2-x,1/2+y,-z
1/2-x,1/2-y,-z
1/2+x,1/2-y,z
loop_
_atom_site_type_symbol
_atom_site_label
_atom_site_fract_x
_atom_site_fract_y
_atom_site_fract_z
Si Si1 0.186511 0.594909 0.285037
Si Si2 0.392300 0.910661 0.216068
Si Si3 0.982759 0.595376 0.654633
Si Si4 0.506621 0.401675 0.314259
Si Si5 0.518714 0.312283 0.839459
Si Si6 0.639393 0.598754 0.204440
Si Si7 0.799495 0.721143 0.562050
Si Si8 0.615166 0.819024 0.955007
O O1 0.207503 0.500000 0.268200
O O2 0.204678 0.660420 0.332553
O O3 0.081026 0.597817 0.491315
O O4 0.254573 0.616047 0.041292
O O5 0.336109 0.837840 0.391219
O O6 0.375294 0.901185 0.132651
O O7 0.363464 0.000000 0.318378
O O8 0.500000 0.904658 0.000000
O O9 0.951523 0.500000 0.723336
O O10 0.000000 0.620775 0.500000
O O11 0.917054 0.654945 0.861530
O O12 0.506910 0.500000 0.311852
O O13 0.510425 0.371880 0.189003
O O14 0.416188 0.371066 0.573967
O O15 0.587884 0.375814 0.212407
O O16 0.623983 0.290394 0.595329
O O17 0.500000 0.335407 0.000000
O O18 0.462744 0.230771 0.933580
O O19 0.630266 0.500000 0.229033
O O20 0.703976 0.763965 0.756164
#
# Coordination Sequence:
#
# PCOD9189530 Si02
#       8
#     8   8   8   8   8   8   8   8
#     4  10  19  37  65  94 121 155 210 266 314 379
#     4  11  21  40  70  95 120 163 219 268 313 376
#     4  10  22  42  66  92 127 166 209 270 328 381
#     4   9  19  38  61  86 124 171 212 255 308 382
#     4  12  24  41  59  87 129 167 211 259 322 375
#     4   8  16  35  63  92 116 153 213 268 310 356
#     4  12  23  39  62  93 128 165 203 261 326 375
#     4  12  23  42  62  91 129 165 204 265 327 380
#
# _framework density 20.403618999999999
#
# number of rings (size 3 to 8) (size 9 to 14) (size 15 to 20)
#    0.000    1.500    3.750    2.625    0.000    3.250 
#    4.500    4.375    0.000    0.000    0.000    0.000 
#    0.000    0.000    0.000    0.000    0.000    0.000 
#
# Total GULP energy -178577.933006 kJ/mol
# GULP energy per Si atom -5580.560406 kJ/mol
# Density = 2.035718 g / cm^3
# Si number density = 20.403619 Si / 1000 Ang^3
#
#
#
# Elastic Constant Matrix: (Units=GPa)
#
#
# Indices 1 2 3 4 5 6 
#
# 1 70.8948 26.7834 20.7784 0.0000 23.8437 0.0000
# 2 26.7834 49.8754 27.2530 0.0000 7.6237 0.0000
# 3 20.7784 27.2530 92.4790 0.0000 10.2782 0.0000
# 4 0.0000 0.0000 0.0000 25.7653 0.0000 10.1453
# 5 23.8437 7.6237 10.2782 0.0000 31.1673 0.0000
# 6 0.0000 0.0000 0.0000 10.1453 0.0000 32.0656
#
#
#
# Elastic Compliance Matrix: (Units=1/GPa)
#
#
# Indices 1 2 3 4 5 6 
#
# 1 0.023014 -0.009714 -0.000639 0.000000 -0.015019 0.000000
# 2 -0.009714 0.028407 -0.006480 0.000000 0.002620 0.000000
# 3 -0.000639 -0.006480 0.013117 0.000000 -0.002252 0.000000
# 4 0.000000 0.000000 0.000000 0.044335 0.000000 -0.014027
# 5 -0.015019 0.002620 -0.002252 0.000000 0.043677 0.000000
# 6 0.000000 0.000000 0.000000 -0.014027 0.000000 0.035624
#
#
# Mechanical properties :
#
#
# Convention : Reuss Voigt Hill
#
# Bulk Modulus (GPa) = 32.39180 40.31987 36.35584
# Shear Modulus (GPa) = 21.53975 27.02861 24.28418
#
# Velocity S-wave (km/s) = 3.25265 3.64359 3.45366
# Velocity P-wave (km/s) = 5.47871 6.12413 5.81039
#
# Compressibility (1/GPa) = 0.03087201
#
# Stress axis : x y z
#
# Youngs Moduli (GPa) = 43.45227 35.20310 76.23880
#
# Poissons Ratio (x) = 0.34195 0.04871
# Poissons Ratio (y) = 0.42208 0.49402
# Poissons Ratio (z) = 0.02776 0.22811
#
# Static dielectric constant tensor:
#      x y z
#    x 1.735450 0.000000 0.034530 
#    y 0.000000 1.734690 0.000000 
#    z 0.034530 0.000000 1.775050 
# 
# From -- ./inp_files/190040.got.cif
#   From: 2010.05.17/outbox.cif.g08.bks.cpg/sg12_96_cif.got.tgz:190040.got - 2010.06.03 13:09:07.
