data_PCOD9189448
_publ_section_title
;
Structure prediction by ZEFSAII (Michael W. Deem and Ramdas Pophale) SiO2 
 PCOD9189448
Probable space group: C 2/M
;
_chemical_formula_sum "Si O2"
_cell_formula_units_Z 40
_cell_length_a 13.539191
_cell_length_b 29.535116
_cell_length_c 5.155617
_cell_angle_alpha 90.000000
_cell_angle_beta 74.827557
_cell_angle_gamma 90.000000
_cell_volume 1989.772739
_symmetry_space_group_name_H-M "C 2/M"
_symmetry_group_IT_number 12
_symmetry_cell_setting 'monoclinic'
loop_
_space_group_symop_operation_xyz
x,y,z
-x,y,-z
-x,-y,-z
x,-y,z
1/2+x,1/2+y,z
1/2-x,1/2+y,-z
1/2-x,1/2-y,-z
1/2+x,1/2-y,z
loop_
_atom_site_type_symbol
_atom_site_label
_atom_site_fract_x
_atom_site_fract_y
_atom_site_fract_z
Si Si1 0.112777 0.255946 0.331849
Si Si2 0.937084 0.055165 0.294063
Si Si3 0.809470 0.304418 0.222787
Si Si4 0.881340 0.598409 0.039955
Si Si5 0.799231 0.446894 0.586282
O O1 0.149191 0.292973 0.519593
O O2 0.195101 0.215538 0.285738
O O3 0.000000 0.242187 0.500000
O O4 0.123514 0.277673 0.039552
O O5 0.818909 0.068565 0.356983
O O6 0.000000 0.071025 0.500000
O O7 0.936321 0.000000 0.302803
O O8 0.000000 0.069359 0.000000
O O9 0.817500 0.356802 0.150726
O O10 0.850868 0.561041 0.273365
O O11 0.856309 0.580781 0.770963
O O12 0.000000 0.609616 0.000000
O O13 0.800379 0.500000 0.653357
#
# Coordination Sequence:
#
# PCOD9189448 Si02
#       5
#     8   8   8   8   8
#     4  10  19  37  63  88 120 153 186 232 288 350
#     4   9  17  33  57  80 103 136 182 236 293 349
#     4  10  22  37  59  91 118 152 196 233 283 353
#     4  12  24  39  59  84 119 158 201 249 295 346
#     4  11  24  40  59  85 116 155 205 252 294 346
#
# _framework density 20.102798
#
# number of rings (size 3 to 8) (size 9 to 14) (size 15 to 20)
#    0.000    1.600    0.000    5.400    0.000    5.600 
#    0.000    3.000    0.000    2.400    0.000    0.000 
#    0.000    0.000    0.000    0.000    0.000    0.000 
#
# Total GULP energy -111778.969540 kJ/mol
# GULP energy per Si atom -5588.948477 kJ/mol
# Density = 2.005704 g / cm^3
# Si number density = 20.102798 Si / 1000 Ang^3
#
#
#
# Elastic Constant Matrix: (Units=GPa)
#
#
# Indices 1 2 3 4 5 6 
#
# 1 67.4181 16.3235 17.0759 0.0000 -0.3231 0.0000
# 2 16.3235 46.3121 -8.0452 0.0000 -6.3254 0.0000
# 3 17.0759 -8.0452 85.4305 0.0000 3.6268 0.0000
# 4 0.0000 0.0000 0.0000 17.6239 0.0000 -4.1118
# 5 -0.3231 -6.3254 3.6268 0.0000 40.3938 0.0000
# 6 0.0000 0.0000 0.0000 -4.1118 0.0000 3.2271
#
#
#
# Elastic Compliance Matrix: (Units=1/GPa)
#
#
# Indices 1 2 3 4 5 6 
#
# 1 0.017574 -0.006994 -0.004147 0.000000 -0.000582 0.000000
# 2 -0.006994 0.025173 0.003617 0.000000 0.003561 0.000000
# 3 -0.004147 0.003617 0.012901 0.000000 -0.000625 0.000000
# 4 0.000000 0.000000 0.000000 0.080744 0.000000 0.102880
# 5 -0.000582 0.003561 -0.000625 0.000000 0.025365 0.000000
# 6 0.000000 0.000000 0.000000 0.102880 0.000000 0.440958
#
#
# Mechanical properties :
#
#
# Convention : Reuss Voigt Hill
#
# Bulk Modulus (GPa) = 24.62981 27.76324 26.19653
# Shear Modulus (GPa) = 7.92022 23.83606 15.87814
#
# Velocity S-wave (km/s) = 1.98706 3.44715 2.81347
# Velocity P-wave (km/s) = 4.18845 5.44834 4.85940
#
# Compressibility (1/GPa) = 0.04060120
#
# Stress axis : x y z
#
# Youngs Moduli (GPa) = 56.90327 39.72582 77.51078
#
# Poissons Ratio (x) = 0.27784 0.32140
# Poissons Ratio (y) = 0.39798 -0.28038
# Poissons Ratio (z) = 0.23595 -0.14370
#
# Static dielectric constant tensor:
#      x y z
#    x 1.705130 0.000000 -0.008570 
#    y 0.000000 1.683290 0.000000 
#    z -0.008570 0.000000 1.684520 
# 
# From -- ./inp_files/8330.got.cif
#   From: 2010.05.17/outbox.cif.g08.bks.cpg/sg12_5_cif.got.tgz:8330.got - 2010.06.03 13:09:07.
