data_PCOD9189962
_publ_section_title
;
Structure prediction by ZEFSAII (Michael W. Deem and Ramdas Pophale) SiO2 
 PCOD9189962
Probable space group: C 2/M
;
_chemical_formula_sum "Si O2"
_cell_formula_units_Z 64
_cell_length_a 14.278985
_cell_length_b 17.136658
_cell_length_c 17.903309
_cell_angle_alpha 90.000000
_cell_angle_beta 41.373778
_cell_angle_gamma 90.000000
_cell_volume 2895.593126
_symmetry_space_group_name_H-M "C 2/M"
_symmetry_group_IT_number 12
_symmetry_cell_setting 'monoclinic'
loop_
_space_group_symop_operation_xyz
x,y,z
-x,y,-z
-x,-y,-z
x,-y,z
1/2+x,1/2+y,z
1/2-x,1/2+y,-z
1/2-x,1/2-y,-z
1/2+x,1/2-y,z
loop_
_atom_site_type_symbol
_atom_site_label
_atom_site_fract_x
_atom_site_fract_y
_atom_site_fract_z
Si Si1 0.916556 0.914359 0.128099
Si Si2 0.948232 0.886345 0.450650
Si Si3 0.332767 0.350150 0.790298
Si Si4 0.426998 0.197384 0.823546
Si Si5 0.671140 0.253128 0.772304
Si Si6 0.842022 0.724631 0.516996
Si Si7 0.709147 0.587551 0.029835
Si Si8 0.379265 0.089446 0.396649
O O1 0.824463 0.836761 0.189553
O O2 0.040236 0.909024 0.116463
O O3 0.846414 0.000000 0.176355
O O4 0.000000 0.912969 0.000000
O O5 0.959075 0.791555 0.447901
O O6 0.785599 0.907838 0.531910
O O7 0.000000 0.915109 0.500000
O O8 0.049533 0.903543 0.320615
O O9 0.397714 0.273095 0.791032
O O10 0.232797 0.315719 0.785820
O O11 0.261517 0.395863 0.901012
O O12 0.513183 0.228046 0.843694
O O13 0.525933 0.137160 0.718959
O O14 0.287885 0.152002 0.933353
O O15 0.752593 0.266078 0.645385
O O16 0.750000 0.750000 0.500000
O O17 0.889263 0.637927 0.468116
O O18 0.754778 0.500000 0.981087
O O19 0.422398 0.000000 0.377312
#
# Coordination Sequence:
#
# PCOD9189962 Si02
#       8
#     8   8   8   8   8   8   8   8
#     4  10  23  43  65  96 133 170 220 279 335 384
#     4  11  20  40  64  92 126 168 215 267 312 380
#     4  12  24  40  70  99 128 173 227 266 325 395
#     4  12  22  43  64  96 131 172 224 268 323 394
#     4  12  23  39  70  98 127 174 223 270 320 397
#     4  10  19  39  59  89 124 162 212 256 317 371
#     4  11  26  44  64  96 137 173 214 277 337 385
#     4  11  23  38  64  96 128 171 211 263 335 389
#
# _framework density 22.102553
#
# number of rings (size 3 to 8) (size 9 to 14) (size 15 to 20)
#    0.000    0.875    6.250    2.250    1.750    1.250 
#    0.000    3.750    0.000    1.125    0.000    0.000 
#    0.000    0.000    0.000    0.000    0.000    0.000 
#
# Total GULP energy -178868.726980 kJ/mol
# GULP energy per Si atom -5589.647718 kJ/mol
# Density = 2.205225 g / cm^3
# Si number density = 22.102553 Si / 1000 Ang^3
#
#
#
# Elastic Constant Matrix: (Units=GPa)
#
#
# Indices 1 2 3 4 5 6 
#
# 1 51.0380 -6.1568 -2.8828 -0.0001 14.7256 0.0001
# 2 -6.1568 112.3549 2.4879 0.0000 1.3290 0.0000
# 3 -2.8828 2.4879 69.0996 0.0000 12.8338 0.0000
# 4 -0.0001 0.0000 0.0000 14.1250 0.0000 -0.4425
# 5 14.7256 1.3290 12.8338 0.0000 29.8749 0.0000
# 6 0.0001 0.0000 0.0000 -0.4425 0.0000 14.0690
#
#
#
# Elastic Compliance Matrix: (Units=1/GPa)
#
#
# Indices 1 2 3 4 5 6 
#
# 1 0.023772 0.001384 0.003401 0.000000 -0.013240 0.000000
# 2 0.001384 0.008990 -0.000071 0.000000 -0.001052 0.000000
# 3 0.003401 -0.000071 0.016221 0.000000 -0.008642 0.000000
# 4 0.000000 0.000000 0.000000 0.070866 0.000000 0.002229
# 5 -0.013240 -0.001052 -0.008642 0.000000 0.043758 0.000000
# 6 0.000000 0.000000 0.000000 0.002229 0.000000 0.071148
#
#
# Mechanical properties :
#
#
# Convention : Reuss Voigt Hill
#
# Bulk Modulus (GPa) = 17.11955 24.37657 20.74806
# Shear Modulus (GPa) = 20.42494 27.55006 23.98750
#
# Velocity S-wave (km/s) = 3.04320 3.53436 3.29794
# Velocity P-wave (km/s) = 4.48446 5.26388 4.88972
#
# Compressibility (1/GPa) = 0.05841277
#
# Stress axis : x y z
#
# Youngs Moduli (GPa) = 42.06559 111.23206 61.64724
#
# Poissons Ratio (x) = -0.15394 -0.20967
# Poissons Ratio (y) = -0.05822 0.00435
# Poissons Ratio (z) = -0.14307 0.00785
#
# Static dielectric constant tensor:
#      x y z
#    x 1.857810 0.000000 -0.001220 
#    y 0.000000 1.832340 0.000000 
#    z -0.001220 0.000000 1.817210 
# 
# From -- ./inp_files/216763.got.cif
#   From: 2010.05.17/outbox.cif.g08.bks.cpg/sg12_109_cif.got.tgz:216763.got - 2010.06.03 13:09:07.
