data_PCOD9189543
_publ_section_title
;
Structure prediction by ZEFSAII (Michael W. Deem and Ramdas Pophale) SiO2 
 PCOD9189543
Probable space group: C 2/M
;
_chemical_formula_sum "Si O2"
_cell_formula_units_Z 50
_cell_length_a 15.238907
_cell_length_b 7.586607
_cell_length_c 21.957825
_cell_angle_alpha 90.000000
_cell_angle_beta 55.502993
_cell_angle_gamma 90.000000
_cell_volume 2092.184748
_symmetry_space_group_name_H-M "C 2/M"
_symmetry_group_IT_number 12
_symmetry_cell_setting 'monoclinic'
loop_
_space_group_symop_operation_xyz
x,y,z
-x,y,-z
-x,-y,-z
x,-y,z
1/2+x,1/2+y,z
1/2-x,1/2+y,-z
1/2-x,1/2-y,-z
1/2+x,1/2-y,z
loop_
_atom_site_type_symbol
_atom_site_label
_atom_site_fract_x
_atom_site_fract_y
_atom_site_fract_z
Si Si1 0.878964 0.217131 0.171841
Si Si2 0.402978 0.288945 0.854726
Si Si3 0.723454 0.791290 0.579819
Si Si4 0.000000 0.000000 0.000000
Si Si5 0.012678 0.288900 0.311345
Si Si6 0.334930 0.797078 0.050559
Si Si7 0.314061 0.207570 0.666880
O O1 0.841691 0.291277 0.122040
O O2 0.793459 0.268758 0.256957
O O3 0.994439 0.277785 0.149066
O O4 0.882573 0.000000 0.161591
O O5 0.402895 0.500000 0.859277
O O6 0.425798 0.244776 0.775325
O O7 0.284200 0.232996 0.919279
O O8 0.750000 0.750000 0.500000
O O9 0.606868 0.716214 0.642211
O O10 0.806512 0.730367 0.597962
O O11 0.720086 0.000000 0.587507
O O12 0.076005 0.154899 0.000839
O O13 0.002573 0.500000 0.322001
O O14 0.082919 0.218505 0.339650
O O15 0.352910 0.000000 0.024374
O O16 0.314657 0.000000 0.678892
#
# Coordination Sequence:
#
# PCOD9189543 Si02
#       7
#     8   8   8   2   8   8   8
#     4  10  19  37  65  97 129 165 207 266 325 372
#     4  10  21  36  63  98 129 158 210 267 319 372
#     4  11  24  40  57  83 122 167 212 259 319 384
#     4  12  26  48  72  90 140 178 212 260 324 390
#     4  10  21  36  59  89 120 160 208 260 316 379
#     4  11  24  43  69  98 130 175 216 261 318 388
#     4  10  20  36  61  89 120 159 206 260 316 377
#
# _framework density 23.898463
#
# number of rings (size 3 to 8) (size 9 to 14) (size 15 to 20)
#    0.000    1.600    4.000    0.720    1.120    3.200 
#    0.000    4.000    0.000    0.000    0.000    0.000 
#    0.000    0.000    0.000    0.000    0.000    0.000 
#
# Total GULP energy -139641.675743 kJ/mol
# GULP energy per Si atom -5585.667030 kJ/mol
# Density = 2.384407 g / cm^3
# Si number density = 23.898463 Si / 1000 Ang^3
#
#
#
# Elastic Constant Matrix: (Units=GPa)
#
#
# Indices 1 2 3 4 5 6 
#
# 1 90.6479 -6.6471 -0.6915 0.0000 12.0675 0.0001
# 2 -6.6471 76.3669 -18.0958 0.0000 -15.8770 0.0003
# 3 -0.6915 -18.0958 50.6991 0.0000 20.9683 0.0000
# 4 0.0000 0.0000 0.0000 28.9398 0.0000 3.7718
# 5 12.0675 -15.8770 20.9683 0.0000 39.3018 0.0000
# 6 0.0001 0.0003 0.0000 3.7718 0.0000 18.5574
#
#
#
# Elastic Compliance Matrix: (Units=1/GPa)
#
#
# Indices 1 2 3 4 5 6 
#
# 1 0.011699 0.000607 0.002259 0.000000 -0.004552 0.000000
# 2 0.000607 0.014823 0.003720 0.000000 0.003817 0.000000
# 3 0.002259 0.003720 0.026623 0.000000 -0.013394 0.000000
# 4 0.000000 0.000000 0.000000 0.035495 0.000000 -0.007214
# 5 -0.004552 0.003817 -0.013394 0.000000 0.035530 0.000000
# 6 0.000000 0.000000 0.000000 -0.007214 0.000000 0.055353
#
#
# Mechanical properties :
#
#
# Convention : Reuss Voigt Hill
#
# Bulk Modulus (GPa) = 15.07891 18.53835 16.80863
# Shear Modulus (GPa) = 26.53151 33.56968 30.05059
#
# Velocity S-wave (km/s) = 3.33555 3.75197 3.54987
# Velocity P-wave (km/s) = 4.59976 5.15206 4.88372
#
# Compressibility (1/GPa) = 0.06631777
#
# Stress axis : x y z
#
# Youngs Moduli (GPa) = 85.47401 67.46452 37.56212
#
# Poissons Ratio (x) = -0.04096 -0.08485
# Poissons Ratio (y) = -0.05190 -0.13974
# Poissons Ratio (z) = -0.19309 -0.25099
#
# Static dielectric constant tensor:
#      x y z
#    x 1.906110 0.000000 -0.021010 
#    y 0.000000 1.875720 0.000000 
#    z -0.021010 0.000000 1.949400 
# 
# From -- ./inp_files/308560.got.cif
#   From: 2010.05.17/outbox.cif.g08.bks.cpg/sg12_155_cif.got.tgz:308560.got - 2010.06.03 13:09:07.
