data_PCOD9189358
_publ_section_title
;
Structure prediction by ZEFSAII (Michael W. Deem and Ramdas Pophale) SiO2 
 PCOD9189358
Probable space group: C 2/M
;
_chemical_formula_sum "Si O2"
_cell_formula_units_Z 56
_cell_length_a 19.409209
_cell_length_b 8.528291
_cell_length_c 25.735977
_cell_angle_alpha 90.000000
_cell_angle_beta 134.148476
_cell_angle_gamma 90.000000
_cell_volume 3056.715088
_symmetry_space_group_name_H-M "C 2/M"
_symmetry_group_IT_number 12
_symmetry_cell_setting 'monoclinic'
loop_
_space_group_symop_operation_xyz
x,y,z
-x,y,-z
-x,-y,-z
x,-y,z
1/2+x,1/2+y,z
1/2-x,1/2+y,-z
1/2-x,1/2-y,-z
1/2+x,1/2-y,z
loop_
_atom_site_type_symbol
_atom_site_label
_atom_site_fract_x
_atom_site_fract_y
_atom_site_fract_z
Si Si1 0.537859 0.677085 0.802824
Si Si2 0.832048 0.809296 0.697857
Si Si3 0.109566 0.690008 0.072260
Si Si4 0.741791 0.309686 0.937961
Si Si5 0.167910 0.313834 0.419186
Si Si6 0.537643 0.676565 0.678640
Si Si7 0.747623 0.188073 0.762731
O O1 0.540855 0.500000 0.826635
O O2 0.438950 0.750582 0.768978
O O3 0.638528 0.754629 0.866501
O O4 0.532411 0.665067 0.738204
O O5 0.813707 0.749155 0.629966
O O6 0.766634 0.766621 0.712435
O O7 0.835006 0.000000 0.696066
O O8 0.108403 0.500000 0.075367
O O9 0.175620 0.739811 0.058198
O O10 0.168302 0.749103 0.154220
O O11 0.000000 0.739126 0.000000
O O12 0.741712 0.500000 0.935946
O O13 0.750000 0.250000 0.000000
O O14 0.170565 0.500000 0.418569
O O15 0.250000 0.250000 0.500000
O O16 0.062799 0.262729 0.385703
O O17 0.536034 0.500000 0.656093
O O18 0.640453 0.753564 0.720493
O O19 0.750289 0.000000 0.767624
#
# Coordination Sequence:
#
# PCOD9189358 Si02
#       7
#     8   8   8   8   8   8   8
#     4   8  15  32  54  72  99 142 187 229 284 341
#     4   9  20  37  57  84 117 153 191 238 292 343
#     4  10  22  39  55  75 110 155 199 246 303 356
#     4  10  20  34  51  74 103 142 188 238 293 349
#     4  11  22  39  64  94 123 153 192 234 281 341
#     4  10  19  37  62  84 114 154 191 233 287 344
#     4  11  22  36  58  87 118 152 197 247 294 348
#
# _framework density 18.320319999999999
#
# number of rings (size 3 to 8) (size 9 to 14) (size 15 to 20)
#    0.000    2.143    1.429    3.000    2.000    2.000 
#    0.000    1.429    0.000    4.286    0.000    0.000 
#    0.000    0.000    0.000    0.000    0.000    0.000 
#
# Total GULP energy -155873.843365 kJ/mol
# GULP energy per Si atom -5566.922977 kJ/mol
# Density = 1.827862 g / cm^3
# Si number density = 18.320320 Si / 1000 Ang^3
#
#
#
# Elastic Constant Matrix: (Units=GPa)
#
#
# Indices 1 2 3 4 5 6 
#
# 1 114.1081 34.2173 60.5561 0.0000 6.2685 0.0000
# 2 34.2173 55.9718 34.1073 0.0000 5.5413 0.0000
# 3 60.5561 34.1073 128.0328 0.0000 20.3158 0.0000
# 4 0.0000 0.0000 0.0000 27.6797 0.0000 -3.7858
# 5 6.2685 5.5413 20.3158 0.0000 27.3321 0.0000
# 6 0.0000 0.0000 0.0000 -3.7858 0.0000 19.2707
#
#
#
# Elastic Compliance Matrix: (Units=1/GPa)
#
#
# Indices 1 2 3 4 5 6 
#
# 1 0.012818 -0.004949 -0.005030 0.000000 0.001803 0.000000
# 2 -0.004949 0.023240 -0.003721 0.000000 -0.000810 0.000000
# 3 -0.005030 -0.003721 0.012333 0.000000 -0.007259 0.000000
# 4 0.000000 0.000000 0.000000 0.037125 0.000000 0.007293
# 5 0.001803 -0.000810 -0.007259 0.000000 0.041733 0.000000
# 6 0.000000 0.000000 0.000000 0.007293 0.000000 0.053325
#
#
# Mechanical properties :
#
#
# Convention : Reuss Voigt Hill
#
# Bulk Modulus (GPa) = 47.64456 61.76379 54.70418
# Shear Modulus (GPa) = 23.25876 26.13862 24.69869
#
# Velocity S-wave (km/s) = 3.56695 3.78134 3.67571
# Velocity P-wave (km/s) = 6.55950 7.26988 6.92381
#
# Compressibility (1/GPa) = 0.02098875
#
# Stress axis : x y z
#
# Youngs Moduli (GPa) = 78.01380 43.02956 81.08445
#
# Poissons Ratio (x) = 0.21297 0.40787
# Poissons Ratio (y) = 0.38612 0.30175
# Poissons Ratio (z) = 0.39243 0.16013
#
# Static dielectric constant tensor:
#      x y z
#    x 1.625620 0.000000 0.051460 
#    y 0.000000 1.700160 0.000000 
#    z 0.051460 0.000000 1.590490 
# 
# From -- ./inp_files/342547.got.cif
#   From: 2010.05.17/outbox.cif.g08.bks.cpg/sg12_172_cif.got.tgz:342547.got - 2010.06.03 13:09:07.
