data_PCOD9189301
_publ_section_title
;
Structure prediction by ZEFSAII (Michael W. Deem and Ramdas Pophale) SiO2 
 PCOD9189301
Probable space group: C 2/M
;
_chemical_formula_sum "Si O2"
_cell_formula_units_Z 50
_cell_length_a 21.097683
_cell_length_b 7.666314
_cell_length_c 13.154521
_cell_angle_alpha 90.000000
_cell_angle_beta 74.042950
_cell_angle_gamma 90.000000
_cell_volume 2045.649674
_symmetry_space_group_name_H-M "C 2/M"
_symmetry_group_IT_number 12
_symmetry_cell_setting 'monoclinic'
loop_
_space_group_symop_operation_xyz
x,y,z
-x,y,-z
-x,-y,-z
x,-y,z
1/2+x,1/2+y,z
1/2-x,1/2+y,-z
1/2-x,1/2-y,-z
1/2+x,1/2-y,z
loop_
_atom_site_type_symbol
_atom_site_label
_atom_site_fract_x
_atom_site_fract_y
_atom_site_fract_z
Si Si1 0.891934 0.214342 0.709137
Si Si2 0.200288 0.707689 0.611491
Si Si3 0.578257 0.799572 0.536413
Si Si4 0.896643 0.208682 0.072664
Si Si5 0.500000 0.500000 0.500000
Si Si6 0.988195 0.787201 0.841682
Si Si7 0.754574 0.291255 0.192059
O O1 0.892783 0.281001 0.591886
O O2 0.949942 0.276200 0.758398
O O3 0.821147 0.263654 0.790676
O O4 0.895150 0.000000 0.695914
O O5 0.198950 0.500000 0.624365
O O6 0.250000 0.750000 0.500000
O O7 0.130465 0.756938 0.597324
O O8 0.223522 0.782722 0.707572
O O9 0.523666 0.653728 0.565818
O O10 0.558689 0.000000 0.558878
O O11 0.819675 0.255129 0.097333
O O12 0.938691 0.272089 0.153453
O O13 0.899013 0.000000 0.076079
O O14 0.939361 0.260807 0.956275
O O15 0.989390 0.000000 0.835304
O O16 0.749830 0.500000 0.198410
#
# Coordination Sequence:
#
# PCOD9189301 Si02
#       7
#     8   8   8   8   2   8   8
#     4  10  19  37  61  86 117 164 201 249 312 366
#     4  10  21  37  60  86 119 160 204 253 305 364
#     4  11  24  42  63  91 124 164 214 255 306 374
#     4   9  18  36  57  84 114 150 201 254 296 367
#     4  12  26  44  64  86 128 166 206 264 312 360
#     4   8  17  35  60  82 113 157 200 244 310 368
#     4  10  21  35  56  86 122 154 200 253 306 365
#
# _framework density 24.442114
#
# number of rings (size 3 to 8) (size 9 to 14) (size 15 to 20)
#    0.000    2.240    2.400    1.200    1.120    3.200 
#    2.880    4.800    0.000    0.000    0.000    0.000 
#    0.000    0.000    0.000    0.000    0.000    0.000 
#
# Total GULP energy -139348.761992 kJ/mol
# GULP energy per Si atom -5573.950480 kJ/mol
# Density = 2.438648 g / cm^3
# Si number density = 24.442114 Si / 1000 Ang^3
#
#
#
# Elastic Constant Matrix: (Units=GPa)
#
#
# Indices 1 2 3 4 5 6 
#
# 1 108.5192 33.6638 26.7140 0.0000 1.8406 0.0000
# 2 33.6638 69.5380 -1.4217 0.0000 7.7181 0.0000
# 3 26.7140 -1.4217 82.1836 0.0000 -5.2336 0.0000
# 4 0.0000 0.0000 0.0000 23.2308 0.0000 0.3395
# 5 1.8406 7.7181 -5.2336 0.0000 38.8988 0.0000
# 6 0.0000 0.0000 0.0000 0.3395 0.0000 42.1211
#
#
#
# Elastic Compliance Matrix: (Units=1/GPa)
#
#
# Indices 1 2 3 4 5 6 
#
# 1 0.012036 -0.005916 -0.004011 0.000000 0.000065 0.000000
# 2 -0.005916 0.017613 0.002040 0.000000 -0.002940 0.000000
# 3 -0.004011 0.002040 0.013610 0.000000 0.001616 0.000000
# 4 0.000000 0.000000 0.000000 0.043051 0.000000 -0.000347
# 5 0.000065 -0.002940 0.001616 0.000000 0.026505 0.000000
# 6 0.000000 0.000000 0.000000 -0.000347 0.000000 0.023744
#
#
# Mechanical properties :
#
#
# Convention : Reuss Voigt Hill
#
# Bulk Modulus (GPa) = 36.38176 42.01701 39.19939
# Shear Modulus (GPa) = 30.96087 34.26912 32.61500
#
# Velocity S-wave (km/s) = 3.56294 3.74846 3.65688
# Velocity P-wave (km/s) = 5.64298 5.99686 5.82261
#
# Compressibility (1/GPa) = 0.02748630
#
# Stress axis : x y z
#
# Youngs Moduli (GPa) = 83.08139 56.77725 73.47661
#
# Poissons Ratio (x) = 0.33590 0.29469
# Poissons Ratio (y) = 0.49152 -0.14993
# Poissons Ratio (z) = 0.33321 -0.11585
#
# Static dielectric constant tensor:
#      x y z
#    x 2.256350 0.000000 -0.070060 
#    y 0.000000 1.896120 0.000000 
#    z -0.070060 0.000000 2.028950 
# 
# From -- ./inp_files/230127.got.cif
#   From: 2010.05.17/outbox.cif.g08.bks.cpg/sg12_116_cif.got.tgz:230127.got - 2010.06.03 13:09:07.
