data_PCOD9189774
_publ_section_title
;
Structure prediction by ZEFSAII (Michael W. Deem and Ramdas Pophale) SiO2 
 PCOD9189774
Probable space group: C 2/M
;
_chemical_formula_sum "Si O2"
_cell_formula_units_Z 64
_cell_length_a 20.283253
_cell_length_b 7.996101
_cell_length_c 31.679374
_cell_angle_alpha 90.000000
_cell_angle_beta 141.716121
_cell_angle_gamma 90.000000
_cell_volume 3183.278080
_symmetry_space_group_name_H-M "C 2/M"
_symmetry_group_IT_number 12
_symmetry_cell_setting 'monoclinic'
loop_
_space_group_symop_operation_xyz
x,y,z
-x,y,-z
-x,-y,-z
x,-y,z
1/2+x,1/2+y,z
1/2-x,1/2+y,-z
1/2-x,1/2-y,-z
1/2+x,1/2-y,z
loop_
_atom_site_type_symbol
_atom_site_label
_atom_site_fract_x
_atom_site_fract_y
_atom_site_fract_z
Si Si1 0.495364 0.696374 0.800172
Si Si2 0.011148 0.804578 0.303715
Si Si3 0.876832 0.295335 0.938847
Si Si4 0.877591 0.202053 0.438283
Si Si5 0.273468 0.702252 0.059640
Si Si6 0.280017 0.701732 0.214928
Si Si7 0.231632 0.799606 0.286107
Si Si8 0.738196 0.807523 0.446237
O O1 0.497309 0.500000 0.813834
O O2 0.489015 0.701876 0.746733
O O3 0.608598 0.768594 0.870512
O O4 0.386382 0.769997 0.763199
O O5 0.115380 0.714144 0.372350
O O6 0.897861 0.737186 0.262054
O O7 0.019948 0.000000 0.321022
O O8 0.878034 0.500000 0.939307
O O9 0.812922 0.241640 0.948880
O O10 0.808980 0.241205 0.863574
O O11 0.000000 0.240492 0.000000
O O12 0.814800 0.243810 0.363722
O O13 0.811328 0.269369 0.445609
O O14 0.000000 0.261738 0.500000
O O15 0.880496 0.000000 0.441912
O O16 0.275272 0.500000 0.064053
O O17 0.250000 0.750000 0.000000
O O18 0.282449 0.500000 0.212408
O O19 0.258939 0.748600 0.252418
O O20 0.227961 0.000000 0.286881
O O21 0.750000 0.750000 0.500000
O O22 0.767928 0.000000 0.461486
#
# Coordination Sequence:
#
# PCOD9189774 Si02
#       8
#     8   8   8   8   8   8   8   8
#     4   9  18  36  59  80 110 150 190 231 284 343
#     4  10  19  38  63  82 108 152 196 235 283 340
#     4   9  18  34  56  82 112 148 192 238 280 332
#     4  10  23  43  62  83 115 153 191 232 281 338
#     4  10  20  36  57  83 113 149 192 235 284 339
#     4  10  21  37  60  85 113 152 195 237 284 340
#     4  11  23  38  59  86 116 150 188 237 290 341
#     4  11  24  40  61  89 118 150 189 237 283 334
#
# _framework density 20.105060999999999
#
# number of rings (size 3 to 8) (size 9 to 14) (size 15 to 20)
#    0.000    2.000    2.500    0.750    3.500    1.250 
#    0.000    1.875    0.000    0.750    0.000    0.000 
#    0.000    0.000    0.000    0.000    0.000    0.000 
#
# Total GULP energy -178582.916057 kJ/mol
# GULP energy per Si atom -5580.716127 kJ/mol
# Density = 2.005930 g / cm^3
# Si number density = 20.105061 Si / 1000 Ang^3
#
#
#
# Elastic Constant Matrix: (Units=GPa)
#
#
# Indices 1 2 3 4 5 6 
#
# 1 166.3620 7.8908 75.7003 0.0002 8.5458 -0.0007
# 2 7.8908 14.2226 5.0822 0.0002 -0.7570 -0.0008
# 3 75.7003 5.0822 129.0446 0.0001 -2.1663 -0.0004
# 4 0.0002 0.0002 0.0001 17.5749 0.0000 -10.7046
# 5 8.5458 -0.7570 -2.1663 0.0000 32.3176 -0.0001
# 6 -0.0007 -0.0008 -0.0004 -10.7046 -0.0001 19.6658
#
#
#
# Elastic Compliance Matrix: (Units=1/GPa)
#
#
# Indices 1 2 3 4 5 6 
#
# 1 0.008540 -0.003117 -0.004931 0.000000 -0.002662 0.000000
# 2 -0.003117 0.072523 -0.000986 0.000002 0.002457 0.000004
# 3 -0.004931 -0.000986 0.010715 0.000000 0.001999 0.000000
# 4 0.000000 0.000002 0.000000 0.085120 0.000000 0.046333
# 5 -0.002662 0.002457 0.001999 0.000000 0.031838 0.000000
# 6 0.000000 0.000004 0.000000 0.046333 0.000000 0.076070
#
#
# Mechanical properties :
#
#
# Convention : Reuss Voigt Hill
#
# Bulk Modulus (GPa) = 13.56714 54.10843 33.83779
# Shear Modulus (GPa) = 15.26978 28.64207 21.95592
#
# Velocity S-wave (km/s) = 2.75889 3.77851 3.30822
# Velocity P-wave (km/s) = 4.11235 6.78288 5.60887
#
# Compressibility (1/GPa) = 0.07370748
#
# Stress axis : x y z
#
# Youngs Moduli (GPa) = 117.10264 13.78866 93.33140
#
# Poissons Ratio (x) = 0.04298 0.46025
# Poissons Ratio (y) = 0.36505 0.09205
# Poissons Ratio (z) = 0.57748 0.01360
#
# Static dielectric constant tensor:
#      x y z
#    x 1.714230 0.000000 0.013230 
#    y 0.000000 1.735420 0.000000 
#    z 0.013230 0.000000 1.674550 
# 
# From -- ./inp_files/378366.got.cif
#   From: 2010.05.17/outbox.cif.g08.bks.cpg/sg12_190_cif.got.tgz:378366.got - 2010.06.03 13:09:07.
