data_PCOD9189014
_publ_section_title
;
Structure prediction by ZEFSAII (Michael W. Deem and Ramdas Pophale) SiO2 
 PCOD9189014
Probable space group: C 2/M
;
_chemical_formula_sum "Si O2"
_cell_formula_units_Z 58
_cell_length_a 10.141998
_cell_length_b 15.144479
_cell_length_c 16.761170
_cell_angle_alpha 90.000000
_cell_angle_beta 89.318871
_cell_angle_gamma 90.000000
_cell_volume 2574.254616
_symmetry_space_group_name_H-M "C 2/M"
_symmetry_group_IT_number 12
_symmetry_cell_setting 'monoclinic'
loop_
_space_group_symop_operation_xyz
x,y,z
-x,y,-z
-x,-y,-z
x,-y,z
1/2+x,1/2+y,z
1/2-x,1/2+y,-z
1/2-x,1/2-y,-z
1/2+x,1/2-y,z
loop_
_atom_site_type_symbol
_atom_site_label
_atom_site_fract_x
_atom_site_fract_y
_atom_site_fract_z
Si Si1 0.181311 0.667217 0.400648
Si Si2 0.078982 0.600773 0.683773
Si Si3 0.599903 0.599033 0.191110
Si Si4 0.685491 0.364896 0.443474
Si Si5 0.232953 0.255994 0.750610
Si Si6 0.152610 0.831199 0.016106
Si Si7 0.704447 0.594146 0.852046
Si Si8 0.000000 0.000000 0.500000
O O1 0.252295 0.613755 0.469688
O O2 0.146831 0.762303 0.439260
O O3 0.275639 0.695321 0.327409
O O4 0.054643 0.622352 0.362650
O O5 0.074913 0.500000 0.712630
O O6 0.199212 0.612666 0.619934
O O7 0.109988 0.675815 0.750364
O O8 0.643927 0.500000 0.212227
O O9 0.645616 0.675156 0.250587
O O10 0.658222 0.627611 0.104277
O O11 0.443571 0.596847 0.181813
O O12 0.558092 0.423992 0.439037
O O13 0.261084 0.186116 0.820008
O O14 0.250000 0.750000 0.000000
O O15 0.189966 0.900638 0.947116
O O16 0.000000 0.805288 0.000000
O O17 0.766427 0.500000 0.827736
#
# Coordination Sequence:
#
# PCOD9189014 Si02
#       8
#     8   8   8   8   8   8   8   2
#     4  10  24  41  63  86 124 161 198 244 312 369
#     4  11  23  42  63  88 121 161 203 248 305 371
#     4  10  20  37  61  89 120 164 211 252 301 365
#     4  10  24  42  62  91 118 154 198 257 303 361
#     4  11  22  39  59  88 126 163 199 251 312 358
#     4  10  19  36  65  92 123 162 209 262 312 364
#     4  10  21  38  60  90 123 163 211 256 300 364
#     4  12  24  40  66  96 114 144 208 264 308 352
#
# _framework density 22.530792999999999
#
# number of rings (size 3 to 8) (size 9 to 14) (size 15 to 20)
#    0.000    1.655    2.069    2.069    6.759    2.759 
#    0.000    0.000    0.000    3.310    0.000    0.000 
#    0.000    0.000    0.000    0.000    0.000    0.000 
#
# Total GULP energy -161639.694803 kJ/mol
# GULP energy per Si atom -5573.782579 kJ/mol
# Density = 2.247951 g / cm^3
# Si number density = 22.530793 Si / 1000 Ang^3
#
#
#
# Elastic Constant Matrix: (Units=GPa)
#
#
# Indices 1 2 3 4 5 6 
#
# 1 38.3064 32.3298 -9.4791 0.0000 1.7732 0.0000
# 2 32.3298 134.8461 4.8225 0.0000 -3.2869 0.0000
# 3 -9.4791 4.8225 49.7617 0.0000 2.9040 0.0000
# 4 0.0000 0.0000 0.0000 26.8695 0.0000 3.9452
# 5 1.7732 -3.2869 2.9040 0.0000 27.1472 0.0000
# 6 0.0000 0.0000 0.0000 3.9452 0.0000 31.3977
#
#
#
# Elastic Compliance Matrix: (Units=1/GPa)
#
#
# Indices 1 2 3 4 5 6 
#
# 1 0.035854 -0.008985 0.007950 0.000000 -0.004280 0.000000
# 2 -0.008985 0.009719 -0.002774 0.000000 0.002060 0.000000
# 3 0.007950 -0.002774 0.022067 0.000000 -0.003216 0.000000
# 4 0.000000 0.000000 0.000000 0.037916 0.000000 -0.004764
# 5 -0.004280 0.002060 -0.003216 0.000000 0.037709 0.000000
# 6 0.000000 0.000000 0.000000 -0.004764 0.000000 0.032448
#
#
# Mechanical properties :
#
#
# Convention : Reuss Voigt Hill
#
# Bulk Modulus (GPa) = 16.66013 30.91784 23.78898
# Shear Modulus (GPa) = 24.58967 30.09895 27.34431
#
# Velocity S-wave (km/s) = 3.30719 3.65897 3.48752
# Velocity P-wave (km/s) = 4.68975 5.62165 5.17671
#
# Compressibility (1/GPa) = 0.06002354
#
# Stress axis : x y z
#
# Youngs Moduli (GPa) = 27.89121 102.88725 45.31720
#
# Poissons Ratio (x) = 0.92441 -0.36028
# Poissons Ratio (y) = 0.25059 0.12569
# Poissons Ratio (z) = -0.22174 0.28537
#
# Static dielectric constant tensor:
#      x y z
#    x 1.855960 0.000000 0.002760 
#    y 0.000000 1.965270 0.000000 
#    z 0.002760 0.000000 1.891610 
# 
# From -- ./inp_files/262933.got.cif
#   From: 2010.05.17/outbox.cif.g08.bks.cpg/sg12_132_cif.got.tgz:262933.got - 2010.06.03 13:09:07.
