data_PCOD9189280
_publ_section_title
;
Structure prediction by ZEFSAII (Michael W. Deem and Ramdas Pophale) SiO2 
 PCOD9189280
Probable space group: C 2/M
;
_chemical_formula_sum "Si O2"
_cell_formula_units_Z 56
_cell_length_a 26.144330
_cell_length_b 7.846603
_cell_length_c 15.104955
_cell_angle_alpha 90.000000
_cell_angle_beta 58.983259
_cell_angle_gamma 90.000000
_cell_volume 2655.632386
_symmetry_space_group_name_H-M "C 2/M"
_symmetry_group_IT_number 12
_symmetry_cell_setting 'monoclinic'
loop_
_space_group_symop_operation_xyz
x,y,z
-x,y,-z
-x,-y,-z
x,-y,z
1/2+x,1/2+y,z
1/2-x,1/2+y,-z
1/2-x,1/2-y,-z
1/2+x,1/2-y,z
loop_
_atom_site_type_symbol
_atom_site_label
_atom_site_fract_x
_atom_site_fract_y
_atom_site_fract_z
Si Si1 0.861375 0.200918 0.775373
Si Si2 0.977144 0.793339 0.923710
Si Si3 0.573121 0.705393 0.692548
Si Si4 0.292144 0.201076 0.380975
Si Si5 0.344131 0.800635 0.988702
Si Si6 0.253526 0.210013 0.221901
Si Si7 0.492483 0.291137 0.607750
O O1 0.839119 0.221621 0.895753
O O2 0.811882 0.267730 0.751493
O O3 0.928557 0.268239 0.703020
O O4 0.865930 0.000000 0.753647
O O5 0.911946 0.724544 0.960161
O O6 0.025875 0.737089 0.808648
O O7 0.973213 0.000000 0.923531
O O8 0.000000 0.743995 0.000000
O O9 0.572031 0.500000 0.693315
O O10 0.639823 0.756104 0.656466
O O11 0.546657 0.764418 0.622309
O O12 0.250000 0.250000 0.500000
O O13 0.272054 0.271596 0.302961
O O14 0.287701 0.000000 0.375843
O O15 0.331510 0.000000 0.989162
O O16 0.300219 0.734578 0.104374
O O17 0.254111 0.000000 0.221701
O O18 0.500000 0.237681 0.500000
O O19 0.492742 0.500000 0.609030
#
# Coordination Sequence:
#
# PCOD9189280 Si02
#       7
#     8   8   8   8   8   8   8
#     4  10  19  37  61  84 112 151 196 242 285 338
#     4  10  20  35  57  84 114 152 196 238 280 335
#     4  10  20  37  59  86 115 145 190 238 282 338
#     4  11  24  42  62  86 115 152 195 238 287 342
#     4  11  21  35  55  86 122 152 187 236 295 351
#     4   9  21  38  59  84 114 155 199 235 281 349
#     4   9  18  32  58  88 109 143 195 240 283 338
#
# _framework density 21.087257000000001
#
# number of rings (size 3 to 8) (size 9 to 14) (size 15 to 20)
#    0.000    2.000    1.429    2.143    2.000    0.857 
#    0.000    4.286    0.000    0.857    0.000    0.000 
#    0.000    0.000    0.000    0.000    0.000    0.000 
#
# Total GULP energy -156427.059440 kJ/mol
# GULP energy per Si atom -5586.680694 kJ/mol
# Density = 2.103926 g / cm^3
# Si number density = 21.087257 Si / 1000 Ang^3
#
#
#
# Elastic Constant Matrix: (Units=GPa)
#
#
# Indices 1 2 3 4 5 6 
#
# 1 168.8798 3.2024 56.4590 0.0000 19.9911 0.0000
# 2 3.2024 16.4416 1.0032 0.0000 -0.4413 0.0002
# 3 56.4590 1.0032 95.9864 0.0000 21.9297 0.0000
# 4 0.0000 0.0000 0.0000 17.3144 0.0000 -2.7179
# 5 19.9911 -0.4413 21.9297 0.0000 38.5196 0.0000
# 6 0.0000 0.0002 0.0000 -2.7179 0.0000 21.1685
#
#
#
# Elastic Compliance Matrix: (Units=1/GPa)
#
#
# Indices 1 2 3 4 5 6 
#
# 1 0.007479 -0.001255 -0.004019 0.000000 -0.001608 0.000000
# 2 -0.001255 0.061120 -0.000241 0.000000 0.001488 -0.000001
# 3 -0.004019 -0.000241 0.014149 0.000000 -0.005972 0.000000
# 4 0.000000 0.000000 0.000000 0.058943 0.000000 0.007568
# 5 -0.001608 0.001488 -0.005972 0.000000 0.030213 0.000000
# 6 0.000000 -0.000001 0.000000 0.007568 0.000000 0.048212
#
#
# Mechanical properties :
#
#
# Convention : Reuss Voigt Hill
#
# Bulk Modulus (GPa) = 13.94314 44.73745 29.34029
# Shear Modulus (GPa) = 19.60394 30.11005 24.85699
#
# Velocity S-wave (km/s) = 3.05234 3.78283 3.43704
# Velocity P-wave (km/s) = 4.36450 6.35147 5.44931
#
# Compressibility (1/GPa) = 0.07171986
#
# Stress axis : x y z
#
# Youngs Moduli (GPa) = 133.70778 16.36116 70.67695
#
# Poissons Ratio (x) = 0.02053 0.28402
# Poissons Ratio (y) = 0.16776 0.01703
# Poissons Ratio (z) = 0.53732 0.00394
#
# Static dielectric constant tensor:
#      x y z
#    x 1.737480 0.000000 0.013250 
#    y 0.000000 1.737660 0.000000 
#    z 0.013250 0.000000 1.726320 
# 
# From -- ./inp_files/238304.got.cif
#   From: 2010.05.17/outbox.cif.g08.bks.cpg/sg12_120_cif.got.tgz:238304.got - 2010.06.03 13:09:07.
