data_PCOD9189186
_publ_section_title
;
Structure prediction by ZEFSAII (Michael W. Deem and Ramdas Pophale) SiO2 
 PCOD9189186
Probable space group: C 2/M
;
_chemical_formula_sum "Si O2"
_cell_formula_units_Z 48
_cell_length_a 14.371371
_cell_length_b 24.785820
_cell_length_c 9.361291
_cell_angle_alpha 90.000000
_cell_angle_beta 142.659446
_cell_angle_gamma 90.000000
_cell_volume 2022.575608
_symmetry_space_group_name_H-M "C 2/M"
_symmetry_group_IT_number 12
_symmetry_cell_setting 'monoclinic'
loop_
_space_group_symop_operation_xyz
x,y,z
-x,y,-z
-x,-y,-z
x,-y,z
1/2+x,1/2+y,z
1/2-x,1/2+y,-z
1/2-x,1/2-y,-z
1/2+x,1/2-y,z
loop_
_atom_site_type_symbol
_atom_site_label
_atom_site_fract_x
_atom_site_fract_y
_atom_site_fract_z
Si Si1 0.665428 0.557928 0.128373
Si Si2 0.092707 0.623856 0.407814
Si Si3 0.939055 0.164323 0.093039
Si Si4 0.134684 0.562438 0.040445
Si Si5 0.260141 0.339053 0.347969
Si Si6 0.329044 0.770576 0.304927
O O1 0.714616 0.500000 0.133395
O O2 0.782210 0.580420 0.388900
O O3 0.500000 0.552661 0.000000
O O4 0.635517 0.605569 0.982719
O O5 0.126083 0.650266 0.296931
O O6 0.122889 0.674984 0.547550
O O7 0.941073 0.588730 0.194982
O O8 0.085700 0.166136 0.370867
O O9 0.800124 0.204930 0.958196
O O10 0.000000 0.171476 0.000000
O O11 0.186347 0.500000 0.086258
O O12 0.254722 0.607816 0.242124
O O13 0.000000 0.559308 0.000000
O O14 0.237989 0.280329 0.255750
O O15 0.500000 0.746744 0.500000
#
# Coordination Sequence:
#
# PCOD9189186 Si02
#       6
#     8   8   8   8   8   8
#     4   9  15  27  53  86 116 143 185 245 295 337
#     4  10  19  37  59  87 120 160 194 245 294 360
#     4  10  20  37  58  87 116 154 198 243 297 355
#     4   9  20  35  59  94 123 152 197 247 297 351
#     4  11  21  37  60  86 117 158 195 246 298 356
#     4  11  25  39  59  89 119 157 203 253 298 350
#
# _framework density 23.732116999999999
#
# number of rings (size 3 to 8) (size 9 to 14) (size 15 to 20)
#    0.000    2.000    5.000    1.000    2.333    2.667 
#    0.000    0.000    0.000   13.000    0.000    0.000 
#    0.000    0.000    0.000    0.000    0.000    0.000 
#
# Total GULP energy -133675.154238 kJ/mol
# GULP energy per Si atom -5569.798093 kJ/mol
# Density = 2.367810 g / cm^3
# Si number density = 23.732117 Si / 1000 Ang^3
#
#
#
# Elastic Constant Matrix: (Units=GPa)
#
#
# Indices 1 2 3 4 5 6 
#
# 1 33.8681 18.6482 -0.2877 0.0000 13.6247 0.0000
# 2 18.6482 194.5434 46.4127 0.0000 -5.5017 0.0000
# 3 -0.2877 46.4127 114.7608 0.0000 -6.8622 0.0000
# 4 0.0000 0.0000 0.0000 12.1475 0.0000 -5.4351
# 5 13.6247 -5.5017 -6.8622 0.0000 12.6026 0.0000
# 6 0.0000 0.0000 0.0000 -5.4351 0.0000 -33.1823
#
#
#
# Elastic Compliance Matrix: (Units=1/GPa)
#
#
# Indices 1 2 3 4 5 6 
#
# 1 0.062636 -0.007798 -0.000974 0.000000 -0.071650 0.000000
# 2 -0.007798 0.006680 -0.002111 0.000000 0.010197 0.000000
# 3 -0.000974 -0.002111 0.009895 0.000000 0.005519 0.000000
# 4 0.000000 0.000000 0.000000 0.076700 0.000000 -0.012563
# 5 -0.071650 0.010197 0.005519 0.000000 0.164266 0.000000
# 6 0.000000 0.000000 0.000000 -0.012563 0.000000 -0.028079
#
#
# Mechanical properties :
#
#
# Convention : Reuss Voigt Hill
#
# Bulk Modulus (GPa) = 17.40802 52.52431 34.96616
# Shear Modulus (GPa) = 15.01448 16.87352 15.94400
#
# Velocity S-wave (km/s) = 2.51801 2.66935 2.59478
# Velocity P-wave (km/s) = 3.97555 5.62857 4.87267
#
# Compressibility (1/GPa) = 0.05744478
#
# Stress axis : x y z
#
# Youngs Moduli (GPa) = 15.96537 149.70501 101.05886
#
# Poissons Ratio (x) = 1.16740 0.09839
# Poissons Ratio (y) = 0.12450 0.21337
# Poissons Ratio (z) = 0.01554 0.31608
#
# Static dielectric constant tensor:
#      x y z
#    x 2.060780 0.000000 0.055460 
#    y 0.000000 1.887670 0.000000 
#    z 0.055460 0.000000 1.944640 
# 
# From -- ./inp_files/160505.got.cif
#   From: 2010.05.17/outbox.cif.g08.bks.cpg/sg12_81_cif.got.tgz:160505.got - 2010.06.03 13:09:07.
