data_PCOD9189363
_publ_section_title
;
Structure prediction by ZEFSAII (Michael W. Deem and Ramdas Pophale) SiO2 
 PCOD9189363
Probable space group: C 2/M
;
_chemical_formula_sum "Si O2"
_cell_formula_units_Z 32
_cell_length_a 8.044189
_cell_length_b 15.956131
_cell_length_c 12.633713
_cell_angle_alpha 90.000000
_cell_angle_beta 49.896422
_cell_angle_gamma 90.000000
_cell_volume 1240.323118
_symmetry_space_group_name_H-M "C 2/M"
_symmetry_group_IT_number 12
_symmetry_cell_setting 'monoclinic'
loop_
_space_group_symop_operation_xyz
x,y,z
-x,y,-z
-x,-y,-z
x,-y,z
1/2+x,1/2+y,z
1/2-x,1/2+y,-z
1/2-x,1/2-y,-z
1/2+x,1/2-y,z
loop_
_atom_site_type_symbol
_atom_site_label
_atom_site_fract_x
_atom_site_fract_y
_atom_site_fract_z
Si Si1 0.785833 0.136520 0.275353
Si Si2 0.851539 0.333730 0.213557
Si Si3 0.231159 0.905089 0.032494
Si Si4 0.723424 0.851279 0.531090
O O1 0.530563 0.122709 0.367096
O O2 0.826474 0.112772 0.382265
O O3 0.819563 0.235078 0.239396
O O4 0.971635 0.095501 0.128619
O O5 0.773919 0.367764 0.132699
O O6 0.724775 0.369768 0.367746
O O7 0.111037 0.351954 0.107712
O O8 0.309760 0.000000 0.993066
O O9 0.750000 0.750000 0.500000
#
# Coordination Sequence:
#
# PCOD9189363 Si02
#       4
#     8   8   8   8
#     4  10  20  37  62  89 117 153 203 254 299 356
#     4  10  19  37  62  85 117 163 205 246 295 357
#     4  11  24  40  57  90 130 161 197 248 301 359
#     4   9  19  36  60  90 117 148 201 260 302 347
#
# _framework density 25.799727000000001
#
# number of rings (size 3 to 8) (size 9 to 14) (size 15 to 20)
#    0.000    2.000    0.000    5.250    0.000    6.000 
#    0.000   10.000    0.000    0.000    0.000    0.000 
#    0.000    0.000    0.000    0.000    0.000    0.000 
#
# Total GULP energy -89409.657332 kJ/mol
# GULP energy per Si atom -5588.103583 kJ/mol
# Density = 2.574101 g / cm^3
# Si number density = 25.799727 Si / 1000 Ang^3
#
#
#
# Elastic Constant Matrix: (Units=GPa)
#
#
# Indices 1 2 3 4 5 6 
#
# 1 61.8001 -1.3400 31.7627 0.0000 -2.5157 0.0000
# 2 -1.3400 46.4689 2.6990 0.0000 8.1535 0.0000
# 3 31.7627 2.6990 209.0338 0.0000 6.5778 0.0000
# 4 0.0000 0.0000 0.0000 -13.1176 0.0000 -9.8338
# 5 -2.5157 8.1535 6.5778 0.0000 70.2930 0.0000
# 6 0.0000 0.0000 0.0000 -9.8338 0.0000 14.1241
#
#
#
# Elastic Compliance Matrix: (Units=1/GPa)
#
#
# Indices 1 2 3 4 5 6 
#
# 1 0.017619 0.000521 -0.002710 0.000000 0.000824 0.000000
# 2 0.000521 0.021991 -0.000284 0.000000 -0.002506 0.000000
# 3 -0.002710 -0.000284 0.005217 0.000000 -0.000552 0.000000
# 4 0.000000 0.000000 0.000000 -0.050090 0.000000 -0.034874
# 5 0.000824 -0.002506 -0.000552 0.000000 0.014598 0.000000
# 6 0.000000 0.000000 0.000000 -0.034874 0.000000 0.046520
#
#
# Mechanical properties :
#
#
# Convention : Reuss Voigt Hill
#
# Bulk Modulus (GPa) = 25.07517 42.61624 33.84571
# Shear Modulus (GPa) = 67.48141 33.20531 50.34336
#
# Velocity S-wave (km/s) = 5.11983 3.59143 4.42216
# Velocity P-wave (km/s) = 6.68509 5.80963 6.26268
#
# Compressibility (1/GPa) = 0.03988009
#
# Stress axis : x y z
#
# Youngs Moduli (GPa) = 56.75768 45.47332 191.69139
#
# Poissons Ratio (x) = -0.02369 0.51945
# Poissons Ratio (y) = -0.02957 0.05449
# Poissons Ratio (z) = 0.15380 0.01293
#
# Static dielectric constant tensor:
#      x y z
#    x 2.598580 0.000000 0.009200 
#    y 0.000000 1.954390 0.000000 
#    z 0.009200 0.000000 1.963870 
# 
# From -- ./inp_files/139119.got.cif
#   From: 2010.05.17/outbox.cif.g08.bks.cpg/sg12_70_cif.got.tgz:139119.got - 2010.06.03 13:09:07.
