data_PCOD9189164
_publ_section_title
;
Structure prediction by ZEFSAII (Michael W. Deem and Ramdas Pophale) SiO2 
 PCOD9189164
Probable space group: C 2/M
;
_chemical_formula_sum "Si O2"
_cell_formula_units_Z 58
_cell_length_a 17.213672
_cell_length_b 13.172917
_cell_length_c 11.654114
_cell_angle_alpha 90.000000
_cell_angle_beta 96.826893
_cell_angle_gamma 90.000000
_cell_volume 2623.883498
_symmetry_space_group_name_H-M "C 2/M"
_symmetry_group_IT_number 12
_symmetry_cell_setting 'monoclinic'
loop_
_space_group_symop_operation_xyz
x,y,z
-x,y,-z
-x,-y,-z
x,-y,z
1/2+x,1/2+y,z
1/2-x,1/2+y,-z
1/2-x,1/2-y,-z
1/2+x,1/2-y,z
loop_
_atom_site_type_symbol
_atom_site_label
_atom_site_fract_x
_atom_site_fract_y
_atom_site_fract_z
Si Si1 0.355148 0.613697 0.052932
Si Si2 0.500000 0.500000 0.500000
Si Si3 0.336660 0.612739 0.775900
Si Si4 0.503297 0.306448 0.795282
Si Si5 0.748887 0.310008 0.778408
Si Si6 0.910223 0.387811 0.526435
Si Si7 0.113551 0.820066 0.596048
Si Si8 0.582768 0.110857 0.196305
O O1 0.331309 0.500000 0.085448
O O2 0.444116 0.630566 0.107668
O O3 0.303634 0.692269 0.116423
O O4 0.345526 0.620174 0.915835
O O5 0.567745 0.410252 0.526553
O O6 0.312143 0.500000 0.739453
O O7 0.423932 0.635731 0.746521
O O8 0.276380 0.700800 0.736742
O O9 0.556619 0.290012 0.693093
O O10 0.474884 0.201475 0.845751
O O11 0.693939 0.356346 0.670118
O O12 0.828533 0.367128 0.824770
O O13 0.877764 0.500000 0.486205
O O14 0.873760 0.283071 0.473726
O O15 0.911830 0.385135 0.664291
O O16 0.000000 0.385815 0.500000
O O17 0.556328 0.000000 0.155001
#
# Coordination Sequence:
#
# PCOD9189164 Si02
#       8
#     8   2   8   8   8   8   8   8
#     4  10  20  36  60  86 115 153 194 238 292 344
#     4  12  24  36  58  84 118 148 192 242 284 342
#     4  10  21  38  59  86 118 154 191 239 292 348
#     4  10  20  34  58  88 114 149 199 244 282 344
#     4  10  23  37  59  85 120 149 193 237 292 358
#     4  10  19  37  59  79 111 148 194 240 286 348
#     4  11  23  38  58  89 111 155 193 243 296 338
#     4  10  20  36  58  83 113 155 192 237 293 345
#
# _framework density 22.104638999999999
#
# number of rings (size 3 to 8) (size 9 to 14) (size 15 to 20)
#    0.000    1.793    2.069    1.655    5.793    2.207 
#    0.000    2.069    0.000    7.448    0.000    0.000 
#    0.000    0.000    0.000    0.000    0.000    0.000 
#
# Total GULP energy -161724.623301 kJ/mol
# GULP energy per Si atom -5576.711148 kJ/mol
# Density = 2.205433 g / cm^3
# Si number density = 22.104639 Si / 1000 Ang^3
#
#
#
# Elastic Constant Matrix: (Units=GPa)
#
#
# Indices 1 2 3 4 5 6 
#
# 1 71.3070 12.5322 8.2712 0.0000 -6.2068 0.0000
# 2 12.5322 108.3590 -0.8668 0.0000 11.5720 0.0000
# 3 8.2712 -0.8668 32.3631 0.0000 1.4038 0.0000
# 4 0.0000 0.0000 0.0000 70.9937 0.0000 -33.2964
# 5 -6.2068 11.5720 1.4038 0.0000 23.5309 0.0000
# 6 0.0000 0.0000 0.0000 -33.2964 0.0000 39.5332
#
#
#
# Elastic Compliance Matrix: (Units=1/GPa)
#
#
# Indices 1 2 3 4 5 6 
#
# 1 0.015418 -0.002405 -0.004243 0.000000 0.005502 0.000000
# 2 -0.002405 0.010122 0.001132 0.000000 -0.005680 0.000000
# 3 -0.004243 0.001132 0.032170 0.000000 -0.003595 0.000000
# 4 0.000000 0.000000 0.000000 0.023283 0.000000 0.019610
# 5 0.005502 -0.005680 -0.003595 0.000000 0.046956 0.000000
# 6 0.000000 0.000000 0.000000 0.019610 0.000000 0.041811
#
#
# Mechanical properties :
#
#
# Convention : Reuss Voigt Hill
#
# Bulk Modulus (GPa) = 21.42338 27.98914 24.70626
# Shear Modulus (GPa) = 25.46449 39.61775 32.54112
#
# Velocity S-wave (km/s) = 3.39779 4.23813 3.84101
# Velocity P-wave (km/s) = 5.01060 6.05298 5.55629
#
# Compressibility (1/GPa) = 0.04667798
#
# Stress axis : x y z
#
# Youngs Moduli (GPa) = 64.86067 98.79163 31.08468
#
# Poissons Ratio (x) = 0.23756 0.13191
# Poissons Ratio (y) = 0.15597 -0.03519
# Poissons Ratio (z) = 0.27523 -0.11184
#
# Static dielectric constant tensor:
#      x y z
#    x 1.808500 0.000000 -0.012550 
#    y 0.000000 1.838470 0.000000 
#    z -0.012550 0.000000 1.819380 
# 
# From -- ./inp_files/223267.got.cif
#   From: 2010.05.17/outbox.cif.g08.bks.cpg/sg12_112_cif.got.tgz:223267.got - 2010.06.03 13:09:07.
