data_PCOD9189361
_publ_section_title
;
Structure prediction by ZEFSAII (Michael W. Deem and Ramdas Pophale) SiO2 
 PCOD9189361
Probable space group: C 2/M
;
_chemical_formula_sum "Si O2"
_cell_formula_units_Z 48
_cell_length_a 25.868246
_cell_length_b 8.544729
_cell_length_c 12.787388
_cell_angle_alpha 90.000000
_cell_angle_beta 109.690945
_cell_angle_gamma 90.000000
_cell_volume 2661.205576
_symmetry_space_group_name_H-M "C 2/M"
_symmetry_group_IT_number 12
_symmetry_cell_setting 'monoclinic'
loop_
_space_group_symop_operation_xyz
x,y,z
-x,y,-z
-x,-y,-z
x,-y,z
1/2+x,1/2+y,z
1/2-x,1/2+y,-z
1/2-x,1/2-y,-z
1/2+x,1/2-y,z
loop_
_atom_site_type_symbol
_atom_site_label
_atom_site_fract_x
_atom_site_fract_y
_atom_site_fract_z
Si Si1 0.688209 0.812091 0.626419
Si Si2 0.885732 0.309401 0.621394
Si Si3 0.504378 0.810803 0.626167
Si Si4 0.807585 0.689224 0.750552
Si Si5 0.879388 0.813999 0.221781
Si Si6 0.306994 0.812115 0.991000
O O1 0.652486 0.760897 0.502063
O O2 0.749871 0.748802 0.666174
O O3 0.658481 0.752662 0.710735
O O4 0.689158 0.000000 0.628836
O O5 0.886460 0.500000 0.620997
O O6 0.857083 0.258916 0.709213
O O7 0.948135 0.259585 0.643777
O O8 0.500000 0.771411 0.500000
O O9 0.558652 0.737887 0.712414
O O10 0.508870 0.000000 0.635617
O O11 0.806344 0.500000 0.748802
O O12 0.812553 0.739973 0.874408
O O13 0.855824 0.747495 0.097599
O O14 0.874758 0.000000 0.218333
O O15 0.305667 0.000000 0.992166
O O16 0.250000 0.750000 0.000000
#
# Coordination Sequence:
#
# PCOD9189361 Si02
#       6
#     8   8   8   8   8   8
#     4  11  20  34  58  86 117 151 185 230 286 343
#     4   9  19  36  58  85 117 150 185 227 284 347
#     4  10  19  37  62  85 112 149 189 232 282 340
#     4  10  21  37  57  85 117 149 186 232 284 342
#     4  12  24  37  56  85 117 149 192 241 282 331
#     4  11  22  37  59  84 114 150 191 235 283 336
#
# _framework density 18.036937000000002
#
# number of rings (size 3 to 8) (size 9 to 14) (size 15 to 20)
#    0.000    1.500    3.333    3.000    0.000    1.000 
#    0.000    2.500    0.000    5.000    0.000    0.000 
#    0.000    0.000    0.000    0.000    0.000    0.000 
#
# Total GULP energy -134093.371997 kJ/mol
# GULP energy per Si atom -5587.223833 kJ/mol
# Density = 1.799588 g / cm^3
# Si number density = 18.036937 Si / 1000 Ang^3
#
#
#
# Elastic Constant Matrix: (Units=GPa)
#
#
# Indices 1 2 3 4 5 6 
#
# 1 145.2001 16.8984 42.7061 0.0000 -3.2859 0.0000
# 2 16.8984 25.7207 20.4896 0.0000 -2.3961 0.0000
# 3 42.7061 20.4896 68.2072 0.0000 8.1012 0.0000
# 4 0.0000 0.0000 0.0000 20.1827 0.0000 8.9714
# 5 -3.2859 -2.3961 8.1012 0.0000 32.4562 0.0000
# 6 0.0000 0.0000 0.0000 8.9714 0.0000 26.9936
#
#
#
# Elastic Compliance Matrix: (Units=1/GPa)
#
#
# Indices 1 2 3 4 5 6 
#
# 1 0.008633 -0.001278 -0.005270 0.000000 0.002095 0.000000
# 2 -0.001278 0.053310 -0.016145 0.000000 0.007836 0.000000
# 3 -0.005270 -0.016145 0.023719 0.000000 -0.007646 0.000000
# 4 0.000000 0.000000 0.000000 0.058136 0.000000 -0.019322
# 5 0.002095 0.007836 -0.007646 0.000000 0.033510 0.000000
# 6 0.000000 0.000000 0.000000 -0.019322 0.000000 0.043467
#
#
# Mechanical properties :
#
#
# Convention : Reuss Voigt Hill
#
# Bulk Modulus (GPa) = 24.82886 44.36846 34.59866
# Shear Modulus (GPa) = 17.88342 26.52878 22.20610
#
# Velocity S-wave (km/s) = 3.15221 3.83927 3.51258
# Velocity P-wave (km/s) = 5.20038 6.65623 5.97283
#
# Compressibility (1/GPa) = 0.04027571
#
# Stress axis : x y z
#
# Youngs Moduli (GPa) = 115.82989 18.75804 42.15992
#
# Poissons Ratio (x) = 0.02398 0.22220
# Poissons Ratio (y) = 0.14808 0.68067
# Poissons Ratio (z) = 0.61046 0.30285
#
# Static dielectric constant tensor:
#      x y z
#    x 1.600890 0.000000 -0.014390 
#    y 0.000000 1.615400 0.000000 
#    z -0.014390 0.000000 1.609640 
# 
# From -- ./inp_files/172873.got.cif
#   From: 2010.05.17/outbox.cif.g08.bks.cpg/sg12_87_cif.got.tgz:172873.got - 2010.06.03 13:09:07.
