data_PCOD9189604
_publ_section_title
;
Structure prediction by ZEFSAII (Michael W. Deem and Ramdas Pophale) SiO2 
 PCOD9189604
Probable space group: C 2/M
;
_chemical_formula_sum "Si O2"
_cell_formula_units_Z 48
_cell_length_a 21.724161
_cell_length_b 13.356638
_cell_length_c 9.739534
_cell_angle_alpha 90.000000
_cell_angle_beta 119.896301
_cell_angle_gamma 90.000000
_cell_volume 2449.976067
_symmetry_space_group_name_H-M "C 2/M"
_symmetry_group_IT_number 12
_symmetry_cell_setting 'monoclinic'
loop_
_space_group_symop_operation_xyz
x,y,z
-x,y,-z
-x,-y,-z
x,-y,z
1/2+x,1/2+y,z
1/2-x,1/2+y,-z
1/2-x,1/2-y,-z
1/2+x,1/2-y,z
loop_
_atom_site_type_symbol
_atom_site_label
_atom_site_fract_x
_atom_site_fract_y
_atom_site_fract_z
Si Si1 0.034527 0.000000 0.818156
Si Si2 0.935688 0.805836 0.328232
Si Si3 0.820245 0.260389 0.391493
Si Si4 0.141199 0.713398 0.983190
Si Si5 0.741620 0.112114 0.906908
Si Si6 0.884912 0.000000 0.800536
Si Si7 0.340591 0.270782 0.713969
O O1 0.049124 0.904917 0.740059
O O2 0.953036 0.000000 0.776277
O O3 0.081811 0.000000 0.009071
O O4 0.865366 0.812841 0.345104
O O5 0.920829 0.722931 0.195877
O O6 0.000000 0.781748 0.500000
O O7 0.806889 0.355844 0.277781
O O8 0.739522 0.232687 0.341341
O O9 0.858517 0.265461 0.581178
O O10 0.193968 0.627139 0.989903
O O11 0.192473 0.811391 0.017986
O O12 0.116357 0.723142 0.111629
O O13 0.766425 0.000000 0.920723
O O14 0.845514 0.892942 0.729906
#
# Coordination Sequence:
#
# PCOD9189604 Si02
#       7
#     4   8   8   8   8   4   8
#     4  11  23  36  54  90 124 164 207 225 300 391
#     4  11  21  36  52  81 119 158 197 246 290 355
#     4   9  21  34  56  79 109 154 198 249 298 336
#     4   9  19  33  54  82 109 155 199 236 294 352
#     4   9  18  34  58  80 111 151 195 250 296 347
#     4  11  22  36  62  86 121 170 196 243 305 367
#     4  10  19  38  54  81 117 153 204 248 290 360
#
# _framework density 19.592027999999999
#
# number of rings (size 3 to 8) (size 9 to 14) (size 15 to 20)
#    0.000    2.167    1.667    2.250    5.833    0.667 
#    0.000    0.833   14.667    8.000    0.000    0.000 
#    0.000   16.000    0.000    0.000    0.000    0.000 
#
# Total GULP energy -133658.736166 kJ/mol
# GULP energy per Si atom -5569.114007 kJ/mol
# Density = 1.954744 g / cm^3
# Si number density = 19.592028 Si / 1000 Ang^3
#
#
#
# Elastic Constant Matrix: (Units=GPa)
#
#
# Indices 1 2 3 4 5 6 
#
# 1 85.0892 25.6247 33.4276 0.0000 -14.9716 0.0000
# 2 25.6247 38.7261 12.5393 0.0000 0.4532 0.0000
# 3 33.4276 12.5393 142.2400 0.0000 -17.5471 0.0000
# 4 0.0000 0.0000 0.0000 14.2905 0.0000 -6.7809
# 5 -14.9716 0.4532 -17.5471 0.0000 37.7930 0.0000
# 6 0.0000 0.0000 0.0000 -6.7809 0.0000 21.3514
#
#
#
# Elastic Compliance Matrix: (Units=1/GPa)
#
#
# Indices 1 2 3 4 5 6 
#
# 1 0.016814 -0.010439 -0.002327 0.000000 0.005706 0.000000
# 2 -0.010439 0.033142 -0.001090 0.000000 -0.005039 0.000000
# 3 -0.002327 -0.001090 0.008021 0.000000 0.002815 0.000000
# 4 0.000000 0.000000 0.000000 0.082393 0.000000 0.026167
# 5 0.005706 -0.005039 0.002815 0.000000 0.030088 0.000000
# 6 0.000000 0.000000 0.000000 0.026167 0.000000 0.055146
#
#
# Mechanical properties :
#
#
# Convention : Reuss Voigt Hill
#
# Bulk Modulus (GPa) = 33.04275 45.47095 39.25685
# Shear Modulus (GPa) = 18.98229 27.65124 23.31676
#
# Velocity S-wave (km/s) = 3.11606 3.76087 3.45355
# Velocity P-wave (km/s) = 5.46337 6.48985 5.99861
#
# Compressibility (1/GPa) = 0.03026383
#
# Stress axis : x y z
#
# Youngs Moduli (GPa) = 59.47302 30.17343 124.67759
#
# Poissons Ratio (x) = 0.31498 0.29017
# Poissons Ratio (y) = 0.62084 0.13590
# Poissons Ratio (z) = 0.13842 0.03289
#
# Static dielectric constant tensor:
#      x y z
#    x 1.727280 0.000000 0.000360 
#    y 0.000000 1.686690 0.000000 
#    z 0.000360 0.000000 1.808460 
# 
# From -- ./inp_files/85989.got.cif
#   From: 2010.05.17/outbox.cif.g08.bks.cpg/sg12_43_cif.got.tgz:85989.got - 2010.06.03 13:09:07.
