data_PCOD9189345
_publ_section_title
;
Structure prediction by ZEFSAII (Michael W. Deem and Ramdas Pophale) SiO2 
 PCOD9189345
Probable space group: C 2/M
;
_chemical_formula_sum "Si O2"
_cell_formula_units_Z 52
_cell_length_a 10.110306
_cell_length_b 18.581168
_cell_length_c 20.251050
_cell_angle_alpha 90.000000
_cell_angle_beta 144.813976
_cell_angle_gamma 90.000000
_cell_volume 2192.214083
_symmetry_space_group_name_H-M "C 2/M"
_symmetry_group_IT_number 12
_symmetry_cell_setting 'monoclinic'
loop_
_space_group_symop_operation_xyz
x,y,z
-x,y,-z
-x,-y,-z
x,-y,z
1/2+x,1/2+y,z
1/2-x,1/2+y,-z
1/2-x,1/2-y,-z
1/2+x,1/2-y,z
loop_
_atom_site_type_symbol
_atom_site_label
_atom_site_fract_x
_atom_site_fract_y
_atom_site_fract_z
Si Si1 0.396621 0.581744 0.239097
Si Si2 0.898562 0.717058 0.707570
Si Si3 0.386952 0.080763 0.621925
Si Si4 0.424180 0.268728 0.865639
Si Si5 0.000000 0.336887 0.000000
Si Si6 0.228986 0.179137 0.445368
Si Si7 0.581179 0.575866 0.172878
O O1 0.360818 0.500000 0.247528
O O2 0.494656 0.634082 0.334977
O O3 0.573770 0.579791 0.249478
O O4 0.176677 0.613744 0.111700
O O5 0.159929 0.726725 0.786099
O O6 0.807448 0.640578 0.642900
O O7 0.907272 0.730866 0.788130
O O8 0.743698 0.781682 0.614263
O O9 0.365663 0.118454 0.541331
O O10 0.657821 0.073057 0.743636
O O11 0.286136 0.000000 0.583220
O O12 0.510636 0.350453 0.894043
O O13 0.574785 0.220334 0.975243
O O14 0.250000 0.250000 0.500000
O O15 0.463213 0.500000 0.106624
#
# Coordination Sequence:
#
# PCOD9189345 Si02
#       7
#     8   8   8   8   4   8   8
#     4  11  22  40  60  92 131 168 217 272 322 381
#     4  10  21  39  64  93 129 168 213 272 323 391
#     4   9  19  36  60  94 129 167 207 261 334 400
#     4  11  21  41  65  93 124 168 221 270 323 384
#     4  12  25  40  67  90 124 180 226 268 321 388
#     4  10  19  37  61  95 126 168 212 267 328 393
#     4   9  19  36  60  90 125 159 206 267 325 382
#
# _framework density 23.720312
#
# number of rings (size 3 to 8) (size 9 to 14) (size 15 to 20)
#    0.000    1.846    3.077    0.692    0.000    3.077 
#    2.769    6.538    0.000    4.615    0.000    0.000 
#    0.000    0.000    0.000    0.000    0.000    0.000 
#
# Total GULP energy -144965.306532 kJ/mol
# GULP energy per Si atom -5575.588713 kJ/mol
# Density = 2.366632 g / cm^3
# Si number density = 23.720312 Si / 1000 Ang^3
#
#
#
# Elastic Constant Matrix: (Units=GPa)
#
#
# Indices 1 2 3 4 5 6 
#
# 1 74.3790 28.5509 14.7407 0.0000 -15.3916 -0.0004
# 2 28.5509 249.7683 75.0317 -0.0006 -2.8586 0.0002
# 3 14.7407 75.0317 112.0649 -0.0017 -8.9138 0.0002
# 4 0.0000 -0.0006 -0.0017 33.6549 -0.0002 5.5070
# 5 -15.3916 -2.8586 -8.9138 -0.0002 30.8132 -0.0003
# 6 -0.0004 0.0002 0.0002 5.5070 -0.0003 11.1115
#
#
#
# Elastic Compliance Matrix: (Units=1/GPa)
#
#
# Indices 1 2 3 4 5 6 
#
# 1 0.015702 -0.001588 -0.000399 0.000000 0.007581 0.000001
# 2 -0.001588 0.005180 -0.003362 0.000000 -0.001285 0.000000
# 3 -0.000399 -0.003362 0.011450 0.000001 0.002801 0.000000
# 4 0.000000 0.000000 0.000001 0.032336 0.000000 -0.016026
# 5 0.007581 -0.001285 0.002801 0.000000 0.036931 0.000001
# 6 0.000001 0.000000 0.000000 -0.016026 0.000001 0.097940
#
#
# Mechanical properties :
#
#
# Convention : Reuss Voigt Hill
#
# Bulk Modulus (GPa) = 46.22390 74.76212 60.49301
# Shear Modulus (GPa) = 22.99397 36.30851 29.65124
#
# Velocity S-wave (km/s) = 3.11686 3.91665 3.53942
# Velocity P-wave (km/s) = 5.69934 7.21389 6.50087
#
# Compressibility (1/GPa) = 0.02163383
#
# Stress axis : x y z
#
# Youngs Moduli (GPa) = 63.68579 193.03275 87.33963
#
# Poissons Ratio (x) = 0.30659 0.03485
# Poissons Ratio (y) = 0.10115 0.29362
# Poissons Ratio (z) = 0.02541 0.64894
#
# Static dielectric constant tensor:
#      x y z
#    x 2.025080 0.000000 0.101040 
#    y 0.000000 1.949540 0.000000 
#    z 0.101040 0.000000 1.913950 
# 
# From -- ./inp_files/306258.got.cif
#   From: 2010.05.17/outbox.cif.g08.bks.cpg/sg12_154_cif.got.tgz:306258.got - 2010.06.03 13:09:07.
