data_PCOD9189553
_publ_section_title
;
Structure prediction by ZEFSAII (Michael W. Deem and Ramdas Pophale) SiO2 
 PCOD9189553
Probable space group: C 2/M
;
_chemical_formula_sum "Si O2"
_cell_formula_units_Z 40
_cell_length_a 10.567326
_cell_length_b 22.341499
_cell_length_c 14.273310
_cell_angle_alpha 90.000000
_cell_angle_beta 29.978752
_cell_angle_gamma 90.000000
_cell_volume 1683.809821
_symmetry_space_group_name_H-M "C 2/M"
_symmetry_group_IT_number 12
_symmetry_cell_setting 'monoclinic'
loop_
_space_group_symop_operation_xyz
x,y,z
-x,y,-z
-x,-y,-z
x,-y,z
1/2+x,1/2+y,z
1/2-x,1/2+y,-z
1/2-x,1/2-y,-z
1/2+x,1/2-y,z
loop_
_atom_site_type_symbol
_atom_site_label
_atom_site_fract_x
_atom_site_fract_y
_atom_site_fract_z
Si Si1 0.052407 0.118190 0.856158
Si Si2 0.729763 0.873859 0.778258
Si Si3 0.971804 0.749654 0.129965
Si Si4 0.804003 0.930629 0.420423
Si Si5 0.544620 0.068010 0.195264
O O1 0.145495 0.185207 0.775989
O O2 0.197306 0.076483 0.690426
O O3 0.756716 0.111124 0.017596
O O4 0.000000 0.104654 0.000000
O O5 0.696232 0.809612 0.747637
O O6 0.690107 0.923438 0.723702
O O7 0.985982 0.886552 0.670098
O O8 0.500000 0.879323 0.000000
O O9 0.250000 0.750000 0.000000
O O10 0.000000 0.750385 0.000000
O O11 0.546347 0.916933 0.641790
O O12 0.865405 0.000000 0.402857
O O13 0.639289 0.000000 0.132343
#
# Coordination Sequence:
#
# PCOD9189553 Si02
#       5
#     8   8   8   8   8
#     4  11  23  41  66  89 127 177 220 258 322 388
#     4  11  20  37  67  93 125 164 209 263 331 385
#     4  10  19  37  66  91 123 170 216 269 320 378
#     4  11  24  41  64  97 131 164 213 274 326 381
#     4  11  23  39  63  95 130 165 211 269 325 384
#
# _framework density 23.755651
#
# number of rings (size 3 to 8) (size 9 to 14) (size 15 to 20)
#    0.000    1.200    4.000    3.000    0.000    4.800 
#    0.000    3.000   13.200    0.000    0.000    0.000 
#    0.000    0.000    0.000    0.000    0.000    0.000 
#
# Total GULP energy -111579.656270 kJ/mol
# GULP energy per Si atom -5578.982814 kJ/mol
# Density = 2.370158 g / cm^3
# Si number density = 23.755651 Si / 1000 Ang^3
#
#
#
# Elastic Constant Matrix: (Units=GPa)
#
#
# Indices 1 2 3 4 5 6 
#
# 1 113.6609 -1.6226 19.7699 -0.0281 17.8659 0.0092
# 2 -1.6226 115.1883 35.7383 -0.0254 2.6851 0.0070
# 3 19.7699 35.7383 105.4631 -0.0687 14.4119 0.0211
# 4 -0.0281 -0.0254 -0.0687 -10.7120 0.0217 15.0050
# 5 17.8659 2.6851 14.4119 0.0217 34.4472 -0.0081
# 6 0.0092 0.0070 0.0211 15.0050 -0.0081 34.8511
#
#
#
# Elastic Compliance Matrix: (Units=1/GPa)
#
#
# Indices 1 2 3 4 5 6 
#
# 1 0.009770 0.000692 -0.001449 -0.000019 -0.004515 0.000005
# 2 0.000692 0.009765 -0.003485 -0.000001 0.000338 0.000001
# 3 -0.001449 -0.003485 0.011449 -0.000049 -0.003767 0.000014
# 4 -0.000019 -0.000001 -0.000049 -0.058233 0.000073 0.025072
# 5 -0.004515 0.000338 -0.003767 0.000073 0.032921 -0.000020
# 6 0.000005 0.000001 0.000014 0.025072 -0.000020 0.017899
#
#
# Mechanical properties :
#
#
# Convention : Reuss Voigt Hill
#
# Bulk Modulus (GPa) = 44.44359 49.12037 46.78198
# Shear Modulus (GPa) = 126.41083 30.41238 78.41160
#
# Velocity S-wave (km/s) = 7.30263 3.58189 5.75145
# Velocity P-wave (km/s) = 9.47913 6.15052 7.99008
#
# Compressibility (1/GPa) = 0.02250043
#
# Stress axis : x y z
#
# Youngs Moduli (GPa) = 102.35743 102.41149 87.34174
#
# Poissons Ratio (x) = -0.07092 0.12657
# Poissons Ratio (y) = -0.07088 0.30437
# Poissons Ratio (z) = 0.14833 0.35689
#
# Static dielectric constant tensor:
#      x y z
#    x 1.987910 -0.000010 -0.045020 
#    y -0.000010 1.937240 0.000010 
#    z -0.045020 0.000010 1.870460 
# 
# From -- ./inp_files/90754.got.cif
#   From: 2010.05.17/outbox.cif.g08.bks.cpg/sg12_46_cif.got.tgz:90754.got - 2010.06.03 13:09:07.
