data_PCOD9189634
_publ_section_title
;
Structure prediction by ZEFSAII (Michael W. Deem and Ramdas Pophale) SiO2 
 PCOD9189634
Probable space group: C 2/M
;
_chemical_formula_sum "Si O2"
_cell_formula_units_Z 40
_cell_length_a 12.710883
_cell_length_b 24.503045
_cell_length_c 12.529324
_cell_angle_alpha 90.000000
_cell_angle_beta 145.389118
_cell_angle_gamma 90.000000
_cell_volume 2216.520786
_symmetry_space_group_name_H-M "C 2/M"
_symmetry_group_IT_number 12
_symmetry_cell_setting 'monoclinic'
loop_
_space_group_symop_operation_xyz
x,y,z
-x,y,-z
-x,-y,-z
x,-y,z
1/2+x,1/2+y,z
1/2-x,1/2+y,-z
1/2-x,1/2-y,-z
1/2+x,1/2-y,z
loop_
_atom_site_type_symbol
_atom_site_label
_atom_site_fract_x
_atom_site_fract_y
_atom_site_fract_z
Si Si1 0.000000 0.099945 0.000000
Si Si2 0.637180 0.636507 0.453041
Si Si3 0.340693 0.562115 0.083266
Si Si4 0.939952 0.434948 0.826816
Si Si5 0.000000 0.223782 0.500000
Si Si6 0.196120 0.670246 0.627976
O O1 0.852092 0.139121 0.821655
O O2 0.094658 0.065963 0.984964
O O3 0.481323 0.598307 0.269573
O O4 0.769747 0.601526 0.642576
O O5 0.531667 0.684453 0.426943
O O6 0.760711 0.661834 0.460532
O O7 0.352211 0.500000 0.132004
O O8 0.126352 0.578641 0.916203
O O9 0.898312 0.500000 0.779940
O O10 0.000000 0.425623 0.000000
O O11 0.171468 0.266459 0.641346
O O12 0.000000 0.645141 0.500000
#
# Coordination Sequence:
#
# PCOD9189634 Si02
#       6
#     4   8   8   8   4   8
#     4  10  19  38  58  82 112 144 177 226 276 320
#     4  11  20  38  58  79 112 147 179 225 277 318
#     4  10  21  36  58  86 111 142 180 221 273 333
#     4  10  21  36  56  83 112 142 180 224 272 330
#     4  10  22  38  55  80 109 146 188 230 264 316
#     4   9  21  37  55  80 109 144 183 228 266 318
#
# _framework density 18.046301
#
# number of rings (size 3 to 8) (size 9 to 14) (size 15 to 20)
#    0.600    1.400    0.000    3.900    0.000    0.000 
#    5.400    6.000    0.000    9.600    0.000    0.000 
#    0.000    0.000    0.000    0.000    0.000    0.000 
#
# Total GULP energy -111452.671571 kJ/mol
# GULP energy per Si atom -5572.633579 kJ/mol
# Density = 1.800523 g / cm^3
# Si number density = 18.046301 Si / 1000 Ang^3
#
#
#
# Elastic Constant Matrix: (Units=GPa)
#
#
# Indices 1 2 3 4 5 6 
#
# 1 64.4516 21.3861 9.6532 0.0000 -7.5482 0.0000
# 2 21.3861 83.4872 32.3730 0.0000 2.1714 0.0000
# 3 9.6532 32.3730 61.0520 0.0001 -11.7118 0.0000
# 4 0.0000 0.0000 0.0001 10.0393 0.0000 6.7397
# 5 -7.5482 2.1714 -11.7118 0.0000 12.4094 0.0000
# 6 0.0000 0.0000 0.0000 6.7397 0.0000 36.1134
#
#
#
# Elastic Compliance Matrix: (Units=1/GPa)
#
#
# Indices 1 2 3 4 5 6 
#
# 1 0.019108 -0.006743 0.003676 0.000000 0.016272 0.000000
# 2 -0.006743 0.019212 -0.012886 0.000000 -0.019625 0.000000
# 3 0.003676 -0.012886 0.028686 0.000000 0.031564 0.000000
# 4 0.000000 0.000000 0.000000 0.113876 -0.000001 -0.021252
# 5 0.016272 -0.019625 0.031564 -0.000001 0.123706 0.000000
# 6 0.000000 0.000000 0.000000 -0.021252 0.000000 0.031657
#
#
# Mechanical properties :
#
#
# Convention : Reuss Voigt Hill
#
# Bulk Modulus (GPa) = 28.49002 37.31282 32.90142
# Shear Modulus (GPa) = 13.16300 21.41764 17.29032
#
# Velocity S-wave (km/s) = 2.70367 3.44876 3.09869
# Velocity P-wave (km/s) = 5.05647 6.04811 5.57438
#
# Compressibility (1/GPa) = 0.03510001
#
# Stress axis : x y z
#
# Youngs Moduli (GPa) = 52.33354 52.04981 34.85993
#
# Poissons Ratio (x) = 0.35099 -0.12814
# Poissons Ratio (y) = 0.35290 0.44920
# Poissons Ratio (z) = -0.19238 0.67071
#
# Static dielectric constant tensor:
#      x y z
#    x 1.648560 0.000000 -0.001480 
#    y 0.000000 1.605520 0.000000 
#    z -0.001480 0.000000 1.567440 
# 
# From -- ./inp_files/12038.got.cif
#   From: 2010.05.17/outbox.cif.g08.bks.cpg/sg12_7_cif.got.tgz:12038.got - 2010.06.03 13:09:07.
