data_PCOD9189188
_publ_section_title
;
Structure prediction by ZEFSAII (Michael W. Deem and Ramdas Pophale) SiO2 
 PCOD9189188
Probable space group: C 2/M
;
_chemical_formula_sum "Si O2"
_cell_formula_units_Z 64
_cell_length_a 9.847433
_cell_length_b 27.894181
_cell_length_c 12.852522
_cell_angle_alpha 90.000000
_cell_angle_beta 76.851881
_cell_angle_gamma 90.000000
_cell_volume 3437.860166
_symmetry_space_group_name_H-M "C 2/M"
_symmetry_group_IT_number 12
_symmetry_cell_setting 'monoclinic'
loop_
_space_group_symop_operation_xyz
x,y,z
-x,y,-z
-x,-y,-z
x,-y,z
1/2+x,1/2+y,z
1/2-x,1/2+y,-z
1/2-x,1/2-y,-z
1/2+x,1/2-y,z
loop_
_atom_site_type_symbol
_atom_site_label
_atom_site_fract_x
_atom_site_fract_y
_atom_site_fract_z
Si Si1 0.657062 0.224671 0.931741
Si Si2 0.835287 0.055122 0.497989
Si Si3 0.396044 0.716761 0.615506
Si Si4 0.799259 0.887268 0.704190
Si Si5 0.152788 0.778868 0.713155
Si Si6 0.841464 0.055751 0.068620
Si Si7 0.341163 0.113890 0.064818
Si Si8 0.381464 0.607503 0.279521
O O1 0.665427 0.251987 0.820930
O O2 0.703649 0.169561 0.921619
O O3 0.500000 0.225651 0.000000
O O4 0.750000 0.250000 0.000000
O O5 0.769253 0.081472 0.607744
O O6 0.816797 0.083887 0.394275
O O7 0.000000 0.055793 0.500000
O O8 0.792903 0.000000 0.493833
O O9 0.500000 0.707760 0.500000
O O10 0.317192 0.667680 0.661512
O O11 0.279500 0.757548 0.622614
O O12 0.502723 0.731807 0.688294
O O13 0.686794 0.900372 0.811261
O O14 0.951235 0.897208 0.730171
O O15 0.156993 0.836383 0.721640
O O16 0.838645 0.080462 0.182124
O O17 0.799559 0.000000 0.082613
O O18 0.749355 0.084221 0.001167
O O19 0.000000 0.057594 0.000000
O O20 0.500000 0.111119 0.000000
#
# Coordination Sequence:
#
# PCOD9189188 Si02
#       8
#     8   8   8   8   8   8   8   8
#     4  11  23  37  58  85 120 160 201 243 292 354
#     4   9  18  33  58  89 116 149 193 246 299 349
#     4  11  22  38  58  86 123 158 197 244 294 354
#     4  10  19  37  59  87 123 157 197 245 295 351
#     4  11  22  36  59  87 117 162 196 237 298 350
#     4  11  23  39  64  91 119 156 199 253 307 355
#     4  11  24  41  59  87 123 162 199 247 299 366
#     4  10  20  36  61  90 122 152 195 251 301 349
#
# _framework density 18.616232
#
# number of rings (size 3 to 8) (size 9 to 14) (size 15 to 20)
#    0.000    1.500    2.500    4.125    1.750    3.250 
#    0.000    0.000    0.000    0.000    0.000    1.750 
#    0.000    0.000    0.000    0.000    0.000    0.000 
#
# Total GULP energy -178628.449560 kJ/mol
# GULP energy per Si atom -5582.139049 kJ/mol
# Density = 1.857386 g / cm^3
# Si number density = 18.616232 Si / 1000 Ang^3
#
#
#
# Elastic Constant Matrix: (Units=GPa)
#
#
# Indices 1 2 3 4 5 6 
#
# 1 31.5114 43.6208 18.5480 0.0000 2.8437 0.0000
# 2 43.6208 133.3972 68.0079 0.0000 10.0531 0.0000
# 3 18.5480 68.0079 151.7576 0.0000 -2.3944 0.0000
# 4 0.0000 0.0000 0.0000 29.7534 0.0000 7.1167
# 5 2.8437 10.0531 -2.3944 0.0000 25.7596 0.0000
# 6 0.0000 0.0000 0.0000 7.1167 0.0000 15.2462
#
#
#
# Elastic Compliance Matrix: (Units=1/GPa)
#
#
# Indices 1 2 3 4 5 6 
#
# 1 0.058438 -0.020224 0.001946 0.000000 0.001622 0.000000
# 2 -0.020224 0.017192 -0.005311 0.000000 -0.004970 0.000000
# 3 0.001946 -0.005311 0.008774 0.000000 0.002673 0.000000
# 4 0.000000 0.000000 0.000000 0.037834 0.000000 -0.017660
# 5 0.001622 -0.004970 0.002673 0.000000 0.040830 0.000000
# 6 0.000000 0.000000 0.000000 -0.017660 0.000000 0.073833
#
#
# Mechanical properties :
#
#
# Convention : Reuss Voigt Hill
#
# Bulk Modulus (GPa) = 26.86242 64.11329 45.48785
# Shear Modulus (GPa) = 16.86422 26.58449 21.72436
#
# Velocity S-wave (km/s) = 3.01306 3.78302 3.41978
# Velocity P-wave (km/s) = 5.15418 7.32092 6.33094
#
# Compressibility (1/GPa) = 0.03722673
#
# Stress axis : x y z
#
# Youngs Moduli (GPa) = 17.11217 58.16774 113.97634
#
# Poissons Ratio (x) = 1.17636 -0.22182
# Poissons Ratio (y) = 0.34607 0.60531
# Poissons Ratio (z) = -0.03330 0.30892
#
# Static dielectric constant tensor:
#      x y z
#    x 2.001030 0.000000 -0.562820 
#    y 0.000000 1.650200 0.000000 
#    z -0.562820 0.000000 2.409150 
# 
# From -- ./inp_files/135909.got.cif
#   From: 2010.05.17/outbox.cif.g08.bks.cpg/sg12_68_cif.got.tgz:135909.got - 2010.06.03 13:09:07.
