data_PCOD9189055
_publ_section_title
;
Structure prediction by ZEFSAII (Michael W. Deem and Ramdas Pophale) SiO2 
 PCOD9189055
Probable space group: C 2/M
;
_chemical_formula_sum "Si O2"
_cell_formula_units_Z 44
_cell_length_a 18.861903
_cell_length_b 13.531882
_cell_length_c 12.551838
_cell_angle_alpha 90.000000
_cell_angle_beta 137.065484
_cell_angle_gamma 90.000000
_cell_volume 2182.234781
_symmetry_space_group_name_H-M "C 2/M"
_symmetry_group_IT_number 12
_symmetry_cell_setting 'monoclinic'
loop_
_space_group_symop_operation_xyz
x,y,z
-x,y,-z
-x,-y,-z
x,-y,z
1/2+x,1/2+y,z
1/2-x,1/2+y,-z
1/2-x,1/2-y,-z
1/2+x,1/2-y,z
loop_
_atom_site_type_symbol
_atom_site_label
_atom_site_fract_x
_atom_site_fract_y
_atom_site_fract_z
Si Si1 0.562001 0.613668 0.678708
Si Si2 0.525488 0.783234 0.799726
Si Si3 0.215851 0.689912 0.153803
Si Si4 0.224900 0.000000 0.439337
Si Si5 0.677108 0.711808 0.324136
Si Si6 0.156203 0.500000 0.216914
Si Si7 0.536629 0.000000 0.292398
O O1 0.500000 0.611853 0.500000
O O2 0.564364 0.500000 0.722347
O O3 0.511687 0.695036 0.700430
O O4 0.677209 0.653558 0.779475
O O5 0.431937 0.767877 0.780969
O O6 0.516361 0.894653 0.742472
O O7 0.635698 0.771152 0.978353
O O8 0.226967 0.765216 0.264684
O O9 0.164774 0.594574 0.153219
O O10 0.167809 0.903685 0.335579
O O11 0.245652 0.000000 0.590401
O O12 0.345524 0.000000 0.531669
O O13 0.750000 0.750000 0.500000
O O14 0.941463 0.500000 0.811289
#
# Coordination Sequence:
#
# PCOD9189055 Si02
#       7
#     8   8   8   4   8   4   4
#     4  11  27  45  69  92 126 173 220 263 318 385
#     4  12  25  41  64  99 132 165 215 266 326 376
#     4  12  23  42  65  96 128 168 212 268 318 376
#     4  10  22  36  60 100 132 166 210 264 318 372
#     4  12  21  39  66  95 135 163 215 265 315 380
#     4  10  19  36  70  93 124 158 218 268 312 359
#     4  10  21  38  68  97 128 164 212 274 316 367
#
# _framework density 20.162815999999999
#
# number of rings (size 3 to 8) (size 9 to 14) (size 15 to 20)
#    0.545    0.182    6.364    2.727    1.273    0.727 
#    1.636    2.273    0.000    0.000    0.000    0.000 
#    0.000    0.000    0.000    0.000    0.000    0.000 
#
# Total GULP energy -122878.644507 kJ/mol
# GULP energy per Si atom -5585.392932 kJ/mol
# Density = 2.011692 g / cm^3
# Si number density = 20.162816 Si / 1000 Ang^3
#
#
#
# Elastic Constant Matrix: (Units=GPa)
#
#
# Indices 1 2 3 4 5 6 
#
# 1 52.4500 18.8807 -7.7893 0.0000 2.7064 0.0000
# 2 18.8807 142.6048 9.9936 0.0000 -17.6017 0.0000
# 3 -7.7893 9.9936 49.7307 0.0000 8.6380 0.0000
# 4 0.0000 0.0000 0.0000 21.5607 0.0000 -2.7857
# 5 2.7064 -17.6017 8.6380 0.0000 29.5163 0.0000
# 6 0.0000 0.0000 0.0000 -2.7857 0.0000 25.2465
#
#
#
# Elastic Compliance Matrix: (Units=1/GPa)
#
#
# Indices 1 2 3 4 5 6 
#
# 1 0.021554 -0.003938 0.005182 0.000000 -0.005841 0.000000
# 2 -0.003938 0.008578 -0.003468 0.000000 0.006491 0.000000
# 3 0.005182 -0.003468 0.023240 0.000000 -0.009345 0.000000
# 4 0.000000 0.000000 0.000000 0.047052 0.000000 0.005192
# 5 -0.005841 0.006491 -0.009345 0.000000 0.041021 0.000000
# 6 0.000000 0.000000 0.000000 0.005192 0.000000 0.040182
#
#
# Mechanical properties :
#
#
# Convention : Reuss Voigt Hill
#
# Bulk Modulus (GPa) = 20.43978 31.88395 26.16187
# Shear Modulus (GPa) = 24.70560 30.17805 27.44182
#
# Velocity S-wave (km/s) = 3.50423 3.87294 3.69319
# Velocity P-wave (km/s) = 5.15095 5.98725 5.58477
#
# Compressibility (1/GPa) = 0.04892421
#
# Stress axis : x y z
#
# Youngs Moduli (GPa) = 46.39444 116.57674 43.02932
#
# Poissons Ratio (x) = 0.45907 -0.22298
# Poissons Ratio (y) = 0.18270 0.14923
# Poissons Ratio (z) = -0.24041 0.40430
#
# Static dielectric constant tensor:
#      x y z
#    x 1.707830 0.000000 -0.011800 
#    y 0.000000 1.768510 0.000000 
#    z -0.011800 0.000000 1.661120 
# 
# From -- ./inp_files/167442.got.cif
#   From: 2010.05.17/outbox.cif.g08.bks.cpg/sg12_84_cif.got.tgz:167442.got - 2010.06.03 13:09:07.
