data_PCOD9189839
_publ_section_title
;
Structure prediction by ZEFSAII (Michael W. Deem and Ramdas Pophale) SiO2 
 PCOD9189839
Probable space group: C 2/M
;
_chemical_formula_sum "Si O2"
_cell_formula_units_Z 40
_cell_length_a 14.853405
_cell_length_b 18.319671
_cell_length_c 14.310267
_cell_angle_alpha 90.000000
_cell_angle_beta 28.551753
_cell_angle_gamma 90.000000
_cell_volume 1861.127154
_symmetry_space_group_name_H-M "C 2/M"
_symmetry_group_IT_number 12
_symmetry_cell_setting 'monoclinic'
loop_
_space_group_symop_operation_xyz
x,y,z
-x,y,-z
-x,-y,-z
x,-y,z
1/2+x,1/2+y,z
1/2-x,1/2+y,-z
1/2-x,1/2-y,-z
1/2+x,1/2-y,z
loop_
_atom_site_type_symbol
_atom_site_label
_atom_site_fract_x
_atom_site_fract_y
_atom_site_fract_z
Si Si1 0.855523 0.419151 0.420645
Si Si2 0.214822 0.317643 0.098006
Si Si3 0.930022 0.873719 0.169118
Si Si4 0.226165 0.238303 0.283699
Si Si5 0.713081 0.419665 0.344259
O O1 0.942705 0.500000 0.335583
O O2 0.733663 0.415637 0.626726
O O3 0.729005 0.410343 0.442272
O O4 0.015817 0.357517 0.273010
O O5 0.246986 0.281281 0.168999
O O6 0.250000 0.250000 0.000000
O O7 0.384950 0.374893 0.935258
O O8 0.841700 0.791300 0.247047
O O9 0.000000 0.895814 0.000000
O O10 0.294685 0.155112 0.227225
O O11 0.000000 0.236783 0.500000
O O12 0.500000 0.422144 0.500000
O O13 0.796836 0.500000 0.246261
#
# Coordination Sequence:
#
# PCOD9189839 Si02
#       5
#     8   8   8   8   8
#     4  11  24  44  67  96 137 176 216 276 334 390
#     4  11  24  39  66 101 129 174 227 273 325 395
#     4  10  23  40  63  97 132 172 225 269 330 391
#     4  10  19  38  64  92 132 169 214 269 326 387
#     4   9  20  37  63  94 124 169 216 261 330 394
#
# _framework density 21.492352
#
# number of rings (size 3 to 8) (size 9 to 14) (size 15 to 20)
#    0.000    1.800    2.000    1.200    5.600    2.800 
#    0.000    8.000    0.000    7.800    0.000    0.000 
#    0.000    0.000    0.000    0.000    0.000    0.000 
#
# Total GULP energy -111393.064325 kJ/mol
# GULP energy per Si atom -5569.653216 kJ/mol
# Density = 2.144343 g / cm^3
# Si number density = 21.492352 Si / 1000 Ang^3
#
#
#
# Elastic Constant Matrix: (Units=GPa)
#
#
# Indices 1 2 3 4 5 6 
#
# 1 78.3171 36.2520 30.5709 0.0025 -11.1851 -0.0012
# 2 36.2520 126.4928 30.2858 0.0166 3.7303 -0.0151
# 3 30.5709 30.2858 111.9309 0.0328 -11.1954 -0.0287
# 4 0.0025 0.0166 0.0328 9.3358 -0.0282 8.4340
# 5 -11.1851 3.7303 -11.1954 -0.0282 6.4147 0.0125
# 6 -0.0012 -0.0151 -0.0287 8.4340 0.0125 26.0152
#
#
#
# Elastic Compliance Matrix: (Units=1/GPa)
#
#
# Indices 1 2 3 4 5 6 
#
# 1 0.022687 -0.007935 0.000447 0.000233 0.044954 -0.000100
# 2 -0.007935 0.011893 -0.003788 -0.000145 -0.027363 0.000063
# 3 0.000447 -0.003788 0.012279 0.000053 0.024411 -0.000018
# 4 0.000233 -0.000145 0.000053 0.151487 0.001345 -0.049112
# 5 0.044954 -0.027363 0.024411 0.001345 0.292799 -0.000564
# 6 -0.000100 0.000063 -0.000018 -0.049112 -0.000564 0.054361
#
#
# Mechanical properties :
#
#
# Convention : Reuss Voigt Hill
#
# Bulk Modulus (GPa) = 41.13894 56.77314 48.95604
# Shear Modulus (GPa) = 8.67812 22.99528 15.83670
#
# Velocity S-wave (km/s) = 2.01160 3.27452 2.71745
# Velocity P-wave (km/s) = 4.95763 6.38510 5.71610
#
# Compressibility (1/GPa) = 0.02430787
#
# Stress axis : x y z
#
# Youngs Moduli (GPa) = 44.07749 84.07968 81.44290
#
# Poissons Ratio (x) = 0.66715 -0.03638
# Poissons Ratio (y) = 0.34974 0.30848
# Poissons Ratio (z) = -0.01969 0.31847
#
# Static dielectric constant tensor:
#      x y z
#    x 1.697260 -0.000030 -0.062030 
#    y -0.000030 1.918640 -0.000020 
#    z -0.062030 -0.000020 1.948210 
# 
# From -- ./inp_files/216630.got.cif
#   From: 2010.05.17/outbox.cif.g08.bks.cpg/sg12_109_cif.got.tgz:216630.got - 2010.06.03 13:09:07.
