data_PCOD9189105
_publ_section_title
;
Structure prediction by ZEFSAII (Michael W. Deem and Ramdas Pophale) SiO2 
 PCOD9189105
Probable space group: C 2/M
;
_chemical_formula_sum "Si O2"
_cell_formula_units_Z 40
_cell_length_a 18.234040
_cell_length_b 15.360549
_cell_length_c 15.383743
_cell_angle_alpha 90.000000
_cell_angle_beta 30.200304
_cell_angle_gamma 90.000000
_cell_volume 2167.408754
_symmetry_space_group_name_H-M "C 2/M"
_symmetry_group_IT_number 12
_symmetry_cell_setting 'monoclinic'
loop_
_space_group_symop_operation_xyz
x,y,z
-x,y,-z
-x,-y,-z
x,-y,z
1/2+x,1/2+y,z
1/2-x,1/2+y,-z
1/2-x,1/2-y,-z
1/2+x,1/2-y,z
loop_
_atom_site_type_symbol
_atom_site_label
_atom_site_fract_x
_atom_site_fract_y
_atom_site_fract_z
Si Si1 0.825166 0.103854 0.867630
Si Si2 0.345633 0.358092 0.033721
Si Si3 0.826873 0.500000 0.681268
Si Si4 0.430154 0.500000 0.167971
Si Si5 0.652602 0.827710 0.879839
Si Si6 0.397325 0.599009 0.520217
O O1 0.719314 0.122808 0.895004
O O2 0.989567 0.128369 0.669251
O O3 0.823430 0.000000 0.885401
O O4 0.786703 0.151662 0.996402
O O5 0.233605 0.417239 0.203247
O O6 0.367549 0.270196 0.064357
O O7 0.495776 0.413812 0.868846
O O8 0.741265 0.500000 0.676067
O O9 0.000000 0.500000 0.500000
O O10 0.500000 0.500000 0.000000
O O11 0.767629 0.838798 0.683222
O O12 0.500000 0.861772 0.000000
O O13 0.500000 0.592820 0.500000
O O14 0.345316 0.500000 0.554718
#
# Coordination Sequence:
#
# PCOD9189105 Si02
#       6
#     8   8   4   4   8   8
#     4  10  19  37  60  77 104 146 195 222 268 325
#     4  10  19  37  57  78 109 148 186 218 271 334
#     4  10  20  34  56  84 110 141 179 227 275 320
#     4   8  16  34  56  74 102 151 184 207 257 344
#     4  11  21  33  53  85 114 144 178 230 278 322
#     4   8  17  33  53  75 100 145 189 217 258 326
#
# _framework density 18.455219
#
# number of rings (size 3 to 8) (size 9 to 14) (size 15 to 20)
#    0.000    2.600    2.000    4.200    0.000    4.000 
#    0.000    3.000    0.000    0.000    0.000    0.000 
#    0.000    0.000    0.000    0.000    0.000    0.000 
#
# Total GULP energy -111340.903900 kJ/mol
# GULP energy per Si atom -5567.045195 kJ/mol
# Density = 1.841321 g / cm^3
# Si number density = 18.455219 Si / 1000 Ang^3
#
#
#
# Elastic Constant Matrix: (Units=GPa)
#
#
# Indices 1 2 3 4 5 6 
#
# 1 90.2890 17.9489 46.8763 0.0000 -9.5404 0.0000
# 2 17.9489 55.3752 27.1831 -0.0001 -3.9564 0.0000
# 3 46.8763 27.1831 87.8247 -0.0001 -19.8174 0.0000
# 4 0.0000 -0.0001 -0.0001 5.5150 0.0000 -2.5608
# 5 -9.5404 -3.9564 -19.8174 0.0000 31.7032 0.0000
# 6 0.0000 0.0000 0.0000 -2.5608 0.0000 3.5082
#
#
#
# Elastic Compliance Matrix: (Units=1/GPa)
#
#
# Indices 1 2 3 4 5 6 
#
# 1 0.015387 -0.001104 -0.007984 0.000000 -0.000498 0.000000
# 2 -0.001104 0.021452 -0.006428 0.000000 -0.001673 0.000000
# 3 -0.007984 -0.006428 0.019692 0.000000 0.009104 0.000000
# 4 0.000000 0.000000 0.000000 0.274286 0.000000 0.200213
# 5 -0.000498 -0.001673 0.009104 0.000000 0.036875 0.000000
# 6 0.000000 0.000000 0.000000 0.200213 0.000000 0.431194
#
#
# Mechanical properties :
#
#
# Convention : Reuss Voigt Hill
#
# Bulk Modulus (GPa) = 39.21605 46.38950 42.80278
# Shear Modulus (GPa) = 5.96361 17.57734 11.77048
#
# Velocity S-wave (km/s) = 1.79956 3.08950 2.52818
# Velocity P-wave (km/s) = 5.06096 6.15772 5.63608
#
# Compressibility (1/GPa) = 0.02549976
#
# Stress axis : x y z
#
# Youngs Moduli (GPa) = 64.98848 46.61478 50.78332
#
# Poissons Ratio (x) = 0.05146 0.40543
# Poissons Ratio (y) = 0.07175 0.32644
# Poissons Ratio (z) = 0.51884 0.29965
#
# Static dielectric constant tensor:
#      x y z
#    x 1.697180 0.000000 -0.002500 
#    y 0.000000 1.675880 0.000000 
#    z -0.002500 0.000000 1.650330 
# 
# From -- ./inp_files/85528.got.cif
#   From: 2010.05.17/outbox.cif.g08.bks.cpg/sg12_43_cif.got.tgz:85528.got - 2010.06.03 13:09:07.
