data_PCOD9189924
_publ_section_title
;
Structure prediction by ZEFSAII (Michael W. Deem and Ramdas Pophale) SiO2 
 PCOD9189924
Probable space group: C 2/M
;
_chemical_formula_sum "Si O2"
_cell_formula_units_Z 64
_cell_length_a 13.803717
_cell_length_b 13.740782
_cell_length_c 15.351508
_cell_angle_alpha 90.000000
_cell_angle_beta 117.455501
_cell_angle_gamma 90.000000
_cell_volume 2583.823731
_symmetry_space_group_name_H-M "C 2/M"
_symmetry_group_IT_number 12
_symmetry_cell_setting 'monoclinic'
loop_
_space_group_symop_operation_xyz
x,y,z
-x,y,-z
-x,-y,-z
x,-y,z
1/2+x,1/2+y,z
1/2-x,1/2+y,-z
1/2-x,1/2-y,-z
1/2+x,1/2-y,z
loop_
_atom_site_type_symbol
_atom_site_label
_atom_site_fract_x
_atom_site_fract_y
_atom_site_fract_z
Si Si1 0.448128 0.175764 0.389154
Si Si2 0.685931 0.603187 0.441760
Si Si3 0.311425 0.389589 0.132884
Si Si4 0.505693 0.693055 0.898770
Si Si5 0.284775 0.708898 0.716931
Si Si6 0.410322 0.110353 0.038119
Si Si7 0.136544 0.612053 0.334102
Si Si8 0.927798 0.889806 0.362330
O O1 0.500000 0.131095 0.500000
O O2 0.326728 0.154053 0.302561
O O3 0.536365 0.158001 0.349350
O O4 0.415922 0.286964 0.405184
O O5 0.710597 0.500000 0.406977
O O6 0.708241 0.685971 0.382603
O O7 0.763278 0.607813 0.556220
O O8 0.558508 0.602854 0.410065
O O9 0.278130 0.500000 0.134638
O O10 0.401258 0.378263 0.096010
O O11 0.375365 0.363162 0.247111
O O12 0.199000 0.344996 0.052111
O O13 0.389372 0.667155 0.809953
O O14 0.544300 0.802010 0.883723
O O15 0.500000 0.693245 0.000000
O O16 0.315071 0.825123 0.726490
O O17 0.392270 0.000000 0.066683
O O18 0.500000 0.099764 0.000000
O O19 0.109691 0.500000 0.298057
O O20 0.891497 0.000000 0.373673
#
# Coordination Sequence:
#
# PCOD9189924 Si02
#       8
#     8   8   8   8   8   8   8   8
#     4  12  24  38  66  98 135 170 215 266 327 391
#     4  10  19  38  68  92 123 167 212 259 318 384
#     4  10  20  39  65  87 118 164 208 260 321 378
#     4  11  24  40  62  92 125 166 215 266 317 377
#     4  12  24  42  66  93 133 176 216 268 329 384
#     4   9  20  38  60  86 116 151 200 258 313 371
#     4  11  24  44  67  96 135 178 220 265 326 396
#     4  10  21  37  62  93 124 164 213 264 321 385
#
# _framework density 24.769493000000001
#
# number of rings (size 3 to 8) (size 9 to 14) (size 15 to 20)
#    0.000    1.375    3.750    1.500    3.500    2.250 
#    2.250    0.000    0.000    0.000    0.000    0.000 
#    0.000    0.000    0.000    0.000    0.000    0.000 
#
# Total GULP energy -178488.917659 kJ/mol
# GULP energy per Si atom -5577.778677 kJ/mol
# Density = 2.471312 g / cm^3
# Si number density = 24.769493 Si / 1000 Ang^3
#
#
#
# Elastic Constant Matrix: (Units=GPa)
#
#
# Indices 1 2 3 4 5 6 
#
# 1 130.9384 -5.7299 47.2100 0.0000 40.5906 0.0000
# 2 -5.7299 52.6226 -11.9859 0.0000 6.1637 0.0000
# 3 47.2100 -11.9859 112.5880 0.0000 43.9685 0.0000
# 4 0.0000 0.0000 0.0000 27.9660 0.0000 1.8160
# 5 40.5906 6.1637 43.9685 0.0000 51.3129 0.0000
# 6 0.0000 0.0000 0.0000 1.8160 0.0000 29.7420
#
#
#
# Elastic Compliance Matrix: (Units=1/GPa)
#
#
# Indices 1 2 3 4 5 6 
#
# 1 0.010469 0.001692 -0.001347 0.000000 -0.007331 0.000000
# 2 0.001692 0.021149 0.004594 0.000000 -0.007815 0.000000
# 3 -0.001347 0.004594 0.014631 0.000000 -0.012023 0.000000
# 4 0.000000 0.000000 0.000000 0.035900 0.000000 -0.002192
# 5 -0.007331 -0.007815 -0.012023 0.000000 0.036528 0.000000
# 6 0.000000 0.000000 0.000000 -0.002192 0.000000 0.033756
#
#
# Mechanical properties :
#
#
# Convention : Reuss Voigt Hill
#
# Bulk Modulus (GPa) = 17.81643 39.45972 28.63808
# Shear Modulus (GPa) = 31.00464 39.58118 35.29291
#
# Velocity S-wave (km/s) = 3.54181 4.00181 3.77882
# Velocity P-wave (km/s) = 4.89228 6.10885 5.53410
#
# Compressibility (1/GPa) = 0.05612795
#
# Stress axis : x y z
#
# Youngs Moduli (GPa) = 95.51651 47.28289 68.34650
#
# Poissons Ratio (x) = -0.07999 0.09207
# Poissons Ratio (y) = -0.16160 -0.31400
# Poissons Ratio (z) = 0.12867 -0.21723
#
# Static dielectric constant tensor:
#      x y z
#    x 1.981350 0.000000 0.079000 
#    y 0.000000 2.084870 0.000000 
#    z 0.079000 0.000000 2.037720 
# 
# From -- ./inp_files/270715.got.cif
#   From: 2010.05.17/outbox.cif.g08.bks.cpg/sg12_136_cif.got.tgz:270715.got - 2010.06.03 13:09:07.
