data_PCOD9189346
_publ_section_title
;
Structure prediction by ZEFSAII (Michael W. Deem and Ramdas Pophale) SiO2 
 PCOD9189346
Probable space group: C 2/M
;
_chemical_formula_sum "Si O2"
_cell_formula_units_Z 64
_cell_length_a 15.038396
_cell_length_b 17.804590
_cell_length_c 17.020035
_cell_angle_alpha 90.000000
_cell_angle_beta 44.342179
_cell_angle_gamma 90.000000
_cell_volume 3185.187904
_symmetry_space_group_name_H-M "C 2/M"
_symmetry_group_IT_number 12
_symmetry_cell_setting 'monoclinic'
loop_
_space_group_symop_operation_xyz
x,y,z
-x,y,-z
-x,-y,-z
x,-y,z
1/2+x,1/2+y,z
1/2-x,1/2+y,-z
1/2-x,1/2-y,-z
1/2+x,1/2-y,z
loop_
_atom_site_type_symbol
_atom_site_label
_atom_site_fract_x
_atom_site_fract_y
_atom_site_fract_z
Si Si1 0.007849 0.086817 0.215250
Si Si2 0.249330 0.323912 0.373875
Si Si3 0.819497 0.656378 0.290198
Si Si4 0.391525 0.085590 0.405597
Si Si5 0.744796 0.411215 0.178856
Si Si6 0.824985 0.848538 0.023799
Si Si7 0.314005 0.086909 0.741767
Si Si8 0.599344 0.180134 0.042343
O O1 0.114108 0.102698 0.214207
O O2 0.889875 0.141973 0.297246
O O3 0.968489 0.000000 0.245980
O O4 0.078032 0.101908 0.088230
O O5 0.261428 0.234996 0.355930
O O6 0.164896 0.353792 0.498778
O O7 0.196185 0.361221 0.327904
O O8 0.838648 0.602640 0.352616
O O9 0.740027 0.621540 0.269066
O O10 0.959082 0.669488 0.164360
O O11 0.544391 0.091553 0.311652
O O12 0.358658 0.000000 0.450669
O O13 0.767053 0.500000 0.167424
O O14 0.855629 0.372587 0.057321
O O15 0.785066 0.885425 0.130368
O O16 0.698829 0.836977 0.049940
O O17 0.882617 0.765718 0.996715
O O18 0.290356 0.000000 0.735379
#
# Coordination Sequence:
#
# PCOD9189346 Si02
#       8
#     8   8   8   8   8   8   8   8
#     4  10  21  40  63  89 128 168 203 250 308 369
#     4  12  25  42  64  90 124 167 210 254 308 368
#     4  12  23  41  64  94 123 162 211 253 310 367
#     4  11  25  45  67  90 121 160 211 266 309 358
#     4  10  23  39  62  94 128 165 204 251 309 371
#     4  10  19  37  61  95 128 161 201 249 309 373
#     4  11  23  40  65  93 126 162 206 258 308 365
#     4  10  20  36  61  91 131 165 198 249 309 370
#
# _framework density 20.093005999999999
#
# number of rings (size 3 to 8) (size 9 to 14) (size 15 to 20)
#    0.000    1.250    2.500    3.750    0.000    4.500 
#    0.000    3.125    0.000    2.250    0.000    0.000 
#    0.000    0.000    0.000    0.000    0.000    0.000 
#
# Total GULP energy -179015.951329 kJ/mol
# GULP energy per Si atom -5594.248479 kJ/mol
# Density = 2.004727 g / cm^3
# Si number density = 20.093006 Si / 1000 Ang^3
#
#
#
# Elastic Constant Matrix: (Units=GPa)
#
#
# Indices 1 2 3 4 5 6 
#
# 1 50.0834 31.2323 17.7443 0.0000 18.7270 0.0000
# 2 31.2323 73.3976 10.7967 0.0000 11.6193 0.0000
# 3 17.7443 10.7967 75.5899 0.0000 17.7404 0.0000
# 4 0.0000 0.0000 0.0000 -88.1810 0.0000 42.5114
# 5 18.7270 11.6193 17.7404 0.0000 24.3586 0.0000
# 6 0.0000 0.0000 0.0000 42.5114 0.0000 13.6263
#
#
#
# Elastic Compliance Matrix: (Units=1/GPa)
#
#
# Indices 1 2 3 4 5 6 
#
# 1 0.035487 -0.011597 -0.001893 0.000000 -0.020372 0.000000
# 2 -0.011597 0.018546 0.000069 0.000000 0.000019 0.000000
# 3 -0.001893 0.000069 0.016078 0.000000 -0.010287 0.000000
# 4 0.000000 0.000000 0.000000 -0.004529 0.000000 0.014129
# 5 -0.020372 0.000019 -0.010287 0.000000 0.064198 0.000000
# 6 0.000000 0.000000 0.000000 0.014129 0.000000 0.029308
#
#
# Mechanical properties :
#
#
# Convention : Reuss Voigt Hill
#
# Bulk Modulus (GPa) = 23.11113 35.40195 29.25654
# Shear Modulus (GPa) = 24.95599 -0.75272 12.10163
#
# Velocity S-wave (km/s) = 3.52806 -0.61272 2.45680
# Velocity P-wave (km/s) = 5.30314 4.14207 4.75815
#
# Compressibility (1/GPa) = 0.04326920
#
# Stress axis : x y z
#
# Youngs Moduli (GPa) = 28.17968 53.91993 62.19633
#
# Poissons Ratio (x) = 0.62530 0.11772
# Poissons Ratio (y) = 0.32680 -0.00429
# Poissons Ratio (z) = 0.05334 -0.00372
#
# Static dielectric constant tensor:
#      x y z
#    x 1.720640 0.000000 -0.002260 
#    y 0.000000 1.680580 0.000000 
#    z -0.002260 0.000000 1.671620 
# 
# From -- ./inp_files/216801.got.cif
#   From: 2010.05.17/outbox.cif.g08.bks.cpg/sg12_109_cif.got.tgz:216801.got - 2010.06.03 13:09:07.
