data_PCOD9189324
_publ_section_title
;
Structure prediction by ZEFSAII (Michael W. Deem and Ramdas Pophale) SiO2 
 PCOD9189324
Probable space group: C 2/M
;
_chemical_formula_sum "Si O2"
_cell_formula_units_Z 48
_cell_length_a 25.631952
_cell_length_b 20.866823
_cell_length_c 15.003783
_cell_angle_alpha 90.000000
_cell_angle_beta 18.620691
_cell_angle_gamma 90.000000
_cell_volume 2562.358062
_symmetry_space_group_name_H-M "C 2/M"
_symmetry_group_IT_number 12
_symmetry_cell_setting 'monoclinic'
loop_
_space_group_symop_operation_xyz
x,y,z
-x,y,-z
-x,-y,-z
x,-y,z
1/2+x,1/2+y,z
1/2-x,1/2+y,-z
1/2-x,1/2-y,-z
1/2+x,1/2-y,z
loop_
_atom_site_type_symbol
_atom_site_label
_atom_site_fract_x
_atom_site_fract_y
_atom_site_fract_z
Si Si1 0.375379 0.707701 0.354315
Si Si2 0.694007 0.928195 0.086522
Si Si3 0.485376 0.571478 0.130188
Si Si4 0.172331 0.396828 0.331530
Si Si5 0.186376 0.202058 0.179294
Si Si6 0.257975 0.255204 0.244732
O O1 0.250000 0.750000 0.500000
O O2 0.375002 0.630825 0.341906
O O3 0.339887 0.724558 0.515054
O O4 0.557311 0.726953 0.028535
O O5 0.692301 0.913694 0.195166
O O6 0.506593 0.923178 0.355368
O O7 0.754942 0.000000 0.972570
O O8 0.795089 0.870759 0.881002
O O9 0.423191 0.500000 0.252693
O O10 0.500000 0.577011 0.000000
O O11 0.668034 0.577852 0.875578
O O12 0.173071 0.320804 0.348959
O O13 0.273967 0.211457 0.131787
O O14 0.000000 0.218270 0.500000
O O15 0.250000 0.250000 0.000000
#
# Coordination Sequence:
#
# PCOD9189324 Si02
#       6
#     8   8   8   8   8   8
#     4  11  22  39  62  91 119 153 201 256 307 360
#     4  11  22  36  59  88 124 161 198 252 308 363
#     4  10  21  37  60  89 122 161 205 254 305 365
#     4  10  19  37  61  88 119 156 206 249 299 367
#     4  12  24  40  59  86 121 160 206 251 300 369
#     4  11  22  37  63  88 116 159 201 252 304 358
#
# _framework density 18.732745000000001
#
# number of rings (size 3 to 8) (size 9 to 14) (size 15 to 20)
#    0.000    1.167    1.667    7.500    2.333    0.333 
#    0.000    0.833    0.000    2.000    0.000    0.000 
#    0.000    0.000    0.000    0.000    0.000    0.000 
#
# Total GULP energy -134010.396756 kJ/mol
# GULP energy per Si atom -5583.766531 kJ/mol
# Density = 1.869011 g / cm^3
# Si number density = 18.732745 Si / 1000 Ang^3
#
#
#
# Elastic Constant Matrix: (Units=GPa)
#
#
# Indices 1 2 3 4 5 6 
#
# 1 82.1895 49.0037 20.4622 0.0029 -4.0357 0.0004
# 2 49.0037 177.5182 44.3585 -0.0020 14.6582 -0.0002
# 3 20.4622 44.3585 72.7435 0.0020 1.4260 0.0009
# 4 0.0029 -0.0020 0.0020 26.9850 0.0000 0.4584
# 5 -4.0357 14.6582 1.4260 0.0000 35.9595 0.0016
# 6 0.0004 -0.0002 0.0009 0.4584 0.0016 24.7552
#
#
#
# Elastic Compliance Matrix: (Units=1/GPa)
#
#
# Indices 1 2 3 4 5 6 
#
# 1 0.015193 -0.004001 -0.001901 -0.000002 0.003411 0.000000
# 2 -0.004001 0.007942 -0.003648 0.000001 -0.003542 0.000000
# 3 -0.001901 -0.003648 0.016494 -0.000001 0.000620 -0.000001
# 4 -0.000002 0.000001 -0.000001 0.037069 -0.000001 -0.000686
# 5 0.003411 -0.003542 0.000620 -0.000001 0.029611 -0.000002
# 6 0.000000 0.000000 -0.000001 -0.000686 -0.000002 0.040408
#
#
# Mechanical properties :
#
#
# Convention : Reuss Voigt Hill
#
# Bulk Modulus (GPa) = 48.71042 62.23333 55.47187
# Shear Modulus (GPa) = 28.95871 32.11507 30.53689
#
# Velocity S-wave (km/s) = 3.93604 4.14500 4.04187
# Velocity P-wave (km/s) = 6.83490 7.49679 7.17348
#
# Compressibility (1/GPa) = 0.02052949
#
# Stress axis : x y z
#
# Youngs Moduli (GPa) = 65.81927 125.91907 60.62806
#
# Poissons Ratio (x) = 0.50377 0.11525
# Poissons Ratio (y) = 0.26332 0.22117
# Poissons Ratio (z) = 0.12512 0.45935
#
# Static dielectric constant tensor:
#      x y z
#    x 1.707420 0.000000 -0.093680 
#    y 0.000000 1.678500 0.000000 
#    z -0.093680 0.000000 1.723390 
# 
# From -- ./inp_files/190265.got.cif
#   From: 2010.05.17/outbox.cif.g08.bks.cpg/sg12_96_cif.got.tgz:190265.got - 2010.06.03 13:09:07.
