data_PCOD9189717
_publ_section_title
;
Structure prediction by ZEFSAII (Michael W. Deem and Ramdas Pophale) SiO2 
 PCOD9189717
Probable space group: C 2/M
;
_chemical_formula_sum "Si O2"
_cell_formula_units_Z 42
_cell_length_a 14.966203
_cell_length_b 9.863378
_cell_length_c 16.951304
_cell_angle_alpha 90.000000
_cell_angle_beta 128.219191
_cell_angle_gamma 90.000000
_cell_volume 1965.936015
_symmetry_space_group_name_H-M "C 2/M"
_symmetry_group_IT_number 12
_symmetry_cell_setting 'monoclinic'
loop_
_space_group_symop_operation_xyz
x,y,z
-x,y,-z
-x,-y,-z
x,-y,z
1/2+x,1/2+y,z
1/2-x,1/2+y,-z
1/2-x,1/2-y,-z
1/2+x,1/2-y,z
loop_
_atom_site_type_symbol
_atom_site_label
_atom_site_fract_x
_atom_site_fract_y
_atom_site_fract_z
Si Si1 0.905611 0.656664 0.695505
Si Si2 0.919020 0.843998 0.116281
Si Si3 0.167351 0.348992 0.057203
Si Si4 0.985994 0.272581 0.575573
Si Si5 0.000000 0.000000 0.500000
Si Si6 0.722897 0.657648 0.718326
O O1 0.931203 0.500000 0.731059
O O2 0.786892 0.690271 0.672816
O O3 0.996846 0.758125 0.783380
O O4 0.911516 0.669808 0.604818
O O5 0.794587 0.845096 0.089531
O O6 0.955156 0.000000 0.127088
O O7 0.903617 0.765922 0.025143
O O8 0.120660 0.500000 0.015647
O O9 0.187953 0.334520 0.161620
O O10 0.115368 0.250451 0.676666
O O11 0.000000 0.348374 0.500000
O O12 0.948130 0.122168 0.528372
O O13 0.678702 0.500000 0.687660
#
# Coordination Sequence:
#
# PCOD9189717 Si02
#       6
#     8   8   8   8   2   8
#     4  11  24  37  60  89 123 155 195 243 296 352
#     4  10  20  35  59  85 119 157 200 242 289 347
#     4   9  18  34  60  83 114 157 202 240 286 348
#     4  10  20  39  65  85 116 150 197 243 293 346
#     4   8  20  36  70  88 108 154 198 248 288 360
#     4  10  19  38  61  88 117 159 199 236 291 360
#
# _framework density 21.363869999999999
#
# number of rings (size 3 to 8) (size 9 to 14) (size 15 to 20)
#    0.571    1.524    2.857    0.571    1.333    2.667 
#    0.000    5.714    0.000    0.000    0.000    0.000 
#    0.000    0.000    0.000    0.000    0.000    0.000 
#
# Total GULP energy -116975.565853 kJ/mol
# GULP energy per Si atom -5570.265041 kJ/mol
# Density = 2.131525 g / cm^3
# Si number density = 21.363870 Si / 1000 Ang^3
#
#
#
# Elastic Constant Matrix: (Units=GPa)
#
#
# Indices 1 2 3 4 5 6 
#
# 1 98.3383 11.5046 24.6603 0.0000 -29.3842 0.0000
# 2 11.5046 97.1456 21.6992 0.0000 0.7336 0.0000
# 3 24.6603 21.6992 61.5628 0.0000 -18.8384 0.0000
# 4 0.0000 0.0000 0.0000 32.1292 0.0000 -4.1943
# 5 -29.3842 0.7336 -18.8384 0.0000 32.7247 0.0000
# 6 0.0000 0.0000 0.0000 -4.1943 0.0000 15.4949
#
#
#
# Elastic Compliance Matrix: (Units=1/GPa)
#
#
# Indices 1 2 3 4 5 6 
#
# 1 0.014308 -0.001437 -0.001558 0.000000 0.011983 0.000000
# 2 -0.001437 0.011575 -0.004829 0.000000 -0.004330 0.000000
# 3 -0.001558 -0.004829 0.022061 0.000000 0.011409 0.000000
# 4 0.000000 0.000000 0.000000 0.032264 0.000000 0.008734
# 5 0.011983 -0.004330 0.011409 0.000000 0.047982 0.000000
# 6 0.000000 0.000000 0.000000 0.008734 0.000000 0.066901
#
#
# Mechanical properties :
#
#
# Convention : Reuss Voigt Hill
#
# Bulk Modulus (GPa) = 30.96365 41.41943 36.19154
# Shear Modulus (GPa) = 22.57260 29.34861 25.96060
#
# Velocity S-wave (km/s) = 3.25403 3.71043 3.48970
# Velocity P-wave (km/s) = 5.35194 6.14704 5.76322
#
# Compressibility (1/GPa) = 0.03229593
#
# Stress axis : x y z
#
# Youngs Moduli (GPa) = 69.88877 86.38993 45.32864
#
# Poissons Ratio (x) = 0.12414 0.07063
# Poissons Ratio (y) = 0.10042 0.21891
# Poissons Ratio (z) = 0.10890 0.41721
#
# Static dielectric constant tensor:
#      x y z
#    x 1.736890 0.000000 -0.108320 
#    y 0.000000 1.790260 0.000000 
#    z -0.108320 0.000000 1.663690 
# 
# From -- ./inp_files/267811.got.cif
#   From: 2010.05.17/outbox.cif.g08.bks.cpg/sg12_134_cif.got.tgz:267811.got - 2010.06.03 13:09:07.
