data_PCOD9189637
_publ_section_title
;
Structure prediction by ZEFSAII (Michael W. Deem and Ramdas Pophale) SiO2 
 PCOD9189637
Probable space group: C 2/M
;
_chemical_formula_sum "Si O2"
_cell_formula_units_Z 48
_cell_length_a 16.079407
_cell_length_b 17.311190
_cell_length_c 14.663857
_cell_angle_alpha 90.000000
_cell_angle_beta 43.015974
_cell_angle_gamma 90.000000
_cell_volume 2784.571061
_symmetry_space_group_name_H-M "C 2/M"
_symmetry_group_IT_number 12
_symmetry_cell_setting 'monoclinic'
loop_
_space_group_symop_operation_xyz
x,y,z
-x,y,-z
-x,-y,-z
x,-y,z
1/2+x,1/2+y,z
1/2-x,1/2+y,-z
1/2-x,1/2-y,-z
1/2+x,1/2-y,z
loop_
_atom_site_type_symbol
_atom_site_label
_atom_site_fract_x
_atom_site_fract_y
_atom_site_fract_z
Si Si1 0.965465 0.801019 0.925940
Si Si2 0.016388 0.682175 0.242052
Si Si3 0.238268 0.410294 0.150577
Si Si4 0.272572 0.088883 0.435360
Si Si5 0.095067 0.782789 0.505182
Si Si6 0.230242 0.860273 0.671496
O O1 0.936628 0.731258 0.881253
O O2 0.086539 0.843125 0.791502
O O3 0.854908 0.860785 0.024994
O O4 0.000000 0.773207 0.000000
O O5 0.119192 0.627695 0.201989
O O6 0.898932 0.631347 0.309495
O O7 0.971733 0.742497 0.355458
O O8 0.250285 0.500000 0.117108
O O9 0.232019 0.401596 0.265361
O O10 0.336434 0.360029 0.518630
O O11 0.261915 0.094927 0.553891
O O12 0.269984 0.000000 0.409137
O O13 0.197563 0.720880 0.392117
O O14 0.000000 0.794835 0.500000
#
# Coordination Sequence:
#
# PCOD9189637 Si02
#       6
#     8   8   8   8   8   8
#     4  10  21  37  61  80 110 160 197 225 270 337
#     4  11  20  40  58  83 117 153 190 228 277 347
#     4  11  23  35  57  90 119 145 185 238 288 327
#     4  11  22  35  60  86 115 148 185 242 291 325
#     4  11  20  37  63  83 113 149 191 231 284 347
#     4  10  19  38  58  86 115 148 185 234 287 351
#
# _framework density 17.237843000000002
#
# number of rings (size 3 to 8) (size 9 to 14) (size 15 to 20)
#    0.000    1.333    5.000    2.500    0.000    4.000 
#    0.000    2.500    0.000    4.000    0.000    0.000 
#    0.000    0.000    0.000    0.000    0.000    0.000 
#
# Total GULP energy -134031.587103 kJ/mol
# GULP energy per Si atom -5584.649463 kJ/mol
# Density = 1.719861 g / cm^3
# Si number density = 17.237843 Si / 1000 Ang^3
#
#
#
# Elastic Constant Matrix: (Units=GPa)
#
#
# Indices 1 2 3 4 5 6 
#
# 1 101.7503 78.7002 32.6175 0.0000 -14.0842 0.0000
# 2 78.7002 147.8882 46.3707 0.0000 3.3147 0.0000
# 3 32.6175 46.3707 71.5259 0.0000 -1.9309 0.0000
# 4 0.0000 0.0000 0.0000 10.3322 0.0000 0.7462
# 5 -14.0842 3.3147 -1.9309 0.0000 16.9915 0.0000
# 6 0.0000 0.0000 0.0000 0.7462 0.0000 22.5033
#
#
#
# Elastic Compliance Matrix: (Units=1/GPa)
#
#
# Indices 1 2 3 4 5 6 
#
# 1 0.022446 -0.011765 -0.002051 0.000000 0.020667 0.000000
# 2 -0.011765 0.014743 -0.004548 0.000000 -0.013145 0.000000
# 3 -0.002051 -0.004548 0.017897 0.000000 0.001221 0.000000
# 4 0.000000 0.000000 0.000000 0.097017 0.000000 -0.003217
# 5 0.020667 -0.013145 0.001221 0.000000 0.078687 0.000000
# 6 0.000000 0.000000 0.000000 -0.003217 0.000000 0.044545
#
#
# Mechanical properties :
#
#
# Convention : Reuss Voigt Hill
#
# Bulk Modulus (GPa) = 54.46730 70.72680 62.59705
# Shear Modulus (GPa) = 15.71423 20.86380 18.28901
#
# Velocity S-wave (km/s) = 3.02257 3.48278 3.26080
# Velocity P-wave (km/s) = 6.62173 7.56915 7.11124
#
# Compressibility (1/GPa) = 0.01835964
#
# Stress axis : x y z
#
# Youngs Moduli (GPa) = 44.55137 67.82676 55.87379
#
# Poissons Ratio (x) = 0.79799 0.11457
# Poissons Ratio (y) = 0.52415 0.25411
# Poissons Ratio (z) = 0.09136 0.30847
#
# Static dielectric constant tensor:
#      x y z
#    x 1.574970 0.000000 0.003000 
#    y 0.000000 1.556360 0.000000 
#    z 0.003000 0.000000 1.585660 
# 
# From -- ./inp_files/225095.got.cif
#   From: 2010.05.17/outbox.cif.g08.bks.cpg/sg12_113_cif.got.tgz:225095.got - 2010.06.03 13:09:07.
