data_PCOD9189239
_publ_section_title
;
Structure prediction by ZEFSAII (Michael W. Deem and Ramdas Pophale) SiO2 
 PCOD9189239
Probable space group: C 2/M
;
_chemical_formula_sum "Si O2"
_cell_formula_units_Z 56
_cell_length_a 15.172573
_cell_length_b 23.196024
_cell_length_c 9.223943
_cell_angle_alpha 90.000000
_cell_angle_beta 63.108011
_cell_angle_gamma 90.000000
_cell_volume 2895.252608
_symmetry_space_group_name_H-M "C 2/M"
_symmetry_group_IT_number 12
_symmetry_cell_setting 'monoclinic'
loop_
_space_group_symop_operation_xyz
x,y,z
-x,y,-z
-x,-y,-z
x,-y,z
1/2+x,1/2+y,z
1/2-x,1/2+y,-z
1/2-x,1/2-y,-z
1/2+x,1/2-y,z
loop_
_atom_site_type_symbol
_atom_site_label
_atom_site_fract_x
_atom_site_fract_y
_atom_site_fract_z
Si Si1 0.994934 0.935789 0.677671
Si Si2 0.899257 0.432294 0.001669
Si Si3 0.577946 0.267363 0.313735
Si Si4 0.739409 0.168504 0.216181
Si Si5 0.896246 0.433303 0.654883
Si Si6 0.199030 0.874384 0.146436
Si Si7 0.055625 0.173731 0.808935
O O1 0.880291 0.925612 0.804796
O O2 0.000000 0.930967 0.500000
O O3 0.052045 0.883562 0.712055
O O4 0.027872 0.000000 0.695290
O O5 0.886175 0.500000 0.046921
O O6 0.803739 0.397028 0.122686
O O7 0.907442 0.427999 0.821019
O O8 0.000000 0.411928 0.000000
O O9 0.500000 0.261657 0.500000
O O10 0.652882 0.214460 0.255103
O O11 0.645468 0.324632 0.277834
O O12 0.510786 0.278339 0.221772
O O13 0.688677 0.111845 0.322369
O O14 0.831918 0.190401 0.240828
O O15 0.782387 0.151317 0.027105
O O16 0.871285 0.500000 0.640866
O O17 0.000000 0.419996 0.500000
O O18 0.000000 0.159655 0.000000
#
# Coordination Sequence:
#
# PCOD9189239 Si02
#       7
#     8   8   8   8   8   8   8
#     4  10  21  39  62  91 129 164 195 244 309 364
#     4   9  18  34  55  83 115 150 199 242 284 353
#     4  11  24  43  60  84 124 158 197 262 314 361
#     4  11  22  40  63  89 117 160 207 253 303 368
#     4   9  19  38  59  83 119 153 187 246 306 354
#     4  10  19  37  60  86 115 162 197 249 303 354
#     4  11  22  40  63  90 122 157 208 258 296 363
#
# _framework density 19.342009999999998
#
# number of rings (size 3 to 8) (size 9 to 14) (size 15 to 20)
#    0.000    1.857    2.857    3.000    0.000    2.000 
#   10.286    0.000    0.000    0.000    0.000    0.000 
#    0.000    0.000    0.000    0.000    0.000    0.000 
#
# Total GULP energy -156243.597038 kJ/mol
# GULP energy per Si atom -5580.128466 kJ/mol
# Density = 1.929799 g / cm^3
# Si number density = 19.342010 Si / 1000 Ang^3
#
#
#
# Elastic Constant Matrix: (Units=GPa)
#
#
# Indices 1 2 3 4 5 6 
#
# 1 152.6975 51.3198 24.8816 0.0000 -20.0878 0.0000
# 2 51.3198 69.7252 32.9071 0.0000 -10.8428 0.0000
# 3 24.8816 32.9071 77.0858 0.0000 -15.8601 0.0000
# 4 0.0000 0.0000 0.0000 -14.3068 0.0000 -3.7043
# 5 -20.0878 -10.8428 -15.8601 0.0000 27.2772 0.0000
# 6 0.0000 0.0000 0.0000 -3.7043 0.0000 26.2750
#
#
#
# Elastic Compliance Matrix: (Units=1/GPa)
#
#
# Indices 1 2 3 4 5 6 
#
# 1 0.009187 -0.006375 0.000712 0.000000 0.004645 0.000000
# 2 -0.006375 0.022610 -0.007623 0.000000 -0.000140 0.000000
# 3 0.000712 -0.007623 0.017585 0.000000 0.007719 0.000000
# 4 0.000000 0.000000 0.000000 -0.067435 0.000000 -0.009507
# 5 0.004645 -0.000140 0.007719 0.000000 0.044514 0.000000
# 6 0.000000 0.000000 0.000000 -0.009507 0.000000 0.036719
#
#
# Mechanical properties :
#
#
# Convention : Reuss Voigt Hill
#
# Bulk Modulus (GPa) = 43.84155 57.52507 50.68331
# Shear Modulus (GPa) = 51.35809 20.54240 35.95025
#
# Velocity S-wave (km/s) = 5.15851 3.26246 4.31590
# Velocity P-wave (km/s) = 7.62863 6.63303 7.14819
#
# Compressibility (1/GPa) = 0.02280941
#
# Stress axis : x y z
#
# Youngs Moduli (GPa) = 108.85388 44.22727 56.86646
#
# Poissons Ratio (x) = 0.28196 -0.04049
# Poissons Ratio (y) = 0.69398 0.43350
# Poissons Ratio (z) = -0.07751 0.33715
#
# Static dielectric constant tensor:
#      x y z
#    x 1.674800 0.000000 0.002290 
#    y 0.000000 1.699160 0.000000 
#    z 0.002290 0.000000 1.666970 
# 
# From -- ./inp_files/65742.got.cif
#   From: 2010.05.17/outbox.cif.g08.bks.cpg/sg12_33_cif.got.tgz:65742.got - 2010.06.03 13:09:07.
