data_PCOD9189562
_publ_section_title
;
Structure prediction by ZEFSAII (Michael W. Deem and Ramdas Pophale) SiO2 
 PCOD9189562
Probable space group: C 2/M
;
_chemical_formula_sum "Si O2"
_cell_formula_units_Z 48
_cell_length_a 9.959454
_cell_length_b 27.189538
_cell_length_c 19.587839
_cell_angle_alpha 90.000000
_cell_angle_beta 152.187784
_cell_angle_gamma 90.000000
_cell_volume 2474.831092
_symmetry_space_group_name_H-M "C 2/M"
_symmetry_group_IT_number 12
_symmetry_cell_setting 'monoclinic'
loop_
_space_group_symop_operation_xyz
x,y,z
-x,y,-z
-x,-y,-z
x,-y,z
1/2+x,1/2+y,z
1/2-x,1/2+y,-z
1/2-x,1/2-y,-z
1/2+x,1/2-y,z
loop_
_atom_site_type_symbol
_atom_site_label
_atom_site_fract_x
_atom_site_fract_y
_atom_site_fract_z
Si Si1 0.291997 0.054389 0.587906
Si Si2 0.379654 0.058699 0.869851
Si Si3 0.041937 0.778040 0.353626
Si Si4 0.768818 0.889022 0.574006
Si Si5 0.694515 0.802565 0.321287
Si Si6 0.834936 0.400886 0.137566
O O1 0.305101 0.095867 0.536538
O O2 0.549129 0.058868 0.756958
O O3 0.000000 0.059861 0.500000
O O4 0.288245 0.000000 0.553969
O O5 0.575648 0.082568 0.898430
O O6 0.062683 0.082277 0.722611
O O7 0.365075 0.000000 0.851647
O O8 0.500000 0.067323 0.000000
O O9 0.250000 0.750000 0.500000
O O10 0.172337 0.830873 0.393177
O O11 0.027456 0.741611 0.283430
O O12 0.763978 0.788361 0.274476
O O13 0.500000 0.902979 0.500000
O O14 0.515408 0.852328 0.238458
O O15 0.000000 0.809335 0.500000
O O16 0.500000 0.393082 0.000000
#
# Coordination Sequence:
#
# PCOD9189562 Si02
#       6
#     8   8   8   8   8   8
#     4  11  22  40  67  96 127 167 220 279 326 375
#     4  11  26  48  66  90 135 181 216 267 331 392
#     4  10  19  37  66  97 128 164 209 267 327 385
#     4  12  24  41  68 102 132 168 220 270 326 389
#     4  10  20  40  66  97 129 168 215 269 328 384
#     4  12  25  43  66  97 133 176 221 272 328 390
#
# _framework density 19.395263
#
# number of rings (size 3 to 8) (size 9 to 14) (size 15 to 20)
#    0.000    1.000    3.333    5.000    2.333    2.667 
#    0.000    1.667    0.000    0.000    0.000    0.000 
#    0.000    0.000    0.000    0.000    0.000    0.000 
#
# Total GULP energy -134084.867627 kJ/mol
# GULP energy per Si atom -5586.869484 kJ/mol
# Density = 1.935112 g / cm^3
# Si number density = 19.395263 Si / 1000 Ang^3
#
#
#
# Elastic Constant Matrix: (Units=GPa)
#
#
# Indices 1 2 3 4 5 6 
#
# 1 143.5719 62.0508 61.9431 0.0117 12.5182 0.0087
# 2 62.0508 123.6508 37.5289 0.0265 1.9876 0.0219
# 3 61.9431 37.5289 87.7980 -0.4012 7.9675 -0.2835
# 4 0.0117 0.0265 -0.4012 71.0168 0.0100 54.8183
# 5 12.5182 1.9876 7.9675 0.0100 31.1780 0.0215
# 6 0.0087 0.0219 -0.2835 54.8183 0.0215 97.6884
#
#
#
# Elastic Compliance Matrix: (Units=1/GPa)
#
#
# Indices 1 2 3 4 5 6 
#
# 1 0.011584 -0.003866 -0.006266 -0.000038 -0.002803 0.000004
# 2 -0.003866 0.010589 -0.001923 -0.000015 0.001369 0.000000
# 3 -0.006266 -0.001923 0.016783 0.000103 -0.001650 -0.000007
# 4 -0.000038 -0.000015 0.000103 0.024842 -0.000008 -0.013940
# 5 -0.002803 0.001369 -0.001650 -0.000008 0.033534 -0.000008
# 6 0.000004 0.000000 -0.000007 -0.013940 -0.000008 0.018059
#
#
# Mechanical properties :
#
#
# Convention : Reuss Voigt Hill
#
# Bulk Modulus (GPa) = 67.35935 75.34071 71.35003
# Shear Modulus (GPa) = 34.61431 52.87650 43.74541
#
# Velocity S-wave (km/s) = 4.22913 5.22702 4.75433
# Velocity P-wave (km/s) = 7.65850 8.68091 8.18568
#
# Compressibility (1/GPa) = 0.01484575
#
# Stress axis : x y z
#
# Youngs Moduli (GPa) = 86.32680 94.43708 59.58583
#
# Poissons Ratio (x) = 0.36512 0.37335
# Poissons Ratio (y) = 0.33376 0.11457
# Poissons Ratio (z) = 0.54090 0.18158
#
# Static dielectric constant tensor:
#      x y z
#    x 1.645970 0.012040 -0.063930 
#    y 0.012040 0.656020 0.011970 
#    z -0.063930 0.011970 1.611650 
# 
# From -- ./inp_files/260437.got.cif
#   From: 2010.05.17/outbox.cif.g08.bks.cpg/sg12_131_cif.got.tgz:260437.got - 2010.06.03 13:09:07.
