data_PCOD9189691
_publ_section_title
;
Structure prediction by ZEFSAII (Michael W. Deem and Ramdas Pophale) SiO2 
 PCOD9189691
Probable space group: C 2/M
;
_chemical_formula_sum "Si O2"
_cell_formula_units_Z 52
_cell_length_a 13.627072
_cell_length_b 37.000429
_cell_length_c 7.927564
_cell_angle_alpha 90.000000
_cell_angle_beta 140.187802
_cell_angle_gamma 90.000000
_cell_volume 2559.260089
_symmetry_space_group_name_H-M "C 2/M"
_symmetry_group_IT_number 12
_symmetry_cell_setting 'monoclinic'
loop_
_space_group_symop_operation_xyz
x,y,z
-x,y,-z
-x,-y,-z
x,-y,z
1/2+x,1/2+y,z
1/2-x,1/2+y,-z
1/2-x,1/2-y,-z
1/2+x,1/2-y,z
loop_
_atom_site_type_symbol
_atom_site_label
_atom_site_fract_x
_atom_site_fract_y
_atom_site_fract_z
Si Si1 0.929732 0.667493 0.588669
Si Si2 0.000000 0.198152 0.500000
Si Si3 0.590946 0.587590 0.795769
Si Si4 0.321593 0.460429 0.818861
Si Si5 0.931841 0.251443 0.718263
Si Si6 0.780164 0.640608 0.859428
Si Si7 0.701765 0.388462 0.402775
O O1 0.944624 0.709805 0.645370
O O2 0.766218 0.647357 0.394794
O O3 0.000000 0.659928 0.500000
O O4 0.049761 0.652350 0.881485
O O5 0.002271 0.222268 0.330684
O O6 0.152410 0.172859 0.685983
O O7 0.500000 0.582311 0.500000
O O8 0.723816 0.615561 0.935908
O O9 0.477141 0.606061 0.782862
O O10 0.662266 0.551496 0.965935
O O11 0.251410 0.500000 0.699695
O O12 0.252787 0.425804 0.629652
O O13 0.500000 0.462922 0.000000
O O14 0.750000 0.250000 0.500000
O O15 0.000000 0.249430 0.000000
O O16 0.771109 0.617067 0.679497
#
# Coordination Sequence:
#
# PCOD9189691 Si02
#       7
#     8   4   8   8   8   8   8
#     4  12  25  41  64  92 126 167 216 266 325 386
#     4  12  24  46  68  94 133 168 225 280 328 392
#     4   9  18  35  59  90 122 163 214 257 314 377
#     4   9  18  33  58  92 130 163 207 262 313 379
#     4  12  28  46  67  95 132 176 222 277 347 394
#     4  11  22  41  65  91 127 164 216 271 312 389
#     4  10  19  38  60  88 121 164 209 253 316 378
#
# _framework density 20.318372
#
# number of rings (size 3 to 8) (size 9 to 14) (size 15 to 20)
#    0.000    1.385    3.077    4.154    2.154    1.538 
#    2.769    2.308    0.000    6.000    0.000    0.000 
#    0.000    0.000    0.000    0.000    0.000    0.000 
#
# Total GULP energy -144811.955978 kJ/mol
# GULP energy per Si atom -5569.690615 kJ/mol
# Density = 2.027213 g / cm^3
# Si number density = 20.318372 Si / 1000 Ang^3
#
#
#
# Elastic Constant Matrix: (Units=GPa)
#
#
# Indices 1 2 3 4 5 6 
#
# 1 84.2602 23.0564 25.5384 0.0000 -21.3328 0.0000
# 2 23.0564 110.4344 28.4437 0.0000 -13.3091 0.0000
# 3 25.5384 28.4437 66.4385 0.0000 -13.1946 0.0000
# 4 0.0000 0.0000 0.0000 -176.9541 0.0000 144.6237
# 5 -21.3328 -13.3091 -13.1946 0.0000 30.1684 0.0000
# 6 0.0000 0.0000 0.0000 144.6237 0.0000 -100.9993
#
#
#
# Elastic Compliance Matrix: (Units=1/GPa)
#
#
# Indices 1 2 3 4 5 6 
#
# 1 0.015566 -0.001231 -0.003700 0.000000 0.008846 0.000000
# 2 -0.001231 0.010500 -0.003587 0.000000 0.002193 0.000000
# 3 -0.003700 -0.003587 0.018809 0.000000 0.004028 0.000000
# 4 0.000000 0.000000 0.000000 0.033182 0.000000 0.047515
# 5 0.008846 0.002193 0.004028 0.000000 0.042132 0.000000
# 6 0.000000 0.000000 0.000000 0.047515 0.000000 0.058137
#
#
# Mechanical properties :
#
#
# Convention : Reuss Voigt Hill
#
# Bulk Modulus (GPa) = 35.91853 46.13445 41.02649
# Shear Modulus (GPa) = 24.43310 -37.28404 -6.42547
#
# Velocity S-wave (km/s) = 3.47149 -4.28833 -1.78024
# Velocity P-wave (km/s) = 5.81245 1.32838 4.00125
#
# Compressibility (1/GPa) = 0.02784079
#
# Stress axis : x y z
#
# Youngs Moduli (GPa) = 64.24398 95.23599 53.16568
#
# Poissons Ratio (x) = 0.11722 0.19669
# Poissons Ratio (y) = 0.07907 0.19069
# Poissons Ratio (z) = 0.23768 0.34158
#
# Static dielectric constant tensor:
#      x y z
#    x 1.772210 0.000000 -0.021610 
#    y 0.000000 1.998790 0.000000 
#    z -0.021610 0.000000 1.717520 
# 
# From -- ./inp_files/68661.got.cif
#   From: 2010.05.17/outbox.cif.g08.bks.cpg/sg12_35_cif.got.tgz:68661.got - 2010.06.03 13:09:07.
