data_PCOD9189094
_publ_section_title
;
Structure prediction by ZEFSAII (Michael W. Deem and Ramdas Pophale) SiO2 
 PCOD9189094
Probable space group: C 2/M
;
_chemical_formula_sum "Si O2"
_cell_formula_units_Z 56
_cell_length_a 15.590143
_cell_length_b 16.727172
_cell_length_c 19.643421
_cell_angle_alpha 90.000000
_cell_angle_beta 146.030342
_cell_angle_gamma 90.000000
_cell_volume 2862.267574
_symmetry_space_group_name_H-M "C 2/M"
_symmetry_group_IT_number 12
_symmetry_cell_setting 'monoclinic'
loop_
_space_group_symop_operation_xyz
x,y,z
-x,y,-z
-x,-y,-z
x,-y,z
1/2+x,1/2+y,z
1/2-x,1/2+y,-z
1/2-x,1/2-y,-z
1/2+x,1/2-y,z
loop_
_atom_site_type_symbol
_atom_site_label
_atom_site_fract_x
_atom_site_fract_y
_atom_site_fract_z
Si Si1 0.224765 0.093100 0.230905
Si Si2 0.587242 0.318427 0.948046
Si Si3 0.050386 0.844672 0.766398
Si Si4 0.000877 0.317891 0.662619
Si Si5 0.272806 0.911389 0.423097
Si Si6 0.412293 0.907520 0.156693
Si Si7 0.394249 0.863089 0.993297
O O1 0.343887 0.144319 0.266010
O O2 0.278579 0.096177 0.345312
O O3 0.055994 0.131621 0.118066
O O4 0.221484 0.000000 0.208304
O O5 0.559789 0.306281 0.848830
O O6 0.744543 0.367600 0.055680
O O7 0.602753 0.233298 0.994390
O O8 0.021453 0.774901 0.692913
O O9 0.215790 0.884609 0.864475
O O10 0.905237 0.902724 0.673681
O O11 0.975609 0.361851 0.718235
O O12 0.867952 0.343004 0.523362
O O13 0.332685 0.000000 0.480902
O O14 0.405880 0.000000 0.170497
O O15 0.449611 0.897921 0.101670
O O16 0.500000 0.885669 0.000000
#
# Coordination Sequence:
#
# PCOD9189094 Si02
#       7
#     8   8   8   8   8   8   8
#     4  10  21  34  55  85 116 147 179 219 272 329
#     4  10  19  37  56  81 115 145 180 221 272 331
#     4  10  20  37  59  81 109 150 187 222 271 332
#     4  12  20  36  55  84 118 146 182 223 273 327
#     4  10  22  38  57  81 111 147 188 229 269 320
#     4  11  22  35  55  82 113 146 183 224 279 328
#     4  11  21  38  59  80 110 143 182 234 272 323
#
# _framework density 19.564906000000001
#
# number of rings (size 3 to 8) (size 9 to 14) (size 15 to 20)
#    0.000    1.429    2.857    4.286    0.000    4.857 
#    0.000    1.429    0.000    0.000    0.000    2.000 
#    0.000    0.000    0.000    0.000    0.000    0.000 
#
# Total GULP energy -156539.546888 kJ/mol
# GULP energy per Si atom -5590.698103 kJ/mol
# Density = 1.952038 g / cm^3
# Si number density = 19.564906 Si / 1000 Ang^3
#
#
#
# Elastic Constant Matrix: (Units=GPa)
#
#
# Indices 1 2 3 4 5 6 
#
# 1 107.2262 -2.6387 16.4832 0.0008 2.4068 0.0003
# 2 -2.6387 44.3163 -10.1292 0.0011 -11.1741 0.0004
# 3 16.4832 -10.1292 40.3383 0.0028 -11.9814 0.0011
# 4 0.0008 0.0011 0.0028 19.6720 0.0006 0.4397
# 5 2.4068 -11.1741 -11.9814 0.0006 18.7546 0.0000
# 6 0.0003 0.0004 0.0011 0.4397 0.0000 8.5044
#
#
#
# Elastic Compliance Matrix: (Units=1/GPa)
#
#
# Indices 1 2 3 4 5 6 
#
# 1 0.010576 -0.003082 -0.007459 0.000001 -0.007959 0.000001
# 2 -0.003082 0.035942 0.020688 -0.000006 0.035027 -0.000004
# 3 -0.007459 0.020688 0.045639 -0.000008 0.042440 -0.000007
# 4 0.000001 -0.000006 -0.000008 0.050892 -0.000011 -0.002631
# 5 -0.007959 0.035027 0.042440 -0.000011 0.102324 -0.000007
# 6 0.000001 -0.000004 -0.000007 -0.002631 -0.000007 0.117722
#
#
# Mechanical properties :
#
#
# Convention : Reuss Voigt Hill
#
# Bulk Modulus (GPa) = 8.89277 22.14570 15.51924
# Shear Modulus (GPa) = 13.14806 21.93057 17.53931
#
# Velocity S-wave (km/s) = 2.59515 3.35164 2.99736
# Velocity P-wave (km/s) = 3.67898 5.13046 4.46411
#
# Compressibility (1/GPa) = 0.11245084
#
# Stress axis : x y z
#
# Youngs Moduli (GPa) = 94.55779 27.82258 21.91106
#
# Poissons Ratio (x) = 0.08575 0.16344
# Poissons Ratio (y) = 0.29143 -0.45330
# Poissons Ratio (z) = 0.70533 -0.57560
#
# Static dielectric constant tensor:
#      x y z
#    x 1.689980 0.000000 -0.014460 
#    y 0.000000 1.669330 0.000000 
#    z -0.014460 0.000000 1.705230 
# 
# From -- ./inp_files/189607.got.cif
#   From: 2010.05.17/outbox.cif.g08.bks.cpg/sg12_95_cif.got.tgz:189607.got - 2010.06.03 13:09:07.
