data_PCOD9189572
_publ_section_title
;
Structure prediction by ZEFSAII (Michael W. Deem and Ramdas Pophale) SiO2 
 PCOD9189572
Probable space group: C 2/M
;
_chemical_formula_sum "Si O2"
_cell_formula_units_Z 42
_cell_length_a 9.366214
_cell_length_b 17.746323
_cell_length_c 14.610676
_cell_angle_alpha 90.000000
_cell_angle_beta 58.957105
_cell_angle_gamma 90.000000
_cell_volume 2080.716135
_symmetry_space_group_name_H-M "C 2/M"
_symmetry_group_IT_number 12
_symmetry_cell_setting 'monoclinic'
loop_
_space_group_symop_operation_xyz
x,y,z
-x,y,-z
-x,-y,-z
x,-y,z
1/2+x,1/2+y,z
1/2-x,1/2+y,-z
1/2-x,1/2-y,-z
1/2+x,1/2-y,z
loop_
_atom_site_type_symbol
_atom_site_label
_atom_site_fract_x
_atom_site_fract_y
_atom_site_fract_z
Si Si1 0.000000 0.500000 0.500000
Si Si2 0.414740 0.413890 0.627403
Si Si3 0.308693 0.273610 0.881166
Si Si4 0.337612 0.220529 0.259426
Si Si5 0.779217 0.883222 0.335071
Si Si6 0.011051 0.914004 0.102914
O O1 0.129900 0.433785 0.420339
O O2 0.500000 0.408540 0.500000
O O3 0.355843 0.500000 0.659890
O O4 0.264787 0.354225 0.683496
O O5 0.561865 0.397667 0.651172
O O6 0.465133 0.226076 0.789453
O O7 0.173688 0.269786 0.846666
O O8 0.372245 0.358239 0.878719
O O9 0.250000 0.250000 0.000000
O O10 0.255678 0.293000 0.336131
O O11 0.836194 0.907934 0.214232
O O12 0.069719 0.000000 0.087082
O O13 0.000000 0.891994 0.000000
#
# Coordination Sequence:
#
# PCOD9189572 Si02
#       6
#     2   8   8   8   8   8
#     4  12  24  40  72  92 142 180 228 288 338 396
#     4  11  24  45  68  93 136 181 224 281 344 393
#     4  11  22  40  64 100 138 173 220 275 339 405
#     4  11  23  41  71  96 134 180 225 275 338 407
#     4  11  23  43  64 103 132 179 228 280 336 409
#     4  10  19  37  67  94 129 176 222 270 335 398
#
# _framework density 20.185358999999998
#
# number of rings (size 3 to 8) (size 9 to 14) (size 15 to 20)
#    0.000    1.143    5.714    2.857    1.333    2.286 
#    0.000    0.952    0.000    2.286    0.000    0.000 
#    0.000    0.000    0.000    0.000    0.000    0.000 
#
# Total GULP energy -116966.259649 kJ/mol
# GULP energy per Si atom -5569.821888 kJ/mol
# Density = 2.013942 g / cm^3
# Si number density = 20.185359 Si / 1000 Ang^3
#
#
#
# Elastic Constant Matrix: (Units=GPa)
#
#
# Indices 1 2 3 4 5 6 
#
# 1 35.3081 13.1393 22.6620 0.0000 2.8261 0.0000
# 2 13.1393 151.8821 44.1958 0.0000 -9.8989 0.0000
# 3 22.6620 44.1958 97.0855 0.0000 -2.9234 0.0000
# 4 0.0000 0.0000 0.0000 39.5827 0.0000 -6.3538
# 5 2.8261 -9.8989 -2.9234 0.0000 28.4370 0.0000
# 6 0.0000 0.0000 0.0000 -6.3538 0.0000 17.2968
#
#
#
# Elastic Compliance Matrix: (Units=1/GPa)
#
#
# Indices 1 2 3 4 5 6 
#
# 1 0.033936 -0.001020 -0.007593 0.000000 -0.004508 0.000000
# 2 -0.001020 0.007772 -0.003225 0.000000 0.002475 0.000000
# 3 -0.007593 -0.003225 0.013572 0.000000 0.001027 0.000000
# 4 0.000000 0.000000 0.000000 0.026847 0.000000 0.009862
# 5 -0.004508 0.002475 0.001027 0.000000 0.036581 0.000000
# 6 0.000000 0.000000 0.000000 0.009862 0.000000 0.061437
#
#
# Mechanical properties :
#
#
# Convention : Reuss Voigt Hill
#
# Bulk Modulus (GPa) = 31.64247 49.36332 40.50289
# Shear Modulus (GPa) = 23.32577 30.68187 27.00382
#
# Velocity S-wave (km/s) = 3.40307 3.90296 3.66155
# Velocity P-wave (km/s) = 5.58132 6.69469 6.16320
#
# Compressibility (1/GPa) = 0.03160310
#
# Stress axis : x y z
#
# Youngs Moduli (GPa) = 29.46728 128.66370 73.68254
#
# Poissons Ratio (x) = 0.13127 0.55945
# Poissons Ratio (y) = 0.03006 0.23766
# Poissons Ratio (z) = 0.22374 0.41499
#
# Static dielectric constant tensor:
#      x y z
#    x 1.710490 0.000000 0.029030 
#    y 0.000000 1.754090 0.000000 
#    z 0.029030 0.000000 1.746700 
# 
# From -- ./inp_files/195868.got.cif
#   From: 2010.05.17/outbox.cif.g08.bks.cpg/sg12_98_cif.got.tgz:195868.got - 2010.06.03 13:09:07.
