data_PCOD9189057
_publ_section_title
;
Structure prediction by ZEFSAII (Michael W. Deem and Ramdas Pophale) SiO2 
 PCOD9189057
Probable space group: C 2/M
;
_chemical_formula_sum "Si O2"
_cell_formula_units_Z 52
_cell_length_a 19.377961
_cell_length_b 18.959537
_cell_length_c 14.684358
_cell_angle_alpha 90.000000
_cell_angle_beta 148.757344
_cell_angle_gamma 90.000000
_cell_volume 2798.186139
_symmetry_space_group_name_H-M "C 2/M"
_symmetry_group_IT_number 12
_symmetry_cell_setting 'monoclinic'
loop_
_space_group_symop_operation_xyz
x,y,z
-x,y,-z
-x,-y,-z
x,-y,z
1/2+x,1/2+y,z
1/2-x,1/2+y,-z
1/2-x,1/2-y,-z
1/2+x,1/2-y,z
loop_
_atom_site_type_symbol
_atom_site_label
_atom_site_fract_x
_atom_site_fract_y
_atom_site_fract_z
Si Si1 0.893052 0.201840 0.594806
Si Si2 0.117337 0.654561 0.315600
Si Si3 0.500000 0.190857 0.000000
Si Si4 0.156704 0.420685 0.699406
Si Si5 0.230325 0.729870 0.726219
Si Si6 0.178820 0.195526 0.850964
Si Si7 0.377378 0.081263 0.124743
O O1 0.907277 0.263394 0.685638
O O2 0.776966 0.148335 0.494496
O O3 0.836782 0.241711 0.441577
O O4 0.037532 0.172922 0.733228
O O5 0.058101 0.645047 0.148154
O O6 0.028303 0.608570 0.282597
O O7 0.620732 0.239997 0.103483
O O8 0.203179 0.500000 0.727730
O O9 0.224582 0.354346 0.727796
O O10 0.166266 0.411682 0.819326
O O11 0.000000 0.417123 0.500000
O O12 0.158827 0.763835 0.733552
O O13 0.250000 0.250000 0.000000
O O14 0.279749 0.130544 0.956347
O O15 0.369289 0.000000 0.089473
#
# Coordination Sequence:
#
# PCOD9189057 Si02
#       7
#     8   8   4   8   8   8   8
#     4  10  21  32  58  84 109 137 188 231 272 318
#     4  10  19  37  52  83 111 140 180 230 273 328
#     4  10  20  32  56  82 108 138 182 230 268 322
#     4  10  20  33  52  80 111 142 178 220 273 336
#     4  11  19  33  56  82 110 140 184 227 277 323
#     4  12  19  34  57  82 111 144 184 235 271 318
#     4  11  22  36  57  82 113 150 183 223 279 333
#
# _framework density 18.583466999999999
#
# number of rings (size 3 to 8) (size 9 to 14) (size 15 to 20)
#    0.000    1.385    4.615    2.308    0.000    0.000 
#    0.000    1.538    0.000    1.846    0.000    0.000 
#    0.000    0.000    0.000    0.000    0.000    0.000 
#
# Total GULP energy -145119.750017 kJ/mol
# GULP energy per Si atom -5581.528847 kJ/mol
# Density = 1.854117 g / cm^3
# Si number density = 18.583467 Si / 1000 Ang^3
#
#
#
# Elastic Constant Matrix: (Units=GPa)
#
#
# Indices 1 2 3 4 5 6 
#
# 1 51.4505 3.3456 11.3677 0.0000 23.7775 0.0000
# 2 3.3456 75.7234 8.6775 0.0000 16.1487 0.0000
# 3 11.3677 8.6775 57.6520 0.0000 9.7672 0.0000
# 4 0.0000 0.0000 0.0000 12.1070 0.0000 2.4943
# 5 23.7775 16.1487 9.7672 0.0000 48.2564 0.0000
# 6 0.0000 0.0000 0.0000 2.4943 0.0000 15.6317
#
#
#
# Elastic Compliance Matrix: (Units=1/GPa)
#
#
# Indices 1 2 3 4 5 6 
#
# 1 0.025928 0.001950 -0.003242 0.000000 -0.012772 0.000000
# 2 0.001950 0.014475 -0.001636 0.000000 -0.005473 0.000000
# 3 -0.003242 -0.001636 0.018502 0.000000 -0.001600 0.000000
# 4 0.000000 0.000000 0.000000 0.085404 0.000000 -0.013628
# 5 -0.012772 -0.005473 -0.001600 0.000000 0.029171 0.000000
# 6 0.000000 0.000000 0.000000 -0.013628 0.000000 0.066147
#
#
# Mechanical properties :
#
#
# Convention : Reuss Voigt Hill
#
# Bulk Modulus (GPa) = 18.85076 25.73417 22.29246
# Shear Modulus (GPa) = 18.99937 25.96135 22.48036
#
# Velocity S-wave (km/s) = 3.20094 3.74172 3.48184
# Velocity P-wave (km/s) = 4.88131 5.70484 5.30907
#
# Compressibility (1/GPa) = 0.05304827
#
# Stress axis : x y z
#
# Youngs Moduli (GPa) = 38.56806 69.08692 54.04823
#
# Poissons Ratio (x) = -0.13470 0.17523
# Poissons Ratio (y) = -0.07520 0.08841
# Poissons Ratio (z) = 0.12504 0.11301
#
# Static dielectric constant tensor:
#      x y z
#    x 1.694800 0.000000 -0.008730 
#    y 0.000000 1.615740 0.000000 
#    z -0.008730 0.000000 1.653020 
# 
# From -- ./inp_files/234473.got.cif
#   From: 2010.05.17/outbox.cif.g08.bks.cpg/sg12_118_cif.got.tgz:234473.got - 2010.06.03 13:09:07.
