data_PCOD9189689
_publ_section_title
;
Structure prediction by ZEFSAII (Michael W. Deem and Ramdas Pophale) SiO2 
 PCOD9189689
Probable space group: C 2/M
;
_chemical_formula_sum "Si O2"
_cell_formula_units_Z 48
_cell_length_a 8.889734
_cell_length_b 16.430831
_cell_length_c 16.815975
_cell_angle_alpha 90.000000
_cell_angle_beta 90.122776
_cell_angle_gamma 90.000000
_cell_volume 2456.231806
_symmetry_space_group_name_H-M "C 2/M"
_symmetry_group_IT_number 12
_symmetry_cell_setting 'monoclinic'
loop_
_space_group_symop_operation_xyz
x,y,z
-x,y,-z
-x,-y,-z
x,-y,z
1/2+x,1/2+y,z
1/2-x,1/2+y,-z
1/2-x,1/2-y,-z
1/2+x,1/2-y,z
loop_
_atom_site_type_symbol
_atom_site_label
_atom_site_fract_x
_atom_site_fract_y
_atom_site_fract_z
Si Si1 0.624551 0.000000 0.567212
Si Si2 0.471583 0.264243 0.295404
Si Si3 0.722765 0.638340 0.355074
Si Si4 0.678581 0.839044 0.018821
Si Si5 0.843797 0.000000 0.952334
Si Si6 0.204815 0.656630 0.206590
Si Si7 0.463177 0.000000 0.738272
Si Si8 0.712890 0.500000 0.224267
O O1 0.500000 0.000000 0.500000
O O2 0.728722 0.080005 0.572776
O O3 0.534548 0.000000 0.650904
O O4 0.573970 0.307571 0.361907
O O5 0.364229 0.195028 0.332243
O O6 0.363124 0.323255 0.246473
O O7 0.589543 0.227294 0.232788
O O8 0.689780 0.578476 0.280041
O O9 0.706696 0.852301 0.112491
O O10 0.500000 0.837139 0.000000
O O11 0.750000 0.750000 0.000000
O O12 0.753677 0.916583 0.974068
O O13 0.874151 0.000000 0.857835
O O14 0.000000 0.000000 0.000000
O O15 0.136281 0.577445 0.246282
O O16 0.608546 0.000000 0.795962
#
# Coordination Sequence:
#
# PCOD9189689 Si02
#       8
#     4   8   8   8   4   8   4   4
#     4  10  20  40  64  91 125 157 187 229 301 370
#     4  10  20  34  62  89 112 145 203 249 284 347
#     4   9  20  37  62  88 114 155 196 238 296 354
#     4  12  26  41  59  85 122 165 210 266 335 368
#     4  12  28  41  55  83 123 162 213 267 321 378
#     4  11  21  36  60  81 117 150 207 247 298 354
#     4  10  19  38  60  88 105 162 194 243 292 361
#     4  10  20  37  58  73 117 152 204 240 301 359
#
# _framework density 19.542131000000001
#
# number of rings (size 3 to 8) (size 9 to 14) (size 15 to 20)
#    0.000    1.667    3.333    3.250    7.000    1.333 
#    0.000    0.833    0.000    1.000    0.000    0.000 
#    0.000    0.000    0.000    0.000    0.000    0.000 
#
# Total GULP energy -133970.894261 kJ/mol
# GULP energy per Si atom -5582.120594 kJ/mol
# Density = 1.949765 g / cm^3
# Si number density = 19.542131 Si / 1000 Ang^3
#
#
#
# Elastic Constant Matrix: (Units=GPa)
#
#
# Indices 1 2 3 4 5 6 
#
# 1 99.5255 34.9417 11.6500 0.0000 21.2393 0.0000
# 2 34.9417 99.3523 2.6878 0.0000 4.9103 0.0000
# 3 11.6500 2.6878 37.2324 0.0000 27.8848 0.0000
# 4 0.0000 0.0000 0.0000 6.1369 0.0000 15.5843
# 5 21.2393 4.9103 27.8848 0.0000 29.4778 0.0000
# 6 0.0000 0.0000 0.0000 15.5843 0.0000 10.8460
#
#
#
# Elastic Compliance Matrix: (Units=1/GPa)
#
#
# Indices 1 2 3 4 5 6 
#
# 1 0.014585 -0.004439 0.010542 0.000000 -0.019742 0.000000
# 2 -0.004439 0.011536 -0.001372 0.000000 0.002575 0.000000
# 3 0.010542 -0.001372 0.100078 0.000000 -0.102037 0.000000
# 4 0.000000 0.000000 0.000000 -0.061517 0.000000 0.088391
# 5 -0.019742 0.002575 -0.102037 0.000000 0.144242 0.000000
# 6 0.000000 0.000000 0.000000 0.088391 0.000000 -0.034807
#
#
# Mechanical properties :
#
#
# Convention : Reuss Voigt Hill
#
# Bulk Modulus (GPa) = 7.37128 37.18548 22.27838
# Shear Modulus (GPa) = 23.82356 21.74751 22.78553
#
# Velocity S-wave (km/s) = 3.49533 3.33956 3.41833
# Velocity P-wave (km/s) = 4.47995 5.82580 5.19663
#
# Compressibility (1/GPa) = 0.13566166
#
# Stress axis : x y z
#
# Youngs Moduli (GPa) = 68.56279 86.68329 9.99220
#
# Poissons Ratio (x) = 0.38479 -0.10534
# Poissons Ratio (y) = 0.30435 0.01371
# Poissons Ratio (z) = -0.72281 0.11895
#
# Static dielectric constant tensor:
#      x y z
#    x 1.688520 0.000000 0.015950 
#    y 0.000000 1.676830 0.000000 
#    z 0.015950 0.000000 1.690080 
# 
# From -- ./inp_files/255841.got.cif
#   From: 2010.05.17/outbox.cif.g08.bks.cpg/sg12_128_cif.got.tgz:255841.got - 2010.06.03 13:09:07.
