data_PCOD9189487
_publ_section_title
;
Structure prediction by ZEFSAII (Michael W. Deem and Ramdas Pophale) SiO2 
 PCOD9189487
Probable space group: C 2/M
;
_chemical_formula_sum "Si O2"
_cell_formula_units_Z 56
_cell_length_a 10.880673
_cell_length_b 30.705776
_cell_length_c 9.726279
_cell_angle_alpha 90.000000
_cell_angle_beta 117.539704
_cell_angle_gamma 90.000000
_cell_volume 2881.341174
_symmetry_space_group_name_H-M "C 2/M"
_symmetry_group_IT_number 12
_symmetry_cell_setting 'monoclinic'
loop_
_space_group_symop_operation_xyz
x,y,z
-x,y,-z
-x,-y,-z
x,-y,z
1/2+x,1/2+y,z
1/2-x,1/2+y,-z
1/2-x,1/2-y,-z
1/2+x,1/2-y,z
loop_
_atom_site_type_symbol
_atom_site_label
_atom_site_fract_x
_atom_site_fract_y
_atom_site_fract_z
Si Si1 0.369832 0.051248 0.030400
Si Si2 0.294903 0.165549 0.679805
Si Si3 0.734102 0.824673 0.829549
Si Si4 0.492431 0.898293 0.339342
Si Si5 0.082141 0.820955 0.337306
Si Si6 0.843612 0.874449 0.131967
Si Si7 0.475332 0.761120 0.150364
O O1 0.428618 0.064854 0.209323
O O2 0.344763 0.000000 0.004894
O O3 0.500000 0.063633 0.000000
O O4 0.231690 0.079061 0.925270
O O5 0.366190 0.123649 0.643135
O O6 0.160878 0.178634 0.521923
O O7 0.255123 0.150598 0.811442
O O8 0.401658 0.205455 0.744343
O O9 0.613708 0.858205 0.728122
O O10 0.805315 0.812822 0.724341
O O11 0.665063 0.786454 0.882580
O O12 0.837316 0.850488 0.982470
O O13 0.500000 0.912397 0.500000
O O14 0.980990 0.780814 0.251902
O O15 0.997560 0.865847 0.269271
O O16 0.500000 0.751396 0.000000
#
# Coordination Sequence:
#
# PCOD9189487 Si02
#       7
#     8   8   8   8   8   8   8
#     4  10  21  39  69 100 118 146 200 255 301 362
#     4  11  22  40  57  88 119 164 206 251 296 355
#     4  10  22  38  59  85 115 162 211 252 294 354
#     4  10  19  37  64  88 121 157 195 250 303 353
#     4  12  25  38  57  86 124 167 202 251 302 361
#     4  11  22  40  63  85 121 159 199 243 307 370
#     4  11  23  38  61  82 120 164 216 264 296 333
#
# _framework density 19.435393000000001
#
# number of rings (size 3 to 8) (size 9 to 14) (size 15 to 20)
#    0.000    1.286    4.286    2.143    2.000    1.429 
#    2.571    0.000    0.000    9.429    0.000    0.000 
#    0.000    0.000    0.000    0.000    0.000    0.000 
#
# Total GULP energy -156338.960454 kJ/mol
# GULP energy per Si atom -5583.534302 kJ/mol
# Density = 1.939116 g / cm^3
# Si number density = 19.435393 Si / 1000 Ang^3
#
#
#
# Elastic Constant Matrix: (Units=GPa)
#
#
# Indices 1 2 3 4 5 6 
#
# 1 43.1857 11.3032 3.1037 0.0000 0.0784 0.0000
# 2 11.3032 55.4848 30.8055 0.0000 8.0060 0.0000
# 3 3.1037 30.8055 93.8673 0.0000 1.6693 0.0000
# 4 0.0000 0.0000 0.0000 6.9390 0.0000 -4.4636
# 5 0.0784 8.0060 1.6693 0.0000 33.4707 0.0000
# 6 0.0000 0.0000 0.0000 -4.4636 0.0000 20.6716
#
#
#
# Elastic Compliance Matrix: (Units=1/GPa)
#
#
# Indices 1 2 3 4 5 6 
#
# 1 0.024591 -0.005783 0.001062 0.000000 0.001273 0.000000
# 2 -0.005783 0.024237 -0.007667 0.000000 -0.005401 0.000000
# 3 0.001062 -0.007667 0.013113 0.000000 0.001177 0.000000
# 4 0.000000 0.000000 0.000000 0.167360 0.000000 0.036138
# 5 0.001273 -0.005401 0.001177 0.000000 0.031107 0.000000
# 6 0.000000 0.000000 0.000000 0.036138 0.000000 0.056179
#
#
# Mechanical properties :
#
#
# Convention : Reuss Voigt Hill
#
# Bulk Modulus (GPa) = 26.90635 31.44029 29.17332
# Shear Modulus (GPa) = 14.13421 22.03795 18.08608
#
# Velocity S-wave (km/s) = 2.69967 3.37101 3.05384
# Velocity P-wave (km/s) = 4.85712 5.60032 5.24191
#
# Compressibility (1/GPa) = 0.03716595
#
# Stress axis : x y z
#
# Youngs Moduli (GPa) = 40.66564 41.25896 76.25770
#
# Poissons Ratio (x) = 0.23860 -0.08100
# Poissons Ratio (y) = 0.23517 0.58466
# Poissons Ratio (z) = -0.04319 0.31633
#
# Static dielectric constant tensor:
#      x y z
#    x 1.726030 0.000000 0.013380 
#    y 0.000000 1.666280 0.000000 
#    z 0.013380 0.000000 1.688710 
# 
# From -- ./inp_files/54795.got.cif
#   From: 2010.05.17/outbox.cif.g08.bks.cpg/sg12_28_cif.got.tgz:54795.got - 2010.06.03 13:09:07.
