data_PCOD9189364
_publ_section_title
;
Structure prediction by ZEFSAII (Michael W. Deem and Ramdas Pophale) SiO2 
 PCOD9189364
Probable space group: C 2/M
;
_chemical_formula_sum "Si O2"
_cell_formula_units_Z 56
_cell_length_a 23.099170
_cell_length_b 18.003509
_cell_length_c 19.728809
_cell_angle_alpha 90.000000
_cell_angle_beta 20.226803
_cell_angle_gamma 90.000000
_cell_volume 2836.615685
_symmetry_space_group_name_H-M "C 2/M"
_symmetry_group_IT_number 12
_symmetry_cell_setting 'monoclinic'
loop_
_space_group_symop_operation_xyz
x,y,z
-x,y,-z
-x,-y,-z
x,-y,z
1/2+x,1/2+y,z
1/2-x,1/2+y,-z
1/2-x,1/2-y,-z
1/2+x,1/2-y,z
loop_
_atom_site_type_symbol
_atom_site_label
_atom_site_fract_x
_atom_site_fract_y
_atom_site_fract_z
Si Si1 0.678611 0.913739 0.047458
Si Si2 0.869797 0.914403 0.321368
Si Si3 0.055932 0.290598 0.101796
Si Si4 0.242371 0.714012 0.375253
Si Si5 0.488029 0.314648 0.726338
Si Si6 0.184983 0.728377 0.284291
Si Si7 0.729792 0.916982 0.148843
O O1 0.849717 0.867946 0.846530
O O2 0.693245 0.000000 0.014867
O O3 0.545347 0.870750 0.148123
O O4 0.658286 0.908543 0.151143
O O5 0.761244 0.867404 0.387456
O O6 0.879554 0.868214 0.380620
O O7 0.818490 0.000000 0.384988
O O8 0.066284 0.914012 0.081565
O O9 0.888820 0.261076 0.250358
O O10 0.090299 0.234742 0.126916
O O11 0.199810 0.280635 0.888117
O O12 0.074094 0.756786 0.581585
O O13 0.262917 0.713597 0.272450
O O14 0.171930 0.649823 0.259382
O O15 0.000000 0.758973 0.500000
O O16 0.686360 0.000000 0.220943
#
# Coordination Sequence:
#
# PCOD9189364 Si02
#       7
#     8   8   8   8   8   8   8
#     4  10  20  37  65  90 116 156 202 248 304 353
#     4   9  17  34  60  86 119 159 203 240 290 352
#     4  11  21  38  62  85 120 155 202 252 294 351
#     4  11  23  37  59  91 120 159 203 247 301 355
#     4  10  19  37  62  85 118 156 205 249 293 350
#     4  12  24  37  58  85 123 161 202 244 299 354
#     4   9  19  36  57  86 121 163 199 236 290 354
#
# _framework density 19.741834999999998
#
# number of rings (size 3 to 8) (size 9 to 14) (size 15 to 20)
#    0.000    1.714    4.286    4.714    2.000    0.857 
#    0.000    5.000    0.000    6.429    0.000    0.000 
#    0.000    0.000    0.000    0.000    0.000    0.000 
#
# Total GULP energy -156423.993130 kJ/mol
# GULP energy per Si atom -5586.571183 kJ/mol
# Density = 1.969690 g / cm^3
# Si number density = 19.741835 Si / 1000 Ang^3
#
#
#
# Elastic Constant Matrix: (Units=GPa)
#
#
# Indices 1 2 3 4 5 6 
#
# 1 89.9561 52.6535 7.6793 0.0085 6.4908 -0.0051
# 2 52.6535 130.0157 19.7945 0.0068 6.9914 -0.0114
# 3 7.6793 19.7945 50.9198 0.0019 5.4270 -0.0048
# 4 0.0085 0.0068 0.0019 23.5603 -0.0016 -0.9523
# 5 6.4908 6.9914 5.4270 -0.0016 26.3103 0.0020
# 6 -0.0051 -0.0114 -0.0048 -0.9523 0.0020 23.7019
#
#
#
# Elastic Compliance Matrix: (Units=1/GPa)
#
#
# Indices 1 2 3 4 5 6 
#
# 1 0.014685 -0.005878 0.000297 -0.000004 -0.002122 0.000000
# 2 -0.005878 0.010591 -0.003154 -0.000001 -0.000713 0.000003
# 3 0.000297 -0.003154 0.021205 -0.000001 -0.003609 0.000003
# 4 -0.000004 -0.000001 -0.000001 0.042513 0.000004 0.001708
# 5 -0.002122 -0.000713 -0.003609 0.000004 0.039465 -0.000005
# 6 0.000000 0.000003 0.000003 0.001708 -0.000005 0.042259
#
#
# Mechanical properties :
#
#
# Convention : Reuss Voigt Hill
#
# Bulk Modulus (GPa) = 34.47281 47.90510 41.18895
# Shear Modulus (GPa) = 25.27043 27.43213 26.35128
#
# Velocity S-wave (km/s) = 3.58165 3.73170 3.65745
# Velocity P-wave (km/s) = 5.88252 6.54873 6.22455
#
# Compressibility (1/GPa) = 0.02900837
#
# Stress axis : x y z
#
# Youngs Moduli (GPa) = 68.09698 94.42422 47.15895
#
# Poissons Ratio (x) = 0.55504 -0.01399
# Poissons Ratio (y) = 0.40028 0.14876
# Poissons Ratio (z) = -0.02019 0.29785
#
# Static dielectric constant tensor:
#      x y z
#    x 1.700420 0.000000 -0.042200 
#    y 0.000000 1.697560 0.000000 
#    z -0.042200 0.000000 1.750490 
# 
# From -- ./inp_files/325996.got.cif
#   From: 2010.05.17/outbox.cif.g08.bks.cpg/sg12_163_cif.got.tgz:325996.got - 2010.06.03 13:09:07.
