data_PCOD9189337
_publ_section_title
;
Structure prediction by ZEFSAII (Michael W. Deem and Ramdas Pophale) SiO2 
 PCOD9189337
Probable space group: C 2/M
;
_chemical_formula_sum "Si O2"
_cell_formula_units_Z 58
_cell_length_a 21.524041
_cell_length_b 14.158049
_cell_length_c 16.586415
_cell_angle_alpha 90.000000
_cell_angle_beta 147.734999
_cell_angle_gamma 90.000000
_cell_volume 2698.283294
_symmetry_space_group_name_H-M "C 2/M"
_symmetry_group_IT_number 12
_symmetry_cell_setting 'monoclinic'
loop_
_space_group_symop_operation_xyz
x,y,z
-x,y,-z
-x,-y,-z
x,-y,z
1/2+x,1/2+y,z
1/2-x,1/2+y,-z
1/2-x,1/2-y,-z
1/2+x,1/2-y,z
loop_
_atom_site_type_symbol
_atom_site_label
_atom_site_fract_x
_atom_site_fract_y
_atom_site_fract_z
Si Si1 0.002228 0.892178 0.227420
Si Si2 0.632152 0.886431 0.438701
Si Si3 0.642204 0.886294 0.843394
Si Si4 0.805342 0.745806 0.955500
Si Si5 0.500000 0.500000 0.000000
Si Si6 0.720559 0.390156 0.552430
Si Si7 0.876566 0.341074 0.863391
Si Si8 0.354330 0.353383 0.772022
O O1 0.091107 0.852476 0.392793
O O2 0.082986 0.899373 0.236200
O O3 0.904924 0.816891 0.097865
O O4 0.959580 0.000000 0.197525
O O5 0.495900 0.869842 0.298451
O O6 0.686679 0.853631 0.412604
O O7 0.718332 0.847841 0.602325
O O8 0.645117 0.000000 0.456773
O O9 0.701798 0.841117 0.988932
O O10 0.661611 0.000000 0.855395
O O11 0.694608 0.816408 0.832862
O O12 0.835403 0.697962 0.903777
O O13 0.397908 0.418034 0.892222
O O14 0.705407 0.500000 0.516197
O O15 0.772841 0.386199 0.698614
O O16 0.902598 0.249604 0.837491
O O17 0.000000 0.394329 0.000000
#
# Coordination Sequence:
#
# PCOD9189337 Si02
#       8
#     8   8   8   8   2   8   8   8
#     4  10  19  37  61  90 121 162 204 252 297 359
#     4   9  18  36  59  84 115 161 203 239 289 364
#     4  10  23  43  64  84 114 162 213 248 292 359
#     4  11  23  40  63  92 118 157 208 254 302 362
#     4  12  16  32  48  84 128 160 186 246 290 370
#     4   9  21  37  60  92 124 156 198 246 309 364
#     4  12  23  35  54  96 128 154 192 246 318 365
#     4  11  20  31  55  88 126 158 191 238 305 360
#
# _framework density 21.495149000000001
#
# number of rings (size 3 to 8) (size 9 to 14) (size 15 to 20)
#    0.000    1.655    3.448    2.069    1.931    1.931 
#    1.241    0.690    0.000    1.655    0.000    4.828 
#    0.000    0.000    0.000    0.000    0.000    0.000 
#
# Total GULP energy -161455.110450 kJ/mol
# GULP energy per Si atom -5567.417602 kJ/mol
# Density = 2.144623 g / cm^3
# Si number density = 21.495149 Si / 1000 Ang^3
#
#
#
# Elastic Constant Matrix: (Units=GPa)
#
#
# Indices 1 2 3 4 5 6 
#
# 1 73.9145 12.5133 36.5175 0.0000 2.2987 0.0000
# 2 12.5133 87.4013 20.2824 0.0000 1.3766 0.0000
# 3 36.5175 20.2824 120.0357 0.0000 2.3975 0.0000
# 4 0.0000 0.0000 0.0000 49.6208 0.0000 1.0672
# 5 2.2987 1.3766 2.3975 0.0000 24.7258 0.0000
# 6 0.0000 0.0000 0.0000 1.0672 0.0000 8.9448
#
#
#
# Elastic Compliance Matrix: (Units=1/GPa)
#
#
# Indices 1 2 3 4 5 6 
#
# 1 0.016068 -0.001202 -0.004666 0.000000 -0.000974 0.000000
# 2 -0.001202 0.012004 -0.001655 0.000000 -0.000396 0.000000
# 3 -0.004666 -0.001655 0.010039 0.000000 -0.000448 0.000000
# 4 0.000000 0.000000 0.000000 0.020205 0.000000 -0.002411
# 5 -0.000974 -0.000396 -0.000448 0.000000 0.040600 0.000000
# 6 0.000000 0.000000 0.000000 -0.002411 0.000000 0.112085
#
#
# Mechanical properties :
#
#
# Convention : Reuss Voigt Hill
#
# Bulk Modulus (GPa) = 43.35492 46.66420 45.00956
# Shear Modulus (GPa) = 21.39192 30.79417 26.09305
#
# Velocity S-wave (km/s) = 3.15810 3.78909 3.48789
# Velocity P-wave (km/s) = 5.78891 6.39525 6.09962
#
# Compressibility (1/GPa) = 0.02306543
#
# Stress axis : x y z
#
# Youngs Moduli (GPa) = 62.23523 83.30677 99.61397
#
# Poissons Ratio (x) = 0.10017 0.46476
# Poissons Ratio (y) = 0.07483 0.16482
# Poissons Ratio (z) = 0.29037 0.13784
#
# Static dielectric constant tensor:
#      x y z
#    x 1.812180 0.000000 -0.036070 
#    y 0.000000 1.793990 0.000000 
#    z -0.036070 0.000000 1.936950 
# 
# From -- ./inp_files/289916.got.cif
#   From: 2010.05.17/outbox.cif.g08.bks.cpg/sg12_145_cif.got.tgz:289916.got - 2010.06.03 13:09:07.
