data_PCOD9189025
_publ_section_title
;
Structure prediction by ZEFSAII (Michael W. Deem and Ramdas Pophale) SiO2 
 PCOD9189025
Probable space group: C 2/M
;
_chemical_formula_sum "Si O2"
_cell_formula_units_Z 56
_cell_length_a 18.732878
_cell_length_b 31.486755
_cell_length_c 8.580613
_cell_angle_alpha 90.000000
_cell_angle_beta 142.290823
_cell_angle_gamma 90.000000
_cell_volume 3095.682240
_symmetry_space_group_name_H-M "C 2/M"
_symmetry_group_IT_number 12
_symmetry_cell_setting 'monoclinic'
loop_
_space_group_symop_operation_xyz
x,y,z
-x,y,-z
-x,-y,-z
x,-y,z
1/2+x,1/2+y,z
1/2-x,1/2+y,-z
1/2-x,1/2-y,-z
1/2+x,1/2-y,z
loop_
_atom_site_type_symbol
_atom_site_label
_atom_site_fract_x
_atom_site_fract_y
_atom_site_fract_z
Si Si1 0.068095 0.821479 0.462109
Si Si2 0.878874 0.951050 0.194754
Si Si3 0.042159 0.328654 0.894749
Si Si4 0.792430 0.335348 0.313912
Si Si5 0.233684 0.257827 0.157994
Si Si6 0.583694 0.382256 0.007067
Si Si7 0.766802 0.380515 0.931927
O O1 0.156477 0.783328 0.578393
O O2 0.152692 0.859853 0.657660
O O3 0.000000 0.807991 0.500000
O O4 0.979188 0.841987 0.186525
O O5 0.899958 0.920541 0.084343
O O6 0.770606 0.928560 0.097106
O O7 0.000000 0.949443 0.500000
O O8 0.854808 0.000000 0.115669
O O9 0.925889 0.330947 0.591397
O O10 0.120417 0.286816 0.993246
O O11 0.124654 0.368259 0.988795
O O12 0.000000 0.328866 0.000000
O O13 0.735102 0.289092 0.227633
O O14 0.711938 0.366316 0.278197
O O15 0.784538 0.354837 0.125627
O O16 0.250000 0.250000 0.000000
O O17 0.500000 0.395396 0.000000
#
# Coordination Sequence:
#
# PCOD9189025 Si02
#       7
#     8   8   8   8   8   8   8
#     4  11  18  35  56  82 109 151 202 232 292 342
#     4  10  19  36  65  96 118 146 196 243 292 363
#     4  11  26  39  56  84 116 154 201 246 294 349
#     4  11  23  38  58  83 110 163 206 238 291 346
#     4  11  23  36  58  80 112 157 201 255 282 339
#     4  11  23  37  59  86 127 158 187 244 304 360
#     4  10  19  38  61  81 115 152 194 237 286 358
#
# _framework density 18.089711000000001
#
# number of rings (size 3 to 8) (size 9 to 14) (size 15 to 20)
#    0.000    1.286    7.143    0.429    8.000    1.429 
#    0.000    0.000    0.000    7.286    0.000    0.000 
#    0.000    0.000    0.000    0.000    0.000    0.000 
#
# Total GULP energy -156206.964430 kJ/mol
# GULP energy per Si atom -5578.820158 kJ/mol
# Density = 1.804854 g / cm^3
# Si number density = 18.089711 Si / 1000 Ang^3
#
#
#
# Elastic Constant Matrix: (Units=GPa)
#
#
# Indices 1 2 3 4 5 6 
#
# 1 110.7484 43.9226 21.7333 0.0000 22.6905 0.0000
# 2 43.9226 129.1917 37.0582 0.0000 16.2667 0.0000
# 3 21.7333 37.0582 81.6714 0.0000 29.0780 0.0000
# 4 0.0000 0.0000 0.0000 16.2650 0.0000 12.5893
# 5 22.6905 16.2667 29.0780 0.0000 25.6208 0.0000
# 6 0.0000 0.0000 0.0000 12.5893 0.0000 9.8950
#
#
#
# Elastic Compliance Matrix: (Units=1/GPa)
#
#
# Indices 1 2 3 4 5 6 
#
# 1 0.012241 -0.003401 0.002310 0.000000 -0.011304 0.000000
# 2 -0.003401 0.009893 -0.004061 0.000000 0.001340 0.000000
# 3 0.002310 -0.004061 0.022289 0.000000 -0.024765 0.000000
# 4 0.000000 0.000000 0.000000 4.036413 0.000000 -5.135478
# 5 -0.011304 0.001340 -0.024765 0.000000 0.076297 0.000000
# 6 0.000000 0.000000 0.000000 -5.135478 0.000000 6.634866
#
#
# Mechanical properties :
#
#
# Convention : Reuss Voigt Hill
#
# Bulk Modulus (GPa) = 29.30861 58.55996 43.93429
# Shear Modulus (GPa) = 0.46238 24.94932 12.70585
#
# Velocity S-wave (km/s) = 0.50612 3.71779 2.65312
# Velocity P-wave (km/s) = 4.07167 7.13243 5.80732
#
# Compressibility (1/GPa) = 0.03411966
#
# Stress axis : x y z
#
# Youngs Moduli (GPa) = 81.69336 101.08272 44.86489
#
# Poissons Ratio (x) = 0.34380 -0.10366
# Poissons Ratio (y) = 0.27785 0.18219
# Poissons Ratio (z) = -0.18874 0.41049
#
# Static dielectric constant tensor:
#      x y z
#    x 1.660680 0.000000 0.005380 
#    y 0.000000 1.614080 0.000000 
#    z 0.005380 0.000000 1.654420 
# 
# From -- ./inp_files/80487.got.cif
#   From: 2010.05.17/outbox.cif.g08.bks.cpg/sg12_41_cif.got.tgz:80487.got - 2010.06.03 13:09:07.
