data_PCOD9189641
_publ_section_title
;
Structure prediction by ZEFSAII (Michael W. Deem and Ramdas Pophale) SiO2 
 PCOD9189641
Probable space group: C 2/M
;
_chemical_formula_sum "Si O2"
_cell_formula_units_Z 32
_cell_length_a 10.073341
_cell_length_b 32.284793
_cell_length_c 5.203397
_cell_angle_alpha 90.000000
_cell_angle_beta 81.399031
_cell_angle_gamma 90.000000
_cell_volume 1673.195518
_symmetry_space_group_name_H-M "C 2/M"
_symmetry_group_IT_number 12
_symmetry_cell_setting 'monoclinic'
loop_
_space_group_symop_operation_xyz
x,y,z
-x,y,-z
-x,-y,-z
x,-y,z
1/2+x,1/2+y,z
1/2-x,1/2+y,-z
1/2-x,1/2-y,-z
1/2+x,1/2-y,z
loop_
_atom_site_type_symbol
_atom_site_label
_atom_site_fract_x
_atom_site_fract_y
_atom_site_fract_z
Si Si1 0.142412 0.410063 0.608068
Si Si2 0.748812 0.799267 0.006645
Si Si3 0.595064 0.000000 0.722616
Si Si4 0.000000 0.347141 0.000000
Si Si5 0.350224 0.656383 0.459171
O O1 0.174369 0.456673 0.686125
O O2 0.103719 0.379312 0.847379
O O3 0.261587 0.385140 0.437867
O O4 0.000000 0.411685 0.500000
O O5 0.844481 0.817066 0.200740
O O6 0.750000 0.750000 0.000000
O O7 0.599588 0.816677 0.124012
O O8 0.788925 0.816467 0.712869
O O9 0.500000 0.000000 0.500000
O O10 0.500000 0.000000 0.000000
O O11 0.500000 0.645350 0.500000
#
# Coordination Sequence:
#
# PCOD9189641 Si02
#       5
#     8   8   4   4   8
#     4  10  19  38  58  88 118 150 196 240 298 344
#     4  11  24  40  59  84 116 156 204 246 290 347
#     4  10  20  32  61  90 117 146 193 246 289 352
#     4  10  20  35  62  82 116 152 198 245 290 340
#     4  11  24  40  60  84 121 159 192 240 302 354
#
# _framework density 19.125081000000002
#
# number of rings (size 3 to 8) (size 9 to 14) (size 15 to 20)
#    0.000    1.500    3.750    1.500    3.500    0.000 
#    0.000    0.625    0.000    0.000    0.000    8.750 
#    0.000    0.000    0.000    0.000    0.000    0.000 
#
# Total GULP energy -89097.325878 kJ/mol
# GULP energy per Si atom -5568.582867 kJ/mol
# Density = 1.908155 g / cm^3
# Si number density = 19.125081 Si / 1000 Ang^3
#
#
#
# Elastic Constant Matrix: (Units=GPa)
#
#
# Indices 1 2 3 4 5 6 
#
# 1 75.8949 45.8124 -5.1443 0.0000 16.0455 0.0000
# 2 45.8124 199.7792 28.7579 0.0000 -0.8364 0.0000
# 3 -5.1443 28.7579 74.2300 0.0000 9.6841 0.0000
# 4 0.0000 0.0000 0.0000 -604.9368 0.0000 1421.1928
# 5 16.0455 -0.8364 9.6841 0.0000 24.7580 0.0000
# 6 0.0000 0.0000 0.0000 1421.1928 0.0000-3199.5512
#
#
#
# Elastic Compliance Matrix: (Units=1/GPa)
#
#
# Indices 1 2 3 4 5 6 
#
# 1 0.020100 -0.005468 0.005516 0.000000 -0.015369 0.000000
# 2 -0.005468 0.006814 -0.003700 0.000000 0.005221 0.000000
# 3 0.005516 -0.003700 0.016618 0.000000 -0.010200 0.000000
# 4 0.000000 0.000000 0.000000 0.037971 0.000000 0.016866
# 5 -0.015369 0.005221 -0.010200 0.000000 0.054518 0.000000
# 6 0.000000 0.000000 0.000000 0.016866 0.000000 0.007179
#
#
# Mechanical properties :
#
#
# Convention : Reuss Voigt Hill
#
# Bulk Modulus (GPa) = 27.60214 54.30624 40.95419
# Shear Modulus (GPa) = 30.75450 -737.24745 -353.24647
#
# Velocity S-wave (km/s) = 4.01443 -19.65513 -13.60530
# Velocity P-wave (km/s) = 5.99594 22.05996 15.01151
#
# Compressibility (1/GPa) = 0.03622908
#
# Stress axis : x y z
#
# Youngs Moduli (GPa) = 49.75224 146.76207 60.17570
#
# Poissons Ratio (x) = 0.80243 -0.33194
# Poissons Ratio (y) = 0.27202 0.22264
# Poissons Ratio (z) = -0.27444 0.54299
#
# Static dielectric constant tensor:
#      x y z
#    x 1.720120 0.000000 -0.009910 
#    y 0.000000 1.678950 0.000000 
#    z -0.009910 0.000000 1.690110 
# 
# From -- ./inp_files/3538.got.cif
#   From: 2010.05.17/outbox.cif.g08.bks.cpg/sg12_2_cif.got.tgz:3538.got - 2010.06.03 13:09:07.
