data_PCOD9189750
_publ_section_title
;
Structure prediction by ZEFSAII (Michael W. Deem and Ramdas Pophale) SiO2 
 PCOD9189750
Probable space group: C 2/M
;
_chemical_formula_sum "Si O2"
_cell_formula_units_Z 50
_cell_length_a 8.786966
_cell_length_b 17.723434
_cell_length_c 19.071306
_cell_angle_alpha 90.000000
_cell_angle_beta 54.361467
_cell_angle_gamma 90.000000
_cell_volume 2413.806022
_symmetry_space_group_name_H-M "C 2/M"
_symmetry_group_IT_number 12
_symmetry_cell_setting 'monoclinic'
loop_
_space_group_symop_operation_xyz
x,y,z
-x,y,-z
-x,-y,-z
x,-y,z
1/2+x,1/2+y,z
1/2-x,1/2+y,-z
1/2-x,1/2-y,-z
1/2+x,1/2-y,z
loop_
_atom_site_type_symbol
_atom_site_label
_atom_site_fract_x
_atom_site_fract_y
_atom_site_fract_z
Si Si1 0.437564 0.684980 0.201944
Si Si2 0.000000 0.000000 0.500000
Si Si3 0.901306 0.413886 0.700920
Si Si4 0.976930 0.858596 0.601495
Si Si5 0.355417 0.227905 0.368496
Si Si6 0.630391 0.914014 0.784435
Si Si7 0.633306 0.798344 0.898574
O O1 0.315689 0.609423 0.244647
O O2 0.408657 0.740657 0.276422
O O3 0.357256 0.725492 0.154185
O O4 0.659212 0.677000 0.134249
O O5 0.959885 0.934099 0.452331
O O6 0.936780 0.500000 0.664570
O O7 0.007235 0.339533 0.642040
O O8 0.990559 0.414058 0.755322
O O9 0.841964 0.811105 0.587005
O O10 0.830057 0.881928 0.703085
O O11 0.131290 0.802047 0.588457
O O12 0.557800 0.863024 0.866772
O O13 0.656598 0.000000 0.799359
O O14 0.500000 0.785920 0.000000
#
# Coordination Sequence:
#
# PCOD9189750 Si02
#       7
#     8   2   8   8   8   8   8
#     4  12  19  38  59  92 124 170 224 258 319 368
#     4  12  28  44  68 106 124 164 204 254 326 384
#     4  10  20  35  62  95 121 163 225 262 312 380
#     4  11  22  41  68  94 128 162 210 254 318 389
#     4  11  19  39  69  92 123 174 209 256 306 392
#     4  10  19  38  62  86 121 173 211 261 323 383
#     4  12  23  35  58  91 129 169 224 272 312 371
#
# _framework density 20.714174
#
# number of rings (size 3 to 8) (size 9 to 14) (size 15 to 20)
#    0.000    0.960    8.800    0.480    1.120    1.600 
#    1.440    0.000    0.000    3.360    0.000    0.000 
#    0.000    0.000    0.000    0.000    0.000    0.000 
#
# Total GULP energy -139304.259768 kJ/mol
# GULP energy per Si atom -5572.170391 kJ/mol
# Density = 2.066703 g / cm^3
# Si number density = 20.714174 Si / 1000 Ang^3
#
#
#
# Elastic Constant Matrix: (Units=GPa)
#
#
# Indices 1 2 3 4 5 6 
#
# 1 46.7096 10.7592 -7.7515 0.0000 -8.8379 0.0001
# 2 10.7592 158.7579 29.9469 0.0000 14.3984 0.0000
# 3 -7.7515 29.9469 60.9929 0.0000 4.4293 0.0000
# 4 0.0000 0.0000 0.0000 22.0735 0.0000 7.9984
# 5 -8.8379 14.3984 4.4293 0.0000 20.9886 0.0000
# 6 0.0001 0.0000 0.0000 7.9984 0.0000 15.3810
#
#
#
# Elastic Compliance Matrix: (Units=1/GPa)
#
#
# Indices 1 2 3 4 5 6 
#
# 1 0.025225 -0.003588 0.004080 0.000000 0.012222 0.000000
# 2 -0.003588 0.007819 -0.003855 0.000000 -0.006061 0.000000
# 3 0.004080 -0.003855 0.018777 0.000000 0.000400 0.000000
# 4 0.000000 0.000000 0.000000 0.055822 0.000000 -0.029028
# 5 0.012222 -0.006061 0.000400 0.000000 0.056865 0.000000
# 6 0.000000 0.000000 0.000000 -0.029028 0.000000 0.080111
#
#
# Mechanical properties :
#
#
# Convention : Reuss Voigt Hill
#
# Bulk Modulus (GPa) = 22.17499 36.92996 29.55248
# Shear Modulus (GPa) = 18.77047 27.25566 23.01307
#
# Velocity S-wave (km/s) = 3.01352 3.63133 3.33676
# Velocity P-wave (km/s) = 4.77880 5.95392 5.39843
#
# Compressibility (1/GPa) = 0.04509584
#
# Stress axis : x y z
#
# Youngs Moduli (GPa) = 39.64356 127.89598 53.25533
#
# Poissons Ratio (x) = 0.45883 -0.21726
# Poissons Ratio (y) = 0.14222 0.20529
# Poissons Ratio (z) = -0.16173 0.49301
#
# Static dielectric constant tensor:
#      x y z
#    x 1.777440 0.000000 0.011030 
#    y 0.000000 1.739110 0.000000 
#    z 0.011030 0.000000 1.777070 
# 
# From -- ./inp_files/256537.got.cif
#   From: 2010.05.17/outbox.cif.g08.bks.cpg/sg12_129_cif.got.tgz:256537.got - 2010.06.03 13:09:07.
