data_PCOD9189365
_publ_section_title
;
Structure prediction by ZEFSAII (Michael W. Deem and Ramdas Pophale) SiO2 
 PCOD9189365
Probable space group: C 2/M
;
_chemical_formula_sum "Si O2"
_cell_formula_units_Z 48
_cell_length_a 15.366143
_cell_length_b 15.764966
_cell_length_c 22.846992
_cell_angle_alpha 90.000000
_cell_angle_beta 150.467678
_cell_angle_gamma 90.000000
_cell_volume 2728.088829
_symmetry_space_group_name_H-M "C 2/M"
_symmetry_group_IT_number 12
_symmetry_cell_setting 'monoclinic'
loop_
_space_group_symop_operation_xyz
x,y,z
-x,y,-z
-x,-y,-z
x,-y,z
1/2+x,1/2+y,z
1/2-x,1/2+y,-z
1/2-x,1/2-y,-z
1/2+x,1/2-y,z
loop_
_atom_site_type_symbol
_atom_site_label
_atom_site_fract_x
_atom_site_fract_y
_atom_site_fract_z
Si Si1 0.905715 0.600337 0.727108
Si Si2 0.165517 0.154413 0.178743
Si Si3 0.725598 0.000000 0.685838
Si Si4 0.703999 0.398491 0.068992
Si Si5 0.886264 0.204887 0.375982
Si Si6 0.181230 0.500000 0.522146
Si Si7 0.218527 0.153335 0.501468
O O1 0.876961 0.500000 0.714536
O O2 0.771274 0.648668 0.690341
O O3 0.855346 0.629235 0.632330
O O4 0.112847 0.617070 0.856992
O O5 0.229898 0.121192 0.153102
O O6 0.291248 0.227128 0.278303
O O7 0.179116 0.082052 0.234906
O O8 0.954659 0.162032 0.045258
O O9 0.722269 0.000000 0.614536
O O10 0.531608 0.000000 0.601982
O O11 0.659540 0.500000 0.038316
O O12 0.000000 0.238051 0.500000
O O13 0.026580 0.152377 0.419726
O O14 0.254628 0.584032 0.533335
O O15 0.250000 0.250000 0.500000
#
# Coordination Sequence:
#
# PCOD9189365 Si02
#       7
#     8   8   4   8   8   4   8
#     4  10  21  37  61  84 111 153 197 238 280 337
#     4  11  20  37  57  85 118 147 184 241 285 341
#     4  11  22  33  54  85 117 142 185 231 294 343
#     4  10  19  37  62  86 110 150 193 235 289 342
#     4  10  24  36  58  84 117 150 192 237 281 335
#     4  11  24  34  57  81 117 163 180 227 301 343
#     4  11  22  38  56  85 118 152 194 234 286 351
#
# _framework density 17.594733999999999
#
# number of rings (size 3 to 8) (size 9 to 14) (size 15 to 20)
#    0.000    1.500    2.500    3.500    8.167    1.667 
#    0.000    0.000    0.000    0.000    0.000    3.500 
#    0.000    0.000    0.000    0.000    0.000    0.000 
#
# Total GULP energy -133811.268575 kJ/mol
# GULP energy per Si atom -5575.469524 kJ/mol
# Density = 1.755469 g / cm^3
# Si number density = 17.594734 Si / 1000 Ang^3
#
#
#
# Elastic Constant Matrix: (Units=GPa)
#
#
# Indices 1 2 3 4 5 6 
#
# 1 84.4970 28.7314 47.3461 0.0012 14.3778 0.0001
# 2 28.7314 64.9745 32.3064 0.0056 -1.4932 0.0011
# 3 47.3461 32.3064 95.6620 0.0145 9.0797 0.0023
# 4 0.0012 0.0056 0.0145 268.8850 -0.0023 40.0206
# 5 14.3778 -1.4932 9.0797 -0.0023 28.1388 -0.0004
# 6 0.0001 0.0011 0.0023 40.0206 -0.0004 14.6937
#
#
#
# Elastic Compliance Matrix: (Units=1/GPa)
#
#
# Indices 1 2 3 4 5 6 
#
# 1 0.018658 -0.005039 -0.006811 0.000000 -0.007603 0.000000
# 2 -0.005039 0.020122 -0.004794 0.000000 0.005189 -0.000001
# 3 -0.006811 -0.004794 0.015616 -0.000001 -0.001813 0.000000
# 4 0.000000 0.000000 -0.000001 0.006255 0.000000 -0.017035
# 5 -0.007603 0.005189 -0.001813 0.000000 0.040283 0.000000
# 6 0.000000 -0.000001 0.000000 -0.017035 0.000000 0.114455
#
#
# Mechanical properties :
#
#
# Convention : Reuss Voigt Hill
#
# Bulk Modulus (GPa) = 47.37642 51.32237 49.34939
# Shear Modulus (GPa) = 19.55319 71.46014 45.50667
#
# Velocity S-wave (km/s) = 3.33725 6.37986 5.09116
# Velocity P-wave (km/s) = 6.46796 9.13798 7.91635
#
# Compressibility (1/GPa) = 0.02110755
#
# Stress axis : x y z
#
# Youngs Moduli (GPa) = 53.59542 49.69760 64.03808
#
# Poissons Ratio (x) = 0.25041 0.43618
# Poissons Ratio (y) = 0.27005 0.30701
# Poissons Ratio (z) = 0.36505 0.23826
#
# Static dielectric constant tensor:
#      x y z
#    x 1.598830 0.000000 0.013870 
#    y 0.000000 1.622680 0.000000 
#    z 0.013870 0.000000 1.631260 
# 
# From -- ./inp_files/340244.got.cif
#   From: 2010.05.17/outbox.cif.g08.bks.cpg/sg12_171_cif.got.tgz:340244.got - 2010.06.03 13:09:07.
