data_PCOD9189313
_publ_section_title
;
Structure prediction by ZEFSAII (Michael W. Deem and Ramdas Pophale) SiO2 
 PCOD9189313
Probable space group: C 2/M
;
_chemical_formula_sum "Si O2"
_cell_formula_units_Z 58
_cell_length_a 20.465818
_cell_length_b 7.551198
_cell_length_c 16.448014
_cell_angle_alpha 90.000000
_cell_angle_beta 85.937309
_cell_angle_gamma 90.000000
_cell_volume 2535.512365
_symmetry_space_group_name_H-M "C 2/M"
_symmetry_group_IT_number 12
_symmetry_cell_setting 'monoclinic'
loop_
_space_group_symop_operation_xyz
x,y,z
-x,y,-z
-x,-y,-z
x,-y,z
1/2+x,1/2+y,z
1/2-x,1/2+y,-z
1/2-x,1/2-y,-z
1/2+x,1/2-y,z
loop_
_atom_site_type_symbol
_atom_site_label
_atom_site_fract_x
_atom_site_fract_y
_atom_site_fract_z
Si Si1 0.730751 0.210581 0.409647
Si Si2 0.384825 0.296570 0.686489
Si Si3 0.800414 0.786199 0.843668
Si Si4 0.636909 0.286443 0.683185
Si Si5 0.408646 0.697770 0.964341
Si Si6 0.000000 0.500000 0.000000
Si Si7 0.513549 0.717245 0.591175
Si Si8 0.150863 0.290809 0.863927
O O1 0.750000 0.250000 0.500000
O O2 0.662797 0.293489 0.387307
O O3 0.790703 0.276625 0.348385
O O4 0.724466 0.000000 0.400244
O O5 0.397709 0.500000 0.709229
O O6 0.341979 0.216967 0.763286
O O7 0.454203 0.220313 0.653931
O O8 0.725846 0.722872 0.855055
O O9 0.794346 0.000000 0.834821
O O10 0.843380 0.753424 0.919654
O O11 0.638263 0.500000 0.680153
O O12 0.582485 0.226839 0.623522
O O13 0.622388 0.232371 0.776508
O O14 0.428949 0.500000 0.937594
O O15 0.388694 0.700564 0.060738
O O16 0.463448 0.844476 0.949529
O O17 0.500000 0.773680 0.500000
O O18 0.512697 0.500000 0.590722
O O19 0.149344 0.500000 0.884692
#
# Coordination Sequence:
#
# PCOD9189313 Si02
#       8
#     8   8   8   8   8   2   8   8
#     4  11  22  36  57  87 121 162 213 268 332 393
#     4  10  19  37  61  87 121 162 209 266 326 398
#     4   9  20  38  65  96 129 173 222 273 339 399
#     4  10  21  37  59  91 122 164 219 272 329 399
#     4  11  24  45  70  98 138 183 224 278 332 401
#     4  12  26  48  64 106 136 176 232 262 332 402
#     4   9  18  34  58  86 119 161 212 264 323 400
#     4  11  21  40  65  97 134 169 223 277 337 402
#
# _framework density 22.875063000000001
#
# number of rings (size 3 to 8) (size 9 to 14) (size 15 to 20)
#    0.000    1.793    2.069    2.276    0.000    3.862 
#    3.724    3.448    0.000    1.655    0.000    0.000 
#    0.000    0.000    0.000    0.000    0.000    0.000 
#
# Total GULP energy -161893.201186 kJ/mol
# GULP energy per Si atom -5582.524179 kJ/mol
# Density = 2.282300 g / cm^3
# Si number density = 22.875063 Si / 1000 Ang^3
#
#
#
# Elastic Constant Matrix: (Units=GPa)
#
#
# Indices 1 2 3 4 5 6 
#
# 1 72.1699 17.0148 -11.3695 0.0000 13.5132 0.0000
# 2 17.0148 88.5483 -2.1223 0.0000 4.7110 0.0000
# 3 -11.3695 -2.1223 74.4182 0.0000 10.0925 0.0000
# 4 0.0000 0.0000 0.0000 7.2252 0.0000 6.9061
# 5 13.5132 4.7110 10.0925 0.0000 37.3104 0.0000
# 6 0.0000 0.0000 0.0000 6.9061 0.0000 16.1344
#
#
#
# Elastic Compliance Matrix: (Units=1/GPa)
#
#
# Indices 1 2 3 4 5 6 
#
# 1 0.016208 -0.002695 0.003269 0.000000 -0.006414 0.000000
# 2 -0.002695 0.011839 -0.000004 0.000000 -0.000518 0.000000
# 3 0.003269 -0.000004 0.014634 0.000000 -0.005142 0.000000
# 4 0.000000 0.000000 0.000000 0.234236 0.000000 -0.100261
# 5 -0.006414 -0.000518 -0.005142 0.000000 0.030582 0.000000
# 6 0.000000 0.000000 0.000000 -0.100261 0.000000 0.104895
#
#
# Mechanical properties :
#
#
# Convention : Reuss Voigt Hill
#
# Bulk Modulus (GPa) = 22.81982 26.90916 24.86449
# Shear Modulus (GPa) = 11.74099 27.57490 19.65794
#
# Velocity S-wave (km/s) = 2.26799 3.47574 2.93467
# Velocity P-wave (km/s) = 4.10559 5.28173 4.73036
#
# Compressibility (1/GPa) = 0.04382155
#
# Stress axis : x y z
#
# Youngs Moduli (GPa) = 61.69980 84.46995 68.33261
#
# Poissons Ratio (x) = 0.22762 -0.22339
# Poissons Ratio (y) = 0.16626 0.00026
# Poissons Ratio (z) = -0.20171 0.00033
#
# Static dielectric constant tensor:
#      x y z
#    x 1.860000 0.000000 -0.024300 
#    y 0.000000 1.872270 0.000000 
#    z -0.024300 0.000000 1.830930 
# 
# From -- ./inp_files/275442.got.cif
#   From: 2010.05.17/outbox.cif.g08.bks.cpg/sg12_138_cif.got.tgz:275442.got - 2010.06.03 13:09:07.
