data_PCOD9189694
_publ_section_title
;
Structure prediction by ZEFSAII (Michael W. Deem and Ramdas Pophale) SiO2 
 PCOD9189694
Probable space group: C 2/M
;
_chemical_formula_sum "Si O2"
_cell_formula_units_Z 52
_cell_length_a 15.242814
_cell_length_b 9.185906
_cell_length_c 31.328836
_cell_angle_alpha 90.000000
_cell_angle_beta 35.690889
_cell_angle_gamma 90.000000
_cell_volume 2559.215253
_symmetry_space_group_name_H-M "C 2/M"
_symmetry_group_IT_number 12
_symmetry_cell_setting 'monoclinic'
loop_
_space_group_symop_operation_xyz
x,y,z
-x,y,-z
-x,-y,-z
x,-y,z
1/2+x,1/2+y,z
1/2-x,1/2+y,-z
1/2-x,1/2-y,-z
1/2+x,1/2-y,z
loop_
_atom_site_type_symbol
_atom_site_label
_atom_site_fract_x
_atom_site_fract_y
_atom_site_fract_z
Si Si1 0.184465 0.165508 0.832140
Si Si2 0.447574 0.832887 0.871295
Si Si3 0.835440 0.667115 0.296552
Si Si4 0.799149 0.500000 0.636866
Si Si5 0.886817 0.500000 0.441483
Si Si6 0.009965 0.699764 0.672956
Si Si7 0.673673 0.677138 0.930374
Si Si8 0.356259 0.500000 0.391514
O O1 0.334069 0.164595 0.744449
O O2 0.230081 0.220483 0.861004
O O3 0.048325 0.251476 0.865603
O O4 0.133064 0.000000 0.857875
O O5 0.543142 0.830971 0.789396
O O6 0.284981 0.768394 0.923123
O O7 0.430051 0.000000 0.891676
O O8 0.760127 0.500000 0.321920
O O9 0.760407 0.833809 0.324831
O O10 0.913521 0.659941 0.312242
O O11 0.760809 0.500000 0.601802
O O12 0.972018 0.500000 0.582326
O O13 0.906607 0.630699 0.400335
O O14 0.736540 0.500000 0.528186
O O15 0.033946 0.867082 0.657264
O O16 0.680956 0.500000 0.930406
O O17 0.500000 0.720270 0.000000
#
# Coordination Sequence:
#
# PCOD9189694 Si02
#       8
#     8   8   8   4   4   8   8   4
#     4  11  21  37  61  91 117 158 207 250 301 364
#     4  10  21  35  58  89 121 154 203 252 302 360
#     4  10  19  38  60  89 121 162 208 260 310 366
#     4  10  23  38  62  90 122 163 203 261 324 372
#     4  12  21  40  62  87 123 153 205 257 313 377
#     4  11  21  38  63  86 117 160 207 254 305 368
#     4   9  19  38  62  87 122 163 199 243 305 373
#     4  10  25  40  60  87 120 164 197 252 324 379
#
# _framework density 20.318729999999999
#
# number of rings (size 3 to 8) (size 9 to 14) (size 15 to 20)
#    0.000    1.692    3.077    1.615    2.154    0.615 
#    1.385    0.769    0.000    2.769    0.000    0.000 
#    0.000    0.000    0.000    0.000    0.000    0.000 
#
# Total GULP energy -144750.149652 kJ/mol
# GULP energy per Si atom -5567.313448 kJ/mol
# Density = 2.027248 g / cm^3
# Si number density = 20.318730 Si / 1000 Ang^3
#
#
#
# Elastic Constant Matrix: (Units=GPa)
#
#
# Indices 1 2 3 4 5 6 
#
# 1 77.1651 24.5529 -11.8359 0.0000 -14.8208 -0.0006
# 2 24.5529 118.0487 0.1932 0.0002 -10.8331 -0.0011
# 3 -11.8359 0.1932 23.7742 0.0001 -6.6022 0.0000
# 4 0.0000 0.0002 0.0001 10.6656 0.0000 -2.4730
# 5 -14.8208 -10.8331 -6.6022 0.0000 22.7503 -0.0002
# 6 -0.0006 -0.0011 0.0000 -2.4730 -0.0002 24.2062
#
#
#
# Elastic Compliance Matrix: (Units=1/GPa)
#
#
# Indices 1 2 3 4 5 6 
#
# 1 0.018688 -0.002545 0.013453 0.000000 0.014867 0.000000
# 2 -0.002545 0.009236 -0.000632 0.000000 0.002557 0.000000
# 3 0.013453 -0.000632 0.055596 -0.000001 0.024597 0.000000
# 4 0.000000 0.000000 -0.000001 0.096034 0.000000 0.009811
# 5 0.014867 0.002557 0.024597 0.000000 0.061996 0.000001
# 6 0.000000 0.000000 0.000000 0.009811 0.000001 0.042314
#
#
# Mechanical properties :
#
#
# Convention : Reuss Voigt Hill
#
# Bulk Modulus (GPa) = 9.60873 27.20094 18.40483
# Shear Modulus (GPa) = 16.77845 25.26296 21.02070
#
# Velocity S-wave (km/s) = 2.87673 3.52992 3.21993
# Velocity P-wave (km/s) = 3.97157 5.47996 4.78557
#
# Compressibility (1/GPa) = 0.10407206
#
# Stress axis : x y z
#
# Youngs Moduli (GPa) = 53.51116 108.27190 17.98704
#
# Poissons Ratio (x) = 0.27551 -0.24198
# Poissons Ratio (y) = 0.13616 0.01136
# Poissons Ratio (z) = -0.71987 0.06841
#
# Static dielectric constant tensor:
#      x y z
#    x 1.724270 -0.000020 0.008390 
#    y -0.000020 18.817880 0.000010 
#    z 0.008390 0.000010 1.710510 
# 
# From -- ./inp_files/375363.got.cif
#   From: 2010.05.17/outbox.cif.g08.bks.cpg/sg12_188_cif.got.tgz:375363.got - 2010.06.03 13:09:07.
