data_PCOD9189901
_publ_section_title
;
Structure prediction by ZEFSAII (Michael W. Deem and Ramdas Pophale) SiO2 
 PCOD9189901
Probable space group: C 2/M
;
_chemical_formula_sum "Si O2"
_cell_formula_units_Z 52
_cell_length_a 16.807735
_cell_length_b 16.247956
_cell_length_c 8.260619
_cell_angle_alpha 90.000000
_cell_angle_beta 111.530813
_cell_angle_gamma 90.000000
_cell_volume 2098.487307
_symmetry_space_group_name_H-M "C 2/M"
_symmetry_group_IT_number 12
_symmetry_cell_setting 'monoclinic'
loop_
_space_group_symop_operation_xyz
x,y,z
-x,y,-z
-x,-y,-z
x,-y,z
1/2+x,1/2+y,z
1/2-x,1/2+y,-z
1/2-x,1/2-y,-z
1/2+x,1/2-y,z
loop_
_atom_site_type_symbol
_atom_site_label
_atom_site_fract_x
_atom_site_fract_y
_atom_site_fract_z
Si Si1 0.305081 0.163079 0.722524
Si Si2 0.442737 0.907451 0.612121
Si Si3 0.939336 0.176189 0.106444
Si Si4 0.189822 0.000000 0.664479
Si Si5 0.849684 0.000000 0.709119
Si Si6 0.735624 0.343482 0.215740
Si Si7 0.568410 0.500000 0.871574
Si Si8 0.901717 0.652179 0.134205
O O1 0.367266 0.150870 0.615355
O O2 0.244349 0.083837 0.690380
O O3 0.262113 0.252997 0.702415
O O4 0.363900 0.158940 0.927035
O O5 0.500000 0.884321 0.500000
O O6 0.517675 0.906665 0.801335
O O7 0.409257 0.000000 0.563632
O O8 0.936624 0.257188 0.210600
O O9 0.972511 0.088885 0.195750
O O10 0.841435 0.162730 0.974604
O O11 0.000000 0.195559 0.000000
O O12 0.125848 0.000000 0.462029
O O13 0.148709 0.000000 0.810969
O O14 0.794942 0.916998 0.693111
O O15 0.908798 0.000000 0.917593
O O16 0.823184 0.367715 0.193456
#
# Coordination Sequence:
#
# PCOD9189901 Si02
#       8
#     8   8   8   4   4   8   4   8
#     4  11  22  41  63  97 128 169 224 268 323 397
#     4  11  26  43  60  91 134 177 216 260 333 399
#     4  10  19  38  66  96 125 171 219 271 331 391
#     4  12  24  39  66 100 134 169 225 276 328 396
#     4  10  24  41  64  92 136 169 212 280 332 373
#     4  10  22  40  67  96 129 170 218 269 335 389
#     4  10  21  42  64  95 127 170 226 270 333 391
#     4  11  22  38  68  93 130 167 220 274 323 395
#
# _framework density 24.779755000000002
#
# number of rings (size 3 to 8) (size 9 to 14) (size 15 to 20)
#    0.000    1.385    0.769    7.154    4.308    1.231 
#    2.769    0.000    0.000    3.692    0.000    0.000 
#    0.000    0.000    0.000    0.000    0.000    0.000 
#
# Total GULP energy -145366.161687 kJ/mol
# GULP energy per Si atom -5591.006219 kJ/mol
# Density = 2.472336 g / cm^3
# Si number density = 24.779755 Si / 1000 Ang^3
#
#
#
# Elastic Constant Matrix: (Units=GPa)
#
#
# Indices 1 2 3 4 5 6 
#
# 1 99.9824 15.4722 14.0241 0.0000 -7.0412 0.0000
# 2 15.4722 153.1229 26.2898 0.0000 9.7465 0.0000
# 3 14.0241 26.2898 82.2146 0.0000 -1.5381 0.0000
# 4 0.0000 0.0000 0.0000 -20.8868 0.0000 -43.8075
# 5 -7.0412 9.7465 -1.5381 0.0000 34.3457 0.0000
# 6 0.0000 0.0000 0.0000 -43.8075 0.0000 5.4035
#
#
#
# Elastic Compliance Matrix: (Units=1/GPa)
#
#
# Indices 1 2 3 4 5 6 
#
# 1 0.010520 -0.000966 -0.001441 0.000000 0.002366 0.000000
# 2 -0.000966 0.007148 -0.002164 0.000000 -0.002323 0.000000
# 3 -0.001441 -0.002164 0.013118 0.000000 0.000906 0.000000
# 4 0.000000 0.000000 0.000000 -0.002659 0.000000 -0.021559
# 5 0.002366 -0.002323 0.000906 0.000000 0.030301 0.000000
# 6 0.000000 0.000000 0.000000 -0.021559 0.000000 0.010279
#
#
# Mechanical properties :
#
#
# Convention : Reuss Voigt Hill
#
# Bulk Modulus (GPa) = 46.20531 49.65469 47.93000
# Shear Modulus (GPa) = 58.77895 22.40806 40.59350
#
# Velocity S-wave (km/s) = 4.87566 3.01040 4.05182
# Velocity P-wave (km/s) = 7.09809 5.67144 6.42449
#
# Compressibility (1/GPa) = 0.02164253
#
# Stress axis : x y z
#
# Youngs Moduli (GPa) = 95.05624 139.90302 76.23010
#
# Poissons Ratio (x) = 0.13517 0.10987
# Poissons Ratio (y) = 0.09184 0.16499
# Poissons Ratio (z) = 0.13700 0.30279
#
# Static dielectric constant tensor:
#      x y z
#    x 1.988010 0.000000 0.073760 
#    y 0.000000 1.953150 0.000000 
#    z 0.073760 0.000000 2.037100 
# 
# From -- ./inp_files/75303.got.cif
#   From: 2010.05.17/outbox.cif.g08.bks.cpg/sg12_38_cif.got.tgz:75303.got - 2010.06.03 13:09:07.
