data_PCOD9189045
_publ_section_title
;
Structure prediction by ZEFSAII (Michael W. Deem and Ramdas Pophale) SiO2 
 PCOD9189045
Probable space group: C 2/M
;
_chemical_formula_sum "Si O2"
_cell_formula_units_Z 56
_cell_length_a 30.623201
_cell_length_b 18.189715
_cell_length_c 9.441557
_cell_angle_alpha 90.000000
_cell_angle_beta 152.600684
_cell_angle_gamma 90.000000
_cell_volume 2420.229263
_symmetry_space_group_name_H-M "C 2/M"
_symmetry_group_IT_number 12
_symmetry_cell_setting 'monoclinic'
loop_
_space_group_symop_operation_xyz
x,y,z
-x,y,-z
-x,-y,-z
x,-y,z
1/2+x,1/2+y,z
1/2-x,1/2+y,-z
1/2-x,1/2-y,-z
1/2+x,1/2-y,z
loop_
_atom_site_type_symbol
_atom_site_label
_atom_site_fract_x
_atom_site_fract_y
_atom_site_fract_z
Si Si1 0.568968 0.911485 0.328174
Si Si2 0.793694 0.295063 0.493921
Si Si3 0.218698 0.088165 0.009389
Si Si4 0.087441 0.162120 0.155290
Si Si5 0.107140 0.411162 0.024036
Si Si6 0.249401 0.912459 0.783006
Si Si7 0.406016 0.324950 0.162958
O O1 0.676885 0.883784 0.634003
O O2 0.576261 0.000000 0.349024
O O3 0.500000 0.892454 0.000000
O O4 0.503054 0.890754 0.271617
O O5 0.750000 0.250000 0.500000
O O6 0.881357 0.243856 0.703805
O O7 0.830360 0.369779 0.675732
O O8 0.698895 0.289400 0.125404
O O9 0.225866 0.000000 0.029085
O O10 0.218051 0.116577 0.845794
O O11 0.124364 0.105496 0.827597
O O12 0.173225 0.109582 0.446494
O O13 0.075230 0.161366 0.950013
O O14 0.000000 0.139026 0.000000
O O15 0.115513 0.500000 0.067714
O O16 0.150107 0.390608 0.995890
O O17 0.253033 0.000000 0.807968
O O18 0.500000 0.290457 0.500000
#
# Coordination Sequence:
#
# PCOD9189045 Si02
#       7
#     8   8   8   8   8   8   8
#     4   9  18  31  54  90 128 165 208 261 321 382
#     4  10  21  41  64  91 131 166 213 264 317 385
#     4  10  22  39  60  94 136 171 217 275 325 381
#     4  11  24  44  70  94 129 174 217 266 326 393
#     4  10  19  36  66  96 129 173 217 265 324 382
#     4  10  21  39  64  95 134 177 219 267 323 385
#     4  11  23  41  65  92 125 164 217 270 320 383
#
# _framework density 23.138303000000001
#
# number of rings (size 3 to 8) (size 9 to 14) (size 15 to 20)
#    0.000    1.857    2.857    1.714    0.000    5.143 
#    0.000    8.571    0.000    0.000    0.000    0.000 
#    0.000    0.000    0.000    0.000    0.000    0.000 
#
# Total GULP energy -155911.792603 kJ/mol
# GULP energy per Si atom -5568.278307 kJ/mol
# Density = 2.308564 g / cm^3
# Si number density = 23.138303 Si / 1000 Ang^3
#
#
#
# Elastic Constant Matrix: (Units=GPa)
#
#
# Indices 1 2 3 4 5 6 
#
# 1 139.8947 1.2241 42.4452 0.0000 12.7885 0.0000
# 2 1.2241 22.6846 -1.6647 0.0000 7.6150 0.0000
# 3 42.4452 -1.6647 99.2132 0.0000 3.7466 0.0000
# 4 0.0000 0.0000 0.0000 14.9477 0.0000 8.2639
# 5 12.7885 7.6150 3.7466 0.0000 46.7074 0.0000
# 6 0.0000 0.0000 0.0000 8.2639 0.0000 17.2132
#
#
#
# Elastic Compliance Matrix: (Units=1/GPa)
#
#
# Indices 1 2 3 4 5 6 
#
# 1 0.008400 -0.000036 -0.003518 0.000000 -0.002012 0.000000
# 2 -0.000036 0.046750 0.001091 0.000000 -0.007699 0.000000
# 3 -0.003518 0.001091 0.011608 0.000000 -0.000146 0.000000
# 4 0.000000 0.000000 0.000000 0.091073 0.000000 -0.043723
# 5 -0.002012 -0.007699 -0.000146 0.000000 0.023228 0.000000
# 6 0.000000 0.000000 0.000000 -0.043723 0.000000 0.079086
#
#
# Mechanical properties :
#
#
# Convention : Reuss Voigt Hill
#
# Bulk Modulus (GPa) = 16.17333 38.42240 27.29787
# Shear Modulus (GPa) = 17.50197 30.42619 23.96408
#
# Velocity S-wave (km/s) = 2.75327 3.63019 3.22170
# Velocity P-wave (km/s) = 4.13671 5.84915 5.06581
#
# Compressibility (1/GPa) = 0.06183018
#
# Stress axis : x y z
#
# Youngs Moduli (GPa) = 119.04859 21.39060 86.14542
#
# Poissons Ratio (x) = 0.00077 0.30308
# Poissons Ratio (y) = 0.00430 -0.09395
# Poissons Ratio (z) = 0.41885 -0.02333
#
# Static dielectric constant tensor:
#      x y z
#    x 2.034130 0.000000 -0.061600 
#    y 0.000000 1.998280 0.000000 
#    z -0.061600 0.000000 1.933120 
# 
# From -- ./inp_files/113383.got.cif
#   From: 2010.05.17/outbox.cif.g08.bks.cpg/sg12_57_cif.got.tgz:113383.got - 2010.06.03 13:09:07.
