data_PCOD9189817
_publ_section_title
;
Structure prediction by ZEFSAII (Michael W. Deem and Ramdas Pophale) SiO2 
 PCOD9189817
Probable space group: C 2/M
;
_chemical_formula_sum "Si O2"
_cell_formula_units_Z 48
_cell_length_a 16.264052
_cell_length_b 20.486403
_cell_length_c 12.169160
_cell_angle_alpha 90.000000
_cell_angle_beta 32.846891
_cell_angle_gamma 90.000000
_cell_volume 2199.234327
_symmetry_space_group_name_H-M "C 2/M"
_symmetry_group_IT_number 12
_symmetry_cell_setting 'monoclinic'
loop_
_space_group_symop_operation_xyz
x,y,z
-x,y,-z
-x,-y,-z
x,-y,z
1/2+x,1/2+y,z
1/2-x,1/2+y,-z
1/2-x,1/2-y,-z
1/2+x,1/2-y,z
loop_
_atom_site_type_symbol
_atom_site_label
_atom_site_fract_x
_atom_site_fract_y
_atom_site_fract_z
Si Si1 0.838011 0.185929 0.447510
Si Si2 0.221418 0.923279 0.643928
Si Si3 0.156431 0.326523 0.855733
Si Si4 0.148504 0.601100 0.275567
Si Si5 0.946616 0.572272 0.842043
Si Si6 0.371129 0.750476 0.767989
O O1 0.750000 0.250000 0.500000
O O2 0.871711 0.132308 0.316182
O O3 0.731693 0.150750 0.657857
O O4 0.984753 0.214152 0.343978
O O5 0.229007 0.907373 0.765784
O O6 0.391612 0.914266 0.399663
O O7 0.180715 0.000000 0.675056
O O8 0.288013 0.284684 0.761859
O O9 0.104143 0.378819 0.005496
O O10 0.000000 0.289922 0.000000
O O11 0.171106 0.573131 0.128471
O O12 0.106887 0.675670 0.294071
O O13 0.000000 0.570726 0.500000
O O14 0.955396 0.500000 0.879697
O O15 0.250000 0.750000 0.000000
#
# Coordination Sequence:
#
# PCOD9189817 Si02
#       6
#     8   8   8   8   8   8
#     4  12  24  42  66  98 138 179 226 285 343 415
#     4  10  21  39  67  99 137 181 226 280 348 418
#     4  12  23  40  63  97 130 170 216 273 342 397
#     4  10  19  38  63  95 127 168 222 281 336 398
#     4  10  20  37  63  96 130 171 223 274 328 411
#     4  12  24  41  66  95 132 172 224 287 346 412
#
# _framework density 21.825778
#
# number of rings (size 3 to 8) (size 9 to 14) (size 15 to 20)
#    0.000    1.000    3.333    6.000    0.000    3.000 
#    0.000    0.833    0.000    3.000    0.000    0.000 
#    0.000    0.000    0.000    0.000    0.000    0.000 
#
# Total GULP energy -133934.406203 kJ/mol
# GULP energy per Si atom -5580.600258 kJ/mol
# Density = 2.177610 g / cm^3
# Si number density = 21.825778 Si / 1000 Ang^3
#
#
#
# Elastic Constant Matrix: (Units=GPa)
#
#
# Indices 1 2 3 4 5 6 
#
# 1 151.7954 60.7955 25.5758 -0.0058 -4.6139 0.0044
# 2 60.7955 140.0279 12.9420 -0.0032 -3.5909 0.0019
# 3 25.5758 12.9420 78.1506 -0.0056 14.2370 0.0007
# 4 -0.0058 -0.0032 -0.0056 7.6496 0.0037 -9.7490
# 5 -4.6139 -3.5909 14.2370 0.0037 42.6723 -0.0016
# 6 0.0044 0.0019 0.0007 -9.7490 -0.0016 -0.2440
#
#
#
# Elastic Compliance Matrix: (Units=1/GPa)
#
#
# Indices 1 2 3 4 5 6 
#
# 1 0.008400 -0.003383 -0.002451 0.000003 0.001441 0.000000
# 2 -0.003383 0.008662 -0.000419 0.000000 0.000503 0.000000
# 3 -0.002451 -0.000419 0.014610 0.000001 -0.005175 -0.000008
# 4 0.000003 0.000000 0.000001 0.002517 -0.000004 -0.100600
# 5 0.001441 0.000503 -0.005175 -0.000004 0.025359 0.000009
# 6 0.000000 0.000000 -0.000008 -0.100600 0.000009 -0.078936
#
#
# Mechanical properties :
#
#
# Convention : Reuss Voigt Hill
#
# Bulk Modulus (GPa) = 52.17839 63.17785 57.67812
# Shear Modulus (GPa) = -10144.85447 28.05963 -5058.39742
#
# Velocity S-wave (km/s) = -68.25099 3.58944 -48.19395
# Velocity P-wave (km/s) = 78.65730 6.79618 55.41111
#
# Compressibility (1/GPa) = 0.01916502
#
# Stress axis : x y z
#
# Youngs Moduli (GPa) = 119.05203 115.44708 68.44610
#
# Poissons Ratio (x) = 0.39060 0.16777
# Poissons Ratio (y) = 0.40280 0.02867
# Poissons Ratio (z) = 0.29182 0.04835
#
# Static dielectric constant tensor:
#      x y z
#    x 1.891910 0.000000 -0.008720 
#    y 0.000000 1.853390 0.000000 
#    z -0.008720 0.000000 1.803840 
# 
# From -- ./inp_files/147918.got.cif
#   From: 2010.05.17/outbox.cif.g08.bks.cpg/sg12_74_cif.got.tgz:147918.got - 2010.06.03 13:09:07.
