data_PCOD9189318
_publ_section_title
;
Structure prediction by ZEFSAII (Michael W. Deem and Ramdas Pophale) SiO2 
 PCOD9189318
Probable space group: C 2/M
;
_chemical_formula_sum "Si O2"
_cell_formula_units_Z 28
_cell_length_a 18.642545
_cell_length_b 7.618815
_cell_length_c 25.871934
_cell_angle_alpha 90.000000
_cell_angle_beta 154.469551
_cell_angle_gamma 90.000000
_cell_volume 1583.760195
_symmetry_space_group_name_H-M "C 2/M"
_symmetry_group_IT_number 12
_symmetry_cell_setting 'monoclinic'
loop_
_space_group_symop_operation_xyz
x,y,z
-x,y,-z
-x,-y,-z
x,-y,z
1/2+x,1/2+y,z
1/2-x,1/2+y,-z
1/2-x,1/2-y,-z
1/2+x,1/2-y,z
loop_
_atom_site_type_symbol
_atom_site_label
_atom_site_fract_x
_atom_site_fract_y
_atom_site_fract_z
Si Si1 0.917424 0.206407 0.502763
Si Si2 0.533290 0.500000 0.131645
Si Si3 0.057641 0.697309 0.230331
Si Si4 0.393230 0.000000 0.312334
Si Si5 0.680898 0.000000 0.856075
O O1 0.722630 0.250258 0.369058
O O2 0.000000 0.235037 0.500000
O O3 0.008248 0.330961 0.602246
O O4 0.933026 0.000000 0.525737
O O5 0.523368 0.332100 0.162839
O O6 0.709600 0.500000 0.217791
O O7 0.377297 0.500000 0.991856
O O8 0.095054 0.500000 0.233530
O O9 0.903307 0.664203 0.168317
O O10 0.375177 0.000000 0.239229
#
# Coordination Sequence:
#
# PCOD9189318 Si02
#       5
#     8   4   8   4   4
#     4  10  19  37  61  88 113 145 197 237 280 346
#     4  12  20  40  66  77 113 166 195 223 276 352
#     4   9  21  39  60  85 111 151 197 236 275 342
#     4  12  23  36  61  91 117 148 185 246 296 325
#     4  10  25  41  51  91 125 144 192 240 284 337
#
# _framework density 17.679445000000001
#
# number of rings (size 3 to 8) (size 9 to 14) (size 15 to 20)
#    0.857    0.857    2.857    2.571    0.000    1.143 
#    2.571    0.000    0.000    3.429    0.000    0.000 
#    0.000    0.000    0.000    0.000    0.000    0.000 
#
# Total GULP energy -78081.654389 kJ/mol
# GULP energy per Si atom -5577.261028 kJ/mol
# Density = 1.763921 g / cm^3
# Si number density = 17.679445 Si / 1000 Ang^3
#
#
#
# Elastic Constant Matrix: (Units=GPa)
#
#
# Indices 1 2 3 4 5 6 
#
# 1 18.1703 4.1044 -7.8165 0.0007 -5.6309 0.0019
# 2 4.1044 51.8187 24.3445 -0.0001 -6.2823 -0.0003
# 3 -7.8165 24.3445 100.0050 -0.0004 7.2360 -0.0019
# 4 0.0007 -0.0001 -0.0004 -29.3081 0.0003 -47.0639
# 5 -5.6309 -6.2823 7.2360 0.0003 19.5064 0.0006
# 6 0.0019 -0.0003 -0.0019 -47.0639 0.0006 -86.6373
#
#
#
# Elastic Compliance Matrix: (Units=1/GPa)
#
#
# Indices 1 2 3 4 5 6 
#
# 1 0.063064 -0.005731 0.005282 -0.000006 0.014399 0.000005
# 2 -0.005731 0.024059 -0.006932 0.000000 0.008665 0.000000
# 3 0.005282 -0.006932 0.012486 0.000002 -0.005339 -0.000001
# 4 -0.000006 0.000000 0.000002 -0.267270 -0.000003 0.145189
# 5 0.014399 0.008665 -0.005339 -0.000003 0.060193 0.000003
# 6 0.000005 0.000000 -0.000001 0.145189 0.000003 -0.090413
#
#
# Mechanical properties :
#
#
# Convention : Reuss Voigt Hill
#
# Bulk Modulus (GPa) = 11.78572 23.47319 17.62945
# Shear Modulus (GPa) = -32.29202 -9.33033 -20.81118
#
# Velocity S-wave (km/s) = -4.27843 -2.29977 -3.43467
# Velocity P-wave (km/s) = 4.21020 2.50080 2.39497
#
# Compressibility (1/GPa) = 0.08484848
#
# Stress axis : x y z
#
# Youngs Moduli (GPa) = 15.85691 41.56436 80.08894
#
# Poissons Ratio (x) = 0.23821 -0.42306
# Poissons Ratio (y) = 0.09088 0.55515
# Poissons Ratio (z) = -0.08376 0.28811
#
# Static dielectric constant tensor:
#      x y z
#    x 1.583740 0.000000 0.031740 
#    y 0.000000 1.608820 0.000000 
#    z 0.031740 0.000000 1.588400 
# 
# From -- ./inp_files/82160.got.cif
#   From: 2010.05.17/outbox.cif.g08.bks.cpg/sg12_42_cif.got.tgz:82160.got - 2010.06.03 13:09:07.
