data_PCOD9189831
_publ_section_title
;
Structure prediction by ZEFSAII (Michael W. Deem and Ramdas Pophale) SiO2 
 PCOD9189831
Probable space group: C 2/M
;
_chemical_formula_sum "Si O2"
_cell_formula_units_Z 48
_cell_length_a 12.487050
_cell_length_b 16.399049
_cell_length_c 15.262902
_cell_angle_alpha 90.000000
_cell_angle_beta 140.341500
_cell_angle_gamma 90.000000
_cell_volume 1994.708706
_symmetry_space_group_name_H-M "C 2/M"
_symmetry_group_IT_number 12
_symmetry_cell_setting 'monoclinic'
loop_
_space_group_symop_operation_xyz
x,y,z
-x,y,-z
-x,-y,-z
x,-y,z
1/2+x,1/2+y,z
1/2-x,1/2+y,-z
1/2-x,1/2-y,-z
1/2+x,1/2-y,z
loop_
_atom_site_type_symbol
_atom_site_label
_atom_site_fract_x
_atom_site_fract_y
_atom_site_fract_z
Si Si1 0.178557 0.000000 0.729591
Si Si2 0.211182 0.000000 0.536607
Si Si3 0.127336 0.343438 0.148878
Si Si4 0.842175 0.597391 0.102476
Si Si5 0.759348 0.720118 0.358084
Si Si6 0.424676 0.161883 0.624502
Si Si7 0.520120 0.595513 0.117743
O O1 0.203396 0.000000 0.638574
O O2 0.272682 0.079291 0.825634
O O3 0.979679 0.000000 0.618175
O O4 0.306890 0.081961 0.566337
O O5 0.262867 0.287791 0.283612
O O6 0.994078 0.378326 0.135255
O O7 0.000000 0.301803 0.000000
O O8 0.836609 0.500000 0.107001
O O9 0.893396 0.634932 0.228149
O O10 0.659651 0.625726 0.958572
O O11 0.637868 0.765019 0.352819
O O12 0.907532 0.691194 0.514852
O O13 0.665206 0.645121 0.255038
O O14 0.541425 0.500000 0.149861
O O15 0.500000 0.603326 0.000000
#
# Coordination Sequence:
#
# PCOD9189831 Si02
#       7
#     4   4   8   8   8   8   8
#     4  11  21  36  60  98 128 163 203 243 321 382
#     4  11  20  38  64  90 131 165 198 260 310 373
#     4  11  21  38  61  91 131 164 201 250 306 385
#     4  10  19  38  64  88 119 160 206 255 311 365
#     4  10  22  39  60  90 125 162 207 256 311 363
#     4  10  20  39  63  91 122 162 210 250 306 380
#     4  10  23  42  62  86 118 162 216 267 307 359
#
# _framework density 24.063663999999999
#
# number of rings (size 3 to 8) (size 9 to 14) (size 15 to 20)
#    0.000    1.667    5.000    0.750    1.167    4.000 
#    0.000    9.167    0.000    3.000    0.000    0.000 
#    0.000    0.000    0.000    0.000    0.000    0.000 
#
# Total GULP energy -134244.161867 kJ/mol
# GULP energy per Si atom -5593.506744 kJ/mol
# Density = 2.400889 g / cm^3
# Si number density = 24.063664 Si / 1000 Ang^3
#
#
#
# Elastic Constant Matrix: (Units=GPa)
#
#
# Indices 1 2 3 4 5 6 
#
# 1 65.7190 16.0682 7.3659 0.0000 -4.8475 0.0000
# 2 16.0682 84.6447 18.7459 0.0000 -12.8217 0.0000
# 3 7.3659 18.7459 78.7756 -0.0001 -29.8738 0.0000
# 4 0.0000 0.0000 -0.0001 42.0823 0.0000 -2.9416
# 5 -4.8475 -12.8217 -29.8738 0.0000 29.7041 0.0000
# 6 0.0000 0.0000 0.0000 -2.9416 0.0000 4.5283
#
#
#
# Elastic Compliance Matrix: (Units=1/GPa)
#
#
# Indices 1 2 3 4 5 6 
#
# 1 0.016022 -0.002795 -0.000483 0.000000 0.000922 0.000000
# 2 -0.002795 0.013241 -0.001447 0.000000 0.003804 0.000000
# 3 -0.000483 -0.001447 0.020719 0.000000 0.020134 0.000000
# 4 0.000000 0.000000 0.000000 0.024893 0.000000 0.016171
# 5 0.000922 0.003804 0.020134 0.000000 0.055707 0.000000
# 6 0.000000 0.000000 0.000000 0.016171 0.000000 0.231340
#
#
# Mechanical properties :
#
#
# Convention : Reuss Voigt Hill
#
# Bulk Modulus (GPa) = 24.67170 34.83326 29.75248
# Shear Modulus (GPa) = 12.99093 27.72689 20.35891
#
# Velocity S-wave (km/s) = 2.32600 3.39813 2.91184
# Velocity P-wave (km/s) = 4.18194 5.46839 4.86785
#
# Compressibility (1/GPa) = 0.04053227
#
# Stress axis : x y z
#
# Youngs Moduli (GPa) = 62.41499 75.52120 48.26429
#
# Poissons Ratio (x) = 0.21106 0.02333
# Poissons Ratio (y) = 0.17443 0.06984
# Poissons Ratio (z) = 0.03017 0.10928
#
# Static dielectric constant tensor:
#      x y z
#    x 1.958510 0.000000 -0.038530 
#    y 0.000000 1.873580 0.000000 
#    z -0.038530 0.000000 1.925070 
# 
# From -- ./inp_files/271640.got.cif
#   From: 2010.05.17/outbox.cif.g08.bks.cpg/sg12_136_cif.got.tgz:271640.got - 2010.06.03 13:09:07.
