data_PCOD9189680
_publ_section_title
;
Structure prediction by ZEFSAII (Michael W. Deem and Ramdas Pophale) SiO2 
 PCOD9189680
Probable space group: C 2/M
;
_chemical_formula_sum "Si O2"
_cell_formula_units_Z 64
_cell_length_a 20.813473
_cell_length_b 17.884386
_cell_length_c 11.111756
_cell_angle_alpha 90.000000
_cell_angle_beta 127.532040
_cell_angle_gamma 90.000000
_cell_volume 3280.057669
_symmetry_space_group_name_H-M "C 2/M"
_symmetry_group_IT_number 12
_symmetry_cell_setting 'monoclinic'
loop_
_space_group_symop_operation_xyz
x,y,z
-x,y,-z
-x,-y,-z
x,-y,z
1/2+x,1/2+y,z
1/2-x,1/2+y,-z
1/2-x,1/2-y,-z
1/2+x,1/2-y,z
loop_
_atom_site_type_symbol
_atom_site_label
_atom_site_fract_x
_atom_site_fract_y
_atom_site_fract_z
Si Si1 0.585854 0.585368 0.059840
Si Si2 0.413680 0.743550 0.669516
Si Si3 0.161331 0.722017 0.654892
Si Si4 0.290841 0.657002 0.969380
Si Si5 0.836251 0.913293 0.594915
Si Si6 0.409708 0.779199 0.181027
Si Si7 0.704273 0.165983 0.295378
Si Si8 0.828920 0.588124 0.986649
O O1 0.566822 0.500000 0.007669
O O2 0.632170 0.617575 0.000235
O O3 0.646717 0.587089 0.242886
O O4 0.500000 0.621445 0.000000
O O5 0.385582 0.792421 0.521844
O O6 0.394177 0.656000 0.621757
O O7 0.509149 0.752631 0.789561
O O8 0.359340 0.776400 0.716563
O O9 0.219698 0.662822 0.788633
O O10 0.096049 0.739890 0.684301
O O11 0.224940 0.785783 0.687539
O O12 0.328660 0.738369 0.039679
O O13 0.254398 0.614399 0.042457
O O14 0.749193 0.884681 0.447697
O O15 0.850835 0.000000 0.571851
O O16 0.397195 0.866014 0.136875
O O17 0.668438 0.115675 0.148225
O O18 0.836895 0.500000 0.003808
#
# Coordination Sequence:
#
# PCOD9189680 Si02
#       8
#     8   8   8   8   8   8   8   8
#     4  10  20  33  52  84 123 153 189 249 306 350
#     4  11  23  36  64  90 121 162 211 247 310 357
#     4  10  19  38  60  85 116 152 205 255 286 349
#     4  11  19  37  63  86 113 157 210 246 291 360
#     4  10  21  37  58  88 125 158 200 257 304 357
#     4  11  22  39  61  91 121 158 203 257 297 365
#     4  11  20  39  61  90 117 167 208 245 291 371
#     4  11  23  40  62  89 124 160 203 252 304 361
#
# _framework density 19.511852999999999
#
# number of rings (size 3 to 8) (size 9 to 14) (size 15 to 20)
#    0.000    1.375    2.500    5.625    0.000    0.500 
#    0.000    2.500    0.000    9.000    0.000    0.000 
#    0.000    0.000    0.000    0.000    0.000    0.000 
#
# Total GULP energy -178242.290195 kJ/mol
# GULP energy per Si atom -5570.071569 kJ/mol
# Density = 1.946744 g / cm^3
# Si number density = 19.511853 Si / 1000 Ang^3
#
#
#
# Elastic Constant Matrix: (Units=GPa)
#
#
# Indices 1 2 3 4 5 6 
#
# 1 102.8013 61.1165 26.8146 0.0000 5.6222 0.0000
# 2 61.1165 106.5631 22.9043 0.0000 9.9721 0.0000
# 3 26.8146 22.9043 51.9715 0.0000 -0.9717 0.0000
# 4 0.0000 0.0000 0.0000 22.0557 0.0000 -0.7660
# 5 5.6222 9.9721 -0.9717 0.0000 24.7171 0.0000
# 6 0.0000 0.0000 0.0000 -0.7660 0.0000 18.8063
#
#
#
# Elastic Compliance Matrix: (Units=1/GPa)
#
#
# Indices 1 2 3 4 5 6 
#
# 1 0.015688 -0.007959 -0.004596 0.000000 -0.000538 0.000000
# 2 -0.007959 0.014897 -0.002539 0.000000 -0.004300 0.000000
# 3 -0.004596 -0.002539 0.022787 0.000000 0.002966 0.000000
# 4 0.000000 0.000000 0.000000 0.045404 0.000000 0.001849
# 5 -0.000538 -0.004300 0.002966 0.000000 0.042431 0.000000
# 6 0.000000 0.000000 0.000000 0.001849 0.000000 0.053249
#
#
# Mechanical properties :
#
#
# Convention : Reuss Voigt Hill
#
# Bulk Modulus (GPa) = 43.13572 53.66742 48.40157
# Shear Modulus (GPa) = 21.51716 23.14919 22.33317
#
# Velocity S-wave (km/s) = 3.32441 3.44818 3.38686
# Velocity P-wave (km/s) = 6.07380 6.58923 6.33676
#
# Compressibility (1/GPa) = 0.02318264
#
# Stress axis : x y z
#
# Youngs Moduli (GPa) = 63.74497 67.12834 43.88401
#
# Poissons Ratio (x) = 0.53427 0.20171
# Poissons Ratio (y) = 0.50734 0.11143
# Poissons Ratio (z) = 0.29300 0.17045
#
# Static dielectric constant tensor:
#      x y z
#    x 1.708970 0.000000 -0.021210 
#    y 0.000000 1.703310 0.000000 
#    z -0.021210 0.000000 1.743450 
# 
# From -- ./inp_files/168794.got.cif
#   From: 2010.05.17/outbox.cif.g08.bks.cpg/sg12_85_cif.got.tgz:168794.got - 2010.06.03 13:09:07.
