data_PCOD9189945
_publ_section_title
;
Structure prediction by ZEFSAII (Michael W. Deem and Ramdas Pophale) SiO2 
 PCOD9189945
Probable space group: C 2/M
;
_chemical_formula_sum "Si O2"
_cell_formula_units_Z 48
_cell_length_a 15.169922
_cell_length_b 18.769312
_cell_length_c 19.571346
_cell_angle_alpha 90.000000
_cell_angle_beta 23.171919
_cell_angle_gamma 90.000000
_cell_volume 2192.742472
_symmetry_space_group_name_H-M "C 2/M"
_symmetry_group_IT_number 12
_symmetry_cell_setting 'monoclinic'
loop_
_space_group_symop_operation_xyz
x,y,z
-x,y,-z
-x,-y,-z
x,-y,z
1/2+x,1/2+y,z
1/2-x,1/2+y,-z
1/2-x,1/2-y,-z
1/2+x,1/2-y,z
loop_
_atom_site_type_symbol
_atom_site_label
_atom_site_fract_x
_atom_site_fract_y
_atom_site_fract_z
Si Si1 0.332535 0.650375 0.362404
Si Si2 0.737626 0.258681 0.090601
Si Si3 0.241858 0.923655 0.710971
Si Si4 0.378166 0.122004 0.755487
Si Si5 0.876814 0.500000 0.333259
Si Si6 0.017390 0.000000 0.287025
Si Si7 0.500000 0.869167 0.000000
Si Si8 0.555790 0.000000 0.875512
O O1 0.486604 0.712180 0.279883
O O2 0.345706 0.641930 0.271023
O O3 0.422934 0.573339 0.322501
O O4 0.083604 0.657599 0.567480
O O5 0.761569 0.182301 0.107963
O O6 0.884406 0.317678 0.026421
O O7 0.750000 0.250000 0.000000
O O8 0.500000 0.928912 0.500000
O O9 0.245146 0.915282 0.789296
O O10 0.131251 0.000000 0.773727
O O11 0.491302 0.067413 0.727978
O O12 0.618890 0.500000 0.543458
O O13 0.890398 0.500000 0.242232
O O14 0.283189 0.000000 0.080510
O O15 0.364302 0.927081 0.143668
#
# Coordination Sequence:
#
# PCOD9189945 Si02
#       8
#     8   8   8   8   4   4   4   4
#     4  10  20  38  64  92 124 168 212 260 334 383
#     4  12  26  42  63  88 130 173 212 263 329 390
#     4   9  16  32  59  92 121 154 199 260 320 375
#     4  10  21  38  64  92 128 161 213 272 316 391
#     4  10  21  40  71 103 123 173 224 264 335 386
#     4  10  19  38  71  98 131 168 218 276 320 397
#     4  11  26  44  66  93 130 178 218 271 330 386
#     4  11  22  46  72  90 134 172 221 277 325 383
#
# _framework density 21.890394000000001
#
# number of rings (size 3 to 8) (size 9 to 14) (size 15 to 20)
#    0.000    1.667    3.333    1.500    2.333    0.000 
#    0.000    1.667    7.333    2.500    0.000    0.000 
#    0.000    0.000    0.000    0.000    0.000    0.000 
#
# Total GULP energy -133796.267562 kJ/mol
# GULP energy per Si atom -5574.844482 kJ/mol
# Density = 2.184057 g / cm^3
# Si number density = 21.890394 Si / 1000 Ang^3
#
#
#
# Elastic Constant Matrix: (Units=GPa)
#
#
# Indices 1 2 3 4 5 6 
#
# 1 117.8716 41.3100 37.7736 -0.0978 45.1537 -0.1609
# 2 41.3100 98.5947 28.8077 -0.1426 19.7471 -0.0689
# 3 37.7736 28.8077 90.9618 -0.3392 23.5421 -0.0487
# 4 -0.0978 -0.1426 -0.3392 16.7185 0.0440 -8.2045
# 5 45.1537 19.7471 23.5421 0.0440 39.8753 0.0130
# 6 -0.1609 -0.0689 -0.0487 -8.2045 0.0130 30.9195
#
#
#
# Elastic Compliance Matrix: (Units=1/GPa)
#
#
# Indices 1 2 3 4 5 6 
#
# 1 0.016144 -0.003129 -0.001632 0.000133 -0.015769 0.000116
# 2 -0.003129 0.012371 -0.002301 0.000055 -0.001225 0.000023
# 3 -0.001632 -0.002301 0.013725 0.000308 -0.005117 0.000092
# 4 0.000133 0.000055 0.000308 0.068780 -0.000442 0.018252
# 5 -0.015769 -0.001225 -0.005117 -0.000442 0.046562 -0.000230
# 6 0.000116 0.000023 0.000092 0.018252 -0.000230 0.037186
#
#
# Mechanical properties :
#
#
# Convention : Reuss Voigt Hill
#
# Bulk Modulus (GPa) = 35.56577 58.13451 46.85014
# Shear Modulus (GPa) = 22.90790 30.80510 26.85650
#
# Velocity S-wave (km/s) = 3.23845 3.75539 3.50646
# Velocity P-wave (km/s) = 5.50144 6.73934 6.15161
#
# Compressibility (1/GPa) = 0.02811693
#
# Stress axis : x y z
#
# Youngs Moduli (GPa) = 61.94227 80.83174 72.85739
#
# Poissons Ratio (x) = 0.25292 0.11887
# Poissons Ratio (y) = 0.19382 0.16768
# Poissons Ratio (z) = 0.10106 0.18603
#
# Static dielectric constant tensor:
#      x y z
#    x 1.842980 0.000300 -0.013580 
#    y 0.000300 1.931410 -0.000110 
#    z -0.013580 -0.000110 1.806570 
# 
# From -- ./inp_files/271668.got.cif
#   From: 2010.05.17/outbox.cif.g08.bks.cpg/sg12_136_cif.got.tgz:271668.got - 2010.06.03 13:09:07.
