data_PCOD9189933
_publ_section_title
;
Structure prediction by ZEFSAII (Michael W. Deem and Ramdas Pophale) SiO2 
 PCOD9189933
Probable space group: C 2/M
;
_chemical_formula_sum "Si O2"
_cell_formula_units_Z 36
_cell_length_a 16.605371
_cell_length_b 10.105865
_cell_length_c 11.624572
_cell_angle_alpha 90.000000
_cell_angle_beta 131.137548
_cell_angle_gamma 90.000000
_cell_volume 1469.164397
_symmetry_space_group_name_H-M "C 2/M"
_symmetry_group_IT_number 12
_symmetry_cell_setting 'monoclinic'
loop_
_space_group_symop_operation_xyz
x,y,z
-x,y,-z
-x,-y,-z
x,-y,z
1/2+x,1/2+y,z
1/2-x,1/2+y,-z
1/2-x,1/2-y,-z
1/2+x,1/2-y,z
loop_
_atom_site_type_symbol
_atom_site_label
_atom_site_fract_x
_atom_site_fract_y
_atom_site_fract_z
Si Si1 0.082796 0.794804 0.674020
Si Si2 0.654835 0.500000 0.256218
Si Si3 0.356590 0.000000 0.594644
Si Si4 0.634662 0.000000 0.664216
Si Si5 0.978130 0.751295 0.812392
Si Si6 0.702286 0.851338 0.049037
O O1 0.098258 0.636529 0.683315
O O2 0.201955 0.850523 0.768875
O O3 0.000000 0.836735 0.500000
O O4 0.029197 0.820377 0.746354
O O5 0.730091 0.500000 0.443102
O O6 0.736969 0.500000 0.227063
O O7 0.586538 0.367553 0.188946
O O8 0.401064 0.869406 0.699907
O O9 0.399476 0.000000 0.502845
O O10 0.083690 0.691750 0.972851
O O11 0.694151 0.000000 0.994453
O O12 0.750000 0.750000 0.000000
#
# Coordination Sequence:
#
# PCOD9189933 Si02
#       6
#     8   4   4   4   8   8
#     4  11  21  37  65  94 130 162 215 264 315 369
#     4  10  24  39  66 101 125 169 223 250 324 382
#     4  10  19  38  69  89 128 160 223 252 321 365
#     4  10  22  40  65  97 125 170 213 258 321 380
#     4  11  21  40  66  96 129 169 214 269 310 387
#     4  10  24  38  61  95 131 168 212 263 327 375
#
# _framework density 24.503723999999998
#
# number of rings (size 3 to 8) (size 9 to 14) (size 15 to 20)
#    0.667    0.889    3.333    1.667   10.889    0.444 
#    0.000    2.222    2.444    1.333    0.000    0.000 
#    0.000    0.000    0.000    0.000    0.000    0.000 
#
# Total GULP energy -100669.291105 kJ/mol
# GULP energy per Si atom -5592.738395 kJ/mol
# Density = 2.444795 g / cm^3
# Si number density = 24.503724 Si / 1000 Ang^3
#
#
#
# Elastic Constant Matrix: (Units=GPa)
#
#
# Indices 1 2 3 4 5 6 
#
# 1 70.6144 29.4171 22.4422 0.0000 27.9598 0.0000
# 2 29.4171 153.7744 44.5908 0.0000 25.6846 0.0000
# 3 22.4422 44.5908 171.6886 0.0000 44.0372 0.0000
# 4 0.0000 0.0000 0.0000 22.8903 0.0000 18.3409
# 5 27.9598 25.6846 44.0372 0.0000 43.0265 0.0000
# 6 0.0000 0.0000 0.0000 18.3409 0.0000 3.3050
#
#
#
# Elastic Compliance Matrix: (Units=1/GPa)
#
#
# Indices 1 2 3 4 5 6 
#
# 1 0.019693 -0.001975 0.001246 0.000000 -0.012893 0.000000
# 2 -0.001975 0.007562 -0.001189 0.000000 -0.002013 0.000000
# 3 0.001246 -0.001189 0.008131 0.000000 -0.008421 0.000000
# 4 0.000000 0.000000 0.000000 -0.012676 0.000000 0.070343
# 5 -0.012893 -0.002013 -0.008421 0.000000 0.041441 0.000000
# 6 0.000000 0.000000 0.000000 0.070343 0.000000 -0.087791
#
#
# Mechanical properties :
#
#
# Convention : Reuss Voigt Hill
#
# Bulk Modulus (GPa) = 31.69701 65.44196 48.56948
# Shear Modulus (GPa) = -538.41086 33.81950 -252.29568
#
# Velocity S-wave (km/s) = -14.83924 3.71911 -10.15804
# Velocity P-wave (km/s) = 16.75233 6.72363 10.84973
#
# Compressibility (1/GPa) = 0.03154871
#
# Stress axis : x y z
#
# Youngs Moduli (GPa) = 50.77839 132.23923 122.99314
#
# Poissons Ratio (x) = 0.26118 -0.15323
# Poissons Ratio (y) = 0.10029 0.14629
# Poissons Ratio (z) = -0.06326 0.15729
#
# Static dielectric constant tensor:
#      x y z
#    x 1.920290 0.000000 0.005110 
#    y 0.000000 1.885200 0.000000 
#    z 0.005110 0.000000 2.095400 
# 
# From -- ./inp_files/231173.got.cif
#   From: 2010.05.17/outbox.cif.g08.bks.cpg/sg12_116_cif.got.tgz:231173.got - 2010.06.03 13:09:07.
