data_PCOD9189197
_publ_section_title
;
Structure prediction by ZEFSAII (Michael W. Deem and Ramdas Pophale) SiO2 
 PCOD9189197
Probable space group: C 2/M
;
_chemical_formula_sum "Si O2"
_cell_formula_units_Z 64
_cell_length_a 11.424662
_cell_length_b 17.092396
_cell_length_c 29.236114
_cell_angle_alpha 90.000000
_cell_angle_beta 149.537192
_cell_angle_gamma 90.000000
_cell_volume 2894.382229
_symmetry_space_group_name_H-M "C 2/M"
_symmetry_group_IT_number 12
_symmetry_cell_setting 'monoclinic'
loop_
_space_group_symop_operation_xyz
x,y,z
-x,y,-z
-x,-y,-z
x,-y,z
1/2+x,1/2+y,z
1/2-x,1/2+y,-z
1/2-x,1/2-y,-z
1/2+x,1/2-y,z
loop_
_atom_site_type_symbol
_atom_site_label
_atom_site_fract_x
_atom_site_fract_y
_atom_site_fract_z
Si Si1 0.743278 0.588570 0.325845
Si Si2 0.457903 0.632164 0.645972
Si Si3 0.630464 0.167414 0.970694
Si Si4 0.509546 0.911206 0.733771
Si Si5 0.649299 0.667229 0.862685
Si Si6 0.567831 0.185389 0.377340
Si Si7 0.495890 0.847489 0.170417
Si Si8 0.047367 0.915237 0.454819
O O1 0.825684 0.500000 0.344771
O O2 0.667482 0.598605 0.352398
O O3 0.520721 0.609076 0.220271
O O4 0.922280 0.655813 0.371707
O O5 0.410348 0.723645 0.622850
O O6 0.735879 0.628851 0.744254
O O7 0.382831 0.590325 0.574500
O O8 0.374362 0.178596 0.905952
O O9 0.618002 0.128592 0.916353
O O10 0.750000 0.250000 0.000000
O O11 0.773504 0.134212 0.061835
O O12 0.562145 0.852516 0.710235
O O13 0.591606 0.885655 0.811735
O O14 0.228858 0.908163 0.639774
O O15 0.579906 0.000000 0.747448
O O16 0.536547 0.753553 0.832923
O O17 0.816497 0.148576 0.470935
O O18 0.115403 0.000000 0.496011
#
# Coordination Sequence:
#
# PCOD9189197 Si02
#       8
#     8   8   8   8   8   8   8   8
#     4  12  25  41  64  94 131 168 204 259 323 377
#     4  11  23  39  63  91 124 162 213 258 309 371
#     4   9  19  34  61  92 124 158 202 249 309 367
#     4  10  22  38  60  87 119 162 208 257 311 368
#     4  10  19  37  59  92 125 160 205 252 303 372
#     4  12  24  41  64  88 124 167 216 257 310 376
#     4  10  19  37  62  89 119 158 205 256 304 364
#     4  10  22  42  63  88 124 163 209 264 319 372
#
# _framework density 22.111799000000001
#
# number of rings (size 3 to 8) (size 9 to 14) (size 15 to 20)
#    0.000    1.500    2.500    3.000    1.750    2.000 
#    2.250    3.125    0.000    0.000    0.000    9.625 
#    0.000    0.000    0.000    0.000    0.000    0.000 
#
# Total GULP energy -178805.431431 kJ/mol
# GULP energy per Si atom -5587.669732 kJ/mol
# Density = 2.206147 g / cm^3
# Si number density = 22.111799 Si / 1000 Ang^3
#
#
#
# Elastic Constant Matrix: (Units=GPa)
#
#
# Indices 1 2 3 4 5 6 
#
# 1 110.3684 7.0375 20.9526 -0.0002 -34.3021 0.0002
# 2 7.0375 77.8143 6.5014 -0.0005 -15.3972 0.0004
# 3 20.9526 6.5014 64.5680 -0.0014 -21.5679 0.0016
# 4 -0.0002 -0.0005 -0.0014 83.2054 -0.0003 -68.0600
# 5 -34.3021 -15.3972 -21.5679 -0.0003 42.3394 0.0002
# 6 0.0002 0.0004 0.0016 -68.0600 0.0002 68.6764
#
#
#
# Elastic Compliance Matrix: (Units=1/GPa)
#
#
# Indices 1 2 3 4 5 6 
#
# 1 0.012202 0.000904 -0.000770 0.000000 0.009822 0.000000
# 2 0.000904 0.013921 0.000290 0.000000 0.005943 0.000000
# 3 -0.000770 0.000290 0.018720 0.000000 0.009018 -0.000001
# 4 0.000000 0.000000 0.000000 0.063467 0.000000 0.062898
# 5 0.009822 0.005943 0.009018 0.000000 0.038332 0.000000
# 6 0.000000 0.000000 -0.000001 0.062898 0.000000 0.076894
#
#
# Mechanical properties :
#
#
# Convention : Reuss Voigt Hill
#
# Bulk Modulus (GPa) = 21.88538 35.74819 28.81679
# Shear Modulus (GPa) = 21.01567 53.39484 37.20526
#
# Velocity S-wave (km/s) = 3.08625 4.91936 4.10640
# Velocity P-wave (km/s) = 4.75594 6.96196 5.96187
#
# Compressibility (1/GPa) = 0.04569260
#
# Stress axis : x y z
#
# Youngs Moduli (GPa) = 81.95551 71.83377 53.41746
#
# Poissons Ratio (x) = -0.06496 0.04111
# Poissons Ratio (y) = -0.07412 -0.01549
# Poissons Ratio (z) = 0.06307 -0.02083
#
# Static dielectric constant tensor:
#      x y z
#    x 1.859440 0.000000 0.010410 
#    y 0.000000 1.795940 0.000000 
#    z 0.010410 0.000000 1.828160 
# 
# From -- ./inp_files/374474.got.cif
#   From: 2010.05.17/outbox.cif.g08.bks.cpg/sg12_188_cif.got.tgz:374474.got - 2010.06.03 13:09:07.
