data_PCOD9189080
_publ_section_title
;
Structure prediction by ZEFSAII (Michael W. Deem and Ramdas Pophale) SiO2 
 PCOD9189080
Probable space group: C 2/M
;
_chemical_formula_sum "Si O2"
_cell_formula_units_Z 64
_cell_length_a 26.415867
_cell_length_b 18.803272
_cell_length_c 23.139252
_cell_angle_alpha 90.000000
_cell_angle_beta 17.968658
_cell_angle_gamma 90.000000
_cell_volume 3545.668561
_symmetry_space_group_name_H-M "C 2/M"
_symmetry_group_IT_number 12
_symmetry_cell_setting 'monoclinic'
loop_
_space_group_symop_operation_xyz
x,y,z
-x,y,-z
-x,-y,-z
x,-y,z
1/2+x,1/2+y,z
1/2-x,1/2+y,-z
1/2-x,1/2-y,-z
1/2+x,1/2-y,z
loop_
_atom_site_type_symbol
_atom_site_label
_atom_site_fract_x
_atom_site_fract_y
_atom_site_fract_z
Si Si1 0.213158 0.192932 0.873377
Si Si2 0.078505 0.585276 0.169943
Si Si3 0.504846 0.312640 0.430785
Si Si4 0.130515 0.785861 0.712464
Si Si5 0.766912 0.683390 0.684967
Si Si6 0.951268 0.585176 0.664016
Si Si7 0.245956 0.640978 0.536836
Si Si8 0.944733 0.916124 0.730891
O O1 0.350455 0.254177 0.727315
O O2 0.180301 0.179702 0.840976
O O3 0.284035 0.120290 0.822857
O O4 0.063901 0.220882 0.073274
O O5 0.078402 0.500000 0.169852
O O6 0.033782 0.606975 0.284464
O O7 0.934162 0.609170 0.282795
O O8 0.266847 0.607049 0.950696
O O9 0.500000 0.345675 0.500000
O O10 0.346913 0.262107 0.595613
O O11 0.526467 0.369623 0.357517
O O12 0.171288 0.821999 0.729093
O O13 0.215127 0.709809 0.610490
O O14 0.186163 0.832724 0.598370
O O15 0.908039 0.623474 0.526531
O O16 0.955676 0.500000 0.654738
O O17 0.393702 0.595954 0.404661
O O18 0.931981 0.000000 0.732336
#
# Coordination Sequence:
#
# PCOD9189080 Si02
#       8
#     8   8   8   8   8   8   8   8
#     4  10  21  34  59  82 111 148 189 235 276 337
#     4  10  21  37  57  81 115 153 185 230 285 336
#     4   9  19  37  57  81 111 145 185 233 282 333
#     4  11  21  35  55  85 110 146 188 233 284 332
#     4  10  19  37  55  80 113 146 188 229 281 336
#     4  10  20  37  57  80 112 148 190 234 284 334
#     4  11  22  37  58  84 118 144 188 240 283 335
#     4  11  22  37  60  86 113 151 192 230 285 344
#
# _framework density 18.050193
#
# number of rings (size 3 to 8) (size 9 to 14) (size 15 to 20)
#    0.000    1.750    2.500    3.375    0.000    1.250 
#    0.000    5.000    0.000    1.500    0.000    4.375 
#    0.000    0.000    0.000    0.000    0.000    0.000 
#
# Total GULP energy -178296.134438 kJ/mol
# GULP energy per Si atom -5571.754201 kJ/mol
# Density = 1.800911 g / cm^3
# Si number density = 18.050193 Si / 1000 Ang^3
#
#
#
# Elastic Constant Matrix: (Units=GPa)
#
#
# Indices 1 2 3 4 5 6 
#
# 1 89.0871 34.8878 29.5793 0.0086 -0.9426 -0.0027
# 2 34.8878 56.2527 20.1073 -0.0147 13.7379 0.0003
# 3 29.5793 20.1073 89.4239 -0.0105 7.9796 -0.0020
# 4 0.0086 -0.0147 -0.0105 15.7978 0.0021 -0.0101
# 5 -0.9426 13.7379 7.9796 0.0021 19.6417 0.0003
# 6 -0.0027 0.0003 -0.0020 -0.0101 0.0003 23.7668
#
#
#
# Elastic Compliance Matrix: (Units=1/GPa)
#
#
# Indices 1 2 3 4 5 6 
#
# 1 0.017367 -0.011984 -0.004018 -0.000025 0.010848 0.000002
# 2 -0.011984 0.030896 -0.001041 0.000037 -0.021762 -0.000002
# 3 -0.004018 -0.001041 0.013176 0.000011 -0.004817 0.000001
# 4 -0.000025 0.000037 0.000011 0.063300 -0.000038 0.000027
# 5 0.010848 -0.021762 -0.004817 -0.000038 0.068611 0.000000
# 6 0.000002 -0.000002 0.000001 0.000027 0.000000 0.042076
#
#
# Mechanical properties :
#
#
# Convention : Reuss Voigt Hill
#
# Bulk Modulus (GPa) = 36.55958 44.87919 40.71938
# Shear Modulus (GPa) = 17.94504 21.85387 19.89946
#
# Velocity S-wave (km/s) = 3.15647 3.48333 3.32392
# Velocity P-wave (km/s) = 5.79507 6.41059 6.11058
#
# Compressibility (1/GPa) = 0.02735261
#
# Stress axis : x y z
#
# Youngs Moduli (GPa) = 57.58080 32.36650 75.89723
#
# Poissons Ratio (x) = 0.38788 0.30495
# Poissons Ratio (y) = 0.69005 0.07902
# Poissons Ratio (z) = 0.23135 0.03370
#
# Static dielectric constant tensor:
#      x y z
#    x 1.648030 0.000000 -0.033240 
#    y 0.000000 1.583620 0.000000 
#    z -0.033240 0.000000 1.645170 
# 
# From -- ./inp_files/326102.got.cif
#   From: 2010.05.17/outbox.cif.g08.bks.cpg/sg12_164_cif.got.tgz:326102.got - 2010.06.03 13:09:07.
