data_PCOD9189311
_publ_section_title
;
Structure prediction by ZEFSAII (Michael W. Deem and Ramdas Pophale) SiO2 
 PCOD9189311
Probable space group: C 2/M
;
_chemical_formula_sum "Si O2"
_cell_formula_units_Z 56
_cell_length_a 16.792162
_cell_length_b 18.295855
_cell_length_c 7.705194
_cell_angle_alpha 90.000000
_cell_angle_beta 88.998608
_cell_angle_gamma 90.000000
_cell_volume 2366.881790
_symmetry_space_group_name_H-M "C 2/M"
_symmetry_group_IT_number 12
_symmetry_cell_setting 'monoclinic'
loop_
_space_group_symop_operation_xyz
x,y,z
-x,y,-z
-x,-y,-z
x,-y,z
1/2+x,1/2+y,z
1/2-x,1/2+y,-z
1/2-x,1/2-y,-z
1/2+x,1/2-y,z
loop_
_atom_site_type_symbol
_atom_site_label
_atom_site_fract_x
_atom_site_fract_y
_atom_site_fract_z
Si Si1 0.472166 0.800728 0.691744
Si Si2 0.157181 0.918435 0.151155
Si Si3 0.090865 0.418904 0.071902
Si Si4 0.738065 0.086018 0.507572
Si Si5 0.646751 0.828429 0.775240
Si Si6 0.994672 0.135796 0.696035
Si Si7 0.675853 0.665107 0.808842
O O1 0.500000 0.823143 0.500000
O O2 0.412292 0.856398 0.782708
O O3 0.554574 0.804675 0.794930
O O4 0.450719 0.715500 0.686867
O O5 0.196685 0.906827 0.338714
O O6 0.062491 0.911555 0.183410
O O7 0.177531 0.000000 0.090722
O O8 0.183293 0.861216 0.005293
O O9 0.111611 0.500000 0.133528
O O10 0.149989 0.391608 0.919560
O O11 0.000000 0.424268 0.000000
O O12 0.667325 0.134181 0.592145
O O13 0.771378 0.120195 0.329951
O O14 0.719571 0.000000 0.491480
O O15 0.691851 0.751815 0.792421
O O16 0.083824 0.147897 0.759908
O O17 0.000000 0.106617 0.500000
#
# Coordination Sequence:
#
# PCOD9189311 Si02
#       7
#     8   8   8   8   8   8   8
#     4   9  19  35  59  89 118 149 196 251 294 348
#     4  11  24  39  60  90 121 158 200 243 300 355
#     4   9  17  32  54  79 111 149 189 238 292 341
#     4  11  24  42  60  84 125 162 195 245 298 356
#     4  10  21  39  61  86 115 159 200 237 298 355
#     4  10  19  37  61  87 120 156 196 249 302 345
#     4  11  22  40  63  88 118 156 204 248 291 351
#
# _framework density 23.659821000000001
#
# number of rings (size 3 to 8) (size 9 to 14) (size 15 to 20)
#    0.000    1.857    1.429    2.571    0.000    5.714 
#    2.571    0.000    0.000    0.000    0.000    0.000 
#    0.000    0.000    0.000    0.000    0.000    0.000 
#
# Total GULP energy -156560.462806 kJ/mol
# GULP energy per Si atom -5591.445100 kJ/mol
# Density = 2.360597 g / cm^3
# Si number density = 23.659821 Si / 1000 Ang^3
#
#
#
# Elastic Constant Matrix: (Units=GPa)
#
#
# Indices 1 2 3 4 5 6 
#
# 1 72.5947 10.1225 5.6935 0.0000 0.5280 0.0000
# 2 10.1225 133.3775 57.6036 0.0000 -22.2771 0.0000
# 3 5.6935 57.6036 119.4837 0.0000 -18.9140 0.0000
# 4 0.0000 0.0000 0.0000 33.1608 0.0000 -12.5162
# 5 0.5280 -22.2771 -18.9140 0.0000 27.0220 0.0000
# 6 0.0000 0.0000 0.0000 -12.5162 0.0000 14.4330
#
#
#
# Elastic Compliance Matrix: (Units=1/GPa)
#
#
# Indices 1 2 3 4 5 6 
#
# 1 0.013974 -0.001159 -0.000339 0.000000 -0.001466 0.000000
# 2 -0.001159 0.010259 -0.003990 0.000000 0.005687 0.000000
# 3 -0.000339 -0.003990 0.011009 0.000000 0.004423 0.000000
# 4 0.000000 0.000000 0.000000 0.044830 0.000000 0.038876
# 5 -0.001466 0.005687 0.004423 0.000000 0.044820 0.000000
# 6 0.000000 0.000000 0.000000 0.038876 0.000000 0.102999
#
#
# Mechanical properties :
#
#
# Convention : Reuss Voigt Hill
#
# Bulk Modulus (GPa) = 41.21116 52.47724 46.84420
# Shear Modulus (GPa) = 20.24658 31.72557 25.98607
#
# Velocity S-wave (km/s) = 2.92847 3.66581 3.31769
# Velocity P-wave (km/s) = 5.37500 6.33606 5.87521
#
# Compressibility (1/GPa) = 0.02426527
#
# Stress axis : x y z
#
# Youngs Moduli (GPa) = 71.56169 97.47864 90.83145
#
# Poissons Ratio (x) = 0.11296 0.03081
# Poissons Ratio (y) = 0.08293 0.36244
# Poissons Ratio (z) = 0.02428 0.38897
#
# Static dielectric constant tensor:
#      x y z
#    x 1.992850 0.000000 0.050680 
#    y 0.000000 1.866340 0.000000 
#    z 0.050680 0.000000 1.850370 
# 
# From -- ./inp_files/75829.got.cif
#   From: 2010.05.17/outbox.cif.g08.bks.cpg/sg12_38_cif.got.tgz:75829.got - 2010.06.03 13:09:07.
