data_PCOD9189177
_publ_section_title
;
Structure prediction by ZEFSAII (Michael W. Deem and Ramdas Pophale) SiO2 
 PCOD9189177
Probable space group: C 2/M
;
_chemical_formula_sum "Si O2"
_cell_formula_units_Z 36
_cell_length_a 17.947862
_cell_length_b 15.012886
_cell_length_c 17.403973
_cell_angle_alpha 90.000000
_cell_angle_beta 157.348042
_cell_angle_gamma 90.000000
_cell_volume 1806.073115
_symmetry_space_group_name_H-M "C 2/M"
_symmetry_group_IT_number 12
_symmetry_cell_setting 'monoclinic'
loop_
_space_group_symop_operation_xyz
x,y,z
-x,y,-z
-x,-y,-z
x,-y,z
1/2+x,1/2+y,z
1/2-x,1/2+y,-z
1/2-x,1/2-y,-z
1/2+x,1/2-y,z
loop_
_atom_site_type_symbol
_atom_site_label
_atom_site_fract_x
_atom_site_fract_y
_atom_site_fract_z
Si Si1 0.372537 0.863065 0.191740
Si Si2 0.229644 0.668518 0.075656
Si Si3 0.714014 0.500000 0.669479
Si Si4 0.467408 0.500000 0.116650
Si Si5 0.000000 0.352087 0.000000
Si Si6 0.601718 0.000000 0.512279
Si Si7 0.495593 0.500000 0.323444
O O1 0.355922 0.757355 0.186211
O O2 0.531783 0.914801 0.394057
O O3 0.380130 0.866459 0.105688
O O4 0.173611 0.914515 0.026247
O O5 0.371128 0.586473 0.227777
O O6 0.085004 0.694163 0.006297
O O7 0.500000 0.500000 0.500000
O O8 0.692084 0.500000 0.557349
O O9 0.830537 0.415026 0.807852
O O10 0.527820 0.500000 0.263604
O O11 0.665657 0.500000 0.258050
O O12 0.500000 0.000000 0.500000
#
# Coordination Sequence:
#
# PCOD9189177 Si02
#       7
#     8   8   4   4   4   4   4
#     4   9  22  43  61  83 125 153 200 257 288 359
#     4  10  20  40  60  89 121 162 195 239 306 349
#     4  11  20  35  50  85 125 152 186 237 276 363
#     4   9  21  40  64  86 106 159 198 244 305 344
#     4  11  22  32  58  87 116 164 190 227 308 351
#     4  11  24  42  65  90 113 156 211 258 303 342
#     4  10  19  37  59  84 124 156 192 229 292 366
#
# _framework density 19.932748
#
# number of rings (size 3 to 8) (size 9 to 14) (size 15 to 20)
#    0.000    2.000    2.222    1.333    3.111    3.556 
#    8.000    3.333    0.000    0.000    0.000    0.000 
#    0.000    0.000    0.000    0.000    0.000    0.000 
#
# Total GULP energy -100283.870938 kJ/mol
# GULP energy per Si atom -5571.326163 kJ/mol
# Density = 1.988738 g / cm^3
# Si number density = 19.932748 Si / 1000 Ang^3
#
#
#
# Elastic Constant Matrix: (Units=GPa)
#
#
# Indices 1 2 3 4 5 6 
#
# 1 73.1866 9.8532 8.2617 -0.0010 8.2335 -0.0009
# 2 9.8532 99.2959 17.0449 0.0039 -10.4155 0.0106
# 3 8.2617 17.0449 68.3624 0.0028 1.6149 0.0052
# 4 -0.0010 0.0039 0.0028 1.3006 0.0065 1.6094
# 5 8.2335 -10.4155 1.6149 0.0065 30.1966 0.0027
# 6 -0.0009 0.0106 0.0052 1.6094 0.0027 15.1146
#
#
#
# Elastic Compliance Matrix: (Units=1/GPa)
#
#
# Indices 1 2 3 4 5 6 
#
# 1 0.014536 -0.001702 -0.001226 0.000043 -0.004485 -0.000001
# 2 -0.001702 0.011168 -0.002684 -0.000047 0.004460 -0.000003
# 3 -0.001226 -0.002684 0.015479 -0.000018 -0.001419 -0.000001
# 4 0.000043 -0.000047 -0.000018 0.885538 -0.000209 -0.094293
# 5 -0.004485 0.004460 -0.001419 -0.000209 0.035954 0.000013
# 6 -0.000001 -0.000003 -0.000001 -0.094293 0.000013 0.076202
#
#
# Mechanical properties :
#
#
# Convention : Reuss Voigt Hill
#
# Bulk Modulus (GPa) = 33.38070 34.57383 33.97726
# Shear Modulus (GPa) = 4.71659 23.03470 13.87565
#
# Velocity S-wave (km/s) = 1.53993 3.40313 2.64128
# Velocity P-wave (km/s) = 4.46597 5.72928 5.13661
#
# Compressibility (1/GPa) = 0.02995743
#
# Stress axis : x y z
#
# Youngs Moduli (GPa) = 68.79525 89.53805 64.60402
#
# Poissons Ratio (x) = 0.15243 0.07922
# Poissons Ratio (y) = 0.11711 0.17341
# Poissons Ratio (z) = 0.08436 0.24034
#
# Static dielectric constant tensor:
#      x y z
#    x 1.806620 -0.000010 -0.016840 
#    y -0.000010 1.677640 -0.000010 
#    z -0.016840 -0.000010 1.700470 
# 
# From -- ./inp_files/20306.got.cif
#   From: 2010.05.17/outbox.cif.g08.bks.cpg/sg12_11_cif.got.tgz:20306.got - 2010.06.03 13:09:07.
