data_PCOD9189245
_publ_section_title
;
Structure prediction by ZEFSAII (Michael W. Deem and Ramdas Pophale) SiO2 
 PCOD9189245
Probable space group: C 2/M
;
_chemical_formula_sum "Si O2"
_cell_formula_units_Z 56
_cell_length_a 14.272418
_cell_length_b 24.995625
_cell_length_c 13.196158
_cell_angle_alpha 90.000000
_cell_angle_beta 42.259658
_cell_angle_gamma 90.000000
_cell_volume 3165.890646
_symmetry_space_group_name_H-M "C 2/M"
_symmetry_group_IT_number 12
_symmetry_cell_setting 'monoclinic'
loop_
_space_group_symop_operation_xyz
x,y,z
-x,y,-z
-x,-y,-z
x,-y,z
1/2+x,1/2+y,z
1/2-x,1/2+y,-z
1/2-x,1/2-y,-z
1/2+x,1/2-y,z
loop_
_atom_site_type_symbol
_atom_site_label
_atom_site_fract_x
_atom_site_fract_y
_atom_site_fract_z
Si Si1 0.337834 0.059527 0.604916
Si Si2 0.656463 0.287652 0.644550
Si Si3 0.134185 0.000000 0.463840
Si Si4 0.770211 0.894781 0.517575
Si Si5 0.156155 0.329800 0.328015
Si Si6 0.537175 0.000000 0.852983
Si Si7 0.012842 0.382930 0.866985
Si Si8 0.616514 0.783294 0.137309
O O1 0.500000 0.054085 0.500000
O O2 0.318792 0.081403 0.505567
O O3 0.289660 0.108667 0.714249
O O4 0.274429 0.000000 0.665363
O O5 0.750000 0.250000 0.500000
O O6 0.647874 0.344378 0.593216
O O7 0.739199 0.298034 0.682517
O O8 0.512815 0.256914 0.771584
O O9 0.134668 0.055848 0.523962
O O10 0.000000 0.000000 0.500000
O O11 0.293774 0.000000 0.291624
O O12 0.666438 0.876114 0.691624
O O13 0.138478 0.303729 0.233670
O O14 0.000000 0.330191 0.500000
O O15 0.479257 0.943890 0.858346
O O16 0.500000 0.000000 0.000000
O O17 0.916747 0.336259 0.900991
O O18 0.000000 0.381669 0.000000
O O19 0.750000 0.750000 0.000000
#
# Coordination Sequence:
#
# PCOD9189245 Si02
#       8
#     8   8   4   8   8   4   8   8
#     4   9  16  29  58  91 114 144 189 245 299 343
#     4  11  21  40  64  82 120 162 194 250 301 357
#     4  10  20  36  55  91 122 148 193 254 294 352
#     4  10  19  37  60  86 120 156 200 248 303 355
#     4  10  20  38  61  89 119 149 200 249 292 360
#     4   8  18  38  60  79 110 158 196 243 298 358
#     4  10  20  37  60  84 117 161 199 249 302 359
#     4  12  26  40  58  93 124 157 207 252 303 359
#
# _framework density 17.688545000000001
#
# number of rings (size 3 to 8) (size 9 to 14) (size 15 to 20)
#    0.000    1.857    3.571    1.714    2.000    0.000 
#   11.571    0.000    0.000    0.000    0.000    2.000 
#    0.000    0.000    0.000    0.000    0.000    0.000 
#
# Total GULP energy -155914.590097 kJ/mol
# GULP energy per Si atom -5568.378218 kJ/mol
# Density = 1.764829 g / cm^3
# Si number density = 17.688545 Si / 1000 Ang^3
#
#
#
# Elastic Constant Matrix: (Units=GPa)
#
#
# Indices 1 2 3 4 5 6 
#
# 1 116.7524 83.6741 38.5798 0.0000 1.3014 0.0000
# 2 83.6741 177.2411 56.6080 0.0000 -1.2410 0.0000
# 3 38.5798 56.6080 60.9597 0.0000 -3.1842 0.0000
# 4 0.0000 0.0000 0.0000 13.8829 0.0000 2.2061
# 5 1.3014 -1.2410 -3.1842 0.0000 24.5552 0.0000
# 6 0.0000 0.0000 0.0000 2.2061 0.0000 28.8866
#
#
#
# Elastic Compliance Matrix: (Units=1/GPa)
#
#
# Indices 1 2 3 4 5 6 
#
# 1 0.013572 -0.005188 -0.003849 0.000000 -0.001481 0.000000
# 2 -0.005188 0.010012 -0.006014 0.000000 0.000001 0.000000
# 3 -0.003849 -0.006014 0.024586 0.000000 0.003088 0.000000
# 4 0.000000 0.000000 0.000000 0.072916 0.000000 -0.005569
# 5 -0.001481 0.000001 0.003088 0.000000 0.041204 0.000000
# 6 0.000000 0.000000 0.000000 -0.005569 0.000000 0.035043
#
#
# Mechanical properties :
#
#
# Convention : Reuss Voigt Hill
#
# Bulk Modulus (GPa) = 55.34582 79.18634 67.26608
# Shear Modulus (GPa) = 21.41729 25.20438 23.31084
#
# Velocity S-wave (km/s) = 3.48343 3.77888 3.63416
# Velocity P-wave (km/s) = 6.89464 7.99400 7.46459
#
# Compressibility (1/GPa) = 0.01806821
#
# Stress axis : x y z
#
# Youngs Moduli (GPa) = 73.68273 99.87924 40.67399
#
# Poissons Ratio (x) = 0.51820 0.15654
# Poissons Ratio (y) = 0.38229 0.24460
# Poissons Ratio (z) = 0.28358 0.60065
#
# Static dielectric constant tensor:
#      x y z
#    x 1.585750 0.000000 0.028370 
#    y 0.000000 1.649070 0.000000 
#    z 0.028370 0.000000 1.586640 
# 
# From -- ./inp_files/218282.got.cif
#   From: 2010.05.17/outbox.cif.g08.bks.cpg/sg12_110_cif.got.tgz:218282.got - 2010.06.03 13:09:07.
