data_PCOD9189214
_publ_section_title
;
Structure prediction by ZEFSAII (Michael W. Deem and Ramdas Pophale) SiO2 
 PCOD9189214
Probable space group: C 2/M
;
_chemical_formula_sum "Si O2"
_cell_formula_units_Z 52
_cell_length_a 17.630083
_cell_length_b 15.650213
_cell_length_c 11.015169
_cell_angle_alpha 90.000000
_cell_angle_beta 71.847797
_cell_angle_gamma 90.000000
_cell_volume 2887.989113
_symmetry_space_group_name_H-M "C 2/M"
_symmetry_group_IT_number 12
_symmetry_cell_setting 'monoclinic'
loop_
_space_group_symop_operation_xyz
x,y,z
-x,y,-z
-x,-y,-z
x,-y,z
1/2+x,1/2+y,z
1/2-x,1/2+y,-z
1/2-x,1/2-y,-z
1/2+x,1/2-y,z
loop_
_atom_site_type_symbol
_atom_site_label
_atom_site_fract_x
_atom_site_fract_y
_atom_site_fract_z
Si Si1 0.783932 0.296028 0.362161
Si Si2 0.446145 0.761827 0.873024
Si Si3 0.392273 0.314700 0.151020
Si Si4 0.549929 0.102175 0.710778
Si Si5 0.969049 0.000000 0.656096
Si Si6 0.500000 0.795116 0.500000
Si Si7 0.876538 0.176537 0.683446
Si Si8 0.066434 0.000000 0.860733
O O1 0.750000 0.250000 0.500000
O O2 0.819844 0.221149 0.262003
O O3 0.859181 0.361174 0.332611
O O4 0.710570 0.337200 0.326875
O O5 0.523864 0.700136 0.819751
O O6 0.489718 0.853690 0.839062
O O7 0.384645 0.736315 0.798547
O O8 0.406778 0.738040 0.020389
O O9 0.384377 0.414758 0.139071
O O10 0.515131 0.143641 0.605489
O O11 0.548623 0.000000 0.715648
O O12 0.917494 0.086370 0.691514
O O13 0.000000 0.000000 0.500000
O O14 0.030939 0.000000 0.740118
O O15 0.426551 0.731169 0.559804
O O16 0.000000 0.000000 0.000000
#
# Coordination Sequence:
#
# PCOD9189214 Si02
#       8
#     8   8   8   8   4   4   8   4
#     4  11  24  39  55  84 127 162 188 233 313 363
#     4   9  19  38  64  84 111 152 201 245 298 345
#     4  10  20  39  61  91 114 157 198 243 298 360
#     4  10  21  38  61  87 112 152 205 250 291 348
#     4  12  24  32  60  98 120 153 206 259 299 352
#     4  10  19  37  60  80 114 158 198 245 293 350
#     4  11  21  37  56  85 122 157 193 243 299 363
#     4  12  20  38  68  94 122 150 210 258 294 364
#
# _framework density 18.005609
#
# number of rings (size 3 to 8) (size 9 to 14) (size 15 to 20)
#    0.000    1.538    5.385    0.231    3.231    0.615 
#    1.385    6.154    1.692    0.000    0.000    0.000 
#    0.000    0.000    0.000    0.000    0.000    0.000 
#
# Total GULP energy -144821.752364 kJ/mol
# GULP energy per Si atom -5570.067399 kJ/mol
# Density = 1.796463 g / cm^3
# Si number density = 18.005609 Si / 1000 Ang^3
#
#
#
# Elastic Constant Matrix: (Units=GPa)
#
#
# Indices 1 2 3 4 5 6 
#
# 1 72.1598 26.4251 38.2380 0.0000 1.6271 0.0000
# 2 26.4251 158.5245 46.6953 0.0000 -15.8564 0.0000
# 3 38.2380 46.6953 107.5741 0.0000 -9.3951 0.0000
# 4 0.0000 0.0000 0.0000 18.0489 0.0000 4.4952
# 5 1.6271 -15.8564 -9.3951 0.0000 24.7913 0.0000
# 6 0.0000 0.0000 0.0000 4.4952 0.0000 18.7295
#
#
#
# Elastic Compliance Matrix: (Units=1/GPa)
#
#
# Indices 1 2 3 4 5 6 
#
# 1 0.017730 -0.001642 -0.005981 0.000000 -0.004480 0.000000
# 2 -0.001642 0.007701 -0.002399 0.000000 0.004124 0.000000
# 3 -0.005981 -0.002399 0.012787 0.000000 0.003704 0.000000
# 4 0.000000 0.000000 0.000000 0.058928 0.000000 -0.014143
# 5 -0.004480 0.004124 0.003704 0.000000 0.044672 0.000000
# 6 0.000000 0.000000 0.000000 -0.014143 0.000000 0.056786
#
#
# Mechanical properties :
#
#
# Convention : Reuss Voigt Hill
#
# Bulk Modulus (GPa) = 55.02339 62.33058 58.67698
# Shear Modulus (GPa) = 22.25144 27.44059 24.84601
#
# Velocity S-wave (km/s) = 3.51922 3.90808 3.71874
# Velocity P-wave (km/s) = 6.86575 7.42001 7.14826
#
# Compressibility (1/GPa) = 0.01817409
#
# Stress axis : x y z
#
# Youngs Moduli (GPa) = 56.40277 129.85245 78.20658
#
# Poissons Ratio (x) = 0.21320 0.46773
# Poissons Ratio (y) = 0.09261 0.18762
# Poissons Ratio (z) = 0.33733 0.31152
#
# Static dielectric constant tensor:
#      x y z
#    x 1.617040 0.000000 0.024540 
#    y 0.000000 0.930220 0.000000 
#    z 0.024540 0.000000 1.665010 
# 
# From -- ./inp_files/155350.got.cif
#   From: 2010.05.17/outbox.cif.g08.bks.cpg/sg12_78_cif.got.tgz:155350.got - 2010.06.03 13:09:07.
