data_PCOD9189210
_publ_section_title
;
Structure prediction by ZEFSAII (Michael W. Deem and Ramdas Pophale) SiO2 
 PCOD9189210
Probable space group: C 2/M
;
_chemical_formula_sum "Si O2"
_cell_formula_units_Z 56
_cell_length_a 15.411965
_cell_length_b 8.834129
_cell_length_c 29.531313
_cell_angle_alpha 90.000000
_cell_angle_beta 130.005852
_cell_angle_gamma 90.000000
_cell_volume 3079.791031
_symmetry_space_group_name_H-M "C 2/M"
_symmetry_group_IT_number 12
_symmetry_cell_setting 'monoclinic'
loop_
_space_group_symop_operation_xyz
x,y,z
-x,y,-z
-x,-y,-z
x,-y,z
1/2+x,1/2+y,z
1/2-x,1/2+y,-z
1/2-x,1/2-y,-z
1/2+x,1/2-y,z
loop_
_atom_site_type_symbol
_atom_site_label
_atom_site_fract_x
_atom_site_fract_y
_atom_site_fract_z
Si Si1 0.035650 0.823973 0.314853
Si Si2 0.702316 0.181762 0.937471
Si Si3 0.614856 0.817393 0.066422
Si Si4 0.409670 0.180018 0.351045
Si Si5 0.170324 0.318206 0.279545
Si Si6 0.058973 0.683764 0.148941
Si Si7 0.138325 0.824390 0.442725
O O1 0.079274 0.741405 0.285150
O O2 0.134575 0.817708 0.386476
O O3 0.933728 0.744177 0.308167
O O4 0.008958 0.000000 0.297527
O O5 0.779990 0.241533 0.923122
O O6 0.571662 0.228825 0.888518
O O7 0.706774 0.000000 0.941368
O O8 0.750000 0.250000 0.000000
O O9 0.601289 0.767091 0.113800
O O10 0.627579 0.000000 0.069435
O O11 0.500000 0.781870 0.000000
O O12 0.293723 0.249477 0.330212
O O13 0.521093 0.238768 0.415216
O O14 0.406090 0.000000 0.349550
O O15 0.175320 0.500000 0.282936
O O16 0.132311 0.268474 0.216523
O O17 0.060816 0.500000 0.148881
O O18 0.250000 0.750000 0.500000
O O19 0.130823 0.000000 0.453280
#
# Coordination Sequence:
#
# PCOD9189210 Si02
#       7
#     8   8   8   8   8   8   8
#     4   9  20  37  57  83 116 152 190 234 282 332
#     4  11  21  37  58  83 112 143 183 230 284 340
#     4  10  19  37  60  80 110 147 181 225 286 341
#     4  10  20  36  58  83 116 154 190 234 286 332
#     4  11  21  37  59  83 114 151 194 237 283 340
#     4   9  21  38  56  80 112 148 184 229 284 341
#     4   9  18  34  59  87 118 150 191 236 283 337
#
# _framework density 18.183052
#
# number of rings (size 3 to 8) (size 9 to 14) (size 15 to 20)
#    0.857    1.286    1.429    2.571    0.000    1.429 
#    0.000    7.857    0.000    4.286    0.000    0.000 
#    0.000    0.000    0.000    0.000    0.000    0.000 
#
# Total GULP energy -156062.561190 kJ/mol
# GULP energy per Si atom -5573.662900 kJ/mol
# Density = 1.814167 g / cm^3
# Si number density = 18.183052 Si / 1000 Ang^3
#
#
#
# Elastic Constant Matrix: (Units=GPa)
#
#
# Indices 1 2 3 4 5 6 
#
# 1 76.1432 15.5674 -12.0059 0.0000 1.4857 0.0000
# 2 15.5674 82.1077 6.3033 0.0000 1.4987 0.0000
# 3 -12.0059 6.3033 29.7170 0.0000 6.7026 0.0000
# 4 0.0000 0.0000 0.0000 18.4131 0.0000 -1.9065
# 5 1.4857 1.4987 6.7026 0.0000 25.2017 0.0000
# 6 0.0000 0.0000 0.0000 -1.9065 0.0000 34.5067
#
#
#
# Elastic Compliance Matrix: (Units=1/GPa)
#
#
# Indices 1 2 3 4 5 6 
#
# 1 0.015039 -0.003370 0.007389 0.000000 -0.002651 0.000000
# 2 -0.003370 0.013136 -0.004273 0.000000 0.000554 0.000000
# 3 0.007389 -0.004273 0.039981 0.000000 -0.010815 0.000000
# 4 0.000000 0.000000 0.000000 0.054622 0.000000 0.003018
# 5 -0.002651 0.000554 -0.010815 0.000000 0.042679 0.000000
# 6 0.000000 0.000000 0.000000 0.003018 0.000000 0.029147
#
#
# Mechanical properties :
#
#
# Convention : Reuss Voigt Hill
#
# Bulk Modulus (GPa) = 14.78246 23.07750 18.92998
# Shear Modulus (GPa) = 22.97143 27.49786 25.23464
#
# Velocity S-wave (km/s) = 3.55821 3.89302 3.72938
# Velocity P-wave (km/s) = 5.00286 5.73819 5.38309
#
# Compressibility (1/GPa) = 0.06764775
#
# Stress axis : x y z
#
# Youngs Moduli (GPa) = 66.49415 76.12669 25.01163
#
# Poissons Ratio (x) = 0.25656 -0.18480
# Poissons Ratio (y) = 0.22410 0.10687
# Poissons Ratio (z) = -0.49130 0.32527
#
# Static dielectric constant tensor:
#      x y z
#    x 1.607070 0.000000 -0.006350 
#    y 0.000000 1.610520 0.000000 
#    z -0.006350 0.000000 1.627530 
# 
# From -- ./inp_files/375135.got.cif
#   From: 2010.05.17/outbox.cif.g08.bks.cpg/sg12_188_cif.got.tgz:375135.got - 2010.06.03 13:09:07.
