data_PCOD9189307
_publ_section_title
;
Structure prediction by ZEFSAII (Michael W. Deem and Ramdas Pophale) SiO2 
 PCOD9189307
Probable space group: C 2/M
;
_chemical_formula_sum "Si O2"
_cell_formula_units_Z 56
_cell_length_a 17.420128
_cell_length_b 13.130586
_cell_length_c 15.587184
_cell_angle_alpha 90.000000
_cell_angle_beta 53.113462
_cell_angle_gamma 90.000000
_cell_volume 2851.664781
_symmetry_space_group_name_H-M "C 2/M"
_symmetry_group_IT_number 12
_symmetry_cell_setting 'monoclinic'
loop_
_space_group_symop_operation_xyz
x,y,z
-x,y,-z
-x,-y,-z
x,-y,z
1/2+x,1/2+y,z
1/2-x,1/2+y,-z
1/2-x,1/2-y,-z
1/2+x,1/2-y,z
loop_
_atom_site_type_symbol
_atom_site_label
_atom_site_fract_x
_atom_site_fract_y
_atom_site_fract_z
Si Si1 0.275206 0.669368 0.557181
Si Si2 0.883797 0.383333 0.950277
Si Si3 0.608007 0.292096 0.913540
Si Si4 0.078510 0.303146 0.751166
Si Si5 0.196121 0.383177 0.175521
Si Si6 0.589153 0.742138 0.383109
Si Si7 0.965938 0.887645 0.343583
O O1 0.250000 0.750000 0.500000
O O2 0.168553 0.633907 0.653778
O O3 0.326503 0.715455 0.607106
O O4 0.361312 0.605779 0.458159
O O5 0.866409 0.500000 0.988852
O O6 0.815714 0.354697 0.916430
O O7 0.989455 0.372002 0.838094
O O8 0.878340 0.303922 0.031394
O O9 0.614191 0.251799 0.813211
O O10 0.693337 0.369138 0.873902
O O11 0.500000 0.332026 0.000000
O O12 0.042754 0.209863 0.714079
O O13 0.165817 0.500000 0.203385
O O14 0.131353 0.315932 0.282290
O O15 0.500000 0.784331 0.500000
O O16 0.543471 0.645459 0.363597
O O17 0.988693 0.000000 0.291589
#
# Coordination Sequence:
#
# PCOD9189307 Si02
#       7
#     8   8   8   8   8   8   8
#     4   9  19  35  57  86 121 162 194 242 302 345
#     4  10  22  40  63  88 117 158 203 246 299 360
#     4  10  22  39  64  87 121 155 195 259 302 348
#     4  10  19  37  61  86 124 158 196 253 300 350
#     4  11  22  40  65  89 119 160 202 242 300 367
#     4  10  20  38  63  87 125 157 201 248 291 352
#     4  10  21  37  59  88 124 163 203 246 298 362
#
# _framework density 19.637653
#
# number of rings (size 3 to 8) (size 9 to 14) (size 15 to 20)
#    0.000    2.000    2.857    0.429    0.000    6.857 
#    0.000    2.857    0.000    0.000    0.000    0.000 
#    0.000    0.000    0.000    0.000    0.000    0.000 
#
# Total GULP energy -156016.936351 kJ/mol
# GULP energy per Si atom -5572.033441 kJ/mol
# Density = 1.959296 g / cm^3
# Si number density = 19.637653 Si / 1000 Ang^3
#
#
#
# Elastic Constant Matrix: (Units=GPa)
#
#
# Indices 1 2 3 4 5 6 
#
# 1 103.8358 25.6204 8.2685 0.0000 15.2102 0.0000
# 2 25.6204 64.6719 14.3064 0.0000 10.9978 0.0000
# 3 8.2685 14.3064 43.0517 0.0000 7.9702 0.0000
# 4 0.0000 0.0000 0.0000 14.7439 0.0000 -1.0005
# 5 15.2102 10.9978 7.9702 0.0000 36.2025 0.0000
# 6 0.0000 0.0000 0.0000 -1.0005 0.0000 0.4233
#
#
#
# Elastic Compliance Matrix: (Units=1/GPa)
#
#
# Indices 1 2 3 4 5 6 
#
# 1 0.011082 -0.003748 -0.000242 0.000000 -0.003464 0.000000
# 2 -0.003748 0.018535 -0.004888 0.000000 -0.002980 0.000000
# 3 -0.000242 -0.004888 0.025650 0.000000 -0.004061 0.000000
# 4 0.000000 0.000000 0.000000 0.080780 0.000000 0.190922
# 5 -0.003464 -0.002980 -0.004061 0.000000 0.030877 0.000000
# 6 0.000000 0.000000 0.000000 0.190922 0.000000 2.813581
#
#
# Mechanical properties :
#
#
# Convention : Reuss Voigt Hill
#
# Bulk Modulus (GPa) = 26.65734 34.21670 30.43702
# Shear Modulus (GPa) = 1.66071 21.16486 11.41279
#
# Velocity S-wave (km/s) = 0.92060 3.28650 2.41336
# Velocity P-wave (km/s) = 3.83850 5.64476 4.82687
#
# Compressibility (1/GPa) = 0.03751312
#
# Stress axis : x y z
#
# Youngs Moduli (GPa) = 90.23645 53.95076 38.98583
#
# Poissons Ratio (x) = 0.20219 0.00942
# Poissons Ratio (y) = 0.33817 0.19056
# Poissons Ratio (z) = 0.02181 0.26371
#
# Static dielectric constant tensor:
#      x y z
#    x 1.713670 0.000000 -0.017010 
#    y 0.000000 1.650940 0.000000 
#    z -0.017010 0.000000 1.699800 
# 
# From -- ./inp_files/223733.got.cif
#   From: 2010.05.17/outbox.cif.g08.bks.cpg/sg12_112_cif.got.tgz:223733.got - 2010.06.03 13:09:07.
