data_PCOD9189220
_publ_section_title
;
Structure prediction by ZEFSAII (Michael W. Deem and Ramdas Pophale) SiO2 
 PCOD9189220
Probable space group: C 2/M
;
_chemical_formula_sum "Si O2"
_cell_formula_units_Z 56
_cell_length_a 21.045315
_cell_length_b 8.629995
_cell_length_c 18.072426
_cell_angle_alpha 90.000000
_cell_angle_beta 70.832878
_cell_angle_gamma 90.000000
_cell_volume 3100.375140
_symmetry_space_group_name_H-M "C 2/M"
_symmetry_group_IT_number 12
_symmetry_cell_setting 'monoclinic'
loop_
_space_group_symop_operation_xyz
x,y,z
-x,y,-z
-x,-y,-z
x,-y,z
1/2+x,1/2+y,z
1/2-x,1/2+y,-z
1/2-x,1/2-y,-z
1/2+x,1/2-y,z
loop_
_atom_site_type_symbol
_atom_site_label
_atom_site_fract_x
_atom_site_fract_y
_atom_site_fract_z
Si Si1 0.680224 0.187181 0.770964
Si Si2 0.064577 0.185877 0.256980
Si Si3 0.823285 0.186317 0.493769
Si Si4 0.309054 0.314861 0.073817
Si Si5 0.084962 0.314189 0.671234
Si Si6 0.328689 0.688371 0.660638
Si Si7 0.344669 0.185154 0.905547
O O1 0.665841 0.256665 0.856724
O O2 0.627351 0.232330 0.727977
O O3 0.754911 0.237643 0.716673
O O4 0.680434 0.000000 0.776326
O O5 0.113696 0.239410 0.304839
O O6 0.099919 0.238182 0.167624
O O7 0.990884 0.255710 0.293890
O O8 0.060581 0.000000 0.260734
O O9 0.750000 0.250000 0.500000
O O10 0.877355 0.246454 0.414548
O O11 0.839123 0.236312 0.571850
O O12 0.821225 0.000000 0.492809
O O13 0.313183 0.500000 0.067249
O O14 0.229954 0.270085 0.095679
O O15 0.346573 0.240603 0.989534
O O16 0.086578 0.500000 0.666349
O O17 0.328443 0.500000 0.661579
O O18 0.350453 0.000000 0.899716
#
# Coordination Sequence:
#
# PCOD9189220 Si02
#       7
#     8   8   8   8   8   8   8
#     4  10  19  37  60  83 114 154 193 234 287 347
#     4  11  22  39  61  85 116 154 194 239 289 344
#     4  11  21  38  61  88 117 151 196 242 290 342
#     4  10  20  33  56  90 119 147 192 243 283 332
#     4  11  24  41  59  84 120 157 192 236 293 351
#     4   9  19  36  60  85 113 151 193 236 288 345
#     4  10  20  35  56  85 120 155 188 232 290 345
#
# _framework density 18.062329999999999
#
# number of rings (size 3 to 8) (size 9 to 14) (size 15 to 20)
#    0.000    1.714    2.857    2.143    0.000    2.857 
#    0.000    6.429    0.000    4.286    0.000    0.000 
#    0.000    0.000    0.000    0.000    0.000    0.000 
#
# Total GULP energy -156410.891409 kJ/mol
# GULP energy per Si atom -5586.103265 kJ/mol
# Density = 1.802122 g / cm^3
# Si number density = 18.062330 Si / 1000 Ang^3
#
#
#
# Elastic Constant Matrix: (Units=GPa)
#
#
# Indices 1 2 3 4 5 6 
#
# 1 136.5528 32.2890 86.9972 0.0000 0.6181 0.0000
# 2 32.2890 40.9295 37.1298 0.0000 0.1844 0.0000
# 3 86.9972 37.1298 168.9462 0.0000 8.8026 0.0000
# 4 0.0000 0.0000 0.0000 34.1805 0.0000 -1.7488
# 5 0.6181 0.1844 8.8026 0.0000 32.3841 0.0000
# 6 0.0000 0.0000 0.0000 -1.7488 0.0000 27.9969
#
#
#
# Elastic Compliance Matrix: (Units=1/GPa)
#
#
# Indices 1 2 3 4 5 6 
#
# 1 0.011609 -0.004603 -0.005027 0.000000 0.001171 0.000000
# 2 -0.004603 0.032431 -0.004820 0.000000 0.001213 0.000000
# 3 -0.005027 -0.004820 0.009698 0.000000 -0.002513 0.000000
# 4 0.000000 0.000000 0.000000 0.029350 0.000000 0.001833
# 5 0.001171 0.001213 -0.002513 0.000000 0.031533 0.000000
# 6 0.000000 0.000000 0.000000 0.001833 0.000000 0.035833
#
#
# Mechanical properties :
#
#
# Convention : Reuss Voigt Hill
#
# Bulk Modulus (GPa) = 40.26307 73.25116 56.75712
# Shear Modulus (GPa) = 26.64746 31.57980 29.11363
#
# Velocity S-wave (km/s) = 3.84514 4.18590 4.01913
# Velocity P-wave (km/s) = 6.48483 8.00031 7.28210
#
# Compressibility (1/GPa) = 0.02483666
#
# Stress axis : x y z
#
# Youngs Moduli (GPa) = 86.13798 30.83477 103.11179
#
# Poissons Ratio (x) = 0.14193 0.51839
# Poissons Ratio (y) = 0.39649 0.49704
# Poissons Ratio (z) = 0.43306 0.14864
#
# Static dielectric constant tensor:
#      x y z
#    x 1.601420 0.000000 0.013780 
#    y 0.000000 1.613960 0.000000 
#    z 0.013780 0.000000 1.596000 
# 
# From -- ./inp_files/275677.got.cif
#   From: 2010.05.17/outbox.cif.g08.bks.cpg/sg12_138_cif.got.tgz:275677.got - 2010.06.03 13:09:07.
