data_PCOD9189829
_publ_section_title
;
Structure prediction by ZEFSAII (Michael W. Deem and Ramdas Pophale) SiO2 
 PCOD9189829
Probable space group: C 2/M
;
_chemical_formula_sum "Si O2"
_cell_formula_units_Z 64
_cell_length_a 26.458507
_cell_length_b 14.902039
_cell_length_c 8.741094
_cell_angle_alpha 90.000000
_cell_angle_beta 105.368853
_cell_angle_gamma 90.000000
_cell_volume 3323.240669
_symmetry_space_group_name_H-M "C 2/M"
_symmetry_group_IT_number 12
_symmetry_cell_setting 'monoclinic'
loop_
_space_group_symop_operation_xyz
x,y,z
-x,y,-z
-x,-y,-z
x,-y,z
1/2+x,1/2+y,z
1/2-x,1/2+y,-z
1/2-x,1/2-y,-z
1/2+x,1/2-y,z
loop_
_atom_site_type_symbol
_atom_site_label
_atom_site_fract_x
_atom_site_fract_y
_atom_site_fract_z
Si Si1 0.892602 0.398346 0.725125
Si Si2 0.407327 0.182135 0.054628
Si Si3 0.311733 0.768641 0.549530
Si Si4 0.490725 0.788185 0.672890
Si Si5 0.978418 0.903526 0.810022
Si Si6 0.719096 0.602956 0.014869
Si Si7 0.187857 0.724461 0.798988
Si Si8 0.872258 0.147968 0.836821
O O1 0.899874 0.500000 0.680758
O O2 0.835036 0.361353 0.635117
O O3 0.936623 0.334668 0.683001
O O4 0.899665 0.389307 0.913631
O O5 0.461355 0.172083 0.188670
O O6 0.359152 0.189055 0.133067
O O7 0.403326 0.276081 0.958712
O O8 0.250000 0.750000 0.500000
O O9 0.329576 0.764607 0.388716
O O10 0.337601 0.696560 0.681643
O O11 0.500000 0.800012 0.500000
O O12 0.490316 0.682704 0.716986
O O13 0.916203 0.906384 0.785067
O O14 0.997955 0.000000 0.766286
O O15 0.000000 0.892834 0.000000
O O16 0.731364 0.500000 0.978429
O O17 0.765692 0.651327 0.147081
O O18 0.667129 0.601239 0.077966
O O19 0.707662 0.678003 0.875140
#
# Coordination Sequence:
#
# PCOD9189829 Si02
#       8
#     8   8   8   8   8   8   8   8
#     4  11  25  44  68  94 125 167 216 260 312 385
#     4  10  21  39  65  91 124 167 207 253 316 373
#     4  11  21  41  66  88 127 169 207 259 319 367
#     4  12  23  41  67  94 131 169 203 262 327 379
#     4  11  21  38  65  93 122 164 216 260 309 378
#     4  10  21  38  60  88 124 166 211 257 308 370
#     4  10  22  39  61  91 125 162 208 263 312 368
#     4  10  19  38  64  87 120 167 209 250 313 374
#
# _framework density 19.258310000000002
#
# number of rings (size 3 to 8) (size 9 to 14) (size 15 to 20)
#    0.000    1.375    5.000    1.500    1.750    2.500 
#    0.000    2.500    0.000    0.000    0.000    0.000 
#    0.000    0.000    0.000    0.000    0.000    0.000 
#
# Total GULP energy -178499.751095 kJ/mol
# GULP energy per Si atom -5578.117222 kJ/mol
# Density = 1.921448 g / cm^3
# Si number density = 19.258310 Si / 1000 Ang^3
#
#
#
# Elastic Constant Matrix: (Units=GPa)
#
#
# Indices 1 2 3 4 5 6 
#
# 1 67.9425 20.7444 26.4139 0.0000 9.2755 0.0000
# 2 20.7444 107.3425 27.9572 0.0000 6.2847 0.0000
# 3 26.4139 27.9572 115.6058 0.0000 3.5327 0.0000
# 4 0.0000 0.0000 0.0000 1.4833 0.0000 -6.1339
# 5 9.2755 6.2847 3.5327 0.0000 35.5603 0.0000
# 6 0.0000 0.0000 0.0000 -6.1339 0.0000 1.4348
#
#
#
# Elastic Compliance Matrix: (Units=1/GPa)
#
#
# Indices 1 2 3 4 5 6 
#
# 1 0.017190 -0.002251 -0.003268 0.000000 -0.003761 0.000000
# 2 -0.002251 0.010320 -0.001950 0.000000 -0.001043 0.000000
# 3 -0.003268 -0.001950 0.009862 0.000000 0.000217 0.000000
# 4 0.000000 0.000000 0.000000 -0.040419 0.000000 -0.172802
# 5 -0.003761 -0.001043 0.000217 0.000000 0.029265 0.000000
# 6 0.000000 0.000000 0.000000 -0.172802 0.000000 -0.041787
#
#
# Mechanical properties :
#
#
# Convention : Reuss Voigt Hill
#
# Bulk Modulus (GPa) = 44.57490 49.01354 46.79422
# Shear Modulus (GPa) = 730.46772 22.08069 376.27421
#
# Velocity S-wave (km/s) = 19.49675 3.38975 13.99310
# Velocity P-wave (km/s) = 23.02232 6.38956 16.89458
#
# Compressibility (1/GPa) = 0.02243415
#
# Stress axis : x y z
#
# Youngs Moduli (GPa) = 58.17478 96.90176 101.40276
#
# Poissons Ratio (x) = 0.21808 0.33142
# Poissons Ratio (y) = 0.13092 0.19769
# Poissons Ratio (z) = 0.19014 0.18892
#
# Static dielectric constant tensor:
#      x y z
#    x 1.693070 0.000000 0.010330 
#    y 0.000000 1.704830 0.000000 
#    z 0.010330 0.000000 1.651540 
# 
# From -- ./inp_files/104660.got.cif
#   From: 2010.05.17/outbox.cif.g08.bks.cpg/sg12_53_cif.got.tgz:104660.got - 2010.06.03 13:09:07.
