data_PCOD9189616
_publ_section_title
;
Structure prediction by ZEFSAII (Michael W. Deem and Ramdas Pophale) SiO2 
 PCOD9189616
Probable space group: C 2/M
;
_chemical_formula_sum "Si O2"
_cell_formula_units_Z 60
_cell_length_a 19.958430
_cell_length_b 23.634174
_cell_length_c 11.340861
_cell_angle_alpha 90.000000
_cell_angle_beta 149.057519
_cell_angle_gamma 90.000000
_cell_volume 2750.589229
_symmetry_space_group_name_H-M "C 2/M"
_symmetry_group_IT_number 12
_symmetry_cell_setting 'monoclinic'
loop_
_space_group_symop_operation_xyz
x,y,z
-x,y,-z
-x,-y,-z
x,-y,z
1/2+x,1/2+y,z
1/2-x,1/2+y,-z
1/2-x,1/2-y,-z
1/2+x,1/2-y,z
loop_
_atom_site_type_symbol
_atom_site_label
_atom_site_fract_x
_atom_site_fract_y
_atom_site_fract_z
Si Si1 0.728934 0.149509 0.220428
Si Si2 0.575242 0.745603 0.885069
Si Si3 0.500000 0.866146 0.000000
Si Si4 0.085230 0.933858 0.915897
Si Si5 0.602927 0.344626 0.287057
Si Si6 0.387823 0.347868 0.243016
Si Si7 0.629769 0.831245 0.426731
Si Si8 0.106545 0.434461 0.557338
O O1 0.828783 0.155505 0.479310
O O2 0.780259 0.130492 0.171608
O O3 0.669878 0.210961 0.094519
O O4 0.616495 0.107775 0.100654
O O5 0.501564 0.704922 0.864255
O O6 0.643573 0.703161 0.894778
O O7 0.455793 0.781369 0.645090
O O8 0.577029 0.830607 0.213350
O O9 0.067397 0.900960 0.766168
O O10 0.982070 0.901963 0.844944
O O11 0.057050 0.000000 0.869086
O O12 0.240379 0.927065 0.176228
O O13 0.715316 0.333095 0.360715
O O14 0.500000 0.326545 0.500000
O O15 0.588417 0.888853 0.427626
O O16 0.091011 0.500000 0.497387
O O17 0.000000 0.424188 0.500000
#
# Coordination Sequence:
#
# PCOD9189616 Si02
#       8
#     8   8   4   8   8   8   8   8
#     4  10  19  38  56  85 127 163 207 256 312 361
#     4  10  21  34  58  91 129 170 202 249 315 378
#     4   8  20  36  63  90 120 170 205 258 308 368
#     4  10  23  42  64  91 122 163 211 261 324 376
#     4  10  21  41  61  92 127 160 209 266 308 378
#     4  11  21  39  61  93 129 163 213 272 306 371
#     4  10  21  40  66  91 129 170 212 254 319 373
#     4  10  24  45  66  92 126 163 212 264 312 380
#
# _framework density 21.813507000000001
#
# number of rings (size 3 to 8) (size 9 to 14) (size 15 to 20)
#    0.000    2.000    2.667    0.800    3.733    4.000 
#    0.000    9.667    0.000    4.800    0.000    0.000 
#    0.000    0.000    0.000    0.000    0.000    0.000 
#
# Total GULP energy -167075.440957 kJ/mol
# GULP energy per Si atom -5569.181365 kJ/mol
# Density = 2.176386 g / cm^3
# Si number density = 21.813507 Si / 1000 Ang^3
#
#
#
# Elastic Constant Matrix: (Units=GPa)
#
#
# Indices 1 2 3 4 5 6 
#
# 1 109.1023 29.9728 25.1854 0.0000 2.8973 0.0000
# 2 29.9728 104.4581 35.7031 0.0000 -5.6585 0.0000
# 3 25.1854 35.7031 85.4289 0.0000 1.1300 0.0000
# 4 0.0000 0.0000 0.0000 16.4458 0.0000 4.1356
# 5 2.8973 -5.6585 1.1300 0.0000 28.4221 0.0000
# 6 0.0000 0.0000 0.0000 4.1356 0.0000 10.1210
#
#
#
# Elastic Compliance Matrix: (Units=1/GPa)
#
#
# Indices 1 2 3 4 5 6 
#
# 1 0.010319 -0.002340 -0.002045 0.000000 -0.001436 0.000000
# 2 -0.002340 0.011867 -0.004306 0.000000 0.002772 0.000000
# 3 -0.002045 -0.004306 0.014124 0.000000 -0.001210 0.000000
# 4 0.000000 0.000000 0.000000 0.067769 0.000000 -0.027692
# 5 -0.001436 0.002772 -0.001210 0.000000 0.035930 0.000000
# 6 0.000000 0.000000 0.000000 -0.027692 0.000000 0.110120
#
#
# Mechanical properties :
#
#
# Convention : Reuss Voigt Hill
#
# Bulk Modulus (GPa) = 52.83374 53.41243 53.12309
# Shear Modulus (GPa) = 18.26014 24.87299 21.56657
#
# Velocity S-wave (km/s) = 2.89641 3.38043 3.14774
# Velocity P-wave (km/s) = 5.95473 6.30678 6.13328
#
# Compressibility (1/GPa) = 0.01892730
#
# Stress axis : x y z
#
# Youngs Moduli (GPa) = 96.91121 84.27049 70.79975
#
# Poissons Ratio (x) = 0.19715 0.14481
# Poissons Ratio (y) = 0.22673 0.30488
# Poissons Ratio (z) = 0.19821 0.36289
#
# Static dielectric constant tensor:
#      x y z
#    x 1.889910 0.000000 0.087280 
#    y 0.000000 1.747940 0.000000 
#    z 0.087280 0.000000 1.907750 
# 
# From -- ./inp_files/170388.got.cif
#   From: 2010.05.17/outbox.cif.g08.bks.cpg/sg12_86_cif.got.tgz:170388.got - 2010.06.03 13:09:07.
