data_PCOD9189588
_publ_section_title
;
Structure prediction by ZEFSAII (Michael W. Deem and Ramdas Pophale) SiO2 
 PCOD9189588
Probable space group: C 2/M
;
_chemical_formula_sum "Si O2"
_cell_formula_units_Z 44
_cell_length_a 15.239661
_cell_length_b 14.115089
_cell_length_c 15.163295
_cell_angle_alpha 90.000000
_cell_angle_beta 143.559095
_cell_angle_gamma 90.000000
_cell_volume 1937.466087
_symmetry_space_group_name_H-M "C 2/M"
_symmetry_group_IT_number 12
_symmetry_cell_setting 'monoclinic'
loop_
_space_group_symop_operation_xyz
x,y,z
-x,y,-z
-x,-y,-z
x,-y,z
1/2+x,1/2+y,z
1/2-x,1/2+y,-z
1/2-x,1/2-y,-z
1/2+x,1/2-y,z
loop_
_atom_site_type_symbol
_atom_site_label
_atom_site_fract_x
_atom_site_fract_y
_atom_site_fract_z
Si Si1 0.687697 0.817864 0.300894
Si Si2 0.029269 0.891857 0.373858
Si Si3 0.000000 0.674309 0.000000
Si Si4 0.786198 0.895537 0.661312
Si Si5 0.728936 0.246598 0.878416
Si Si6 0.509524 0.893179 0.320019
O O1 0.850716 0.851906 0.459609
O O2 0.606409 0.875150 0.157492
O O3 0.689647 0.706813 0.275879
O O4 0.589689 0.830699 0.309885
O O5 0.114568 0.893687 0.348162
O O6 0.886523 0.826321 0.248172
O O7 0.991253 0.000000 0.365152
O O8 0.887372 0.734562 0.966879
O O9 0.617191 0.892496 0.490564
O O10 0.811737 0.000000 0.723835
O O11 0.649915 0.148714 0.790067
O O12 0.750000 0.250000 0.000000
O O13 0.502615 0.000000 0.280821
#
# Coordination Sequence:
#
# PCOD9189588 Si02
#       6
#     8   8   4   8   8   8
#     4  11  19  42  62  98 135 168 218 273 321 390
#     4  10  20  38  68  96 127 175 219 264 326 394
#     4  12  28  40  68  98 132 176 218 272 336 382
#     4   9  16  32  67 102 122 161 221 269 321 388
#     4  12  23  45  65  94 135 172 214 270 327 385
#     4  10  19  37  69  96 125 173 216 264 329 390
#
# _framework density 22.710075
#
# number of rings (size 3 to 8) (size 9 to 14) (size 15 to 20)
#    0.000    1.455    5.455    2.727    0.000    1.455 
#    0.000    7.727    0.000    2.182    0.000    0.000 
#    0.000    0.000    0.000    0.000    0.000    0.000 
#
# Total GULP energy -122898.298892 kJ/mol
# GULP energy per Si atom -5586.286313 kJ/mol
# Density = 2.265839 g / cm^3
# Si number density = 22.710075 Si / 1000 Ang^3
#
#
#
# Elastic Constant Matrix: (Units=GPa)
#
#
# Indices 1 2 3 4 5 6 
#
# 1 65.9063 -2.4797 32.9041 0.0000 15.6214 0.0000
# 2 -2.4797 141.2555 43.5833 0.0000 -0.6377 0.0000
# 3 32.9041 43.5833 149.3889 0.0001 11.5368 0.0001
# 4 0.0000 0.0000 0.0001 -1.6157 0.0001 3.5496
# 5 15.6214 -0.6377 11.5368 0.0001 35.2748 0.0000
# 6 0.0000 0.0000 0.0001 3.5496 0.0000 1.3471
#
#
#
# Elastic Compliance Matrix: (Units=1/GPa)
#
#
# Indices 1 2 3 4 5 6 
#
# 1 0.018935 0.001561 -0.004084 0.000000 -0.007021 0.000000
# 2 0.001561 0.007937 -0.002685 0.000000 0.000330 0.000000
# 3 -0.004084 -0.002685 0.008454 0.000000 -0.001005 0.000000
# 4 0.000000 0.000000 0.000000 -0.091165 0.000000 0.240222
# 5 -0.007021 0.000330 -0.001005 0.000000 0.031793 0.000000
# 6 0.000000 0.000000 0.000000 0.240222 0.000000 0.109344
#
#
# Mechanical properties :
#
#
# Convention : Reuss Voigt Hill
#
# Bulk Modulus (GPa) = 40.14400 56.06290 48.10345
# Shear Modulus (GPa) = 48.06932 25.83744 36.95338
#
# Velocity S-wave (km/s) = 4.60570 3.37665 4.03821
# Velocity P-wave (km/s) = 6.78221 6.31999 6.55518
#
# Compressibility (1/GPa) = 0.02491032
#
# Stress axis : x y z
#
# Youngs Moduli (GPa) = 52.81283 125.99847 118.28369
#
# Poissons Ratio (x) = -0.19664 0.48302
# Poissons Ratio (y) = -0.08242 0.31756
# Poissons Ratio (z) = 0.21567 0.33827
#
# Static dielectric constant tensor:
#      x y z
#    x 1.866570 0.000000 -0.037680 
#    y 0.000000 1.848890 0.000000 
#    z -0.037680 0.000000 1.847100 
# 
# From -- ./inp_files/277923.got.cif
#   From: 2010.05.17/outbox.cif.g08.bks.cpg/sg12_139_cif.got.tgz:277923.got - 2010.06.03 13:09:07.
