data_PCOD9189938
_publ_section_title
;
Structure prediction by ZEFSAII (Michael W. Deem and Ramdas Pophale) SiO2 
 PCOD9189938
Probable space group: C 2/M
;
_chemical_formula_sum "Si O2"
_cell_formula_units_Z 58
_cell_length_a 11.233394
_cell_length_b 14.834859
_cell_length_c 17.133097
_cell_angle_alpha 90.000000
_cell_angle_beta 77.137805
_cell_angle_gamma 90.000000
_cell_volume 2783.518104
_symmetry_space_group_name_H-M "C 2/M"
_symmetry_group_IT_number 12
_symmetry_cell_setting 'monoclinic'
loop_
_space_group_symop_operation_xyz
x,y,z
-x,y,-z
-x,-y,-z
x,-y,z
1/2+x,1/2+y,z
1/2-x,1/2+y,-z
1/2-x,1/2-y,-z
1/2+x,1/2-y,z
loop_
_atom_site_type_symbol
_atom_site_label
_atom_site_fract_x
_atom_site_fract_y
_atom_site_fract_z
Si Si1 0.860864 0.317660 0.503807
Si Si2 0.912336 0.167832 0.087460
Si Si3 0.191348 0.399976 0.320456
Si Si4 0.091493 0.401042 0.669023
Si Si5 0.780309 0.361550 0.996243
Si Si6 0.785160 0.726430 0.224669
Si Si7 0.385188 0.598653 0.832230
Si Si8 0.500000 0.000000 0.000000
O O1 0.750000 0.250000 0.500000
O O2 0.823075 0.371489 0.586907
O O3 0.875020 0.378744 0.425053
O O4 0.000000 0.280063 0.500000
O O5 0.867939 0.258993 0.136068
O O6 0.989218 0.116985 0.141900
O O7 0.795833 0.115509 0.070941
O O8 0.000000 0.183650 0.000000
O O9 0.243684 0.500000 0.306859
O O10 0.262078 0.323791 0.264010
O O11 0.054457 0.399983 0.306442
O O12 0.136572 0.500000 0.683632
O O13 0.147698 0.331308 0.720430
O O14 0.711313 0.397611 0.082723
O O15 0.750000 0.250000 0.000000
O O16 0.906413 0.417712 0.979601
O O17 0.659781 0.676879 0.218861
O O18 0.382969 0.500000 0.795602
#
# Coordination Sequence:
#
# PCOD9189938 Si02
#       8
#     8   8   8   8   8   8   8   2
#     4  10  19  38  69  99 136 179 226 277 342 420
#     4  10  25  42  69  88 130 182 226 280 358 421
#     4  10  22  40  63  97 134 178 231 282 341 416
#     4  10  21  39  65  98 135 179 223 276 342 412
#     4  11  24  45  68  98 133 171 225 304 358 422
#     4  12  22  41  65  96 134 177 228 294 347 412
#     4  11  24  43  64  93 127 172 224 275 355 428
#     4  12  28  44  74 114 128 172 252 296 376 450
#
# _framework density 20.836940999999999
#
# number of rings (size 3 to 8) (size 9 to 14) (size 15 to 20)
#    0.000    1.379    3.448    1.655    3.862    3.034 
#    2.483    0.000    0.000    4.552    0.000    0.000 
#    0.000    0.000    0.000    0.000    0.000    0.000 
#
# Total GULP energy -161464.702584 kJ/mol
# GULP energy per Si atom -5567.748365 kJ/mol
# Density = 2.078952 g / cm^3
# Si number density = 20.836941 Si / 1000 Ang^3
#
#
#
# Elastic Constant Matrix: (Units=GPa)
#
#
# Indices 1 2 3 4 5 6 
#
# 1 121.5094 71.0007 39.7783 0.0000 27.7212 0.0000
# 2 71.0007 171.1811 44.7288 0.0000 8.7758 0.0000
# 3 39.7783 44.7288 82.5740 0.0000 15.1794 0.0000
# 4 0.0000 0.0000 0.0000 -1.1414 0.0000 -1.7050
# 5 27.7212 8.7758 15.1794 0.0000 32.9937 0.0000
# 6 0.0000 0.0000 0.0000 -1.7050 0.0000 30.9280
#
#
#
# Elastic Compliance Matrix: (Units=1/GPa)
#
#
# Indices 1 2 3 4 5 6 
#
# 1 0.013857 -0.004628 -0.002463 0.000000 -0.009279 0.000000
# 2 -0.004628 0.008351 -0.002841 0.000000 0.002974 0.000000
# 3 -0.002463 -0.002841 0.015639 0.000000 -0.004370 0.000000
# 4 0.000000 0.000000 0.000000 -0.809428 0.000000 -0.044622
# 5 -0.009279 0.002974 -0.004370 0.000000 0.039324 0.000000
# 6 0.000000 0.000000 0.000000 -0.044622 0.000000 0.029873
#
#
# Mechanical properties :
#
#
# Convention : Reuss Voigt Hill
#
# Bulk Modulus (GPa) = 55.60612 76.25334 65.92973
# Shear Modulus (GPa) = -7.39071 27.20651 9.90790
#
# Velocity S-wave (km/s) = -1.88537 3.61735 2.18295
# Velocity P-wave (km/s) = 4.69092 7.35674 6.16954
#
# Compressibility (1/GPa) = 0.01798363
#
# Stress axis : x y z
#
# Youngs Moduli (GPa) = 72.16373 119.74145 63.94306
#
# Poissons Ratio (x) = 0.55422 0.15747
# Poissons Ratio (y) = 0.33401 0.18166
# Poissons Ratio (z) = 0.17771 0.34017
#
# Static dielectric constant tensor:
#      x y z
#    x 1.799970 0.000000 -0.008830 
#    y 0.000000 1.775750 0.000000 
#    z -0.008830 0.000000 1.747780 
# 
# From -- ./inp_files/262894.got.cif
#   From: 2010.05.17/outbox.cif.g08.bks.cpg/sg12_132_cif.got.tgz:262894.got - 2010.06.03 13:09:07.
