data_PCOD9189748
_publ_section_title
;
Structure prediction by ZEFSAII (Michael W. Deem and Ramdas Pophale) SiO2 
 PCOD9189748
Probable space group: C 2/M
;
_chemical_formula_sum "Si O2"
_cell_formula_units_Z 42
_cell_length_a 18.719735
_cell_length_b 14.815756
_cell_length_c 12.592510
_cell_angle_alpha 90.000000
_cell_angle_beta 34.708256
_cell_angle_gamma 90.000000
_cell_volume 1988.619726
_symmetry_space_group_name_H-M "C 2/M"
_symmetry_group_IT_number 12
_symmetry_cell_setting 'monoclinic'
loop_
_space_group_symop_operation_xyz
x,y,z
-x,y,-z
-x,-y,-z
x,-y,z
1/2+x,1/2+y,z
1/2-x,1/2+y,-z
1/2-x,1/2-y,-z
1/2+x,1/2-y,z
loop_
_atom_site_type_symbol
_atom_site_label
_atom_site_fract_x
_atom_site_fract_y
_atom_site_fract_z
Si Si1 0.500000 0.500000 0.000000
Si Si2 0.757338 0.178526 0.617672
Si Si3 0.146543 0.097915 0.289060
Si Si4 0.830598 0.164987 0.131755
Si Si5 0.464499 0.774835 0.245046
Si Si6 0.894120 0.704617 0.721749
O O1 0.601573 0.578264 0.908757
O O2 0.779596 0.114256 0.690500
O O3 0.736255 0.277843 0.694030
O O4 0.636033 0.163112 0.693282
O O5 0.882596 0.191988 0.395254
O O6 0.155472 0.190722 0.211873
O O7 0.000000 0.094082 0.500000
O O8 0.180255 0.000000 0.200992
O O9 0.724038 0.148062 0.173849
O O10 0.935170 0.232296 0.956570
O O11 0.539804 0.819728 0.249382
O O12 0.000000 0.703260 0.500000
#
# Coordination Sequence:
#
# PCOD9189748 Si02
#       6
#     2   8   8   8   8   8
#     4  12  24  44  58  96 120 154 202 274 300 352
#     4  10  20  36  60  88 120 161 202 247 292 364
#     4   9  16  32  54  85 117 147 187 247 294 337
#     4  11  22  40  61  90 125 154 205 257 299 361
#     4  11  19  36  63  88 112 168 206 236 301 363
#     4  10  19  38  62  85 119 164 203 246 298 363
#
# _framework density 21.120176000000001
#
# number of rings (size 3 to 8) (size 9 to 14) (size 15 to 20)
#    0.000    1.714    7.619    0.571    0.000    0.000 
#    3.429    0.476    2.095    9.143    0.000    0.000 
#    0.000    0.000    0.000    0.000    0.000    0.000 
#
# Total GULP energy -116941.494314 kJ/mol
# GULP energy per Si atom -5568.642586 kJ/mol
# Density = 2.107211 g / cm^3
# Si number density = 21.120176 Si / 1000 Ang^3
#
#
#
# Elastic Constant Matrix: (Units=GPa)
#
#
# Indices 1 2 3 4 5 6 
#
# 1 155.3139 26.8799 11.6489 0.0000 -37.8982 0.0000
# 2 26.8799 67.6430 0.5502 0.0000 -18.9109 0.0000
# 3 11.6489 0.5502 60.6403 0.0000 -13.7303 0.0000
# 4 0.0000 0.0000 0.0000 8.7856 0.0000 -10.5729
# 5 -37.8982 -18.9109 -13.7303 0.0000 41.2965 0.0000
# 6 0.0000 0.0000 0.0000 -10.5729 0.0000 14.1300
#
#
#
# Elastic Compliance Matrix: (Units=1/GPa)
#
#
# Indices 1 2 3 4 5 6 
#
# 1 0.008404 -0.001357 0.000004 0.000000 0.007092 0.000000
# 2 -0.001357 0.017343 0.001751 0.000000 0.007279 0.000000
# 3 0.000004 0.001751 0.018012 0.000000 0.006794 0.000000
# 4 0.000000 0.000000 0.000000 1.143742 0.000000 0.855815
# 5 0.007092 0.007279 0.006794 0.000000 0.036316 0.000000
# 6 0.000000 0.000000 0.000000 0.855815 0.000000 0.711142
#
#
# Mechanical properties :
#
#
# Convention : Reuss Voigt Hill
#
# Bulk Modulus (GPa) = 22.44337 40.19504 31.31920
# Shear Modulus (GPa) = 2.56540 29.14362 15.85451
#
# Velocity S-wave (km/s) = 1.10332 3.71872 2.74283
# Velocity P-wave (km/s) = 3.50323 6.12466 4.98919
#
# Compressibility (1/GPa) = 0.04455660
#
# Stress axis : x y z
#
# Youngs Moduli (GPa) = 118.99602 57.65865 55.51711
#
# Poissons Ratio (x) = 0.07823 -0.00021
# Poissons Ratio (y) = 0.16145 -0.09724
# Poissons Ratio (z) = -0.00045 -0.10099
#
# Static dielectric constant tensor:
#      x y z
#    x 1.833730 0.000000 0.001910 
#    y 0.000000 1.706680 0.000000 
#    z 0.001910 0.000000 1.771500 
# 
# From -- ./inp_files/233603.got.cif
#   From: 2010.05.17/outbox.cif.g08.bks.cpg/sg12_117_cif.got.tgz:233603.got - 2010.06.03 13:09:07.
