data_PCOD9189246
_publ_section_title
;
Structure prediction by ZEFSAII (Michael W. Deem and Ramdas Pophale) SiO2 
 PCOD9189246
Probable space group: C 2/M
;
_chemical_formula_sum "Si O2"
_cell_formula_units_Z 58
_cell_length_a 14.620745
_cell_length_b 18.912537
_cell_length_c 11.430541
_cell_angle_alpha 90.000000
_cell_angle_beta 122.379343
_cell_angle_gamma 90.000000
_cell_volume 2669.294920
_symmetry_space_group_name_H-M "C 2/M"
_symmetry_group_IT_number 12
_symmetry_cell_setting 'monoclinic'
loop_
_space_group_symop_operation_xyz
x,y,z
-x,y,-z
-x,-y,-z
x,-y,z
1/2+x,1/2+y,z
1/2-x,1/2+y,-z
1/2-x,1/2-y,-z
1/2+x,1/2-y,z
loop_
_atom_site_type_symbol
_atom_site_label
_atom_site_fract_x
_atom_site_fract_y
_atom_site_fract_z
Si Si1 0.833767 0.388616 0.440478
Si Si2 0.041656 0.607953 0.714524
Si Si3 0.000000 0.000000 0.500000
Si Si4 0.873150 0.731277 0.941687
Si Si5 0.883695 0.573699 0.984037
Si Si6 0.624422 0.382846 0.422031
Si Si7 0.698705 0.266782 0.643822
Si Si8 0.944902 0.226402 0.228647
O O1 0.876898 0.401703 0.338601
O O2 0.714160 0.412573 0.393632
O O3 0.839850 0.302780 0.449990
O O4 0.924771 0.417188 0.590958
O O5 0.090273 0.573066 0.861613
O O6 0.026673 0.690214 0.742776
O O7 0.941877 0.938188 0.544669
O O8 0.806928 0.757425 0.785186
O O9 0.832680 0.649894 0.925115
O O10 0.870340 0.775237 0.060542
O O11 0.000000 0.729661 0.000000
O O12 0.826275 0.500000 0.910048
O O13 0.000000 0.574217 0.000000
O O14 0.696926 0.333288 0.557960
O O15 0.541349 0.329900 0.298862
O O16 0.618134 0.285163 0.693970
#
# Coordination Sequence:
#
# PCOD9189246 Si02
#       8
#     8   8   2   8   8   8   8   8
#     4  10  21  35  64  94 125 160 207 274 338 380
#     4   9  19  37  59  99 125 152 213 269 333 385
#     4  12  28  48  56  94 136 180 232 262 296 414
#     4  10  21  33  55  93 124 153 212 264 328 396
#     4   9  19  36  55  78 124 172 197 241 313 396
#     4  12  23  41  63  89 132 178 221 263 322 387
#     4  11  20  36  62  93 124 163 209 274 328 380
#     4  10  19  37  60  86 127 164 207 279 321 378
#
# _framework density 21.728584999999999
#
# number of rings (size 3 to 8) (size 9 to 14) (size 15 to 20)
#    0.000    1.793    2.759    1.655    5.793    0.000 
#    3.724    0.690    0.000    0.000    0.000    1.448 
#    0.000    0.000    0.000    0.000    0.000    0.000 
#
# Total GULP energy -161536.540704 kJ/mol
# GULP energy per Si atom -5570.225542 kJ/mol
# Density = 2.167913 g / cm^3
# Si number density = 21.728585 Si / 1000 Ang^3
#
#
#
# Elastic Constant Matrix: (Units=GPa)
#
#
# Indices 1 2 3 4 5 6 
#
# 1 116.6458 33.4997 0.5757 0.0000 -2.0829 0.0000
# 2 33.4997 73.0367 12.5970 0.0000 -5.5406 0.0000
# 3 0.5757 12.5970 59.3865 0.0000 4.0185 0.0000
# 4 0.0000 0.0000 0.0000 4.4843 0.0000 -5.2171
# 5 -2.0829 -5.5406 4.0185 0.0000 28.5007 0.0000
# 6 0.0000 0.0000 0.0000 -5.2171 0.0000 7.1161
#
#
#
# Elastic Compliance Matrix: (Units=1/GPa)
#
#
# Indices 1 2 3 4 5 6 
#
# 1 0.009923 -0.004737 0.000931 0.000000 -0.000327 0.000000
# 2 -0.004737 0.016771 -0.003744 0.000000 0.003442 0.000000
# 3 0.000931 -0.003744 0.017839 0.000000 -0.003175 0.000000
# 4 0.000000 0.000000 0.000000 1.516463 0.000000 1.111776
# 5 -0.000327 0.003442 -0.003175 0.000000 0.036180 0.000000
# 6 0.000000 0.000000 0.000000 1.111776 0.000000 0.955610
#
#
# Mechanical properties :
#
#
# Convention : Reuss Voigt Hill
#
# Bulk Modulus (GPa) = 33.97651 38.04599 36.01125
# Shear Modulus (GPa) = 1.93972 21.51332 11.72652
#
# Velocity S-wave (km/s) = 0.94585 3.14999 2.32563
# Velocity P-wave (km/s) = 4.10653 5.54775 4.88063
#
# Compressibility (1/GPa) = 0.02943210
#
# Stress axis : x y z
#
# Youngs Moduli (GPa) = 100.77752 59.62590 56.05711
#
# Poissons Ratio (x) = 0.28242 -0.05217
# Poissons Ratio (y) = 0.47734 0.20991
# Poissons Ratio (z) = -0.09379 0.22327
#
# Static dielectric constant tensor:
#      x y z
#    x 1.833030 0.000000 0.005400 
#    y 0.000000 1.821640 0.000000 
#    z 0.005400 0.000000 1.804820 
# 
# From -- ./inp_files/147688.got.cif
#   From: 2010.05.17/outbox.cif.g08.bks.cpg/sg12_74_cif.got.tgz:147688.got - 2010.06.03 13:09:07.
