data_PCOD9189871
_publ_section_title
;
Structure prediction by ZEFSAII (Michael W. Deem and Ramdas Pophale) SiO2 
 PCOD9189871
Probable space group: C 2/M
;
_chemical_formula_sum "Si O2"
_cell_formula_units_Z 56
_cell_length_a 19.030176
_cell_length_b 23.579519
_cell_length_c 9.902231
_cell_angle_alpha 90.000000
_cell_angle_beta 138.800346
_cell_angle_gamma 90.000000
_cell_volume 2926.769484
_symmetry_space_group_name_H-M "C 2/M"
_symmetry_group_IT_number 12
_symmetry_cell_setting 'monoclinic'
loop_
_space_group_symop_operation_xyz
x,y,z
-x,y,-z
-x,-y,-z
x,-y,z
1/2+x,1/2+y,z
1/2-x,1/2+y,-z
1/2-x,1/2-y,-z
1/2+x,1/2-y,z
loop_
_atom_site_type_symbol
_atom_site_label
_atom_site_fract_x
_atom_site_fract_y
_atom_site_fract_z
Si Si1 0.262166 0.640074 0.397210
Si Si2 0.424315 0.065874 0.758575
Si Si3 0.963551 0.662658 0.601036
Si Si4 0.101780 0.064111 0.048308
Si Si5 0.909573 0.282153 0.985379
Si Si6 0.781156 0.823585 0.712489
Si Si7 0.954621 0.064479 0.583367
O O1 0.188368 0.591402 0.357057
O O2 0.186574 0.674531 0.186891
O O3 0.293561 0.680325 0.568191
O O4 0.364332 0.610385 0.482105
O O5 0.463518 0.105120 0.691698
O O6 0.418501 0.000000 0.713399
O O7 0.500000 0.071264 0.000000
O O8 0.842160 0.685285 0.429806
O O9 0.000000 0.654757 0.500000
O O10 0.038354 0.704731 0.795379
O O11 0.185374 0.112840 0.198998
O O12 0.143253 0.000000 0.126414
O O13 0.000000 0.070983 0.000000
O O14 0.051658 0.070414 0.828096
O O15 0.859890 0.220105 0.897635
O O16 0.000000 0.290218 0.000000
O O17 0.000000 0.069507 0.500000
O O18 0.911702 0.000000 0.540514
#
# Coordination Sequence:
#
# PCOD9189871 Si02
#       7
#     8   8   8   8   8   8   8
#     4  11  20  38  64  94 117 167 206 263 302 372
#     4  10  19  38  65  92 121 164 210 252 304 367
#     4  11  25  44  61  92 132 162 204 264 317 370
#     4  10  20  38  61  90 122 156 205 260 304 368
#     4  12  23  42  66  91 124 158 216 265 298 370
#     4  11  24  38  68  93 115 168 212 254 318 368
#     4  10  22  38  59  92 130 162 201 256 314 371
#
# _framework density 19.133724999999998
#
# number of rings (size 3 to 8) (size 9 to 14) (size 15 to 20)
#    0.000    1.286    5.714    1.286    0.000    4.286 
#    0.000    1.429    0.000    0.000    0.000    0.000 
#    0.000    0.000    0.000    0.000    0.000    0.000 
#
# Total GULP energy -156462.703663 kJ/mol
# GULP energy per Si atom -5587.953702 kJ/mol
# Density = 1.909018 g / cm^3
# Si number density = 19.133725 Si / 1000 Ang^3
#
#
#
# Elastic Constant Matrix: (Units=GPa)
#
#
# Indices 1 2 3 4 5 6 
#
# 1 65.3970 20.6215 40.1375 0.0000 -15.3089 0.0000
# 2 20.6215 91.8719 53.6053 0.0000 12.0851 0.0000
# 3 40.1375 53.6053 110.2212 0.0000 -9.1724 0.0000
# 4 0.0000 0.0000 0.0000 26.0999 0.0000 0.1045
# 5 -15.3089 12.0851 -9.1724 0.0000 31.6021 0.0000
# 6 0.0000 0.0000 0.0000 0.1045 0.0000 15.0448
#
#
#
# Elastic Compliance Matrix: (Units=1/GPa)
#
#
# Indices 1 2 3 4 5 6 
#
# 1 0.022153 -0.002927 -0.005797 0.000000 0.010168 0.000000
# 2 -0.002927 0.017954 -0.008562 0.000000 -0.010769 0.000000
# 3 -0.005797 -0.008562 0.015767 0.000000 0.005042 0.000000
# 4 0.000000 0.000000 0.000000 0.038315 0.000000 -0.000266
# 5 0.010168 -0.010769 0.005042 0.000000 0.042151 0.000000
# 6 0.000000 0.000000 0.000000 -0.000266 0.000000 0.066470
#
#
# Mechanical properties :
#
#
# Convention : Reuss Voigt Hill
#
# Bulk Modulus (GPa) = 46.94595 55.13541 51.04068
# Shear Modulus (GPa) = 20.45122 24.75774 22.60448
#
# Velocity S-wave (km/s) = 3.27288 3.60103 3.44087
# Velocity P-wave (km/s) = 6.23469 6.79472 6.52072
#
# Compressibility (1/GPa) = 0.02130109
#
# Stress axis : x y z
#
# Youngs Moduli (GPa) = 45.14155 55.69728 63.42203
#
# Poissons Ratio (x) = 0.16305 0.36766
# Poissons Ratio (y) = 0.13215 0.54302
# Poissons Ratio (z) = 0.26169 0.47688
#
# Static dielectric constant tensor:
#      x y z
#    x 1.615690 0.000000 0.012430 
#    y 0.000000 1.692560 0.000000 
#    z 0.012430 0.000000 1.645290 
# 
# From -- ./inp_files/80089.got.cif
#   From: 2010.05.17/outbox.cif.g08.bks.cpg/sg12_41_cif.got.tgz:80089.got - 2010.06.03 13:09:07.
