data_PCOD9189595
_publ_section_title
;
Structure prediction by ZEFSAII (Michael W. Deem and Ramdas Pophale) SiO2 
 PCOD9189595
Probable space group: C 2/M
;
_chemical_formula_sum "Si O2"
_cell_formula_units_Z 64
_cell_length_a 17.731477
_cell_length_b 29.869812
_cell_length_c 21.205965
_cell_angle_alpha 90.000000
_cell_angle_beta 159.698083
_cell_angle_gamma 90.000000
_cell_volume 3896.939403
_symmetry_space_group_name_H-M "C 2/M"
_symmetry_group_IT_number 12
_symmetry_cell_setting 'monoclinic'
loop_
_space_group_symop_operation_xyz
x,y,z
-x,y,-z
-x,-y,-z
x,-y,z
1/2+x,1/2+y,z
1/2-x,1/2+y,-z
1/2-x,1/2-y,-z
1/2+x,1/2-y,z
loop_
_atom_site_type_symbol
_atom_site_label
_atom_site_fract_x
_atom_site_fract_y
_atom_site_fract_z
Si Si1 0.135598 0.449740 0.193396
Si Si2 0.202058 0.674198 0.113968
Si Si3 0.435276 0.849838 0.691616
Si Si4 0.920072 0.792241 0.508315
Si Si5 0.243898 0.287953 0.550301
Si Si6 0.232584 0.801073 0.965966
Si Si7 0.325096 0.577735 0.218911
Si Si8 0.194892 0.550955 0.388853
O O1 0.205224 0.500000 0.231017
O O2 0.266155 0.419274 0.247149
O O3 0.181681 0.443121 0.302528
O O4 0.880920 0.444769 0.976892
O O5 0.368157 0.705189 0.281196
O O6 0.132756 0.693896 0.993133
O O7 0.326455 0.628214 0.196165
O O8 0.000000 0.664370 0.000000
O O9 0.251378 0.828061 0.595388
O O10 0.397286 0.826441 0.593977
O O11 0.415969 0.903515 0.672991
O O12 0.661024 0.833413 0.899264
O O13 0.830253 0.741822 0.448123
O O14 0.000000 0.801966 0.500000
O O15 0.250000 0.250000 0.500000
O O16 0.480757 0.307616 0.751085
O O17 0.250000 0.750000 0.000000
O O18 0.554424 0.554072 0.392924
O O19 0.114151 0.500000 0.339102
#
# Coordination Sequence:
#
# PCOD9189595 Si02
#       8
#     8   8   8   8   8   8   8   8
#     4  10  20  31  41  58  85 119 163 210 248 282
#     4  12  22  31  46  74  99 127 176 214 242 294
#     4  11  21  35  54  69 102 136 169 208 253 297
#     4  11  21  33  50  74 103 128 163 212 252 294
#     4  10  19  38  51  73  97 126 170 208 248 313
#     4  12  20  34  54  70  93 133 168 202 260 307
#     4  11  19  32  45  59  89 127 165 206 255 278
#     4  11  22  33  48  69  92 127 174 214 248 286
#
# _framework density 16.423145000000002
#
# number of rings (size 3 to 8) (size 9 to 14) (size 15 to 20)
#    0.000    1.000    7.500    3.375    1.750    1.000 
#    0.000    0.000    0.000    0.000    0.000    0.000 
#    0.000    0.500    0.000    1.125    0.000    0.000 
#
# Total GULP energy -178381.887630 kJ/mol
# GULP energy per Si atom -5574.433988 kJ/mol
# Density = 1.638577 g / cm^3
# Si number density = 16.423145 Si / 1000 Ang^3
#
#
#
# Elastic Constant Matrix: (Units=GPa)
#
#
# Indices 1 2 3 4 5 6 
#
# 1 22.8403 16.4572 -4.3914 0.0008 -6.1782 0.0003
# 2 16.4572 109.7273 16.0159 -0.0003 -2.3765 0.0000
# 3 -4.3914 16.0159 81.9977 -0.0009 -6.9814 0.0006
# 4 0.0008 -0.0003 -0.0009 21.6648 0.0007 -1.0317
# 5 -6.1782 -2.3765 -6.9814 0.0007 16.3389 0.0006
# 6 0.0003 0.0000 0.0006 -1.0317 0.0006 21.8186
#
#
#
# Elastic Compliance Matrix: (Units=1/GPa)
#
#
# Indices 1 2 3 4 5 6 
#
# 1 0.058141 -0.009220 0.006924 -0.000003 0.023602 -0.000002
# 2 -0.009220 0.010849 -0.002880 0.000000 -0.003139 0.000000
# 3 0.006924 -0.002880 0.013819 0.000000 0.008104 -0.000001
# 4 -0.000003 0.000000 0.000000 0.046262 -0.000003 0.002188
# 5 0.023602 -0.003139 0.008104 -0.000003 0.073134 -0.000003
# 6 -0.000002 0.000000 -0.000001 0.002188 -0.000003 0.045936
#
#
# Mechanical properties :
#
#
# Convention : Reuss Voigt Hill
#
# Bulk Modulus (GPa) = 13.80123 30.08098 21.94110
# Shear Modulus (GPa) = 17.69009 24.39670 21.04339
#
# Velocity S-wave (km/s) = 3.28555 3.85841 3.58344
# Velocity P-wave (km/s) = 4.77649 6.18108 5.52361
#
# Compressibility (1/GPa) = 0.07245731
#
# Stress axis : x y z
#
# Youngs Moduli (GPa) = 17.19961 92.17730 72.36528
#
# Poissons Ratio (x) = 0.84984 -0.50106
# Poissons Ratio (y) = 0.15857 0.20841
# Poissons Ratio (z) = -0.11909 0.26547
#
# Static dielectric constant tensor:
#      x y z
#    x 1.564210 0.000000 0.000900 
#    y 0.000000 1.590100 0.000000 
#    z 0.000900 0.000000 1.619190 
# 
# From -- ./inp_files/318659.got.cif
#   From: 2010.05.17/outbox.cif.g08.bks.cpg/sg12_160_cif.got.tgz:318659.got - 2010.06.03 13:09:07.
