data_PCOD9189998
_publ_section_title
;
Structure prediction by ZEFSAII (Michael W. Deem and Ramdas Pophale) SiO2 
 PCOD9189998
Probable space group: C 2/M
;
_chemical_formula_sum "Si O2"
_cell_formula_units_Z 58
_cell_length_a 17.513929
_cell_length_b 14.415314
_cell_length_c 11.833217
_cell_angle_alpha 90.000000
_cell_angle_beta 93.133700
_cell_angle_gamma 90.000000
_cell_volume 2983.050663
_symmetry_space_group_name_H-M "C 2/M"
_symmetry_group_IT_number 12
_symmetry_cell_setting 'monoclinic'
loop_
_space_group_symop_operation_xyz
x,y,z
-x,y,-z
-x,-y,-z
x,-y,z
1/2+x,1/2+y,z
1/2-x,1/2+y,-z
1/2-x,1/2-y,-z
1/2+x,1/2-y,z
loop_
_atom_site_type_symbol
_atom_site_label
_atom_site_fract_x
_atom_site_fract_y
_atom_site_fract_z
Si Si1 0.488016 0.607463 0.288910
Si Si2 0.607605 0.844862 0.907970
Si Si3 0.788411 0.252997 0.248260
Si Si4 0.844499 0.108494 0.695014
Si Si5 0.000000 0.500000 0.000000
Si Si6 0.578575 0.639721 0.954969
Si Si7 0.741620 0.601382 0.945551
Si Si8 0.853205 0.890843 0.425265
O O1 0.506384 0.500000 0.310070
O O2 0.570969 0.647642 0.266184
O O3 0.430943 0.616638 0.178616
O O4 0.439166 0.636332 0.393053
O O5 0.635824 0.809827 0.786504
O O6 0.583838 0.749825 0.967536
O O7 0.542046 0.919165 0.924432
O O8 0.685332 0.883402 0.970739
O O9 0.722270 0.326595 0.265593
O O10 0.764931 0.185736 0.142576
O O11 0.802048 0.183506 0.354101
O O12 0.843299 0.112531 0.558153
O O13 0.834641 0.000000 0.727759
O O14 0.659769 0.602073 0.002433
O O15 0.500000 0.603925 0.000000
O O16 0.749334 0.500000 0.890711
O O17 0.841616 0.000000 0.390088
#
# Coordination Sequence:
#
# PCOD9189998 Si02
#       8
#     8   8   8   8   2   8   8   8
#     4  10  20  36  57  85 117 153 187 234 293 363
#     4  11  24  40  60  81 117 154 206 245 286 356
#     4  11  22  38  60  87 117 156 197 249 295 348
#     4  10  23  36  58  89 120 153 198 242 304 351
#     4  12  24  44  60  80 108 170 198 242 296 336
#     4  11  22  36  59  87 120 152 192 242 298 355
#     4  11  23  40  59  86 118 159 194 244 299 355
#     4  10  19  39  62  85 118 155 194 246 302 359
#
# _framework density 19.443183999999999
#
# number of rings (size 3 to 8) (size 9 to 14) (size 15 to 20)
#    0.000    1.379    4.138    3.310    4.828    2.759 
#    0.000    0.000    0.000    0.000    0.000    0.000 
#    0.000    8.828    0.000    0.000    0.000    0.000 
#
# Total GULP energy -161468.285367 kJ/mol
# GULP energy per Si atom -5567.871909 kJ/mol
# Density = 1.939893 g / cm^3
# Si number density = 19.443184 Si / 1000 Ang^3
#
#
#
# Elastic Constant Matrix: (Units=GPa)
#
#
# Indices 1 2 3 4 5 6 
#
# 1 90.6029 33.1536 12.7756 0.0000 -18.4096 0.0000
# 2 33.1536 123.2192 14.8688 0.0000 -14.3051 0.0000
# 3 12.7756 14.8688 45.8586 0.0000 -7.2585 0.0000
# 4 0.0000 0.0000 0.0000 23.5858 0.0000 2.9604
# 5 -18.4096 -14.3051 -7.2585 0.0000 29.9573 0.0000
# 6 0.0000 0.0000 0.0000 2.9604 0.0000 16.7957
#
#
#
# Elastic Compliance Matrix: (Units=1/GPa)
#
#
# Indices 1 2 3 4 5 6 
#
# 1 0.013629 -0.002669 -0.001880 0.000000 0.006646 0.000000
# 2 -0.002669 0.009338 -0.001911 0.000000 0.002356 0.000000
# 3 -0.001880 -0.001911 0.023524 0.000000 0.003632 0.000000
# 4 0.000000 0.000000 0.000000 0.043358 0.000000 -0.007642
# 5 0.006646 0.002356 0.003632 0.000000 0.039470 0.000000
# 6 0.000000 0.000000 0.000000 -0.007642 0.000000 0.060886
#
#
# Mechanical properties :
#
#
# Convention : Reuss Voigt Hill
#
# Bulk Modulus (GPa) = 29.78681 42.36405 36.07543
# Shear Modulus (GPa) = 23.33017 27.32661 25.32839
#
# Velocity S-wave (km/s) = 3.46774 3.75301 3.61319
# Velocity P-wave (km/s) = 5.60239 6.37307 6.00012
#
# Compressibility (1/GPa) = 0.03357191
#
# Stress axis : x y z
#
# Youngs Moduli (GPa) = 73.37239 107.09156 42.50904
#
# Poissons Ratio (x) = 0.28580 0.07991
# Poissons Ratio (y) = 0.19581 0.08125
# Poissons Ratio (z) = 0.13792 0.20468
#
# Static dielectric constant tensor:
#      x y z
#    x 1.739260 0.000000 -0.010830 
#    y 0.000000 1.671060 0.000000 
#    z -0.010830 0.000000 1.718640 
# 
# From -- ./inp_files/156071.got.cif
#   From: 2010.05.17/outbox.cif.g08.bks.cpg/sg12_79_cif.got.tgz:156071.got - 2010.06.03 13:09:07.
