data_PCOD9189421
_publ_section_title
;
Structure prediction by ZEFSAII (Michael W. Deem and Ramdas Pophale) SiO2 
 PCOD9189421
Probable space group: C 2/M
;
_chemical_formula_sum "Si O2"
_cell_formula_units_Z 56
_cell_length_a 24.638589
_cell_length_b 24.429217
_cell_length_c 14.789787
_cell_angle_alpha 90.000000
_cell_angle_beta 163.533810
_cell_angle_gamma 90.000000
_cell_volume 2523.265761
_symmetry_space_group_name_H-M "C 2/M"
_symmetry_group_IT_number 12
_symmetry_cell_setting 'monoclinic'
loop_
_space_group_symop_operation_xyz
x,y,z
-x,y,-z
-x,-y,-z
x,-y,z
1/2+x,1/2+y,z
1/2-x,1/2+y,-z
1/2-x,1/2-y,-z
1/2+x,1/2-y,z
loop_
_atom_site_type_symbol
_atom_site_label
_atom_site_fract_x
_atom_site_fract_y
_atom_site_fract_z
Si Si1 0.990196 0.856772 0.084034
Si Si2 0.922587 0.789844 0.254010
Si Si3 0.108091 0.564973 0.987690
Si Si4 0.010282 0.937900 0.282966
Si Si5 0.915543 0.334778 0.764834
Si Si6 0.332892 0.738583 0.915109
Si Si7 0.825216 0.911124 0.161290
O O1 0.978522 0.900244 0.145778
O O2 0.190948 0.824527 0.413911
O O3 0.000000 0.881937 0.000000
O O4 0.828280 0.809800 0.833633
O O5 0.872891 0.847679 0.218840
O O6 0.125593 0.764056 0.604558
O O7 0.750000 0.750000 0.000000
O O8 0.919724 0.791981 0.140892
O O9 0.070255 0.500000 0.935803
O O10 0.299408 0.577939 0.354181
O O11 0.150281 0.579236 0.949726
O O12 0.950459 0.606200 0.773985
O O13 0.838415 0.935412 0.082056
O O14 0.038637 0.000000 0.298781
O O15 0.000000 0.337426 0.000000
O O16 0.033506 0.288522 0.900928
O O17 0.000000 0.935300 0.500000
#
# Coordination Sequence:
#
# PCOD9189421 Si02
#       7
#     8   8   8   8   8   8   8
#     4  12  25  42  62  94 133 181 225 263 322 393
#     4  12  23  39  65  99 133 170 210 269 331 402
#     4  10  21  38  67 100 129 166 221 286 340 382
#     4  10  20  39  64  94 129 170 220 275 333 390
#     4  12  23  41  66  95 132 176 226 279 319 380
#     4  12  24  42  62  94 135 174 221 269 325 393
#     4  10  19  37  62  96 129 162 213 274 338 390
#
# _framework density 22.193460999999999
#
# number of rings (size 3 to 8) (size 9 to 14) (size 15 to 20)
#    0.000    0.857    2.857    6.857    0.000    2.857 
#    0.000    0.000    0.000    0.000    0.000    3.000 
#    0.000    0.000    0.000    0.000    0.000    0.000 
#
# Total GULP energy -156532.584700 kJ/mol
# GULP energy per Si atom -5590.449454 kJ/mol
# Density = 2.214295 g / cm^3
# Si number density = 22.193461 Si / 1000 Ang^3
#
#
#
# Elastic Constant Matrix: (Units=GPa)
#
#
# Indices 1 2 3 4 5 6 
#
# 1 127.0684 51.0350 13.1656 0.0000 -15.1873 0.0000
# 2 51.0350 139.5519 19.5783 0.0000 4.0089 0.0000
# 3 13.1656 19.5783 45.5706 0.0000 6.7841 -0.0001
# 4 0.0000 0.0000 0.0000 19.5451 0.0000 2.9921
# 5 -15.1873 4.0089 6.7841 0.0000 27.1596 0.0000
# 6 0.0000 0.0000 -0.0001 2.9921 0.0000 14.1117
#
#
#
# Elastic Compliance Matrix: (Units=1/GPa)
#
#
# Indices 1 2 3 4 5 6 
#
# 1 0.010437 -0.003670 -0.002480 0.000000 0.006998 0.000000
# 2 -0.003670 0.008919 -0.002358 0.000000 -0.002780 0.000000
# 3 -0.002480 -0.002358 0.024748 0.000000 -0.007221 0.000000
# 4 0.000000 0.000000 0.000000 0.052880 0.000000 -0.011212
# 5 0.006998 -0.002780 -0.007221 0.000000 0.042946 0.000000
# 6 0.000000 0.000000 0.000000 -0.011212 0.000000 0.073240
#
#
# Mechanical properties :
#
#
# Convention : Reuss Voigt Hill
#
# Bulk Modulus (GPa) = 36.91631 53.30541 45.11086
# Shear Modulus (GPa) = 20.90161 27.39075 24.14618
#
# Velocity S-wave (km/s) = 3.07219 3.51690 3.30204
# Velocity P-wave (km/s) = 5.40874 6.36884 5.90832
#
# Compressibility (1/GPa) = 0.02708830
#
# Stress axis : x y z
#
# Youngs Moduli (GPa) = 95.81205 112.12626 40.40675
#
# Poissons Ratio (x) = 0.41150 0.10022
# Poissons Ratio (y) = 0.35163 0.09526
# Poissons Ratio (z) = 0.23765 0.26434
#
# Static dielectric constant tensor:
#      x y z
#    x 1.906550 0.000000 -0.005840 
#    y 0.000000 1.821610 0.000000 
#    z -0.005840 0.000000 1.817290 
# 
# From -- ./inp_files/242176.got.cif
#   From: 2010.05.17/outbox.cif.g08.bks.cpg/sg12_122_cif.got.tgz:242176.got - 2010.06.03 13:09:07.
