data_PCOD9189683
_publ_section_title
;
Structure prediction by ZEFSAII (Michael W. Deem and Ramdas Pophale) SiO2 
 PCOD9189683
Probable space group: C 2/M
;
_chemical_formula_sum "Si O2"
_cell_formula_units_Z 60
_cell_length_a 20.761930
_cell_length_b 27.189111
_cell_length_c 12.419599
_cell_angle_alpha 90.000000
_cell_angle_beta 29.158611
_cell_angle_gamma 90.000000
_cell_volume 3415.886201
_symmetry_space_group_name_H-M "C 2/M"
_symmetry_group_IT_number 12
_symmetry_cell_setting 'monoclinic'
loop_
_space_group_symop_operation_xyz
x,y,z
-x,y,-z
-x,-y,-z
x,-y,z
1/2+x,1/2+y,z
1/2-x,1/2+y,-z
1/2-x,1/2-y,-z
1/2+x,1/2-y,z
loop_
_atom_site_type_symbol
_atom_site_label
_atom_site_fract_x
_atom_site_fract_y
_atom_site_fract_z
Si Si1 0.879502 0.386238 0.599049
Si Si2 0.566069 0.200383 0.642906
Si Si3 0.619816 0.309841 0.489196
Si Si4 0.120895 0.838741 0.029694
Si Si5 0.000000 0.890136 0.000000
Si Si6 0.721448 0.233403 0.920545
Si Si7 0.142139 0.639588 0.734583
Si Si8 0.774553 0.558106 0.547466
O O1 0.910417 0.334713 0.493384
O O2 0.851479 0.424058 0.542963
O O3 0.000000 0.399768 0.500000
O O4 0.744797 0.375301 0.861382
O O5 0.609720 0.256380 0.561313
O O6 0.637724 0.177280 0.640628
O O7 0.408986 0.200386 0.891580
O O8 0.481553 0.335360 0.721876
O O9 0.658588 0.294337 0.311745
O O10 0.739816 0.342172 0.361100
O O11 0.042689 0.856758 0.038529
O O12 0.178753 0.784191 0.925400
O O13 0.875099 0.922983 0.215692
O O14 0.750000 0.250000 0.000000
O O15 0.170526 0.587449 0.636104
O O16 0.000000 0.640170 0.000000
O O17 0.780992 0.500000 0.525561
#
# Coordination Sequence:
#
# PCOD9189683 Si02
#       8
#     8   8   8   8   4   8   8   8
#     4  10  20  37  57  83 119 152 189 233 286 339
#     4  10  21  32  52  79 111 154 187 228 276 329
#     4  11  21  35  53  80 114 154 195 229 279 337
#     4  10  21  34  56  82 113 156 192 233 281 334
#     4  10  19  38  60  86 118 140 184 246 297 352
#     4  11  22  34  51  76 115 156 201 232 266 327
#     4  11  21  37  55  81 112 145 190 236 290 347
#     4  10  22  38  61  88 112 145 188 244 304 353
#
# _framework density 17.564988
#
# number of rings (size 3 to 8) (size 9 to 14) (size 15 to 20)
#    0.000    1.600    4.000    1.400    0.000    4.267 
#    0.000    0.000    0.000    0.000    0.000    0.000 
#    0.000    2.133    0.000    0.000    0.000    0.000 
#
# Total GULP energy -167401.103039 kJ/mol
# GULP energy per Si atom -5580.036768 kJ/mol
# Density = 1.752501 g / cm^3
# Si number density = 17.564988 Si / 1000 Ang^3
#
#
#
# Elastic Constant Matrix: (Units=GPa)
#
#
# Indices 1 2 3 4 5 6 
#
# 1 89.3702 30.8103 31.5964 0.0038 -5.2886 -0.0028
# 2 30.8103 89.5403 26.3123 0.0008 5.6302 -0.0012
# 3 31.5964 26.3123 113.2903 0.0012 5.2995 -0.0031
# 4 0.0038 0.0008 0.0012 14.1123 -0.0023 0.3762
# 5 -5.2886 5.6302 5.2995 -0.0023 23.0367 0.0028
# 6 -0.0028 -0.0012 -0.0031 0.3762 0.0028 3.4336
#
#
#
# Elastic Compliance Matrix: (Units=1/GPa)
#
#
# Indices 1 2 3 4 5 6 
#
# 1 0.014062 -0.004219 -0.003175 -0.000003 0.004990 0.000003
# 2 -0.004219 0.013375 -0.001750 0.000000 -0.003835 0.000003
# 3 -0.003175 -0.001750 0.010243 -0.000001 -0.002658 0.000008
# 4 -0.000003 0.000000 -0.000001 0.071068 0.000008 -0.007786
# 5 0.004990 -0.003835 -0.002658 0.000008 0.046103 -0.000038
# 6 0.000003 0.000003 0.000008 -0.007786 -0.000038 0.292093
#
#
# Mechanical properties :
#
#
# Convention : Reuss Voigt Hill
#
# Bulk Modulus (GPa) = 51.57091 52.18207 51.87649
# Shear Modulus (GPa) = 10.59999 21.68198 16.14098
#
# Velocity S-wave (km/s) = 2.45923 3.51719 3.03467
# Velocity P-wave (km/s) = 6.12271 6.80196 6.47125
#
# Compressibility (1/GPa) = 0.01939078
#
# Stress axis : x y z
#
# Youngs Moduli (GPa) = 71.11410 74.76359 97.62457
#
# Poissons Ratio (x) = 0.31545 0.30999
# Poissons Ratio (y) = 0.30005 0.17088
# Poissons Ratio (z) = 0.22581 0.13087
#
# Static dielectric constant tensor:
#      x y z
#    x 1.632750 0.000000 0.020640 
#    y 0.000000 1.564090 0.000000 
#    z 0.020640 0.000000 1.658190 
# 
# From -- ./inp_files/170768.got.cif
#   From: 2010.05.17/outbox.cif.g08.bks.cpg/sg12_86_cif.got.tgz:170768.got - 2010.06.03 13:09:07.
