data_PCOD9189654
_publ_section_title
;
Structure prediction by ZEFSAII (Michael W. Deem and Ramdas Pophale) SiO2 
 PCOD9189654
Probable space group: C 2/M
;
_chemical_formula_sum "Si O2"
_cell_formula_units_Z 48
_cell_length_a 21.890226
_cell_length_b 14.498031
_cell_length_c 18.376021
_cell_angle_alpha 90.000000
_cell_angle_beta 155.686967
_cell_angle_gamma 90.000000
_cell_volume 2401.123327
_symmetry_space_group_name_H-M "C 2/M"
_symmetry_group_IT_number 12
_symmetry_cell_setting 'monoclinic'
loop_
_space_group_symop_operation_xyz
x,y,z
-x,y,-z
-x,-y,-z
x,-y,z
1/2+x,1/2+y,z
1/2-x,1/2+y,-z
1/2-x,1/2-y,-z
1/2+x,1/2-y,z
loop_
_atom_site_type_symbol
_atom_site_label
_atom_site_fract_x
_atom_site_fract_y
_atom_site_fract_z
Si Si1 0.372458 0.389908 0.653953
Si Si2 0.788579 0.397904 0.921583
Si Si3 0.712092 0.257095 0.568329
Si Si4 0.586155 0.101200 0.168032
Si Si5 0.281450 0.349580 0.997006
Si Si6 0.582334 0.225018 0.666267
O O1 0.347060 0.500000 0.626639
O O2 0.296576 0.333343 0.505486
O O3 0.300673 0.334844 0.643508
O O4 0.547882 0.370160 0.836258
O O5 0.761708 0.500000 0.859826
O O6 0.678634 0.319990 0.770569
O O7 0.766378 0.406507 0.984155
O O8 0.959941 0.373472 0.090364
O O9 0.800445 0.316839 0.722361
O O10 0.549265 0.236236 0.418457
O O11 0.650665 0.000000 0.256383
O O12 0.500000 0.091809 0.000000
O O13 0.189704 0.349912 0.821906
O O14 0.250000 0.250000 0.000000
O O15 0.500000 0.206361 0.500000
#
# Coordination Sequence:
#
# PCOD9189654 Si02
#       6
#     8   8   8   8   8   8
#     4  11  23  39  63  92 121 161 209 263 311 366
#     4  10  20  35  59  87 120 162 203 250 310 376
#     4  11  22  37  62  91 126 157 204 262 311 380
#     4  10  21  36  57  90 130 167 201 250 324 391
#     4  10  19  38  59  84 120 159 208 245 305 371
#     4  11  23  38  61  90 122 160 204 256 316 372
#
# _framework density 19.990642999999999
#
# number of rings (size 3 to 8) (size 9 to 14) (size 15 to 20)
#    0.000    1.500    3.333    4.000    2.333    1.000 
#    0.000    0.833    0.000    8.000    0.000    0.000 
#    0.000    0.000    0.000    0.000    0.000    0.000 
#
# Total GULP energy -133665.890180 kJ/mol
# GULP energy per Si atom -5569.412091 kJ/mol
# Density = 1.994514 g / cm^3
# Si number density = 19.990643 Si / 1000 Ang^3
#
#
#
# Elastic Constant Matrix: (Units=GPa)
#
#
# Indices 1 2 3 4 5 6 
#
# 1 46.2976 21.8656 18.1082 0.0001 0.7035 0.0000
# 2 21.8656 110.0612 32.9519 0.0006 10.7812 0.0003
# 3 18.1082 32.9519 78.0348 0.0004 -3.3452 0.0003
# 4 0.0001 0.0006 0.0004 36.2090 0.0003 0.5954
# 5 0.7035 10.7812 -3.3452 0.0003 47.3030 0.0001
# 6 0.0000 0.0003 0.0003 0.5954 0.0001 18.0168
#
#
#
# Elastic Compliance Matrix: (Units=1/GPa)
#
#
# Indices 1 2 3 4 5 6 
#
# 1 0.025006 -0.003721 -0.004224 0.000000 0.000177 0.000000
# 2 -0.003721 0.011307 -0.004032 0.000000 -0.002807 0.000000
# 3 -0.004224 -0.004032 0.015587 0.000000 0.002084 0.000000
# 4 0.000000 0.000000 0.000000 0.027632 0.000000 -0.000913
# 5 0.000177 -0.002807 0.002084 0.000000 0.021925 0.000000
# 6 0.000000 0.000000 0.000000 -0.000913 0.000000 0.055534
#
#
# Mechanical properties :
#
#
# Convention : Reuss Voigt Hill
#
# Bulk Modulus (GPa) = 35.78154 42.24943 39.01549
# Shear Modulus (GPa) = 26.27996 31.07029 28.67513
#
# Velocity S-wave (km/s) = 3.62969 3.94666 3.79149
# Velocity P-wave (km/s) = 5.95854 6.47678 6.22306
#
# Compressibility (1/GPa) = 0.02794737
#
# Stress axis : x y z
#
# Youngs Moduli (GPa) = 39.99043 88.44077 64.15709
#
# Poissons Ratio (x) = 0.32905 0.27100
# Poissons Ratio (y) = 0.14879 0.25865
# Poissons Ratio (z) = 0.16892 0.35656
#
# Static dielectric constant tensor:
#      x y z
#    x 1.755700 0.000000 -0.046810 
#    y 0.000000 1.685070 0.000000 
#    z -0.046810 0.000000 1.744650 
# 
# From -- ./inp_files/325699.got.cif
#   From: 2010.05.17/outbox.cif.g08.bks.cpg/sg12_163_cif.got.tgz:325699.got - 2010.06.03 13:09:07.
