data_PCOD9189736
_publ_section_title
;
Structure prediction by ZEFSAII (Michael W. Deem and Ramdas Pophale) SiO2 
 PCOD9189736
Probable space group: C 2/M
;
_chemical_formula_sum "Si O2"
_cell_formula_units_Z 48
_cell_length_a 13.988767
_cell_length_b 25.243581
_cell_length_c 11.580645
_cell_angle_alpha 90.000000
_cell_angle_beta 148.833593
_cell_angle_gamma 90.000000
_cell_volume 2116.385751
_symmetry_space_group_name_H-M "C 2/M"
_symmetry_group_IT_number 12
_symmetry_cell_setting 'monoclinic'
loop_
_space_group_symop_operation_xyz
x,y,z
-x,y,-z
-x,-y,-z
x,-y,z
1/2+x,1/2+y,z
1/2-x,1/2+y,-z
1/2-x,1/2-y,-z
1/2+x,1/2-y,z
loop_
_atom_site_type_symbol
_atom_site_label
_atom_site_fract_x
_atom_site_fract_y
_atom_site_fract_z
Si Si1 0.680613 0.939297 0.576683
Si Si2 0.730457 0.288392 0.294550
Si Si3 0.128590 0.294869 0.812206
Si Si4 0.921109 0.124813 0.682166
Si Si5 0.261791 0.935483 0.108713
Si Si6 0.400174 0.829226 0.788241
O O1 0.813269 0.927524 0.609885
O O2 0.477350 0.916924 0.339166
O O3 0.783006 0.926769 0.802111
O O4 0.638016 0.000000 0.544956
O O5 0.759243 0.306723 0.191475
O O6 0.630342 0.332653 0.269976
O O7 0.635674 0.232141 0.216980
O O8 0.932879 0.278124 0.555974
O O9 0.046283 0.329157 0.833986
O O10 0.250000 0.250000 0.000000
O O11 0.801250 0.147063 0.451923
O O12 0.131075 0.103770 0.899387
O O13 0.245955 0.000000 0.066325
O O14 0.500000 0.855780 0.000000
#
# Coordination Sequence:
#
# PCOD9189736 Si02
#       6
#     8   8   8   8   8   8
#     4   9  19  37  58  89 126 154 194 251 311 380
#     4  10  23  40  55  90 118 160 215 251 302 361
#     4  10  19  38  62  77 110 164 205 253 306 349
#     4  11  21  36  58  93 124 158 205 254 308 367
#     4   9  19  37  62  90 124 161 193 246 320 378
#     4  11  23  42  57  83 124 164 213 254 303 355
#
# _framework density 22.680174999999998
#
# number of rings (size 3 to 8) (size 9 to 14) (size 15 to 20)
#    0.000    2.000    1.667    4.000    0.000    8.000 
#   18.000    0.000    0.000    2.000    0.000    2.333 
#    0.000    0.000    0.000    0.000    0.000    2.667 
#
# Total GULP energy -133646.715484 kJ/mol
# GULP energy per Si atom -5568.613145 kJ/mol
# Density = 2.262855 g / cm^3
# Si number density = 22.680175 Si / 1000 Ang^3
#
#
#
# Elastic Constant Matrix: (Units=GPa)
#
#
# Indices 1 2 3 4 5 6 
#
# 1 60.3247 14.4603 48.4904 0.0000 -7.5298 0.0000
# 2 14.4603 63.1234 33.7066 0.0000 -5.9425 0.0000
# 3 48.4904 33.7066 182.8620 0.0000 -0.0209 0.0000
# 4 0.0000 0.0000 0.0000 42.2649 0.0000 9.5956
# 5 -7.5298 -5.9425 -0.0209 0.0000 44.0008 0.0000
# 6 0.0000 0.0000 0.0000 9.5956 0.0000 20.2186
#
#
#
# Elastic Compliance Matrix: (Units=1/GPa)
#
#
# Indices 1 2 3 4 5 6 
#
# 1 0.021826 -0.001753 -0.005464 0.000000 0.003496 0.000000
# 2 -0.001753 0.017963 -0.002846 0.000000 0.002125 0.000000
# 3 -0.005464 -0.002846 0.007442 0.000000 -0.001316 0.000000
# 4 0.000000 0.000000 0.000000 0.026518 0.000000 -0.012585
# 5 0.003496 0.002125 -0.001316 0.000000 0.023611 0.000000
# 6 0.000000 0.000000 0.000000 -0.012585 0.000000 0.055432
#
#
# Mechanical properties :
#
#
# Convention : Reuss Voigt Hill
#
# Bulk Modulus (GPa) = 36.89402 55.51386 46.20394
# Shear Modulus (GPa) = 27.47957 35.27372 31.37664
#
# Velocity S-wave (km/s) = 3.48460 3.94797 3.72350
# Velocity P-wave (km/s) = 5.70020 6.73141 6.23715
#
# Compressibility (1/GPa) = 0.02710467
#
# Stress axis : x y z
#
# Youngs Moduli (GPa) = 45.81758 55.66897 134.37249
#
# Poissons Ratio (x) = 0.09759 0.73422
# Poissons Ratio (y) = 0.08032 0.38243
# Poissons Ratio (z) = 0.25035 0.15844
#
# Static dielectric constant tensor:
#      x y z
#    x 1.873610 0.000000 0.010320 
#    y 0.000000 1.954400 0.000000 
#    z 0.010320 0.000000 1.923740 
# 
# From -- ./inp_files/149871.got.cif
#   From: 2010.05.17/outbox.cif.g08.bks.cpg/sg12_75_cif.got.tgz:149871.got - 2010.06.03 13:09:07.
