data_PCOD9189152
_publ_section_title
;
Structure prediction by ZEFSAII (Michael W. Deem and Ramdas Pophale) SiO2 
 PCOD9189152
Probable space group: C 2/M
;
_chemical_formula_sum "Si O2"
_cell_formula_units_Z 48
_cell_length_a 11.385960
_cell_length_b 23.044860
_cell_length_c 19.478522
_cell_angle_alpha 90.000000
_cell_angle_beta 148.424430
_cell_angle_gamma 90.000000
_cell_volume 2676.197682
_symmetry_space_group_name_H-M "C 2/M"
_symmetry_group_IT_number 12
_symmetry_cell_setting 'monoclinic'
loop_
_space_group_symop_operation_xyz
x,y,z
-x,y,-z
-x,-y,-z
x,-y,z
1/2+x,1/2+y,z
1/2-x,1/2+y,-z
1/2-x,1/2-y,-z
1/2+x,1/2-y,z
loop_
_atom_site_type_symbol
_atom_site_label
_atom_site_fract_x
_atom_site_fract_y
_atom_site_fract_z
Si Si1 0.978130 0.935272 0.387797
Si Si2 0.448340 0.330187 0.120311
Si Si3 0.328159 0.566262 0.850552
Si Si4 0.037476 0.699972 0.175079
Si Si5 0.228772 0.622508 0.147483
Si Si6 0.654353 0.890322 0.340852
O O1 0.170882 0.891672 0.509388
O O2 0.880076 0.922426 0.264385
O O3 0.775166 0.927995 0.341189
O O4 0.070266 0.000000 0.438325
O O5 0.586586 0.383519 0.158034
O O6 0.571303 0.268506 0.186517
O O7 0.360876 0.347570 0.151766
O O8 0.226204 0.316584 0.963963
O O9 0.329213 0.500000 0.823341
O O10 0.081056 0.582800 0.754087
O O11 0.500000 0.567203 0.000000
O O12 0.154863 0.668739 0.168848
O O13 0.120172 0.671415 0.286905
O O14 0.000000 0.597822 0.000000
#
# Coordination Sequence:
#
# PCOD9189152 Si02
#       6
#     8   8   8   8   8   8
#     4  10  20  36  61  82 113 156 193 238 284 339
#     4  10  20  35  56  84 116 154 184 236 298 342
#     4  11  22  34  55  87 121 153 192 238 286 342
#     4   9  19  34  59  81 113 149 197 240 282 343
#     4   9  20  36  54  84 110 143 193 241 286 344
#     4  10  19  37  58  86 110 151 198 240 276 337
#
# _framework density 17.935894999999999
#
# number of rings (size 3 to 8) (size 9 to 14) (size 15 to 20)
#    0.000    2.167    1.667    2.000    2.333    1.667 
#    0.000    1.667    7.333    2.000    0.000    0.000 
#    0.000    0.000    0.000    0.000    0.000    0.000 
#
# Total GULP energy -133799.251816 kJ/mol
# GULP energy per Si atom -5574.968826 kJ/mol
# Density = 1.789507 g / cm^3
# Si number density = 17.935895 Si / 1000 Ang^3
#
#
#
# Elastic Constant Matrix: (Units=GPa)
#
#
# Indices 1 2 3 4 5 6 
#
# 1 47.2902 39.8393 45.9457 0.0029 6.4512 -0.0010
# 2 39.8393 132.6883 44.5831 -0.0001 -0.6301 -0.0010
# 3 45.9457 44.5831 98.1104 0.0202 -7.6960 0.0010
# 4 0.0029 -0.0001 0.0202 21.5746 0.0058 -1.3982
# 5 6.4512 -0.6301 -7.6960 0.0058 31.6650 -0.0001
# 6 -0.0010 -0.0010 0.0010 -1.3982 -0.0001 13.5541
#
#
#
# Elastic Compliance Matrix: (Units=1/GPa)
#
#
# Indices 1 2 3 4 5 6 
#
# 1 0.050970 -0.008194 -0.021381 0.000018 -0.015744 0.000006
# 2 -0.008194 0.010233 -0.000679 0.000001 0.001708 0.000000
# 3 -0.021381 -0.000679 0.021260 -0.000020 0.009509 -0.000005
# 4 0.000018 0.000001 -0.000020 0.046663 -0.000017 0.004814
# 5 -0.015744 0.001708 0.009509 -0.000017 0.037133 -0.000003
# 6 0.000006 0.000000 -0.000005 0.004814 -0.000003 0.074275
#
#
# Mechanical properties :
#
#
# Convention : Reuss Voigt Hill
#
# Bulk Modulus (GPa) = 45.54769 59.86945 52.70857
# Shear Modulus (GPa) = 16.21482 23.20680 19.71081
#
# Velocity S-wave (km/s) = 3.00999 3.60095 3.31865
# Velocity P-wave (km/s) = 6.12617 7.12329 6.64346
#
# Compressibility (1/GPa) = 0.02195501
#
# Stress axis : x y z
#
# Youngs Moduli (GPa) = 19.61933 97.72390 47.03741
#
# Poissons Ratio (x) = 0.80079 1.00570
# Poissons Ratio (y) = 0.16077 0.03192
# Poissons Ratio (z) = 0.41948 0.06631
#
# Static dielectric constant tensor:
#      x y z
#    x 1.592280 0.000000 -0.000820 
#    y 0.000000 1.620770 0.000000 
#    z -0.000820 0.000000 1.629090 
# 
# From -- ./inp_files/134528.got.cif
#   From: 2010.05.17/outbox.cif.g08.bks.cpg/sg12_68_cif.got.tgz:134528.got - 2010.06.03 13:09:07.
