data_PCOD9189492
_publ_section_title
;
Structure prediction by ZEFSAII (Michael W. Deem and Ramdas Pophale) SiO2 
 PCOD9189492
Probable space group: C 2/M
;
_chemical_formula_sum "Si O2"
_cell_formula_units_Z 56
_cell_length_a 10.599606
_cell_length_b 30.925466
_cell_length_c 9.709106
_cell_angle_alpha 90.000000
_cell_angle_beta 113.769020
_cell_angle_gamma 90.000000
_cell_volume 2912.665837
_symmetry_space_group_name_H-M "C 2/M"
_symmetry_group_IT_number 12
_symmetry_cell_setting 'monoclinic'
loop_
_space_group_symop_operation_xyz
x,y,z
-x,y,-z
-x,-y,-z
x,-y,z
1/2+x,1/2+y,z
1/2-x,1/2+y,-z
1/2-x,1/2-y,-z
1/2+x,1/2-y,z
loop_
_atom_site_type_symbol
_atom_site_label
_atom_site_fract_x
_atom_site_fract_y
_atom_site_fract_z
Si Si1 0.285941 0.679566 0.636283
Si Si2 0.332524 0.124390 0.171553
Si Si3 0.225209 0.837269 0.848834
Si Si4 0.927673 0.321700 0.684273
Si Si5 0.973498 0.895406 0.638326
Si Si6 0.477554 0.261065 0.153782
Si Si7 0.632762 0.448905 0.155427
O O1 0.257243 0.654084 0.764562
O O2 0.149671 0.689994 0.490593
O O3 0.369052 0.645119 0.579589
O O4 0.384411 0.718896 0.717381
O O5 0.488715 0.133389 0.287368
O O6 0.265212 0.077386 0.158791
O O7 0.314470 0.141790 0.009557
O O8 0.317816 0.824726 0.759504
O O9 0.110506 0.872940 0.758985
O O10 0.144466 0.794763 0.868150
O O11 0.036469 0.284917 0.778216
O O12 0.909535 0.929452 0.715558
O O13 0.000000 0.914165 0.500000
O O14 0.500000 0.256435 0.000000
O O15 0.656097 0.500000 0.169634
O O16 0.500000 0.439982 0.000000
#
# Coordination Sequence:
#
# PCOD9189492 Si02
#       7
#     8   8   8   8   8   8   8
#     4  10  22  39  58  84 120 162 208 253 304 349
#     4  11  22  40  63  84 122 159 198 244 307 373
#     4  11  22  39  59  87 116 163 211 250 295 353
#     4  12  25  38  57  87 123 167 202 253 308 361
#     4  10  19  37  64  89 121 156 197 251 301 355
#     4  11  23  38  60  82 119 164 219 264 293 338
#     4  10  21  39  69  99 118 149 200 254 303 366
#
# _framework density 19.226372999999999
#
# number of rings (size 3 to 8) (size 9 to 14) (size 15 to 20)
#    0.000    1.286    4.286    2.143    2.000    1.429 
#    2.571    0.000    0.000    9.429    0.000    0.000 
#    0.000    0.000    0.000    0.000    0.000    0.000 
#
# Total GULP energy -156465.061591 kJ/mol
# GULP energy per Si atom -5588.037914 kJ/mol
# Density = 1.918261 g / cm^3
# Si number density = 19.226373 Si / 1000 Ang^3
#
#
#
# Elastic Constant Matrix: (Units=GPa)
#
#
# Indices 1 2 3 4 5 6 
#
# 1 38.2828 19.9576 3.5647 0.0000 9.5953 0.0000
# 2 19.9576 87.0946 33.9575 0.0000 5.4845 0.0000
# 3 3.5647 33.9575 87.2347 0.0000 0.9026 0.0000
# 4 0.0000 0.0000 0.0000 14.8469 0.0000 2.2028
# 5 9.5953 5.4845 0.9026 0.0000 26.0102 0.0000
# 6 0.0000 0.0000 0.0000 2.2028 0.0000 22.8276
#
#
#
# Elastic Compliance Matrix: (Units=1/GPa)
#
#
# Indices 1 2 3 4 5 6 
#
# 1 0.032464 -0.007433 0.001675 0.000000 -0.010467 0.000000
# 2 -0.007433 0.015426 -0.005698 0.000000 -0.000313 0.000000
# 3 0.001675 -0.005698 0.013612 0.000000 0.000111 0.000000
# 4 0.000000 0.000000 0.000000 0.068332 0.000000 -0.006594
# 5 -0.010467 -0.000313 0.000111 0.000000 0.042370 0.000000
# 6 0.000000 0.000000 0.000000 -0.006594 0.000000 0.044443
#
#
# Mechanical properties :
#
#
# Convention : Reuss Voigt Hill
#
# Bulk Modulus (GPa) = 25.91333 36.39685 31.15509
# Shear Modulus (GPa) = 19.80809 23.07910 21.44360
#
# Velocity S-wave (km/s) = 3.21324 3.46842 3.34327
# Velocity P-wave (km/s) = 5.22244 5.91707 5.58057
#
# Compressibility (1/GPa) = 0.03859018
#
# Stress axis : x y z
#
# Youngs Moduli (GPa) = 30.80354 64.82418 73.46591
#
# Poissons Ratio (x) = 0.48184 -0.12307
# Poissons Ratio (y) = 0.22896 0.41861
# Poissons Ratio (z) = -0.05160 0.36937
#
# Static dielectric constant tensor:
#      x y z
#    x 1.696090 0.000000 0.019820 
#    y 0.000000 1.638090 0.000000 
#    z 0.019820 0.000000 1.680590 
# 
# From -- ./inp_files/54821.got.cif
#   From: 2010.05.17/outbox.cif.g08.bks.cpg/sg12_28_cif.got.tgz:54821.got - 2010.06.03 13:09:07.
