data_PCOD9189134
_publ_section_title
;
Structure prediction by ZEFSAII (Michael W. Deem and Ramdas Pophale) SiO2 
 PCOD9189134
Probable space group: C 2/M
;
_chemical_formula_sum "Si O2"
_cell_formula_units_Z 48
_cell_length_a 9.741894
_cell_length_b 15.758288
_cell_length_c 31.671681
_cell_angle_alpha 90.000000
_cell_angle_beta 31.049413
_cell_angle_gamma 90.000000
_cell_volume 2507.757982
_symmetry_space_group_name_H-M "C 2/M"
_symmetry_group_IT_number 12
_symmetry_cell_setting 'monoclinic'
loop_
_space_group_symop_operation_xyz
x,y,z
-x,y,-z
-x,-y,-z
x,-y,z
1/2+x,1/2+y,z
1/2-x,1/2+y,-z
1/2-x,1/2-y,-z
1/2+x,1/2-y,z
loop_
_atom_site_type_symbol
_atom_site_label
_atom_site_fract_x
_atom_site_fract_y
_atom_site_fract_z
Si Si1 0.228038 0.331462 0.975085
Si Si2 0.442712 0.403398 0.393549
Si Si3 0.821505 0.756967 0.296269
Si Si4 0.549888 0.096566 0.416373
Si Si5 0.311855 0.093672 0.928724
Si Si6 0.881840 0.241552 0.186040
O O1 0.498836 0.329253 0.876870
O O2 0.250000 0.250000 0.000000
O O3 0.170940 0.402344 0.024826
O O4 0.000000 0.323558 0.000000
O O5 0.547223 0.500000 0.368543
O O6 0.662883 0.331080 0.335326
O O7 0.262049 0.398425 0.398977
O O8 0.237723 0.390155 0.486405
O O9 0.628347 0.831866 0.362507
O O10 0.943458 0.777198 0.218276
O O11 0.067729 0.748795 0.263037
O O12 0.560812 0.000000 0.396766
O O13 0.481086 0.169206 0.863355
O O14 0.393810 0.000000 0.892185
O O15 0.000000 0.106148 0.000000
#
# Coordination Sequence:
#
# PCOD9189134 Si02
#       6
#     8   8   8   8   8   8
#     4  10  19  37  58  78 109 150 195 234 283 350
#     4   9  19  38  62  84 113 159 206 242 282 351
#     4  12  21  36  57  91 123 154 194 241 305 358
#     4   9  19  38  61  84 115 158 204 242 285 352
#     4  10  21  39  61  83 110 155 207 247 288 352
#     4  11  22  34  56  84 121 150 184 243 300 352
#
# _framework density 19.140602999999999
#
# number of rings (size 3 to 8) (size 9 to 14) (size 15 to 20)
#    0.000    1.833    1.667    6.500    0.000    1.667 
#    0.000    2.500    0.000    2.000    0.000    0.000 
#    0.000    0.000    0.000    0.000    0.000    0.000 
#
# Total GULP energy -133896.128212 kJ/mol
# GULP energy per Si atom -5579.005342 kJ/mol
# Density = 1.909704 g / cm^3
# Si number density = 19.140603 Si / 1000 Ang^3
#
#
#
# Elastic Constant Matrix: (Units=GPa)
#
#
# Indices 1 2 3 4 5 6 
#
# 1 67.6117 8.1336 0.8024 0.0062 3.6694 0.0240
# 2 8.1336 75.7422 31.7728 0.0086 14.6216 0.0376
# 3 0.8024 31.7728 52.1927 -0.0211 10.4802 0.0725
# 4 0.0062 0.0086 -0.0211 20.8505 0.0017 -4.3737
# 5 3.6694 14.6216 10.4802 0.0017 34.1777 -0.0400
# 6 0.0240 0.0376 0.0725 -4.3737 -0.0400 12.4192
#
#
#
# Elastic Compliance Matrix: (Units=1/GPa)
#
#
# Indices 1 2 3 4 5 6 
#
# 1 0.015065 -0.001872 0.001142 -0.000010 -0.001167 -0.000037
# 2 -0.001872 0.018655 -0.010406 -0.000020 -0.004589 -0.000014
# 3 0.001142 -0.010406 0.026222 0.000003 -0.003712 -0.000135
# 4 -0.000010 -0.000020 0.000003 0.051786 0.000028 0.018238
# 5 -0.001167 -0.004589 -0.003712 0.000028 0.032486 0.000152
# 6 -0.000037 -0.000014 -0.000135 0.018238 0.000152 0.086945
#
#
# Mechanical properties :
#
#
# Convention : Reuss Voigt Hill
#
# Bulk Modulus (GPa) = 26.54523 30.77379 28.65951
# Shear Modulus (GPa) = 18.79793 23.81201 21.30497
#
# Velocity S-wave (km/s) = 3.13724 3.53095 3.33990
# Velocity P-wave (km/s) = 5.19824 5.72155 5.46616
#
# Compressibility (1/GPa) = 0.03767155
#
# Stress axis : x y z
#
# Youngs Moduli (GPa) = 66.37770 53.60585 38.13526
#
# Poissons Ratio (x) = 0.10033 -0.04356
# Poissons Ratio (y) = 0.12423 0.39683
# Poissons Ratio (z) = -0.07581 0.55782
#
# Static dielectric constant tensor:
#      x y z
#    x 1.662400 0.000000 0.007710 
#    y 0.000000 1.674470 0.000000 
#    z 0.007710 0.000000 1.678000 
# 
# From -- ./inp_files/372849.got.cif
#   From: 2010.05.17/outbox.cif.g08.bks.cpg/sg12_187_cif.got.tgz:372849.got - 2010.06.03 13:09:07.
