data_PCOD9189538
_publ_section_title
;
Structure prediction by ZEFSAII (Michael W. Deem and Ramdas Pophale) SiO2 
 PCOD9189538
Probable space group: C 2/M
;
_chemical_formula_sum "Si O2"
_cell_formula_units_Z 48
_cell_length_a 15.741682
_cell_length_b 22.608081
_cell_length_c 15.303313
_cell_angle_alpha 90.000000
_cell_angle_beta 26.845950
_cell_angle_gamma 90.000000
_cell_volume 2459.505055
_symmetry_space_group_name_H-M "C 2/M"
_symmetry_group_IT_number 12
_symmetry_cell_setting 'monoclinic'
loop_
_space_group_symop_operation_xyz
x,y,z
-x,y,-z
-x,-y,-z
x,-y,z
1/2+x,1/2+y,z
1/2-x,1/2+y,-z
1/2-x,1/2-y,-z
1/2+x,1/2-y,z
loop_
_atom_site_type_symbol
_atom_site_label
_atom_site_fract_x
_atom_site_fract_y
_atom_site_fract_z
Si Si1 0.587073 0.000000 0.557947
Si Si2 0.525092 0.500000 0.112644
Si Si3 0.359256 0.500000 0.790715
Si Si4 0.997256 0.127919 0.099791
Si Si5 0.796856 0.500000 0.348148
Si Si6 0.057522 0.601689 0.041106
Si Si7 0.822621 0.684780 0.910823
Si Si8 0.437119 0.868161 0.461137
O O1 0.614380 0.000000 0.636543
O O2 0.500154 0.937007 0.610790
O O3 0.799117 0.000000 0.327341
O O4 0.615069 0.500000 0.127192
O O5 0.569912 0.560629 0.024621
O O6 0.571321 0.500000 0.559090
O O7 0.237599 0.557190 0.874423
O O8 0.788564 0.131034 0.330463
O O9 0.000000 0.154760 0.000000
O O10 0.138155 0.155213 0.039290
O O11 0.884052 0.558392 0.224958
O O12 0.100820 0.650381 0.074483
O O13 0.000000 0.627224 0.000000
O O14 0.976912 0.673467 0.692689
O O15 0.750000 0.750000 0.000000
O O16 0.500000 0.849607 0.500000
#
# Coordination Sequence:
#
# PCOD9189538 Si02
#       8
#     4   4   4   8   4   8   8   8
#     4   9  18  32  63 101 134 166 197 253 342 413
#     4   9  18  32  61  99 134 164 199 247 340 409
#     4  10  19  37  65  95 131 164 206 266 339 399
#     4  11  22  40  67  99 133 168 209 268 336 406
#     4  10  19  37  65  97 133 168 200 270 335 397
#     4  11  24  41  64  95 129 173 223 270 324 388
#     4  12  27  45  66  89 129 182 231 277 317 372
#     4  11  22  41  67 101 134 167 212 269 340 407
#
# _framework density 19.516123
#
# number of rings (size 3 to 8) (size 9 to 14) (size 15 to 20)
#    0.000    1.333    5.000    1.500    0.000    3.333 
#    0.000    0.000    0.000    0.000    0.000    0.000 
#    0.000    0.000    0.000    0.000    0.000    0.000 
#
# Total GULP energy -133972.483602 kJ/mol
# GULP energy per Si atom -5582.186817 kJ/mol
# Density = 1.947170 g / cm^3
# Si number density = 19.516123 Si / 1000 Ang^3
#
#
#
# Elastic Constant Matrix: (Units=GPa)
#
#
# Indices 1 2 3 4 5 6 
#
# 1 157.6429 56.2086 54.1505 -0.0147 11.2709 0.0035
# 2 56.2086 95.1988 31.1742 0.0169 17.0625 -0.0274
# 3 54.1505 31.1742 133.6533 -0.0021 -9.7972 -0.0186
# 4 -0.0147 0.0169 -0.0021 18.7805 0.0070 -2.1271
# 5 11.2709 17.0625 -9.7972 0.0070 30.7846 0.0013
# 6 0.0035 -0.0274 -0.0186 -2.1271 0.0013 -10.4041
#
#
#
# Elastic Compliance Matrix: (Units=1/GPa)
#
#
# Indices 1 2 3 4 5 6 
#
# 1 0.008860 -0.003964 -0.002807 0.000013 -0.001940 0.000016
# 2 -0.003964 0.015023 -0.002459 -0.000018 -0.007658 -0.000034
# 3 -0.002807 -0.002459 0.009592 -0.000002 0.005443 -0.000011
# 4 0.000013 -0.000018 -0.000002 0.052042 -0.000007 -0.010640
# 5 -0.001940 -0.007658 0.005443 -0.000007 0.039171 0.000016
# 6 0.000016 -0.000034 -0.000011 -0.010640 0.000016 -0.093941
#
#
# Mechanical properties :
#
#
# Convention : Reuss Voigt Hill
#
# Bulk Modulus (GPa) = 66.60725 74.39574 70.50150
# Shear Modulus (GPa) = 92.23037 24.16298 58.19668
#
# Velocity S-wave (km/s) = 6.88194 3.52249 5.46667
# Velocity P-wave (km/s) = 9.86669 7.39911 8.72062
#
# Compressibility (1/GPa) = 0.01501338
#
# Stress axis : x y z
#
# Youngs Moduli (GPa) = 112.86801 66.56579 104.25317
#
# Poissons Ratio (x) = 0.26388 0.29266
# Poissons Ratio (y) = 0.44743 0.25638
# Poissons Ratio (z) = 0.31685 0.16370
#
# Static dielectric constant tensor:
#      x y z
#    x 1.700410 -0.000010 0.018340 
#    y -0.000010 1.693410 0.000020 
#    z 0.018340 0.000020 1.727020 
# 
# From -- ./inp_files/218468.got.cif
#   From: 2010.05.17/outbox.cif.g08.bks.cpg/sg12_110_cif.got.tgz:218468.got - 2010.06.03 13:09:07.
