data_PCOD9189332
_publ_section_title
;
Structure prediction by ZEFSAII (Michael W. Deem and Ramdas Pophale) SiO2 
 PCOD9189332
Probable space group: C 2/M
;
_chemical_formula_sum "Si O2"
_cell_formula_units_Z 56
_cell_length_a 13.949542
_cell_length_b 13.794774
_cell_length_c 25.966943
_cell_angle_alpha 90.000000
_cell_angle_beta 147.771515
_cell_angle_gamma 90.000000
_cell_volume 2664.798795
_symmetry_space_group_name_H-M "C 2/M"
_symmetry_group_IT_number 12
_symmetry_cell_setting 'monoclinic'
loop_
_space_group_symop_operation_xyz
x,y,z
-x,y,-z
-x,-y,-z
x,-y,z
1/2+x,1/2+y,z
1/2-x,1/2+y,-z
1/2-x,1/2-y,-z
1/2+x,1/2-y,z
loop_
_atom_site_type_symbol
_atom_site_label
_atom_site_fract_x
_atom_site_fract_y
_atom_site_fract_z
Si Si1 0.480264 0.114467 0.811136
Si Si2 0.927177 0.190376 0.620185
Si Si3 0.404414 0.387602 0.402221
Si Si4 0.282513 0.111708 0.829963
Si Si5 0.966155 0.614789 0.541154
Si Si6 0.695827 0.310121 0.105568
Si Si7 0.925119 0.389319 0.300595
O O1 0.307303 0.134395 0.696351
O O2 0.405974 0.131608 0.835267
O O3 0.652803 0.171281 0.868998
O O4 0.521806 0.000000 0.825929
O O5 0.729497 0.150188 0.531550
O O6 0.997859 0.180496 0.594067
O O7 0.074920 0.128304 0.718609
O O8 0.939165 0.300052 0.646270
O O9 0.500000 0.382507 0.500000
O O10 0.420413 0.500000 0.391022
O O11 0.317198 0.196297 0.886426
O O12 0.309871 0.000000 0.858013
O O13 0.947611 0.500000 0.526252
O O14 0.000000 0.657610 0.500000
O O15 0.108267 0.622249 0.652987
O O16 0.764808 0.365075 0.188631
O O17 0.500000 0.345222 0.000000
O O18 0.988822 0.500000 0.320978
#
# Coordination Sequence:
#
# PCOD9189332 Si02
#       7
#     8   8   8   8   8   8   8
#     4   9  19  38  64  92 127 168 213 269 323 377
#     4  10  19  37  61  89 122 167 207 256 314 387
#     4   9  18  32  59  95 124 159 210 262 315 377
#     4   9  20  42  67  92 126 166 212 267 325 391
#     4  10  21  38  62  92 131 170 204 251 318 392
#     4  11  24  41  67  97 128 168 217 272 330 379
#     4  10  23  41  59  86 124 166 216 263 309 371
#
# _framework density 21.014720000000001
#
# number of rings (size 3 to 8) (size 9 to 14) (size 15 to 20)
#    0.000    2.286    0.000    3.000    2.000    2.571 
#   15.429    0.000    0.000    1.286    0.000    0.000 
#    0.000    0.000    0.000    0.000    0.000    0.000 
#
# Total GULP energy -156266.037594 kJ/mol
# GULP energy per Si atom -5580.929914 kJ/mol
# Density = 2.096689 g / cm^3
# Si number density = 21.014720 Si / 1000 Ang^3
#
#
#
# Elastic Constant Matrix: (Units=GPa)
#
#
# Indices 1 2 3 4 5 6 
#
# 1 83.2694 50.2166 32.4914 0.0000 15.3225 0.0000
# 2 50.2166 100.4457 2.0566 0.0000 0.4783 0.0000
# 3 32.4914 2.0566 83.7818 0.0000 10.7678 0.0000
# 4 0.0000 0.0000 0.0000 9.7633 0.0000 -11.4376
# 5 15.3225 0.4783 10.7678 0.0000 20.1279 0.0000
# 6 0.0000 0.0000 0.0000 -11.4376 0.0000 29.1241
#
#
#
# Elastic Compliance Matrix: (Units=1/GPa)
#
#
# Indices 1 2 3 4 5 6 
#
# 1 0.025101 -0.012324 -0.007532 0.000000 -0.014786 0.000000
# 2 -0.012324 0.016012 0.003468 0.000000 0.007146 0.000000
# 3 -0.007532 0.003468 0.015082 0.000000 -0.002417 0.000000
# 4 0.000000 0.000000 0.000000 0.189701 0.000000 0.074500
# 5 -0.014786 0.007146 -0.002417 0.000000 0.062062 0.000000
# 6 0.000000 0.000000 0.000000 0.074500 0.000000 0.063593
#
#
# Mechanical properties :
#
#
# Convention : Reuss Voigt Hill
#
# Bulk Modulus (GPa) = 42.69952 48.55846 45.62899
# Shear Modulus (GPa) = 12.13196 23.98521 18.05858
#
# Velocity S-wave (km/s) = 2.40533 3.38206 2.93461
# Velocity P-wave (km/s) = 5.29878 6.19743 5.76564
#
# Compressibility (1/GPa) = 0.02341947
#
# Stress axis : x y z
#
# Youngs Moduli (GPa) = 39.83855 62.45294 66.30343
#
# Poissons Ratio (x) = 0.76970 0.49937
# Poissons Ratio (y) = 0.49099 -0.22994
# Poissons Ratio (z) = 0.30005 -0.21659
#
# Static dielectric constant tensor:
#      x y z
#    x 1.782620 0.000000 -0.061280 
#    y 0.000000 1.798700 0.000000 
#    z -0.061280 0.000000 1.765520 
# 
# From -- ./inp_files/361482.got.cif
#   From: 2010.05.17/outbox.cif.g08.bks.cpg/sg12_181_cif.got.tgz:361482.got - 2010.06.03 13:09:07.
