data_PCOD9189978
_publ_section_title
;
Structure prediction by ZEFSAII (Michael W. Deem and Ramdas Pophale) SiO2 
 PCOD9189978
Probable space group: C 2/M
;
_chemical_formula_sum "Si O2"
_cell_formula_units_Z 60
_cell_length_a 22.733385
_cell_length_b 22.261949
_cell_length_c 6.144873
_cell_angle_alpha 90.000000
_cell_angle_beta 98.988842
_cell_angle_gamma 90.000000
_cell_volume 3071.662644
_symmetry_space_group_name_H-M "C 2/M"
_symmetry_group_IT_number 12
_symmetry_cell_setting 'monoclinic'
loop_
_space_group_symop_operation_xyz
x,y,z
-x,y,-z
-x,-y,-z
x,-y,z
1/2+x,1/2+y,z
1/2-x,1/2+y,-z
1/2-x,1/2-y,-z
1/2+x,1/2-y,z
loop_
_atom_site_type_symbol
_atom_site_label
_atom_site_fract_x
_atom_site_fract_y
_atom_site_fract_z
Si Si1 0.559423 0.068403 0.387000
Si Si2 0.351621 0.861257 0.268060
Si Si3 0.720511 0.345455 0.608362
Si Si4 0.064838 0.679102 0.066664
Si Si5 0.352178 0.566742 0.148023
Si Si6 0.469263 0.500000 0.230428
Si Si7 0.172482 0.269393 0.369413
Si Si8 0.245021 0.068925 0.247177
O O1 0.500000 0.071779 0.500000
O O2 0.615592 0.089422 0.562527
O O3 0.555544 0.117598 0.196213
O O4 0.565763 0.000000 0.312789
O O5 0.331517 0.805277 0.404422
O O6 0.293486 0.893640 0.136796
O O7 0.400848 0.838503 0.130897
O O8 0.673210 0.376672 0.737636
O O9 0.775203 0.304971 0.729144
O O10 0.689448 0.298536 0.426199
O O11 0.746296 0.400088 0.481821
O O12 0.109651 0.721814 0.220862
O O13 0.000000 0.706524 0.000000
O O14 0.330380 0.500000 0.220246
O O15 0.423041 0.556690 0.195376
O O16 0.320752 0.572087 0.894842
O O17 0.500000 0.500000 0.500000
O O18 0.500000 0.500000 0.000000
O O19 0.262317 0.000000 0.265151
#
# Coordination Sequence:
#
# PCOD9189978 Si02
#       8
#     8   8   8   8   8   4   8   8
#     4  10  20  33  50  79 110 151 202 240 285 348
#     4  10  20  36  55  81 117 158 196 252 297 350
#     4  10  19  39  61  87 117 155 197 257 317 372
#     4  11  21  36  57  77 112 163 201 245 297 354
#     4   9  21  35  64  91 122 159 192 253 313 397
#     4  10  24  42  72 100 134 178 210 253 324 415
#     4   9  22  36  59  84 114 155 209 256 305 369
#     4  10  20  34  59  92 121 145 191 249 315 374
#
# _framework density 19.533394000000001
#
# number of rings (size 3 to 8) (size 9 to 14) (size 15 to 20)
#    0.400    1.733    1.333    1.600    1.867    2.400 
#    0.000    7.333    5.867    0.000    0.000    0.000 
#    0.000    0.000    0.000    0.000    0.000    0.000 
#
# Total GULP energy -167025.476825 kJ/mol
# GULP energy per Si atom -5567.515894 kJ/mol
# Density = 1.948894 g / cm^3
# Si number density = 19.533394 Si / 1000 Ang^3
#
#
#
# Elastic Constant Matrix: (Units=GPa)
#
#
# Indices 1 2 3 4 5 6 
#
# 1 102.7542 18.4157 24.2334 0.0000 6.9575 0.0000
# 2 18.4157 55.0414 6.2353 0.0000 0.5193 0.0000
# 3 24.2334 6.2353 32.3595 0.0000 2.2664 0.0000
# 4 0.0000 0.0000 0.0000 6.1653 0.0000 -6.6871
# 5 6.9575 0.5193 2.2664 0.0000 32.3948 0.0000
# 6 0.0000 0.0000 0.0000 -6.6871 0.0000 20.6315
#
#
#
# Elastic Compliance Matrix: (Units=1/GPa)
#
#
# Indices 1 2 3 4 5 6 
#
# 1 0.012462 -0.003179 -0.008578 0.000000 -0.002025 0.000000
# 2 -0.003179 0.019384 -0.001388 0.000000 0.000469 0.000000
# 3 -0.008578 -0.001388 0.037648 0.000000 -0.000769 0.000000
# 4 0.000000 0.000000 0.000000 0.250129 0.000000 0.081072
# 5 -0.002025 0.000469 -0.000769 0.000000 0.031350 0.000000
# 6 0.000000 0.000000 0.000000 0.081072 0.000000 0.074747
#
#
# Mechanical properties :
#
#
# Convention : Reuss Voigt Hill
#
# Bulk Modulus (GPa) = 23.14510 31.99155 27.56832
# Shear Modulus (GPa) = 10.72017 21.25638 15.98827
#
# Velocity S-wave (km/s) = 2.34522 3.30238 2.86406
# Velocity P-wave (km/s) = 4.38270 5.56366 5.00812
#
# Compressibility (1/GPa) = 0.04320570
#
# Stress axis : x y z
#
# Youngs Moduli (GPa) = 80.24518 51.58790 26.56182
#
# Poissons Ratio (x) = 0.16398 0.22785
# Poissons Ratio (y) = 0.25507 0.03686
# Poissons Ratio (z) = 0.68835 0.07158
#
# Static dielectric constant tensor:
#      x y z
#    x 1.736880 0.000000 0.007410 
#    y 0.000000 1.653880 0.000000 
#    z 0.007410 0.000000 1.735950 
# 
# From -- ./inp_files/25646.got.cif
#   From: 2010.05.17/outbox.cif.g08.bks.cpg/sg12_13_cif.got.tgz:25646.got - 2010.06.03 13:09:07.
