data_PCOD9189868
_publ_section_title
;
Structure prediction by ZEFSAII (Michael W. Deem and Ramdas Pophale) SiO2 
 PCOD9189868
Probable space group: C 2/M
;
_chemical_formula_sum "Si O2"
_cell_formula_units_Z 40
_cell_length_a 24.375712
_cell_length_b 8.475793
_cell_length_c 17.454118
_cell_angle_alpha 90.000000
_cell_angle_beta 146.891295
_cell_angle_gamma 90.000000
_cell_volume 1969.747219
_symmetry_space_group_name_H-M "C 2/M"
_symmetry_group_IT_number 12
_symmetry_cell_setting 'monoclinic'
loop_
_space_group_symop_operation_xyz
x,y,z
-x,y,-z
-x,-y,-z
x,-y,z
1/2+x,1/2+y,z
1/2-x,1/2+y,-z
1/2-x,1/2-y,-z
1/2+x,1/2-y,z
loop_
_atom_site_type_symbol
_atom_site_label
_atom_site_fract_x
_atom_site_fract_y
_atom_site_fract_z
Si Si1 0.971028 0.311647 0.725853
Si Si2 0.845636 0.813765 0.156898
Si Si3 0.618218 0.189630 0.637859
Si Si4 0.055037 0.190377 0.142023
Si Si5 0.214656 0.307727 0.588691
O O1 0.967743 0.500000 0.727567
O O2 0.995236 0.242548 0.837450
O O3 0.862558 0.253918 0.567426
O O4 0.054767 0.265133 0.761948
O O5 0.835065 0.769687 0.233361
O O6 0.854071 0.000000 0.157267
O O7 0.750000 0.750000 0.000000
O O8 0.500000 0.226952 0.500000
O O9 0.668178 0.237367 0.616420
O O10 0.628371 0.000000 0.657007
O O11 0.170691 0.246774 0.281797
O O12 0.055839 0.000000 0.140578
O O13 0.000000 0.245154 0.000000
O O14 0.215528 0.500000 0.587074
#
# Coordination Sequence:
#
# PCOD9189868 Si02
#       5
#     8   8   8   8   8
#     4  11  22  41  64  88 120 163 211 257 308 366
#     4  12  26  42  62  92 127 163 204 255 313 373
#     4  10  19  38  65  91 124 165 206 250 307 370
#     4  10  22  39  60  90 124 162 208 257 310 366
#     4   9  19  37  62  89 123 166 205 247 305 364
#
# _framework density 20.307175000000001
#
# number of rings (size 3 to 8) (size 9 to 14) (size 15 to 20)
#    0.000    1.600    2.000    3.000    2.800    0.800 
#    0.000    2.000    0.000    0.000    0.000    0.000 
#    0.000    0.000    0.000    0.000    0.000    0.000 
#
# Total GULP energy -111790.776270 kJ/mol
# GULP energy per Si atom -5589.538813 kJ/mol
# Density = 2.026095 g / cm^3
# Si number density = 20.307175 Si / 1000 Ang^3
#
#
#
# Elastic Constant Matrix: (Units=GPa)
#
#
# Indices 1 2 3 4 5 6 
#
# 1 79.5981 -2.5090 15.1317 0.0000 -25.0683 0.0000
# 2 -2.5090 13.8986 16.8217 0.0000 -10.3796 0.0000
# 3 15.1317 16.8217 106.8898 0.0000 -26.2693 0.0000
# 4 0.0000 0.0000 0.0000 21.6005 0.0000 -4.7904
# 5 -25.0683 -10.3796 -26.2693 0.0000 40.1494 0.0000
# 6 0.0000 0.0000 0.0000 -4.7904 0.0000 24.6287
#
#
#
# Elastic Compliance Matrix: (Units=1/GPa)
#
#
# Indices 1 2 3 4 5 6 
#
# 1 0.017802 0.015605 -0.001493 0.000000 0.014173 0.000000
# 2 0.015605 0.112751 -0.012387 0.000000 0.030788 0.000000
# 3 -0.001493 -0.012387 0.012512 0.000000 0.004052 0.000000
# 4 0.000000 0.000000 0.000000 0.048382 0.000000 0.009411
# 5 0.014173 0.030788 0.004052 0.000000 0.044367 0.000000
# 6 0.000000 0.000000 0.000000 0.009411 0.000000 0.042433
#
#
# Mechanical properties :
#
#
# Convention : Reuss Voigt Hill
#
# Bulk Modulus (GPa) = 6.82522 28.80839 17.81680
# Shear Modulus (GPa) = 15.44948 28.67188 22.06068
#
# Velocity S-wave (km/s) = 2.76123 3.76161 3.29956
# Velocity P-wave (km/s) = 3.67888 5.75182 4.82792
#
# Compressibility (1/GPa) = 0.14651553
#
# Stress axis : x y z
#
# Youngs Moduli (GPa) = 56.17252 8.86911 79.92351
#
# Poissons Ratio (x) = -0.13840 0.11931
# Poissons Ratio (y) = -0.87656 0.99000
# Poissons Ratio (z) = 0.08386 0.10986
#
# Static dielectric constant tensor:
#      x y z
#    x 1.691130 0.000000 0.004290 
#    y 0.000000 1.690410 0.000000 
#    z 0.004290 0.000000 1.720600 
# 
# From -- ./inp_files/220558.got.cif
#   From: 2010.05.17/outbox.cif.g08.bks.cpg/sg12_111_cif.got.tgz:220558.got - 2010.06.03 13:09:07.
