data_PCOD9189850
_publ_section_title
;
Structure prediction by ZEFSAII (Michael W. Deem and Ramdas Pophale) SiO2 
 PCOD9189850
Probable space group: C 2/M
;
_chemical_formula_sum "Si O2"
_cell_formula_units_Z 64
_cell_length_a 21.995837
_cell_length_b 13.678533
_cell_length_c 11.751584
_cell_angle_alpha 90.000000
_cell_angle_beta 78.911381
_cell_angle_gamma 90.000000
_cell_volume 3469.699732
_symmetry_space_group_name_H-M "C 2/M"
_symmetry_group_IT_number 12
_symmetry_cell_setting 'monoclinic'
loop_
_space_group_symop_operation_xyz
x,y,z
-x,y,-z
-x,-y,-z
x,-y,z
1/2+x,1/2+y,z
1/2-x,1/2+y,-z
1/2-x,1/2-y,-z
1/2+x,1/2-y,z
loop_
_atom_site_type_symbol
_atom_site_label
_atom_site_fract_x
_atom_site_fract_y
_atom_site_fract_z
Si Si1 0.804110 0.612993 0.042553
Si Si2 0.907849 0.611129 0.189146
Si Si3 0.058411 0.116796 0.558305
Si Si4 0.593821 0.383954 0.024839
Si Si5 0.964311 0.813247 0.177315
Si Si6 0.301707 0.115497 0.419336
Si Si7 0.825478 0.225132 0.592921
Si Si8 0.311827 0.262962 0.856964
O O1 0.783923 0.500000 0.054274
O O2 0.868838 0.619091 0.086287
O O3 0.754885 0.684310 0.120712
O O4 0.808244 0.656214 0.914516
O O5 0.931464 0.500000 0.190711
O O6 0.958337 0.696007 0.175964
O O7 0.857124 0.627518 0.307660
O O8 0.047783 0.150157 0.691481
O O9 0.119685 0.165826 0.486318
O O10 0.000000 0.144024 0.500000
O O11 0.064567 0.000000 0.553233
O O12 0.601574 0.500000 0.030674
O O13 0.530031 0.352132 0.109342
O O14 0.647792 0.327471 0.070402
O O15 0.585725 0.353670 0.895931
O O16 0.238650 0.165370 0.397727
O O17 0.318312 0.173001 0.528444
O O18 0.292491 0.000000 0.438910
O O19 0.838422 0.238170 0.721347
#
# Coordination Sequence:
#
# PCOD9189850 Si02
#       8
#     8   8   8   8   8   8   8   8
#     4  10  21  38  59  85 118 153 192 238 289 345
#     4  10  19  38  65  85 112 153 194 236 285 340
#     4  11  23  38  58  85 118 154 191 236 287 340
#     4  11  23  38  60  87 118 155 189 238 295 345
#     4  11  21  40  59  85 116 152 192 239 283 343
#     4  10  21  38  59  84 115 154 192 235 289 342
#     4  11  22  36  59  87 116 151 194 239 284 346
#     4  11  22  37  59  87 119 154 191 237 292 352
#
# _framework density 18.445398999999998
#
# number of rings (size 3 to 8) (size 9 to 14) (size 15 to 20)
#    0.000    1.375    3.750    3.000    0.000    3.000 
#    0.000    1.875    0.000    3.000    0.000    0.000 
#    0.000    0.000    0.000    0.000    0.000    0.000 
#
# Total GULP energy -178735.105024 kJ/mol
# GULP energy per Si atom -5585.472032 kJ/mol
# Density = 1.840342 g / cm^3
# Si number density = 18.445399 Si / 1000 Ang^3
#
#
#
# Elastic Constant Matrix: (Units=GPa)
#
#
# Indices 1 2 3 4 5 6 
#
# 1 13.1258 -12.0391 9.3491 0.0000 10.8991 0.0000
# 2 -12.0391 76.5925 19.9170 0.0000 6.3014 0.0000
# 3 9.3491 19.9170 130.7015 0.0000 14.4405 0.0000
# 4 0.0000 0.0000 0.0000 22.9926 0.0000 -1.6448
# 5 10.8991 6.3014 14.4405 0.0000 19.1239 0.0000
# 6 0.0000 0.0000 0.0000 -1.6448 0.0000 31.2747
#
#
#
# Elastic Compliance Matrix: (Units=1/GPa)
#
#
# Indices 1 2 3 4 5 6 
#
# 1 0.287579 0.062477 -0.010592 0.000000 -0.176485 0.000000
# 2 0.062477 0.027348 -0.004044 0.000000 -0.041564 0.000000
# 3 -0.010592 -0.004044 0.008958 0.000000 0.000605 0.000000
# 4 0.000000 0.000000 0.000000 0.043656 0.000000 0.002296
# 5 -0.176485 -0.041564 0.000605 0.000000 0.166112 0.000000
# 6 0.000000 0.000000 0.000000 0.002296 0.000000 0.032095
#
#
# Mechanical properties :
#
#
# Convention : Reuss Voigt Hill
#
# Bulk Modulus (GPa) = 2.38341 28.31930 15.35136
# Shear Modulus (GPa) = 8.19776 28.22444 18.21110
#
# Velocity S-wave (km/s) = 2.11045 3.91597 3.14554
# Velocity P-wave (km/s) = 2.68953 5.98605 4.64039
#
# Compressibility (1/GPa) = 0.41956674
#
# Stress axis : x y z
#
# Youngs Moduli (GPa) = 3.47730 36.56608 111.63060
#
# Poissons Ratio (x) = -2.28454 1.18242
# Poissons Ratio (y) = -0.21725 0.45145
# Poissons Ratio (z) = 0.03683 0.14788
#
# Static dielectric constant tensor:
#      x y z
#    x 1.636930 0.000000 0.003780 
#    y 0.000000 1.619020 0.000000 
#    z 0.003780 0.000000 1.628040 
# 
# From -- ./inp_files/174620.got.cif
#   From: 2010.05.17/outbox.cif.g08.bks.cpg/sg12_88_cif.got.tgz:174620.got - 2010.06.03 13:09:07.
