data_PCOD9189861
_publ_section_title
;
Structure prediction by ZEFSAII (Michael W. Deem and Ramdas Pophale) SiO2 
 PCOD9189861
Probable space group: C 2/M
;
_chemical_formula_sum "Si O2"
_cell_formula_units_Z 64
_cell_length_a 19.917268
_cell_length_b 7.872812
_cell_length_c 31.551822
_cell_angle_alpha 90.000000
_cell_angle_beta 38.491672
_cell_angle_gamma 90.000000
_cell_volume 3079.316202
_symmetry_space_group_name_H-M "C 2/M"
_symmetry_group_IT_number 12
_symmetry_cell_setting 'monoclinic'
loop_
_space_group_symop_operation_xyz
x,y,z
-x,y,-z
-x,-y,-z
x,-y,z
1/2+x,1/2+y,z
1/2-x,1/2+y,-z
1/2-x,1/2-y,-z
1/2+x,1/2-y,z
loop_
_atom_site_type_symbol
_atom_site_label
_atom_site_fract_x
_atom_site_fract_y
_atom_site_fract_z
Si Si1 0.377646 0.803568 0.544542
Si Si2 0.650836 0.298942 0.186009
Si Si3 0.256128 0.791541 0.688137
Si Si4 0.508055 0.707207 0.809935
Si Si5 0.615395 0.196628 0.954102
Si Si6 0.866645 0.796710 0.959791
Si Si7 0.868719 0.191923 0.454531
Si Si8 0.905582 0.697061 0.691957
O O1 0.500000 0.805055 0.500000
O O2 0.307727 0.736984 0.618116
O O3 0.371745 0.705495 0.503728
O O4 0.345735 0.000000 0.551377
O O5 0.659347 0.500000 0.172643
O O6 0.564122 0.232431 0.194347
O O7 0.772186 0.228122 0.119118
O O8 0.612247 0.277662 0.253232
O O9 0.132021 0.737739 0.749802
O O10 0.327669 0.734005 0.692988
O O11 0.261216 0.000000 0.685808
O O12 0.509795 0.500000 0.807153
O O13 0.451087 0.754706 0.881967
O O14 0.611772 0.000000 0.940892
O O15 0.500000 0.277710 0.000000
O O16 0.620712 0.204906 0.001999
O O17 0.874809 0.000000 0.962162
O O18 0.750000 0.750000 0.000000
O O19 0.750000 0.250000 0.500000
O O20 0.970909 0.290414 0.384852
O O21 0.884137 0.000000 0.432478
O O22 0.877647 0.500000 0.711047
#
# Coordination Sequence:
#
# PCOD9189861 Si02
#       8
#     8   8   8   8   8   8   8   8
#     4  10  19  38  65  90 119 157 200 245 300 362
#     4  10  21  39  59  84 121 163 204 251 309 365
#     4   9  19  36  60  87 119 158 195 238 298 360
#     4   9  19  36  58  85 116 155 200 246 300 363
#     4  10  22  40  60  85 123 166 208 255 311 367
#     4  11  21  37  62  87 118 156 207 259 307 365
#     4  12  26  43  64  91 124 162 206 254 305 358
#     4  11  23  41  62  89 124 159 202 250 301 365
#
# _framework density 20.783835
#
# number of rings (size 3 to 8) (size 9 to 14) (size 15 to 20)
#    0.000    1.750    2.500    1.875    3.500    1.000 
#    0.000    0.000    0.000    3.000    0.000    0.000 
#    0.000    0.000    0.000    0.000    0.000    0.000 
#
# Total GULP energy -178675.244468 kJ/mol
# GULP energy per Si atom -5583.601390 kJ/mol
# Density = 2.073653 g / cm^3
# Si number density = 20.783835 Si / 1000 Ang^3
#
#
#
# Elastic Constant Matrix: (Units=GPa)
#
#
# Indices 1 2 3 4 5 6 
#
# 1 115.1635 -11.8269 59.8139 -0.0083 -12.5965 0.0451
# 2 -11.8269 27.3818 -13.4309 0.1695 -3.4531 -0.0707
# 3 59.8139 -13.4309 170.0393 0.0095 -10.3431 -0.0440
# 4 -0.0083 0.1695 0.0095 17.6891 0.0026 13.3115
# 5 -12.5965 -3.4531 -10.3431 0.0026 36.9904 -0.0135
# 6 0.0451 -0.0707 -0.0440 13.3115 -0.0135 14.2766
#
#
#
# Elastic Compliance Matrix: (Units=1/GPa)
#
#
# Indices 1 2 3 4 5 6 
#
# 1 0.011193 0.003535 -0.003465 -0.000027 0.003173 -0.000001
# 2 0.003535 0.039864 0.002244 -0.001782 0.005553 0.001860
# 3 -0.003465 0.002244 0.007343 -0.000207 0.001083 0.000238
# 4 -0.000027 -0.001782 -0.000207 0.189563 -0.000311 -0.176758
# 5 0.003173 0.005553 0.001083 -0.000311 0.028936 0.000338
# 6 -0.000001 0.001860 0.000238 -0.176758 0.000338 0.234863
#
#
# Mechanical properties :
#
#
# Convention : Reuss Voigt Hill
#
# Bulk Modulus (GPa) = 15.86603 42.41074 29.13838
# Shear Modulus (GPa) = 9.46710 32.32647 20.89679
#
# Velocity S-wave (km/s) = 2.13657 3.94809 3.17430
# Velocity P-wave (km/s) = 3.70634 6.42131 5.24262
#
# Compressibility (1/GPa) = 0.06302775
#
# Stress axis : x y z
#
# Youngs Moduli (GPa) = 89.34066 25.08514 136.18312
#
# Poissons Ratio (x) = -0.08868 0.47189
# Poissons Ratio (y) = -0.31584 -0.30554
# Poissons Ratio (z) = 0.30958 -0.05628
#
# Static dielectric constant tensor:
#      x y z
#    x 1.708260 0.000000 -0.035380 
#    y 0.000000 1.816600 0.000010 
#    z -0.035380 0.000010 1.753730 
# 
# From -- ./inp_files/378186.got.cif
#   From: 2010.05.17/outbox.cif.g08.bks.cpg/sg12_190_cif.got.tgz:378186.got - 2010.06.03 13:09:07.
