data_PCOD9189608
_publ_section_title
;
Structure prediction by ZEFSAII (Michael W. Deem and Ramdas Pophale) SiO2 
 PCOD9189608
Probable space group: C 2/M
;
_chemical_formula_sum "Si O2"
_cell_formula_units_Z 64
_cell_length_a 14.695920
_cell_length_b 14.027359
_cell_length_c 18.269117
_cell_angle_alpha 90.000000
_cell_angle_beta 108.581896
_cell_angle_gamma 90.000000
_cell_volume 3569.756844
_symmetry_space_group_name_H-M "C 2/M"
_symmetry_group_IT_number 12
_symmetry_cell_setting 'monoclinic'
loop_
_space_group_symop_operation_xyz
x,y,z
-x,y,-z
-x,-y,-z
x,-y,z
1/2+x,1/2+y,z
1/2-x,1/2+y,-z
1/2-x,1/2-y,-z
1/2+x,1/2-y,z
loop_
_atom_site_type_symbol
_atom_site_label
_atom_site_fract_x
_atom_site_fract_y
_atom_site_fract_z
Si Si1 0.467103 0.742966 0.304035
Si Si2 0.265478 0.859202 0.484361
Si Si3 0.948521 0.105493 0.559567
Si Si4 0.107521 0.884123 0.008349
Si Si5 0.630714 0.890262 0.348440
Si Si6 0.162326 0.890272 0.175614
Si Si7 0.436294 0.389760 0.160132
Si Si8 0.730993 0.779932 0.669327
O O1 0.536518 0.672348 0.367226
O O2 0.530087 0.837414 0.305688
O O3 0.431387 0.686167 0.223636
O O4 0.376386 0.759964 0.332323
O O5 0.250000 0.750000 0.500000
O O6 0.164503 0.903636 0.481584
O O7 0.350457 0.892794 0.558698
O O8 0.274570 0.855288 0.399379
O O9 0.000000 0.144102 0.500000
O O10 0.989788 0.000000 0.584209
O O11 0.124367 0.861149 0.927744
O O12 0.105044 0.000000 0.010279
O O13 0.172724 0.855755 0.094017
O O14 0.000000 0.849803 0.000000
O O15 0.712921 0.817681 0.338876
O O16 0.636322 0.000000 0.323662
O O17 0.213183 0.826303 0.248581
O O18 0.048364 0.891396 0.164218
O O19 0.196008 0.000000 0.189524
O O20 0.412661 0.500000 0.175024
#
# Coordination Sequence:
#
# PCOD9189608 Si02
#       8
#     8   8   8   8   8   8   8   8
#     4  12  23  35  56  81 111 145 194 233 273 326
#     4  10  19  38  55  74 104 143 181 226 276 327
#     4  11  21  34  58  85 106 134 176 229 290 334
#     4   7  12  24  49  82 112 137 164 212 280 341
#     4  11  24  42  57  76 112 155 192 231 286 334
#     4   9  16  31  55  84 112 137 172 224 282 332
#     4   9  16  31  55  84 112 137 172 224 285 334
#     4  11  23  37  57  81 110 146 191 233 275 334
#
# _framework density 17.928391999999999
#
# number of rings (size 3 to 8) (size 9 to 14) (size 15 to 20)
#    0.000    2.000    3.750    3.750    0.000    4.500 
#    0.000    1.250    0.000    0.000    0.000    1.750 
#    0.000    0.000    0.000    0.000    0.000    0.000 
#
# Total GULP energy -178171.679202 kJ/mol
# GULP energy per Si atom -5567.864975 kJ/mol
# Density = 1.788759 g / cm^3
# Si number density = 17.928392 Si / 1000 Ang^3
#
#
#
# Elastic Constant Matrix: (Units=GPa)
#
#
# Indices 1 2 3 4 5 6 
#
# 1 60.7324 15.0003 14.0974 0.0000 -10.1254 0.0000
# 2 15.0003 79.2621 38.0914 0.0000 2.2958 0.0000
# 3 14.0974 38.0914 131.3198 0.0000 4.6104 0.0000
# 4 0.0000 0.0000 0.0000 63.0311 0.0000 -73.3318
# 5 -10.1254 2.2958 4.6104 0.0000 16.9038 0.0000
# 6 0.0000 0.0000 0.0000 -73.3318 0.0000 132.9583
#
#
#
# Elastic Compliance Matrix: (Units=1/GPa)
#
#
# Indices 1 2 3 4 5 6 
#
# 1 0.019788 -0.003344 -0.001602 0.000000 0.012744 0.000000
# 2 -0.003344 0.015237 -0.003956 0.000000 -0.002994 0.000000
# 3 -0.001602 -0.003956 0.009036 0.000000 -0.002887 0.000000
# 4 0.000000 0.000000 0.000000 0.044276 0.000000 0.024420
# 5 0.012744 -0.002994 -0.002887 0.000000 0.067986 0.000000
# 6 0.000000 0.000000 0.000000 0.024420 0.000000 0.020990
#
#
# Mechanical properties :
#
#
# Convention : Reuss Voigt Hill
#
# Bulk Modulus (GPa) = 38.08405 45.07694 41.58050
# Shear Modulus (GPa) = 24.52567 56.18699 40.35633
#
# Velocity S-wave (km/s) = 3.70263 5.60426 4.74959
# Velocity P-wave (km/s) = 6.29029 8.18989 7.30212
#
# Compressibility (1/GPa) = 0.02625771
#
# Stress axis : x y z
#
# Youngs Moduli (GPa) = 50.53512 65.62993 110.67256
#
# Poissons Ratio (x) = 0.21949 0.17726
# Poissons Ratio (y) = 0.16900 0.43778
# Poissons Ratio (z) = 0.08094 0.25961
#
# Static dielectric constant tensor:
#      x y z
#    x 1.627280 0.000000 -0.005160 
#    y 0.000000 1.602810 0.000000 
#    z -0.005160 0.000000 1.674520 
# 
# From -- ./inp_files/269901.got.cif
#   From: 2010.05.17/outbox.cif.g08.bks.cpg/sg12_135_cif.got.tgz:269901.got - 2010.06.03 13:09:07.
