data_PCOD9189451
_publ_section_title
;
Structure prediction by ZEFSAII (Michael W. Deem and Ramdas Pophale) SiO2 
 PCOD9189451
Probable space group: C 2/M
;
_chemical_formula_sum "Si O2"
_cell_formula_units_Z 52
_cell_length_a 12.641171
_cell_length_b 27.423476
_cell_length_c 20.134554
_cell_angle_alpha 90.000000
_cell_angle_beta 154.171054
_cell_angle_gamma 90.000000
_cell_volume 3041.062283
_symmetry_space_group_name_H-M "C 2/M"
_symmetry_group_IT_number 12
_symmetry_cell_setting 'monoclinic'
loop_
_space_group_symop_operation_xyz
x,y,z
-x,y,-z
-x,-y,-z
x,-y,z
1/2+x,1/2+y,z
1/2-x,1/2+y,-z
1/2-x,1/2-y,-z
1/2+x,1/2-y,z
loop_
_atom_site_type_symbol
_atom_site_label
_atom_site_fract_x
_atom_site_fract_y
_atom_site_fract_z
Si Si1 0.264292 0.628729 0.411324
Si Si2 0.732001 0.797678 0.176855
Si Si3 0.000000 0.343755 0.500000
Si Si4 0.045467 0.290581 0.386016
Si Si5 0.507700 0.880287 0.135297
Si Si6 0.476264 0.378118 0.224053
Si Si7 0.433316 0.442626 0.323339
O O1 0.500000 0.645087 0.500000
O O2 0.139854 0.668778 0.387999
O O3 0.057837 0.613756 0.241606
O O4 0.377982 0.586322 0.522083
O O5 0.644315 0.830091 0.189827
O O6 0.919567 0.831749 0.241164
O O7 0.815602 0.742997 0.238076
O O8 0.500000 0.795245 0.000000
O O9 0.015402 0.312367 0.441841
O O10 0.251519 0.373041 0.648144
O O11 0.250000 0.250000 0.500000
O O12 0.665179 0.923143 0.190713
O O13 0.237369 0.879266 0.951880
O O14 0.467355 0.424524 0.267381
O O15 0.456623 0.500000 0.344648
#
# Coordination Sequence:
#
# PCOD9189451 Si02
#       7
#     8   8   4   8   8   8   8
#     4  10  21  36  56  86 118 148 184 241 297 338
#     4   9  19  35  54  80 114 150 190 237 283 327
#     4  12  24  36  57  80 118 162 199 232 280 348
#     4  12  22  34  55  81 113 157 201 230 275 346
#     4   9  20  35  58  84 121 146 184 249 294 332
#     4  10  20  39  54  83 119 154 191 237 285 342
#     4  10  19  37  63  89 115 146 189 240 297 352
#
# _framework density 17.099288000000001
#
# number of rings (size 3 to 8) (size 9 to 14) (size 15 to 20)
#    0.000    1.846    3.077    3.231    3.231    5.231 
#    0.000    3.462    0.000    0.000    0.000    1.077 
#    0.000    0.000    0.000    0.000    0.000    0.000 
#
# Total GULP energy -144811.211964 kJ/mol
# GULP energy per Si atom -5569.661999 kJ/mol
# Density = 1.706037 g / cm^3
# Si number density = 17.099288 Si / 1000 Ang^3
#
#
#
# Elastic Constant Matrix: (Units=GPa)
#
#
# Indices 1 2 3 4 5 6 
#
# 1 76.2550 40.2571 39.5770 0.0024 1.2105 0.0010
# 2 40.2571 110.7413 44.0200 -0.0021 5.4093 0.0041
# 3 39.5770 44.0200 127.5333 -0.0039 0.1928 0.0119
# 4 0.0024 -0.0021 -0.0039 18.1594 -0.0001 -1.4424
# 5 1.2105 5.4093 0.1928 -0.0001 24.3882 0.0020
# 6 0.0010 0.0041 0.0119 -1.4424 0.0020 4.3403
#
#
#
# Elastic Compliance Matrix: (Units=1/GPa)
#
#
# Indices 1 2 3 4 5 6 
#
# 1 0.017679 -0.004935 -0.003783 -0.000003 0.000247 0.000010
# 2 -0.004935 0.011973 -0.002598 0.000001 -0.002390 -0.000001
# 3 -0.003783 -0.002598 0.009911 0.000000 0.000686 -0.000024
# 4 -0.000003 0.000001 0.000000 0.056561 -0.000002 0.018797
# 5 0.000247 -0.002390 0.000686 -0.000002 0.041516 -0.000019
# 6 0.000010 -0.000001 -0.000024 0.018797 -0.000019 0.236644
#
#
# Mechanical properties :
#
#
# Convention : Reuss Voigt Hill
#
# Bulk Modulus (GPa) = 59.06263 62.47086 60.76675
# Shear Modulus (GPa) = 12.42052 22.08928 17.25490
#
# Velocity S-wave (km/s) = 2.69806 3.59810 3.18008
# Velocity P-wave (km/s) = 6.65748 7.33997 7.00704
#
# Compressibility (1/GPa) = 0.01693118
#
# Stress axis : x y z
#
# Youngs Moduli (GPa) = 56.56506 83.51873 100.90060
#
# Poissons Ratio (x) = 0.41215 0.38173
# Poissons Ratio (y) = 0.27914 0.26211
# Poissons Ratio (z) = 0.21400 0.21696
#
# Static dielectric constant tensor:
#      x y z
#    x 1.586280 0.000010 -0.001390 
#    y 0.000010 1.619990 -0.000010 
#    z -0.001390 -0.000010 1.646630 
# 
# From -- ./inp_files/265970.got.cif
#   From: 2010.05.17/outbox.cif.g08.bks.cpg/sg12_133_cif.got.tgz:265970.got - 2010.06.03 13:09:07.
