data_PCOD9189738
_publ_section_title
;
Structure prediction by ZEFSAII (Michael W. Deem and Ramdas Pophale) SiO2 
 PCOD9189738
Probable space group: C 2/M
;
_chemical_formula_sum "Si O2"
_cell_formula_units_Z 44
_cell_length_a 8.900600
_cell_length_b 16.808738
_cell_length_c 20.960039
_cell_angle_alpha 90.000000
_cell_angle_beta 44.886802
_cell_angle_gamma 90.000000
_cell_volume 2212.950792
_symmetry_space_group_name_H-M "C 2/M"
_symmetry_group_IT_number 12
_symmetry_cell_setting 'monoclinic'
loop_
_space_group_symop_operation_xyz
x,y,z
-x,y,-z
-x,-y,-z
x,-y,z
1/2+x,1/2+y,z
1/2-x,1/2+y,-z
1/2-x,1/2-y,-z
1/2+x,1/2-y,z
loop_
_atom_site_type_symbol
_atom_site_label
_atom_site_fract_x
_atom_site_fract_y
_atom_site_fract_z
Si Si1 0.456555 0.658065 0.731791
Si Si2 0.884317 0.500000 0.777751
Si Si3 0.787170 0.663203 0.520972
Si Si4 0.461659 0.250224 0.170614
Si Si5 0.588298 0.000000 0.585731
Si Si6 0.600198 0.500000 0.746031
Si Si7 0.682563 0.642187 0.900335
O O1 0.589068 0.651148 0.627578
O O2 0.565215 0.719697 0.748624
O O3 0.220418 0.687025 0.789827
O O4 0.470999 0.575964 0.764335
O O5 0.669993 0.500000 0.798388
O O6 0.860854 0.578821 0.826065
O O7 0.069406 0.500000 0.668883
O O8 0.750000 0.750000 0.500000
O O9 0.814279 0.583576 0.468702
O O10 0.000000 0.667460 0.500000
O O11 0.420228 0.319940 0.132321
O O12 0.695107 0.212122 0.098668
O O13 0.664010 0.000000 0.358542
O O14 0.500000 0.607273 0.000000
#
# Coordination Sequence:
#
# PCOD9189738 Si02
#       7
#     8   4   8   8   4   4   8
#     4  11  21  38  60  89 121 165 202 249 305 364
#     4  10  21  39  64  86 121 164 200 248 312 371
#     4  12  23  37  63  91 122 164 218 251 297 364
#     4  10  23  38  63  91 126 154 201 255 309 367
#     4  10  22  42  58  91 123 170 208 254 304 362
#     4  10  19  38  62  80 116 166 206 238 308 363
#     4  11  22  41  66  92 118 158 203 254 311 375
#
# _framework density 19.882954000000002
#
# number of rings (size 3 to 8) (size 9 to 14) (size 15 to 20)
#    0.545    0.727    3.636    2.727    5.091    0.727 
#    0.000    0.455    0.000    1.091    0.000    0.000 
#    0.000    0.000    0.000    0.000    0.000    0.000 
#
# Total GULP energy -122685.150147 kJ/mol
# GULP energy per Si atom -5576.597734 kJ/mol
# Density = 1.983770 g / cm^3
# Si number density = 19.882954 Si / 1000 Ang^3
#
#
#
# Elastic Constant Matrix: (Units=GPa)
#
#
# Indices 1 2 3 4 5 6 
#
# 1 52.7094 17.3977 5.8687 0.0000 6.1637 -0.0002
# 2 17.3977 98.8247 10.1795 0.0002 4.6624 0.0005
# 3 5.8687 10.1795 77.6763 -0.0005 3.4304 -0.0027
# 4 0.0000 0.0002 -0.0005 19.0722 -0.0005 -6.9094
# 5 6.1637 4.6624 3.4304 -0.0005 10.2729 -0.0002
# 6 -0.0002 0.0005 -0.0027 -6.9094 -0.0002 7.3580
#
#
#
# Elastic Compliance Matrix: (Units=1/GPa)
#
#
# Indices 1 2 3 4 5 6 
#
# 1 0.021402 -0.003168 -0.000709 0.000000 -0.011167 0.000000
# 2 -0.003168 0.010914 -0.001072 -0.000001 -0.002695 -0.000002
# 3 -0.000709 -0.001072 0.013223 0.000003 -0.003504 0.000008
# 4 0.000000 -0.000001 0.000003 0.079467 0.000005 0.074623
# 5 -0.011167 -0.002695 -0.003504 0.000005 0.106436 0.000005
# 6 0.000000 -0.000002 0.000008 0.074623 0.000005 0.205981
#
#
# Mechanical properties :
#
#
# Convention : Reuss Voigt Hill
#
# Bulk Modulus (GPa) = 28.05681 32.90026 30.47853
# Shear Modulus (GPa) = 10.88847 20.39157 15.64002
#
# Velocity S-wave (km/s) = 2.34268 3.20594 2.80769
# Velocity P-wave (km/s) = 4.63241 5.50336 5.08656
#
# Compressibility (1/GPa) = 0.03564197
#
# Stress axis : x y z
#
# Youngs Moduli (GPa) = 46.72383 91.62384 75.62758
#
# Poissons Ratio (x) = 0.29026 0.05360
# Poissons Ratio (y) = 0.14802 0.08107
# Poissons Ratio (z) = 0.03311 0.09822
#
# Static dielectric constant tensor:
#      x y z
#    x 1.692040 0.000000 0.031670 
#    y 0.000000 1.728120 0.000000 
#    z 0.031670 0.000000 1.712510 
# 
# From -- ./inp_files/256884.got.cif
#   From: 2010.05.17/outbox.cif.g08.bks.cpg/sg12_129_cif.got.tgz:256884.got - 2010.06.03 13:09:07.
