data_PCOD9189960
_publ_section_title
;
Structure prediction by ZEFSAII (Michael W. Deem and Ramdas Pophale) SiO2 
 PCOD9189960
Probable space group: C 2/M
;
_chemical_formula_sum "Si O2"
_cell_formula_units_Z 44
_cell_length_a 7.971064
_cell_length_b 21.576718
_cell_length_c 11.286712
_cell_angle_alpha 90.000000
_cell_angle_beta 73.389353
_cell_angle_gamma 90.000000
_cell_volume 1860.187737
_symmetry_space_group_name_H-M "C 2/M"
_symmetry_group_IT_number 12
_symmetry_cell_setting 'monoclinic'
loop_
_space_group_symop_operation_xyz
x,y,z
-x,y,-z
-x,-y,-z
x,-y,z
1/2+x,1/2+y,z
1/2-x,1/2+y,-z
1/2-x,1/2-y,-z
1/2+x,1/2-y,z
loop_
_atom_site_type_symbol
_atom_site_label
_atom_site_fract_x
_atom_site_fract_y
_atom_site_fract_z
Si Si1 0.228750 0.234038 0.171454
Si Si2 0.878381 0.174179 0.287313
Si Si3 0.602019 0.927682 0.605119
Si Si4 0.544546 0.148299 0.141000
Si Si5 0.500000 0.385645 0.500000
Si Si6 0.827712 0.928451 0.109902
O O1 0.050436 0.198830 0.187098
O O2 0.251190 0.266473 0.297802
O O3 0.382878 0.185902 0.121140
O O4 0.199350 0.299078 0.111012
O O5 0.943842 0.156809 0.402079
O O6 0.823182 0.111692 0.231177
O O7 0.500000 0.914522 0.500000
O O8 0.536392 0.878961 0.718467
O O9 0.815506 0.921912 0.558256
O O10 0.560846 0.000000 0.642594
O O11 0.652794 0.089705 0.072826
O O12 0.830467 0.000000 0.139771
O O13 0.000000 0.914514 0.000000
#
# Coordination Sequence:
#
# PCOD9189960 Si02
#       6
#     8   8   8   8   4   8
#     4   9  19  38  59  87 125 158 208 252 313 376
#     4  10  21  39  59  92 125 163 207 261 310 379
#     4  11  23  38  57  87 125 170 219 266 322 379
#     4  10  19  39  59  85 120 158 202 256 313 375
#     4  12  23  38  62  98 130 174 217 266 322 382
#     4  10  22  42  67  91 121 164 211 262 321 383
#
# _framework density 23.653528000000001
#
# number of rings (size 3 to 8) (size 9 to 14) (size 15 to 20)
#    0.000    1.818    1.818    3.000    0.000    3.636 
#    6.545   15.455    0.000    2.182    0.000    0.000 
#    0.000    0.000    0.000    0.000    0.000    0.000 
#
# Total GULP energy -122509.302579 kJ/mol
# GULP energy per Si atom -5568.604663 kJ/mol
# Density = 2.359969 g / cm^3
# Si number density = 23.653528 Si / 1000 Ang^3
#
#
#
# Elastic Constant Matrix: (Units=GPa)
#
#
# Indices 1 2 3 4 5 6 
#
# 1 140.7948 43.1816 33.6396 0.0000 -6.0453 0.0000
# 2 43.1816 107.1953 50.2399 0.0000 6.6008 0.0000
# 3 33.6396 50.2399 80.7286 0.0000 11.7921 0.0000
# 4 0.0000 0.0000 0.0000 8.5163 0.0000 3.5563
# 5 -6.0453 6.6008 11.7921 0.0000 43.7500 0.0000
# 6 0.0000 0.0000 0.0000 3.5563 0.0000 20.3794
#
#
#
# Elastic Compliance Matrix: (Units=1/GPa)
#
#
# Indices 1 2 3 4 5 6 
#
# 1 0.008510 -0.002472 -0.002325 0.000000 0.002176 0.000000
# 2 -0.002472 0.013891 -0.007556 0.000000 -0.000401 0.000000
# 3 -0.002325 -0.007556 0.018674 0.000000 -0.004215 0.000000
# 4 0.000000 0.000000 0.000000 0.126651 0.000000 -0.022101
# 5 0.002176 -0.000401 -0.004215 0.000000 0.024354 0.000000
# 6 0.000000 0.000000 0.000000 -0.022101 0.000000 0.052926
#
#
# Mechanical properties :
#
#
# Convention : Reuss Voigt Hill
#
# Bulk Modulus (GPa) = 61.09587 64.76011 62.92799
# Shear Modulus (GPa) = 18.17074 27.97300 23.07187
#
# Velocity S-wave (km/s) = 2.77466 3.44265 3.12654
# Velocity P-wave (km/s) = 6.01253 6.57575 6.30044
#
# Compressibility (1/GPa) = 0.01636772
#
# Stress axis : x y z
#
# Youngs Moduli (GPa) = 117.51261 71.99143 53.55038
#
# Poissons Ratio (x) = 0.17797 0.12452
# Poissons Ratio (y) = 0.29051 0.40462
# Poissons Ratio (z) = 0.27325 0.54396
#
# Static dielectric constant tensor:
#      x y z
#    x 2.013660 0.000000 0.099310 
#    y 0.000000 1.884330 0.000000 
#    z 0.099310 0.000000 2.101170 
# 
# From -- ./inp_files/120700.got.cif
#   From: 2010.05.17/outbox.cif.g08.bks.cpg/sg12_61_cif.got.tgz:120700.got - 2010.06.03 13:09:07.
