data_PCOD9189139
_publ_section_title
;
Structure prediction by ZEFSAII (Michael W. Deem and Ramdas Pophale) SiO2 
 PCOD9189139
Probable space group: C 2/M
;
_chemical_formula_sum "Si O2"
_cell_formula_units_Z 56
_cell_length_a 18.605615
_cell_length_b 20.274134
_cell_length_c 23.075909
_cell_angle_alpha 90.000000
_cell_angle_beta 157.748302
_cell_angle_gamma 90.000000
_cell_volume 3296.195743
_symmetry_space_group_name_H-M "C 2/M"
_symmetry_group_IT_number 12
_symmetry_cell_setting 'monoclinic'
loop_
_space_group_symop_operation_xyz
x,y,z
-x,y,-z
-x,-y,-z
x,-y,z
1/2+x,1/2+y,z
1/2-x,1/2+y,-z
1/2-x,1/2-y,-z
1/2+x,1/2-y,z
loop_
_atom_site_type_symbol
_atom_site_label
_atom_site_fract_x
_atom_site_fract_y
_atom_site_fract_z
Si Si1 0.125632 0.264674 0.538930
Si Si2 0.553216 0.209860 0.358304
Si Si3 0.066080 0.213630 0.836439
Si Si4 0.951268 0.890024 0.527804
Si Si5 0.298383 0.077363 0.866952
Si Si6 0.769615 0.925816 0.046995
Si Si7 0.064854 0.426625 0.296550
O O1 0.027926 0.293696 0.408045
O O2 0.355636 0.274179 0.706714
O O3 0.105282 0.185924 0.521600
O O4 0.000000 0.287753 0.500000
O O5 0.750000 0.250000 0.500000
O O6 0.427605 0.257606 0.224487
O O7 0.554098 0.137073 0.330464
O O8 0.094495 0.135511 0.862438
O O9 0.250000 0.250000 0.000000
O O10 0.772383 0.925287 0.422943
O O11 0.000000 0.916138 0.500000
O O12 0.126735 0.892597 0.702775
O O13 0.281933 0.079947 0.923774
O O14 0.702500 0.000000 0.150506
O O15 0.500000 0.107143 0.000000
O O16 0.847001 0.000000 0.095604
O O17 0.588767 0.918615 0.869674
O O18 0.034204 0.500000 0.299944
#
# Coordination Sequence:
#
# PCOD9189139 Si02
#       7
#     8   8   8   8   8   8   8
#     4  10  22  38  58  82 115 149 191 240 285 340
#     4  10  19  37  58  80 113 150 184 236 278 334
#     4  11  19  36  62  84 112 151 189 232 290 336
#     4  11  20  34  54  79 114 156 190 229 282 343
#     4  10  21  34  48  74 116 157 188 228 276 333
#     4  10  21  35  54  82 113 144 192 242 284 342
#     4  11  21  35  56  85 113 149 192 232 284 347
#
# _framework density 16.989281999999999
#
# number of rings (size 3 to 8) (size 9 to 14) (size 15 to 20)
#    0.000    1.571    4.286    2.143    2.000    3.429 
#    0.000    0.714    0.000    1.714    0.000    2.000 
#    0.000    0.000    0.000    0.000    0.000    0.000 
#
# Total GULP energy -155911.288113 kJ/mol
# GULP energy per Si atom -5568.260290 kJ/mol
# Density = 1.695061 g / cm^3
# Si number density = 16.989282 Si / 1000 Ang^3
#
#
#
# Elastic Constant Matrix: (Units=GPa)
#
#
# Indices 1 2 3 4 5 6 
#
# 1 97.8266 38.2356 51.2101 -0.0047 -9.0324 -0.0047
# 2 38.2356 120.2575 49.2242 0.0115 -0.0442 -0.0018
# 3 51.2101 49.2242 113.2303 0.0103 -5.2222 -0.0148
# 4 -0.0047 0.0115 0.0103 26.0928 0.0043 3.9206
# 5 -9.0324 -0.0442 -5.2222 0.0043 28.4735 -0.0110
# 6 -0.0047 -0.0018 -0.0148 3.9206 -0.0110 13.5621
#
#
#
# Elastic Compliance Matrix: (Units=1/GPa)
#
#
# Indices 1 2 3 4 5 6 
#
# 1 0.014218 -0.002377 -0.005233 0.000005 0.003547 0.000000
# 2 -0.002377 0.010531 -0.003567 -0.000003 -0.001392 -0.000004
# 3 -0.005233 -0.003567 0.012780 -0.000007 0.000678 0.000014
# 4 0.000005 -0.000003 -0.000007 0.040065 -0.000010 -0.011582
# 5 0.003547 -0.001392 0.000678 -0.000010 0.036368 0.000034
# 6 0.000000 -0.000004 0.000014 -0.011582 0.000034 0.077083
#
#
# Mechanical properties :
#
#
# Convention : Reuss Voigt Hill
#
# Bulk Modulus (GPa) = 65.90151 67.62826 66.76488
# Shear Modulus (GPa) = 22.88756 26.46865 24.67810
#
# Velocity S-wave (km/s) = 3.67437 3.95138 3.81539
# Velocity P-wave (km/s) = 7.54159 7.79171 7.66767
#
# Compressibility (1/GPa) = 0.01517416
#
# Stress axis : x y z
#
# Youngs Moduli (GPa) = 70.33142 94.95841 78.24432
#
# Poissons Ratio (x) = 0.22574 0.40949
# Poissons Ratio (y) = 0.16719 0.27911
# Poissons Ratio (z) = 0.36808 0.33873
#
# Static dielectric constant tensor:
#      x y z
#    x 1.609720 0.000020 -0.017630 
#    y 0.000020 1.603000 0.000010 
#    z -0.017630 0.000010 1.582420 
# 
# From -- ./inp_files/347804.got.cif
#   From: 2010.05.17/outbox.cif.g08.bks.cpg/sg12_174_cif.got.tgz:347804.got - 2010.06.03 13:09:07.
