data_PCOD9189005
_publ_section_title
;
Structure prediction by ZEFSAII (Michael W. Deem and Ramdas Pophale) SiO2 
 PCOD9189005
Probable space group: C 2/M
;
_chemical_formula_sum "Si O2"
_cell_formula_units_Z 56
_cell_length_a 11.679161
_cell_length_b 21.546589
_cell_length_c 11.292889
_cell_angle_alpha 90.000000
_cell_angle_beta 73.719851
_cell_angle_gamma 90.000000
_cell_volume 2727.861674
_symmetry_space_group_name_H-M "C 2/M"
_symmetry_group_IT_number 12
_symmetry_cell_setting 'monoclinic'
loop_
_space_group_symop_operation_xyz
x,y,z
-x,y,-z
-x,-y,-z
x,-y,z
1/2+x,1/2+y,z
1/2-x,1/2+y,-z
1/2-x,1/2-y,-z
1/2+x,1/2-y,z
loop_
_atom_site_type_symbol
_atom_site_label
_atom_site_fract_x
_atom_site_fract_y
_atom_site_fract_z
Si Si1 0.241696 0.626511 0.008856
Si Si2 0.813386 0.384966 0.323528
Si Si3 0.801620 0.425627 0.589061
Si Si4 0.378900 0.429545 0.779756
Si Si5 0.106655 0.138919 0.811962
Si Si6 0.119626 0.281675 0.882906
Si Si7 0.943701 0.432658 0.777186
O O1 0.348256 0.617948 0.071682
O O2 0.122590 0.615050 0.118642
O O3 0.267781 0.575694 0.902151
O O4 0.222484 0.690639 0.941785
O O5 0.817295 0.388158 0.463680
O O6 0.680766 0.404214 0.322473
O O7 0.858978 0.324405 0.239689
O O8 0.915578 0.432407 0.252278
O O9 0.783111 0.500000 0.571508
O O10 0.694772 0.393790 0.693092
O O11 0.910771 0.420695 0.649898
O O12 0.422402 0.500000 0.756976
O O13 0.478081 0.383866 0.805253
O O14 0.121005 0.212581 0.828512
O O15 0.000000 0.286043 0.000000
O O16 0.892033 0.500000 0.821120
#
# Coordination Sequence:
#
# PCOD9189005 Si02
#       7
#     8   8   8   8   8   8   8
#     4  10  21  38  62  94 123 163 205 263 320 370
#     4  11  23  40  63  94 127 168 207 260 320 373
#     4  10  22  41  66  94 123 163 213 263 318 370
#     4  11  23  38  61  94 129 168 212 261 318 377
#     4  11  24  40  62  88 123 174 212 255 305 369
#     4  11  22  41  64  91 128 161 210 257 317 379
#     4  10  19  36  64  96 125 157 203 262 325 377
#
# _framework density 20.528901000000001
#
# number of rings (size 3 to 8) (size 9 to 14) (size 15 to 20)
#    0.000    1.429    1.429    4.286    0.000    5.714 
#    0.000    3.571    3.143    0.000    0.000    0.000 
#    0.000    0.000    0.000    0.000    0.000    0.000 
#
# Total GULP energy -155905.636527 kJ/mol
# GULP energy per Si atom -5568.058447 kJ/mol
# Density = 2.048218 g / cm^3
# Si number density = 20.528901 Si / 1000 Ang^3
#
#
#
# Elastic Constant Matrix: (Units=GPa)
#
#
# Indices 1 2 3 4 5 6 
#
# 1 105.3617 12.4147 22.5424 0.0000 7.8722 0.0000
# 2 12.4147 84.4285 40.2992 0.0000 13.3348 0.0000
# 3 22.5424 40.2992 92.0599 0.0000 12.2295 0.0000
# 4 0.0000 0.0000 0.0000 -7.8668 0.0000 -5.8827
# 5 7.8722 13.3348 12.2295 0.0000 15.1475 0.0000
# 6 0.0000 0.0000 0.0000 -5.8827 0.0000 25.7043
#
#
#
# Elastic Compliance Matrix: (Units=1/GPa)
#
#
# Indices 1 2 3 4 5 6 
#
# 1 0.010196 0.000055 -0.002028 0.000000 -0.003710 0.000000
# 2 0.000055 0.016109 -0.005800 0.000000 -0.009528 0.000000
# 3 -0.002028 -0.005800 0.014651 0.000000 -0.005669 0.000000
# 4 0.000000 0.000000 0.000000 -0.108541 0.000000 -0.024841
# 5 -0.003710 -0.009528 -0.005669 0.000000 0.080910 0.000000
# 6 0.000000 0.000000 0.000000 -0.024841 0.000000 0.033219
#
#
# Mechanical properties :
#
#
# Convention : Reuss Voigt Hill
#
# Bulk Modulus (GPa) = 39.35369 48.04031 43.69700
# Shear Modulus (GPa) = 70.86227 20.36992 45.61609
#
# Velocity S-wave (km/s) = 5.88160 3.15343 4.71897
# Velocity P-wave (km/s) = 8.08306 6.05895 7.14306
#
# Compressibility (1/GPa) = 0.02541058
#
# Stress axis : x y z
#
# Youngs Moduli (GPa) = 98.08075 62.07576 68.25534
#
# Poissons Ratio (x) = -0.00339 0.13840
# Poissons Ratio (y) = -0.00535 0.39585
# Poissons Ratio (z) = 0.19887 0.36001
#
# Static dielectric constant tensor:
#      x y z
#    x 1.806570 0.000000 0.007170 
#    y 0.000000 1.744280 0.000000 
#    z 0.007170 0.000000 1.721550 
# 
# From -- ./inp_files/133848.got.cif
#   From: 2010.05.17/outbox.cif.g08.bks.cpg/sg12_67_cif.got.tgz:133848.got - 2010.06.03 13:09:07.
