data_PCOD9189295
_publ_section_title
;
Structure prediction by ZEFSAII (Michael W. Deem and Ramdas Pophale) SiO2 
 PCOD9189295
Probable space group: C 2/M
;
_chemical_formula_sum "Si O2"
_cell_formula_units_Z 64
_cell_length_a 15.811055
_cell_length_b 8.648175
_cell_length_c 34.778784
_cell_angle_alpha 90.000000
_cell_angle_beta 135.727745
_cell_angle_gamma 90.000000
_cell_volume 3319.692347
_symmetry_space_group_name_H-M "C 2/M"
_symmetry_group_IT_number 12
_symmetry_cell_setting 'monoclinic'
loop_
_space_group_symop_operation_xyz
x,y,z
-x,y,-z
-x,-y,-z
x,-y,z
1/2+x,1/2+y,z
1/2-x,1/2+y,-z
1/2-x,1/2-y,-z
1/2+x,1/2-y,z
loop_
_atom_site_type_symbol
_atom_site_label
_atom_site_fract_x
_atom_site_fract_y
_atom_site_fract_z
Si Si1 0.356290 0.684932 0.140143
Si Si2 0.078385 0.311522 0.061886
Si Si3 0.668731 0.686773 0.439247
Si Si4 0.777711 0.185000 0.629510
Si Si5 0.609178 0.686145 0.637211
Si Si6 0.522231 0.183675 0.745825
Si Si7 0.511005 0.186438 0.125323
Si Si8 0.226300 0.813451 0.755384
O O1 0.360960 0.500000 0.145134
O O2 0.218373 0.735837 0.103368
O O3 0.442721 0.758252 0.200469
O O4 0.403199 0.736752 0.113865
O O5 0.078108 0.500000 0.061726
O O6 0.023869 0.264252 0.085189
O O7 0.000000 0.259176 0.000000
O O8 0.671567 0.500000 0.440869
O O9 0.750000 0.750000 0.500000
O O10 0.715691 0.737871 0.412643
O O11 0.528589 0.734145 0.399047
O O12 0.663248 0.244781 0.616034
O O13 0.897912 0.244492 0.690020
O O14 0.778834 0.000000 0.630069
O O15 0.612106 0.500000 0.635548
O O16 0.692414 0.730552 0.700837
O O17 0.629772 0.237632 0.752572
O O18 0.511251 0.000000 0.742397
O O19 0.638041 0.225961 0.187666
O O20 0.498118 0.000000 0.122403
O O21 0.213255 0.000000 0.754494
#
# Coordination Sequence:
#
# PCOD9189295 Si02
#       8
#     8   8   8   8   8   8   8   8
#     4  11  22  38  60  87 119 156 197 243 295 352
#     4   9  19  37  60  84 115 159 203 242 293 352
#     4  10  23  42  63  86 120 161 201 247 295 345
#     4  11  23  41  63  90 122 157 197 243 297 352
#     4  10  21  39  62  89 122 158 198 243 295 353
#     4  12  23  36  60  91 121 154 194 240 295 357
#     4  10  20  36  60  88 119 157 195 240 297 352
#     4  10  19  37  61  85 119 157 192 236 296 355
#
# _framework density 19.278893
#
# number of rings (size 3 to 8) (size 9 to 14) (size 15 to 20)
#    0.000    1.625    2.500    2.625    0.000    4.500 
#    0.000    2.500    0.000    2.625    0.000    0.000 
#    0.000    0.000    0.000    0.000    0.000    0.000 
#
# Total GULP energy -178852.743040 kJ/mol
# GULP energy per Si atom -5589.148220 kJ/mol
# Density = 1.923501 g / cm^3
# Si number density = 19.278893 Si / 1000 Ang^3
#
#
#
# Elastic Constant Matrix: (Units=GPa)
#
#
# Indices 1 2 3 4 5 6 
#
# 1 126.3553 20.3665 37.8710 0.0000 -44.3964 0.0000
# 2 20.3665 15.3508 10.8047 0.0000 -8.9814 0.0000
# 3 37.8710 10.8047 116.6211 0.0000 -34.6490 0.0000
# 4 0.0000 0.0000 0.0000 16.5284 0.0000 -6.1702
# 5 -44.3964 -8.9814 -34.6490 0.0000 20.9287 0.0000
# 6 0.0000 0.0000 0.0000 -6.1702 0.0000 31.4899
#
#
#
# Elastic Compliance Matrix: (Units=1/GPa)
#
#
# Indices 1 2 3 4 5 6 
#
# 1 0.093999 0.009469 0.057170 0.000000 0.298116 0.000000
# 2 0.009469 0.090099 0.011874 0.000000 0.078409 0.000000
# 3 0.057170 0.011874 0.052066 0.000000 0.212571 0.000000
# 4 0.000000 0.000000 0.000000 0.065277 0.000000 0.012790
# 5 0.298116 0.078409 0.212571 0.000000 1.065756 0.000000
# 6 0.000000 0.000000 0.000000 0.012790 0.000000 0.034262
#
#
# Mechanical properties :
#
#
# Convention : Reuss Voigt Hill
#
# Bulk Modulus (GPa) = 2.54330 44.04573 23.29452
# Shear Modulus (GPa) = 3.63505 26.40840 15.02173
#
# Velocity S-wave (km/s) = 1.37463 3.70511 2.79441
# Velocity P-wave (km/s) = 1.95999 6.41872 4.74560
#
# Compressibility (1/GPa) = 0.39318934
#
# Stress axis : x y z
#
# Youngs Moduli (GPa) = 10.63838 11.09895 19.20636
#
# Poissons Ratio (x) = -0.10509 -1.09803
# Poissons Ratio (y) = -0.10073 -0.22805
# Poissons Ratio (z) = -0.60820 -0.13179
#
# Static dielectric constant tensor:
#      x y z
#    x 1.666520 0.000000 -0.009180 
#    y 0.000000 1.654410 0.000000 
#    z -0.009180 0.000000 1.654040 
# 
# From -- ./inp_files/375618.got.cif
#   From: 2010.05.17/outbox.cif.g08.bks.cpg/sg12_188_cif.got.tgz:375618.got - 2010.06.03 13:09:07.
