data_PCOD9189099
_publ_section_title
;
Structure prediction by ZEFSAII (Michael W. Deem and Ramdas Pophale) SiO2 
 PCOD9189099
Probable space group: C 2/M
;
_chemical_formula_sum "Si O2"
_cell_formula_units_Z 44
_cell_length_a 17.970898
_cell_length_b 23.253439
_cell_length_c 14.667514
_cell_angle_alpha 90.000000
_cell_angle_beta 22.134113
_cell_angle_gamma 90.000000
_cell_volume 2309.385978
_symmetry_space_group_name_H-M "C 2/M"
_symmetry_group_IT_number 12
_symmetry_cell_setting 'monoclinic'
loop_
_space_group_symop_operation_xyz
x,y,z
-x,y,-z
-x,-y,-z
x,-y,z
1/2+x,1/2+y,z
1/2-x,1/2+y,-z
1/2-x,1/2-y,-z
1/2+x,1/2-y,z
loop_
_atom_site_type_symbol
_atom_site_label
_atom_site_fract_x
_atom_site_fract_y
_atom_site_fract_z
Si Si1 0.270924 0.000000 0.526607
Si Si2 0.972181 0.775161 0.251183
Si Si3 0.532576 0.000000 0.069742
Si Si4 0.124885 0.500000 0.265836
Si Si5 0.538386 0.588133 0.163907
Si Si6 0.635260 0.413623 0.262332
Si Si7 0.353717 0.276465 0.746593
O O1 0.332203 0.000000 0.351831
O O2 0.465425 0.000000 0.365963
O O3 0.136256 0.055878 0.690943
O O4 0.750000 0.750000 0.500000
O O5 0.999922 0.843673 0.203411
O O6 0.048218 0.761870 0.267393
O O7 0.130249 0.746736 0.002779
O O8 0.500000 0.000000 0.000000
O O9 0.658174 0.054782 0.959326
O O10 0.000000 0.500000 0.500000
O O11 0.263462 0.556890 0.098905
O O12 0.547299 0.574134 0.262368
O O13 0.500000 0.432993 0.500000
O O14 0.659044 0.345365 0.243562
O O15 0.500000 0.256529 0.500000
#
# Coordination Sequence:
#
# PCOD9189099 Si02
#       7
#     4   8   4   4   8   8   8
#     4  11  22  37  61  86 118 153 197 245 306 358
#     4  10  22  38  63  89 119 157 209 255 306 367
#     4  12  21  30  57  94 117 156 194 232 294 372
#     4  11  24  44  63  84 116 165 204 254 314 361
#     4  10  22  40  60  89 120 154 201 258 301 368
#     4  10  19  37  56  83 128 155 189 242 298 371
#     4   9  21  40  59  84 122 164 198 247 308 368
#
# _framework density 19.052683999999999
#
# number of rings (size 3 to 8) (size 9 to 14) (size 15 to 20)
#    0.000    1.818    1.818    1.909    2.545    4.364 
#    0.000    1.818    0.000    0.000    0.000    0.000 
#    0.000    0.000    0.000    0.000    0.000    0.000 
#
# Total GULP energy -122670.922893 kJ/mol
# GULP energy per Si atom -5575.951041 kJ/mol
# Density = 1.900932 g / cm^3
# Si number density = 19.052684 Si / 1000 Ang^3
#
#
#
# Elastic Constant Matrix: (Units=GPa)
#
#
# Indices 1 2 3 4 5 6 
#
# 1 51.1212 32.5868 50.3058 0.0138 0.4339 -0.0019
# 2 32.5868 76.5380 66.4671 0.0470 -4.9486 -0.0173
# 3 50.3058 66.4671 170.7035 0.0411 0.7977 -0.0395
# 4 0.0138 0.0470 0.0411 10.0946 -0.0178 6.5406
# 5 0.4339 -4.9486 0.7977 -0.0178 44.1315 0.0030
# 6 -0.0019 -0.0173 -0.0395 6.5406 0.0030 16.6342
#
#
#
# Elastic Compliance Matrix: (Units=1/GPa)
#
#
# Indices 1 2 3 4 5 6 
#
# 1 0.030390 -0.007910 -0.005871 0.000039 -0.001080 -0.000034
# 2 -0.007910 0.022047 -0.006266 -0.000088 0.002663 0.000041
# 3 -0.005871 -0.006266 0.010032 -0.000021 -0.000826 0.000025
# 4 0.000039 -0.000088 -0.000021 0.132931 0.000047 -0.052269
# 5 -0.001080 0.002663 -0.000826 0.000047 0.022984 -0.000022
# 6 -0.000034 0.000041 0.000025 -0.052269 -0.000022 0.080669
#
#
# Mechanical properties :
#
#
# Convention : Reuss Voigt Hill
#
# Bulk Modulus (GPa) = 44.69278 66.34246 55.51762
# Shear Modulus (GPa) = 14.42566 24.10559 19.26563
#
# Velocity S-wave (km/s) = 2.75461 3.56083 3.18335
# Velocity P-wave (km/s) = 5.79876 7.19737 6.53559
#
# Compressibility (1/GPa) = 0.02237498
#
# Stress axis : x y z
#
# Youngs Moduli (GPa) = 32.90547 45.35798 99.68375
#
# Poissons Ratio (x) = 0.35880 0.58522
# Poissons Ratio (y) = 0.26030 0.62458
# Poissons Ratio (z) = 0.19318 0.28420
#
# Static dielectric constant tensor:
#      x y z
#    x 1.663530 0.000000 0.020690 
#    y 0.000000 1.661280 0.000010 
#    z 0.020690 0.000010 1.682080 
# 
# From -- ./inp_files/16843.got.cif
#   From: 2010.05.17/outbox.cif.g08.bks.cpg/sg12_9_cif.got.tgz:16843.got - 2010.06.03 13:09:07.
