data_PCOD9189723
_publ_section_title
;
Structure prediction by ZEFSAII (Michael W. Deem and Ramdas Pophale) SiO2 
 PCOD9189723
Probable space group: C 2/M
;
_chemical_formula_sum "Si O2"
_cell_formula_units_Z 52
_cell_length_a 15.228630
_cell_length_b 18.715490
_cell_length_c 15.715155
_cell_angle_alpha 90.000000
_cell_angle_beta 143.525482
_cell_angle_gamma 90.000000
_cell_volume 2662.607521
_symmetry_space_group_name_H-M "C 2/M"
_symmetry_group_IT_number 12
_symmetry_cell_setting 'monoclinic'
loop_
_space_group_symop_operation_xyz
x,y,z
-x,y,-z
-x,-y,-z
x,-y,z
1/2+x,1/2+y,z
1/2-x,1/2+y,-z
1/2-x,1/2-y,-z
1/2+x,1/2-y,z
loop_
_atom_site_type_symbol
_atom_site_label
_atom_site_fract_x
_atom_site_fract_y
_atom_site_fract_z
Si Si1 0.141379 0.804038 0.967023
Si Si2 0.896239 0.500000 0.676683
Si Si3 0.648060 0.769802 0.729471
Si Si4 0.057875 0.000000 0.448850
Si Si5 0.108224 0.500000 0.004609
Si Si6 0.365966 0.612652 0.201622
Si Si7 0.315395 0.263692 0.687949
Si Si8 0.856357 0.346664 0.572493
O O1 0.120699 0.871330 0.888632
O O2 0.980318 0.770272 0.852580
O O3 0.250000 0.750000 0.000000
O O4 0.224572 0.813036 0.120451
O O5 0.733210 0.500000 0.590109
O O6 0.899944 0.427755 0.624279
O O7 0.017894 0.500000 0.845896
O O8 0.642876 0.688901 0.759586
O O9 0.695320 0.765253 0.668646
O O10 0.495146 0.806088 0.637806
O O11 0.000000 0.000000 0.500000
O O12 0.994502 0.067255 0.346580
O O13 0.215525 0.568207 0.094732
O O14 0.000000 0.500000 0.000000
O O15 0.278436 0.329413 0.595800
O O16 0.315824 0.193206 0.629248
#
# Coordination Sequence:
#
# PCOD9189723 Si02
#       8
#     8   4   8   4   4   8   8   8
#     4  10  19  38  61  90 123 163 213 258 316 375
#     4  12  26  42  65  88 132 176 206 268 330 380
#     4  11  23  40  69  95 127 167 218 275 319 381
#     4  11  25  39  57  93 128 176 220 251 331 405
#     4  11  25  37  57  95 132 168 210 249 333 391
#     4  10  22  41  59  87 134 167 204 266 308 394
#     4  11  23  40  65  95 128 166 217 269 325 376
#     4  11  25  43  63  97 130 171 217 265 327 391
#
# _framework density 19.529729
#
# number of rings (size 3 to 8) (size 9 to 14) (size 15 to 20)
#    0.000    1.231    3.077    3.692    8.615    0.000 
#    0.000    1.538    0.000    0.000    0.000    8.615 
#    0.000    0.000    0.000    0.000    0.000    0.000 
#
# Total GULP energy -145220.830438 kJ/mol
# GULP energy per Si atom -5585.416555 kJ/mol
# Density = 1.948528 g / cm^3
# Si number density = 19.529729 Si / 1000 Ang^3
#
#
#
# Elastic Constant Matrix: (Units=GPa)
#
#
# Indices 1 2 3 4 5 6 
#
# 1 111.5672 43.0152 18.4870 -0.0002 -3.7631 0.0000
# 2 43.0152 115.3729 23.3008 -0.0003 -1.9341 -0.0001
# 3 18.4870 23.3008 89.7731 -0.0006 9.1308 -0.0002
# 4 -0.0002 -0.0003 -0.0006 23.4574 -0.0001 -1.6764
# 5 -3.7631 -1.9341 9.1308 -0.0001 36.9783 0.0000
# 6 0.0000 -0.0001 -0.0002 -1.6764 0.0000 11.2495
#
#
#
# Elastic Compliance Matrix: (Units=1/GPa)
#
#
# Indices 1 2 3 4 5 6 
#
# 1 0.010647 -0.003674 -0.001364 0.000000 0.001228 0.000000
# 2 -0.003674 0.010458 -0.002026 0.000000 0.000673 0.000000
# 3 -0.001364 -0.002026 0.012279 0.000000 -0.003277 0.000000
# 4 0.000000 0.000000 0.000000 0.043089 0.000000 0.006421
# 5 0.001228 0.000673 -0.003277 0.000000 0.028012 0.000000
# 6 0.000000 0.000000 0.000000 0.006421 0.000000 0.089850
#
#
# Mechanical properties :
#
#
# Convention : Reuss Voigt Hill
#
# Bulk Modulus (GPa) = 51.93099 54.03547 52.98323
# Shear Modulus (GPa) = 23.26859 29.79771 26.53315
#
# Velocity S-wave (km/s) = 3.45548 3.91034 3.68992
# Velocity P-wave (km/s) = 6.52448 6.93657 6.73368
#
# Compressibility (1/GPa) = 0.01925632
#
# Stress axis : x y z
#
# Youngs Moduli (GPa) = 93.92323 95.62326 81.43785
#
# Poissons Ratio (x) = 0.35127 0.11108
# Poissons Ratio (y) = 0.34503 0.16502
# Poissons Ratio (z) = 0.12811 0.19376
#
# Static dielectric constant tensor:
#      x y z
#    x 1.689120 0.000000 -0.004330 
#    y 0.000000 1.696530 0.000000 
#    z -0.004330 0.000000 1.719500 
# 
# From -- ./inp_files/216899.got.cif
#   From: 2010.05.17/outbox.cif.g08.bks.cpg/sg12_109_cif.got.tgz:216899.got - 2010.06.03 13:09:07.
