data_PCOD9189551
_publ_section_title
;
Structure prediction by ZEFSAII (Michael W. Deem and Ramdas Pophale) SiO2 
 PCOD9189551
Probable space group: C 2/M
;
_chemical_formula_sum "Si O2"
_cell_formula_units_Z 40
_cell_length_a 17.668673
_cell_length_b 14.171894
_cell_length_c 11.790658
_cell_angle_alpha 90.000000
_cell_angle_beta 131.303428
_cell_angle_gamma 90.000000
_cell_volume 2217.888442
_symmetry_space_group_name_H-M "C 2/M"
_symmetry_group_IT_number 12
_symmetry_cell_setting 'monoclinic'
loop_
_space_group_symop_operation_xyz
x,y,z
-x,y,-z
-x,-y,-z
x,-y,z
1/2+x,1/2+y,z
1/2-x,1/2+y,-z
1/2-x,1/2-y,-z
1/2+x,1/2-y,z
loop_
_atom_site_type_symbol
_atom_site_label
_atom_site_fract_x
_atom_site_fract_y
_atom_site_fract_z
Si Si1 0.859245 0.000000 0.746483
Si Si2 0.532588 0.218151 0.409449
Si Si3 0.096401 0.000000 0.942746
Si Si4 0.332085 0.606232 0.376672
Si Si5 0.337483 0.316852 0.131646
Si Si6 0.282161 0.857868 0.524569
O O1 0.795181 0.912471 0.634020
O O2 0.974126 0.000000 0.815128
O O3 0.869617 0.000000 0.892231
O O4 0.500000 0.179095 0.500000
O O5 0.591376 0.316433 0.496320
O O6 0.435900 0.251321 0.244384
O O7 0.606333 0.146989 0.416866
O O8 0.137330 0.094248 0.923070
O O9 0.374430 0.500000 0.416679
O O10 0.310496 0.641153 0.228819
O O11 0.236744 0.605125 0.367201
O O12 0.250000 0.250000 0.000000
O O13 0.250000 0.750000 0.500000
#
# Coordination Sequence:
#
# PCOD9189551 Si02
#       6
#     4   8   4   8   8   8
#     4  11  24  39  63  94 115 161 198 255 302 356
#     4   9  21  36  62  88 119 156 206 245 299 348
#     4  11  24  39  60  89 128 153 202 244 308 367
#     4  10  19  37  66  90 112 148 206 261 292 342
#     4  11  24  40  60  89 125 164 196 243 304 363
#     4  10  20  37  62  88 120 147 200 252 298 346
#
# _framework density 18.035171999999999
#
# number of rings (size 3 to 8) (size 9 to 14) (size 15 to 20)
#    0.000    1.800    2.000    2.400    9.800    1.200 
#    0.000    1.500    0.000    1.200    0.000    0.000 
#    0.000    0.000    0.000    0.000    0.000    0.000 
#
# Total GULP energy -111529.563608 kJ/mol
# GULP energy per Si atom -5576.478180 kJ/mol
# Density = 1.799412 g / cm^3
# Si number density = 18.035172 Si / 1000 Ang^3
#
#
#
# Elastic Constant Matrix: (Units=GPa)
#
#
# Indices 1 2 3 4 5 6 
#
# 1 164.4356 54.0152 80.3319 0.0000 -1.4241 0.0000
# 2 54.0152 91.3086 67.3917 0.0000 8.4520 0.0000
# 3 80.3319 67.3917 121.5540 0.0000 -1.2144 0.0000
# 4 0.0000 0.0000 0.0000 19.6327 0.0000 -3.4378
# 5 -1.4241 8.4520 -1.2144 0.0000 19.5308 0.0000
# 6 0.0000 0.0000 0.0000 -3.4378 0.0000 30.5398
#
#
#
# Elastic Compliance Matrix: (Units=1/GPa)
#
#
# Indices 1 2 3 4 5 6 
#
# 1 0.009140 -0.001797 -0.005033 0.000000 0.001131 0.000000
# 2 -0.001797 0.020483 -0.010264 0.000000 -0.009633 0.000000
# 3 -0.005033 -0.010264 0.017295 0.000000 0.005150 0.000000
# 4 0.000000 0.000000 0.000000 0.051960 0.000000 0.005849
# 5 0.001131 -0.009633 0.005150 0.000000 0.055773 0.000000
# 6 0.000000 0.000000 0.000000 0.005849 0.000000 0.033403
#
#
# Mechanical properties :
#
#
# Convention : Reuss Voigt Hill
#
# Bulk Modulus (GPa) = 78.56097 86.75287 82.65692
# Shear Modulus (GPa) = 22.07658 25.64464 23.86061
#
# Velocity S-wave (km/s) = 3.50249 3.77493 3.64126
# Velocity P-wave (km/s) = 7.74668 8.19796 7.97551
#
# Compressibility (1/GPa) = 0.01272897
#
# Stress axis : x y z
#
# Youngs Moduli (GPa) = 109.40575 48.82214 57.81991
#
# Poissons Ratio (x) = 0.08775 0.29100
# Poissons Ratio (y) = 0.19663 0.59348
# Poissons Ratio (z) = 0.55062 0.50113
#
# Static dielectric constant tensor:
#      x y z
#    x 1.695860 0.000000 -0.009720 
#    y 0.000000 1.597830 0.000000 
#    z -0.009720 0.000000 1.584150 
# 
# From -- ./inp_files/155110.got.cif
#   From: 2010.05.17/outbox.cif.g08.bks.cpg/sg12_78_cif.got.tgz:155110.got - 2010.06.03 13:09:07.
