data_PCOD9189230
_publ_section_title
;
Structure prediction by ZEFSAII (Michael W. Deem and Ramdas Pophale) SiO2 
 PCOD9189230
Probable space group: C 2/M
;
_chemical_formula_sum "Si O2"
_cell_formula_units_Z 56
_cell_length_a 15.820531
_cell_length_b 31.578563
_cell_length_c 8.207266
_cell_angle_alpha 90.000000
_cell_angle_beta 34.516236
_cell_angle_gamma 90.000000
_cell_volume 2323.373141
_symmetry_space_group_name_H-M "C 2/M"
_symmetry_group_IT_number 12
_symmetry_cell_setting 'monoclinic'
loop_
_space_group_symop_operation_xyz
x,y,z
-x,y,-z
-x,-y,-z
x,-y,z
1/2+x,1/2+y,z
1/2-x,1/2+y,-z
1/2-x,1/2-y,-z
1/2+x,1/2-y,z
loop_
_atom_site_type_symbol
_atom_site_label
_atom_site_fract_x
_atom_site_fract_y
_atom_site_fract_z
Si Si1 0.669327 0.411000 0.858830
Si Si2 0.148682 0.500000 0.047739
Si Si3 0.865526 0.218765 0.925038
Si Si4 0.454525 0.369969 0.404552
Si Si5 0.075790 0.292894 0.556529
Si Si6 0.290366 0.091821 0.035465
Si Si7 0.934935 0.623220 0.270668
Si Si8 0.695425 0.000000 0.365460
O O1 0.706445 0.458788 0.752914
O O2 0.764322 0.383243 0.584343
O O3 0.503798 0.395883 0.168205
O O4 0.739945 0.403782 0.928929
O O5 0.165451 0.500000 0.218145
O O6 0.970632 0.500000 0.291756
O O7 0.227295 0.543829 0.870614
O O8 0.752864 0.208635 0.248754
O O9 0.750000 0.250000 0.000000
O O10 0.948346 0.173984 0.746382
O O11 0.006468 0.248795 0.720914
O O12 0.500000 0.394536 0.500000
O O13 0.279533 0.372678 0.728968
O O14 0.000000 0.303797 0.500000
O O15 0.032910 0.327766 0.753721
O O16 0.467554 0.098686 0.751347
O O17 0.000000 0.606726 0.000000
#
# Coordination Sequence:
#
# PCOD9189230 Si02
#       8
#     8   4   8   8   8   8   8   4
#     4  10  19  37  60  85 117 151 190 239 296 344
#     4   9  16  31  53  91 116 144 191 242 297 345
#     4  10  20  34  58  92 119 141 190 239 288 342
#     4  10  20  33  57  91 118 148 188 235 295 350
#     4  10  21  36  61  86 116 147 188 245 291 339
#     4  10  21  35  62  86 118 153 192 244 295 351
#     4  12  24  38  56  84 117 158 204 240 284 348
#     4   9  16  29  57  89 116 146 189 238 297 351
#
# _framework density 24.102888
#
# number of rings (size 3 to 8) (size 9 to 14) (size 15 to 20)
#    0.000    1.857    2.857    2.571    8.000    0.571 
#    0.000    5.714    0.000    0.000    0.000    2.000 
#    0.000    0.000    0.000    0.000    0.000    0.000 
#
# Total GULP energy -155887.619102 kJ/mol
# GULP energy per Si atom -5567.414968 kJ/mol
# Density = 2.404803 g / cm^3
# Si number density = 24.102888 Si / 1000 Ang^3
#
#
#
# Elastic Constant Matrix: (Units=GPa)
#
#
# Indices 1 2 3 4 5 6 
#
# 1 42.9500 1.3471 23.4046 0.0000 -14.4537 0.0000
# 2 1.3471 157.4200 42.7199 0.0000 -9.8318 0.0000
# 3 23.4046 42.7199 155.2991 0.0000 -13.2264 0.0000
# 4 0.0000 0.0000 0.0000 49.3512 0.0000 15.5879
# 5 -14.4537 -9.8318 -13.2264 0.0000 33.9331 0.0000
# 6 0.0000 0.0000 0.0000 15.5879 0.0000 38.6173
#
#
#
# Elastic Compliance Matrix: (Units=1/GPa)
#
#
# Indices 1 2 3 4 5 6 
#
# 1 0.029149 0.001502 -0.003839 0.000000 0.011355 0.000000
# 2 0.001502 0.006998 -0.001990 0.000000 0.001891 0.000000
# 3 -0.003839 -0.001990 0.007630 0.000000 0.000762 0.000000
# 4 0.000000 0.000000 0.000000 0.023224 0.000000 -0.009374
# 5 0.011355 0.001891 0.000762 0.000000 0.035151 0.000000
# 6 0.000000 0.000000 0.000000 -0.009374 0.000000 0.029679
#
#
# Mechanical properties :
#
#
# Convention : Reuss Voigt Hill
#
# Bulk Modulus (GPa) = 28.47254 54.51247 41.49250
# Shear Modulus (GPa) = 32.85298 43.59350 38.22324
#
# Velocity S-wave (km/s) = 3.69593 4.25743 3.98658
# Velocity P-wave (km/s) = 5.48195 6.84348 6.20020
#
# Compressibility (1/GPa) = 0.03512156
#
# Stress axis : x y z
#
# Youngs Moduli (GPa) = 34.30677 142.90209 131.05969
#
# Poissons Ratio (x) = -0.21457 0.50313
# Poissons Ratio (y) = -0.05151 0.26083
# Poissons Ratio (z) = 0.13170 0.28440
#
# Static dielectric constant tensor:
#      x y z
#    x 2.160740 0.000000 -0.126210 
#    y 0.000000 2.001660 0.000000 
#    z -0.126210 0.000000 2.038170 
# 
# From -- ./inp_files/91588.got.cif
#   From: 2010.05.17/outbox.cif.g08.bks.cpg/sg12_46_cif.got.tgz:91588.got - 2010.06.03 13:09:07.
