data_PCOD9189037
_publ_section_title
;
Structure prediction by ZEFSAII (Michael W. Deem and Ramdas Pophale) SiO2 
 PCOD9189037
Probable space group: C 2/M
;
_chemical_formula_sum "Si O2"
_cell_formula_units_Z 44
_cell_length_a 15.109722
_cell_length_b 10.035437
_cell_length_c 19.158849
_cell_angle_alpha 90.000000
_cell_angle_beta 50.306778
_cell_angle_gamma 90.000000
_cell_volume 2235.407772
_symmetry_space_group_name_H-M "C 2/M"
_symmetry_group_IT_number 12
_symmetry_cell_setting 'monoclinic'
loop_
_space_group_symop_operation_xyz
x,y,z
-x,y,-z
-x,-y,-z
x,-y,z
1/2+x,1/2+y,z
1/2-x,1/2+y,-z
1/2-x,1/2-y,-z
1/2+x,1/2-y,z
loop_
_atom_site_type_symbol
_atom_site_label
_atom_site_fract_x
_atom_site_fract_y
_atom_site_fract_z
Si Si1 0.293668 0.000000 0.924273
Si Si2 0.450201 0.157357 0.647366
Si Si3 0.279323 0.733214 0.280747
Si Si4 0.515585 0.789800 0.206967
Si Si5 0.570645 0.500000 0.120367
Si Si6 0.302656 0.149608 0.527861
Si Si7 0.857872 0.000000 0.140004
O O1 0.379541 0.874105 0.878079
O O2 0.211711 0.000000 0.897019
O O3 0.204767 0.000000 0.032906
O O4 0.350346 0.262660 0.678796
O O5 0.484730 0.179602 0.710480
O O6 0.560717 0.172192 0.542712
O O7 0.413285 0.000000 0.658794
O O8 0.390007 0.825642 0.238291
O O9 0.254939 0.666924 0.368146
O O10 0.318323 0.629916 0.202148
O O11 0.536906 0.633817 0.179181
O O12 0.495235 0.500000 0.086048
O O13 0.250000 0.250000 0.500000
O O14 0.283404 0.000000 0.512504
#
# Coordination Sequence:
#
# PCOD9189037 Si02
#       7
#     4   8   8   8   4   8   4
#     4  12  21  44  64  88 120 151 206 253 306 368
#     4  11  20  38  63  90 118 166 208 244 284 352
#     4  11  19  36  58  92 120 152 208 243 289 341
#     4  11  22  37  65  88 120 159 195 248 310 354
#     4  10  25  38  63  95 117 152 197 259 312 356
#     4  11  22  34  60  89 124 160 201 247 287 348
#     4  10  19  36  66  88 110 159 205 248 285 357
#
# _framework density 19.683211
#
# number of rings (size 3 to 8) (size 9 to 14) (size 15 to 20)
#    0.000    1.091    6.364    1.364    0.000    1.455 
#    0.000    0.909    0.000    2.182    0.000    0.000 
#    0.000    0.000    0.000    0.000    0.000    0.000 
#
# Total GULP energy -122608.231402 kJ/mol
# GULP energy per Si atom -5573.101427 kJ/mol
# Density = 1.963841 g / cm^3
# Si number density = 19.683211 Si / 1000 Ang^3
#
#
#
# Elastic Constant Matrix: (Units=GPa)
#
#
# Indices 1 2 3 4 5 6 
#
# 1 108.7210 24.3240 19.1566 0.0000 -15.9615 0.0000
# 2 24.3240 55.7808 13.7121 0.0000 -7.1524 0.0000
# 3 19.1566 13.7121 72.3391 0.0000 -24.3193 0.0000
# 4 0.0000 0.0000 0.0000 16.9251 0.0000 -5.7765
# 5 -15.9615 -7.1524 -24.3193 0.0000 38.1301 0.0000
# 6 0.0000 0.0000 0.0000 -5.7765 0.0000 25.2072
#
#
#
# Elastic Compliance Matrix: (Units=1/GPa)
#
#
# Indices 1 2 3 4 5 6 
#
# 1 0.010735 -0.004030 -0.001047 0.000000 0.003070 0.000000
# 2 -0.004030 0.020393 -0.002647 0.000000 0.000450 0.000000
# 3 -0.001047 -0.002647 0.018188 0.000000 0.010666 0.000000
# 4 0.000000 0.000000 0.000000 0.064097 0.000000 0.014689
# 5 0.003070 0.000450 0.010666 0.000000 0.034398 0.000000
# 6 0.000000 0.000000 0.000000 0.014689 0.000000 0.043037
#
#
# Mechanical properties :
#
#
# Convention : Reuss Voigt Hill
#
# Bulk Modulus (GPa) = 29.52596 39.02515 34.27556
# Shear Modulus (GPa) = 22.97943 28.02902 25.50422
#
# Velocity S-wave (km/s) = 3.42052 3.77769 3.60354
# Velocity P-wave (km/s) = 5.53472 6.23680 5.89622
#
# Compressibility (1/GPa) = 0.03386850
#
# Stress axis : x y z
#
# Youngs Moduli (GPa) = 93.15647 49.03628 54.98008
#
# Poissons Ratio (x) = 0.19762 0.05755
# Poissons Ratio (y) = 0.37542 0.14554
# Poissons Ratio (z) = 0.09751 0.12980
#
# Static dielectric constant tensor:
#      x y z
#    x 1.754680 0.000000 -0.052170 
#    y 0.000000 1.671070 0.000000 
#    z -0.052170 0.000000 1.698860 
# 
# From -- ./inp_files/268505.got.cif
#   From: 2010.05.17/outbox.cif.g08.bks.cpg/sg12_135_cif.got.tgz:268505.got - 2010.06.03 13:09:07.
