data_PCOD9189987
_publ_section_title
;
Structure prediction by ZEFSAII (Michael W. Deem and Ramdas Pophale) SiO2 
 PCOD9189987
Probable space group: C 2/M
;
_chemical_formula_sum "Si O2"
_cell_formula_units_Z 48
_cell_length_a 18.868345
_cell_length_b 16.341409
_cell_length_c 9.568761
_cell_angle_alpha 90.000000
_cell_angle_beta 136.752120
_cell_angle_gamma 90.000000
_cell_volume 2021.475611
_symmetry_space_group_name_H-M "C 2/M"
_symmetry_group_IT_number 12
_symmetry_cell_setting 'monoclinic'
loop_
_space_group_symop_operation_xyz
x,y,z
-x,y,-z
-x,-y,-z
x,-y,z
1/2+x,1/2+y,z
1/2-x,1/2+y,-z
1/2-x,1/2-y,-z
1/2+x,1/2-y,z
loop_
_atom_site_type_symbol
_atom_site_label
_atom_site_fract_x
_atom_site_fract_y
_atom_site_fract_z
Si Si1 0.166548 0.094915 0.981489
Si Si2 0.140543 0.785346 0.164462
Si Si3 0.407264 0.119509 0.773503
Si Si4 0.334542 0.695315 0.307538
Si Si5 0.101432 0.622600 0.568959
Si Si6 0.178910 0.090041 0.461990
O O1 0.096994 0.150705 0.987397
O O2 0.285383 0.094120 0.213304
O O3 0.134162 0.000000 0.922008
O O4 0.169521 0.144948 0.841008
O O5 0.091395 0.717474 0.195004
O O6 0.221852 0.730780 0.192831
O O7 0.184376 0.849049 0.339663
O O8 0.412207 0.105574 0.615299
O O9 0.299744 0.084705 0.674431
O O10 0.500000 0.087483 0.000000
O O11 0.396093 0.779828 0.398435
O O12 0.374246 0.634204 0.484474
O O13 0.000000 0.589716 0.500000
O O14 0.138697 0.000000 0.370653
#
# Coordination Sequence:
#
# PCOD9189987 Si02
#       6
#     8   8   8   8   8   8
#     4  11  23  38  61  91 119 150 193 242 294 345
#     4  10  19  39  62  81 112 156 204 240 277 335
#     4  11  23  37  59  89 118 152 199 237 284 349
#     4  10  20  39  59  85 114 157 202 236 274 345
#     4  11  23  38  59  86 120 158 191 235 291 346
#     4  11  20  37  63  87 116 150 194 248 294 334
#
# _framework density 23.745031000000001
#
# number of rings (size 3 to 8) (size 9 to 14) (size 15 to 20)
#    0.000    1.333    5.000    4.000    7.000    0.667 
#    0.000    0.000    0.000    6.000    0.000    0.000 
#    0.000    0.000    0.000    0.000    0.000    0.000 
#
# Total GULP energy -133912.707073 kJ/mol
# GULP energy per Si atom -5579.696128 kJ/mol
# Density = 2.369099 g / cm^3
# Si number density = 23.745031 Si / 1000 Ang^3
#
#
#
# Elastic Constant Matrix: (Units=GPa)
#
#
# Indices 1 2 3 4 5 6 
#
# 1 41.7967 10.8641 24.7174 0.0000 -19.8644 0.0000
# 2 10.8641 191.9777 27.8403 0.0000 -24.3394 0.0000
# 3 24.7174 27.8403 102.9609 0.0000 -32.2274 0.0000
# 4 0.0000 0.0000 0.0000 -18.5703 0.0000 10.0452
# 5 -19.8644 -24.3394 -32.2274 0.0000 34.3787 0.0000
# 6 0.0000 0.0000 0.0000 10.0452 0.0000 -19.6285
#
#
#
# Elastic Compliance Matrix: (Units=1/GPa)
#
#
# Indices 1 2 3 4 5 6 
#
# 1 0.033633 0.000698 -0.002866 0.000000 0.017241 0.000000
# 2 0.000698 0.005748 -0.000455 0.000000 0.004046 0.000000
# 3 -0.002866 -0.000455 0.014017 0.000000 0.011161 0.000000
# 4 0.000000 0.000000 0.000000 -0.074463 0.000000 -0.038108
# 5 0.017241 0.004046 0.011161 0.000000 0.052377 0.000000
# 6 0.000000 0.000000 0.000000 -0.038108 0.000000 -0.070449
#
#
# Mechanical properties :
#
#
# Convention : Reuss Voigt Hill
#
# Bulk Modulus (GPa) = 20.76789 51.50877 36.13833
# Shear Modulus (GPa) = -280.29997 17.45689 -131.42154
#
# Velocity S-wave (km/s) = -10.87667 2.71436 -7.44763
# Velocity P-wave (km/s) = 12.20536 5.61812 7.66184
#
# Compressibility (1/GPa) = 0.04815126
#
# Stress axis : x y z
#
# Youngs Moduli (GPa) = 29.73280 173.95922 71.34025
#
# Poissons Ratio (x) = -0.12146 0.20449
# Poissons Ratio (y) = -0.02076 0.03249
# Poissons Ratio (z) = 0.08523 0.07924
#
# Static dielectric constant tensor:
#      x y z
#    x 1.965810 0.000000 0.078180 
#    y 0.000000 1.941320 0.000000 
#    z 0.078180 0.000000 1.934530 
# 
# From -- ./inp_files/88136.got.cif
#   From: 2010.05.17/outbox.cif.g08.bks.cpg/sg12_45_cif.got.tgz:88136.got - 2010.06.03 13:09:07.
