data_PCOD9189207
_publ_section_title
;
Structure prediction by ZEFSAII (Michael W. Deem and Ramdas Pophale) SiO2 
 PCOD9189207
Probable space group: C 2/M
;
_chemical_formula_sum "Si O2"
_cell_formula_units_Z 64
_cell_length_a 31.526222
_cell_length_b 7.587065
_cell_length_c 11.862477
_cell_angle_alpha 90.000000
_cell_angle_beta 94.144780
_cell_angle_gamma 90.000000
_cell_volume 2829.982666
_symmetry_space_group_name_H-M "C 2/M"
_symmetry_group_IT_number 12
_symmetry_cell_setting 'monoclinic'
loop_
_space_group_symop_operation_xyz
x,y,z
-x,y,-z
-x,-y,-z
x,-y,z
1/2+x,1/2+y,z
1/2-x,1/2+y,-z
1/2-x,1/2-y,-z
1/2+x,1/2-y,z
loop_
_atom_site_type_symbol
_atom_site_label
_atom_site_fract_x
_atom_site_fract_y
_atom_site_fract_z
Si Si1 0.269027 0.786951 0.828832
Si Si2 0.415734 0.200428 0.801739
Si Si3 0.290831 0.211169 0.583226
Si Si4 0.039970 0.713468 0.587642
Si Si5 0.184667 0.789471 0.928990
Si Si6 0.594366 0.702738 0.954193
Si Si7 0.616451 0.215584 0.447222
Si Si8 0.511819 0.701855 0.828076
O O1 0.284679 0.722684 0.710293
O O2 0.221572 0.722773 0.853020
O O3 0.267627 0.000000 0.824348
O O4 0.298561 0.740127 0.940565
O O5 0.400531 0.272068 0.679009
O O6 0.466818 0.202998 0.813771
O O7 0.399862 0.000000 0.806740
O O8 0.400017 0.294730 0.910629
O O9 0.250000 0.250000 0.500000
O O10 0.334805 0.273998 0.535859
O O11 0.294665 0.000000 0.592306
O O12 0.040557 0.500000 0.599303
O O13 0.083441 0.772450 0.536332
O O14 0.032038 0.792565 0.708008
O O15 0.000000 0.757088 0.500000
O O16 0.136904 0.717290 0.908557
O O17 0.181930 0.000000 0.912570
O O18 0.591189 0.500000 0.915203
O O19 0.548411 0.780633 0.915051
O O20 0.614790 0.000000 0.448267
O O21 0.501902 0.500000 0.860110
#
# Coordination Sequence:
#
# PCOD9189207 Si02
#       8
#     8   8   8   8   8   8   8   8
#     4   9  18  34  56  80 107 141 181 227 275 323
#     4  11  21  37  60  82 106 142 188 228 270 327
#     4  10  21  37  56  80 112 145 181 225 277 330
#     4  10  19  37  60  79 106 144 189 234 275 321
#     4   9  18  34  56  79 106 143 182 223 273 327
#     4  10  22  37  51  76 115 149 177 221 280 331
#     4   9  19  36  58  82 108 142 181 231 283 321
#     4  11  23  37  54  80 115 148 180 224 278 330
#
# _framework density 22.614979999999999
#
# number of rings (size 3 to 8) (size 9 to 14) (size 15 to 20)
#    0.000    2.125    1.250    1.875    0.000    5.750 
#    0.000    3.125    0.000    0.000    0.000    0.000 
#    0.000    0.000    0.000    0.000    0.000    0.000 
#
# Total GULP energy -178807.474836 kJ/mol
# GULP energy per Si atom -5587.733589 kJ/mol
# Density = 2.256351 g / cm^3
# Si number density = 22.614980 Si / 1000 Ang^3
#
#
#
# Elastic Constant Matrix: (Units=GPa)
#
#
# Indices 1 2 3 4 5 6 
#
# 1 145.1571 -0.8642 11.3731 0.0000 -16.1624 0.0000
# 2 -0.8642 52.4290 -2.2881 0.0000 -1.2701 0.0000
# 3 11.3731 -2.2881 59.7705 0.0000 -21.6149 0.0000
# 4 0.0000 0.0000 0.0000 21.7332 0.0000 0.3867
# 5 -16.1624 -1.2701 -21.6149 0.0000 29.1650 0.0000
# 6 0.0000 0.0000 0.0000 0.3867 0.0000 17.8027
#
#
#
# Elastic Compliance Matrix: (Units=1/GPa)
#
#
# Indices 1 2 3 4 5 6 
#
# 1 0.007345 0.000227 0.000118 0.000000 0.004168 0.000000
# 2 0.000227 0.019188 0.001419 0.000000 0.002013 0.000000
# 3 0.000118 0.001419 0.022963 0.000000 0.017146 0.000000
# 4 0.000000 0.000000 0.000000 0.046030 0.000000 -0.001000
# 5 0.004168 0.002013 0.017146 0.000000 0.049392 0.000000
# 6 0.000000 0.000000 0.000000 -0.001000 0.000000 0.056193
#
#
# Mechanical properties :
#
#
# Convention : Reuss Voigt Hill
#
# Bulk Modulus (GPa) = 18.85861 30.42202 24.64032
# Shear Modulus (GPa) = 23.22805 30.34924 26.78865
#
# Velocity S-wave (km/s) = 3.20833 3.66730 3.44547
# Velocity P-wave (km/s) = 4.69911 5.60477 5.17180
#
# Compressibility (1/GPa) = 0.05302616
#
# Stress axis : x y z
#
# Youngs Moduli (GPa) = 136.14208 52.11623 43.54843
#
# Poissons Ratio (x) = -0.01184 -0.00516
# Poissons Ratio (y) = -0.03093 -0.06181
# Poissons Ratio (z) = -0.01612 -0.07398
#
# Static dielectric constant tensor:
#      x y z
#    x 1.865480 0.000000 -0.009390 
#    y 0.000000 1.853340 0.000000 
#    z -0.009390 0.000000 1.794490 
# 
# From -- ./inp_files/187495.got.cif
#   From: 2010.05.17/outbox.cif.g08.bks.cpg/sg12_94_cif.got.tgz:187495.got - 2010.06.03 13:09:07.
