data_PCOD9189909
_publ_section_title
;
Structure prediction by ZEFSAII (Michael W. Deem and Ramdas Pophale) SiO2 
 PCOD9189909
Probable space group: C 2/M
;
_chemical_formula_sum "Si O2"
_cell_formula_units_Z 58
_cell_length_a 20.730623
_cell_length_b 18.037502
_cell_length_c 10.997012
_cell_angle_alpha 90.000000
_cell_angle_beta 44.639175
_cell_angle_gamma 90.000000
_cell_volume 2889.323330
_symmetry_space_group_name_H-M "C 2/M"
_symmetry_group_IT_number 12
_symmetry_cell_setting 'monoclinic'
loop_
_space_group_symop_operation_xyz
x,y,z
-x,y,-z
-x,-y,-z
x,-y,z
1/2+x,1/2+y,z
1/2-x,1/2+y,-z
1/2-x,1/2-y,-z
1/2+x,1/2-y,z
loop_
_atom_site_type_symbol
_atom_site_label
_atom_site_fract_x
_atom_site_fract_y
_atom_site_fract_z
Si Si1 0.379488 0.111561 0.323493
Si Si2 0.609880 0.711590 0.125426
Si Si3 0.895655 0.585173 0.591768
Si Si4 0.500000 0.000000 0.000000
Si Si5 0.172875 0.916972 0.619188
Si Si6 0.298085 0.234776 0.762390
Si Si7 0.914730 0.914425 0.025482
Si Si8 0.901949 0.234691 0.376029
O O1 0.396423 0.096066 0.444578
O O2 0.276037 0.086828 0.434610
O O3 0.381433 0.200769 0.306680
O O4 0.449482 0.064862 0.150740
O O5 0.650312 0.715825 0.205943
O O6 0.508919 0.746597 0.263918
O O7 0.690211 0.745749 0.932468
O O8 0.594714 0.632855 0.081781
O O9 0.867353 0.500000 0.656386
O O10 0.831308 0.649067 0.736125
O O11 0.000000 0.595068 0.500000
O O12 0.171429 0.906409 0.767492
O O13 0.116663 0.848610 0.641751
O O14 0.135539 0.000000 0.646588
O O15 0.335208 0.253805 0.580024
O O16 0.925249 0.000000 0.981889
O O17 0.000000 0.892946 0.000000
#
# Coordination Sequence:
#
# PCOD9189909 Si02
#       8
#     8   8   8   2   8   8   8   8
#     4  11  23  40  61  93 130 174 217 265 338 397
#     4  11  22  40  63  93 127 162 220 273 329 389
#     4  10  19  38  67  89 116 164 223 267 324 394
#     4  12  24  40  58  92 140 176 210 278 330 414
#     4  11  22  41  64  92 129 167 218 269 332 392
#     4  10  23  40  62  92 127 169 215 277 326 388
#     4  10  20  36  62  93 124 159 208 274 325 389
#     4  11  23  40  66  91 128 176 222 270 330 400
#
# _framework density 20.073905
#
# number of rings (size 3 to 8) (size 9 to 14) (size 15 to 20)
#    0.000    1.379    2.759    4.138    0.000    3.862 
#    0.000    0.690    0.000    1.655    0.000    0.000 
#    0.000    0.000    0.000    0.000    0.000    0.000 
#
# Total GULP energy -161577.221447 kJ/mol
# GULP energy per Si atom -5571.628326 kJ/mol
# Density = 2.002822 g / cm^3
# Si number density = 20.073905 Si / 1000 Ang^3
#
#
#
# Elastic Constant Matrix: (Units=GPa)
#
#
# Indices 1 2 3 4 5 6 
#
# 1 57.4584 38.4676 23.7123 0.0000 -9.1592 0.0000
# 2 38.4676 115.1701 12.9691 0.0000 10.0807 0.0000
# 3 23.7123 12.9691 93.0994 0.0000 2.2134 0.0000
# 4 0.0000 0.0000 0.0000 21.9776 0.0000 10.9918
# 5 -9.1592 10.0807 2.2134 0.0000 24.2423 0.0000
# 6 0.0000 0.0000 0.0000 10.9918 0.0000 25.9226
#
#
#
# Elastic Compliance Matrix: (Units=1/GPa)
#
#
# Indices 1 2 3 4 5 6 
#
# 1 0.029812 -0.010651 -0.006496 0.000000 0.016286 0.000000
# 2 -0.010651 0.012945 0.001136 0.000000 -0.009511 0.000000
# 3 -0.006496 0.001136 0.012334 0.000000 -0.004053 0.000000
# 4 0.000000 0.000000 0.000000 0.057747 0.000000 -0.024486
# 5 0.016286 -0.009511 -0.004053 0.000000 0.051728 0.000000
# 6 0.000000 0.000000 0.000000 -0.024486 0.000000 0.048959
#
#
# Mechanical properties :
#
#
# Convention : Reuss Voigt Hill
#
# Bulk Modulus (GPa) = 43.35243 46.22509 44.78876
# Shear Modulus (GPa) = 19.74423 27.13376 23.43900
#
# Velocity S-wave (km/s) = 3.13961 3.68053 3.42077
# Velocity P-wave (km/s) = 5.89798 6.41398 6.16138
#
# Compressibility (1/GPa) = 0.02306676
#
# Stress axis : x y z
#
# Youngs Moduli (GPa) = 33.54368 77.24982 81.07672
#
# Poissons Ratio (x) = 0.82281 0.52671
# Poissons Ratio (y) = 0.35728 -0.09208
# Poissons Ratio (z) = 0.21792 -0.08773
#
# Static dielectric constant tensor:
#      x y z
#    x 1.722820 0.000000 -0.048500 
#    y 0.000000 1.742260 0.000000 
#    z -0.048500 0.000000 1.731720 
# 
# From -- ./inp_files/168950.got.cif
#   From: 2010.05.17/outbox.cif.g08.bks.cpg/sg12_85_cif.got.tgz:168950.got - 2010.06.03 13:09:07.
