data_PCOD9189566
_publ_section_title
;
Structure prediction by ZEFSAII (Michael W. Deem and Ramdas Pophale) SiO2 
 PCOD9189566
Probable space group: C 2/M
;
_chemical_formula_sum "Si O2"
_cell_formula_units_Z 32
_cell_length_a 12.114444
_cell_length_b 19.573643
_cell_length_c 8.825803
_cell_angle_alpha 90.000000
_cell_angle_beta 39.561611
_cell_angle_gamma 90.000000
_cell_volume 1332.925280
_symmetry_space_group_name_H-M "C 2/M"
_symmetry_group_IT_number 12
_symmetry_cell_setting 'monoclinic'
loop_
_space_group_symop_operation_xyz
x,y,z
-x,y,-z
-x,-y,-z
x,-y,z
1/2+x,1/2+y,z
1/2-x,1/2+y,-z
1/2-x,1/2-y,-z
1/2+x,1/2-y,z
loop_
_atom_site_type_symbol
_atom_site_label
_atom_site_fract_x
_atom_site_fract_y
_atom_site_fract_z
Si Si1 0.088195 0.000000 0.241613
Si Si2 0.494174 0.000000 0.184717
Si Si3 0.864217 0.139636 0.952845
Si Si4 0.474049 0.205692 0.852126
Si Si5 0.152492 0.384424 0.459330
O O1 0.042312 0.074096 0.218906
O O2 0.000000 0.000000 0.500000
O O3 0.300057 0.000000 0.993804
O O4 0.385240 0.937792 0.369081
O O5 0.500000 0.000000 0.000000
O O6 0.952824 0.213174 0.865851
O O7 0.691949 0.162409 0.036524
O O8 0.811913 0.117286 0.178039
O O9 0.623612 0.186452 0.575079
O O10 0.500000 0.186562 0.000000
O O11 0.000000 0.398229 0.500000
#
# Coordination Sequence:
#
# PCOD9189566 Si02
#       5
#     4   4   8   8   8
#     4  12  25  43  65  91 134 169 206 268 329 383
#     4  12  22  40  67  99 121 165 231 268 309 382
#     4  10  23  41  64  94 129 172 211 260 331 378
#     4  10  21  39  63  97 127 163 218 263 314 379
#     4  10  19  37  67  89 121 168 212 265 308 376
#
# _framework density 24.007348
#
# number of rings (size 3 to 8) (size 9 to 14) (size 15 to 20)
#    0.000    1.500    5.000    1.875    0.000    6.000 
#    4.500    0.625    0.000    0.000    0.000    0.000 
#    0.000    0.000    0.000    0.000    0.000    0.000 
#
# Total GULP energy -89348.153233 kJ/mol
# GULP energy per Si atom -5584.259577 kJ/mol
# Density = 2.395271 g / cm^3
# Si number density = 24.007348 Si / 1000 Ang^3
#
#
#
# Elastic Constant Matrix: (Units=GPa)
#
#
# Indices 1 2 3 4 5 6 
#
# 1 92.1161 22.7769 49.1224 0.0000 17.1704 0.0000
# 2 22.7769 172.8711 98.4173 0.0000 33.2288 0.0000
# 3 49.1224 98.4173 218.9587 0.0000 45.9622 0.0000
# 4 0.0000 0.0000 0.0000 -12.5348 0.0000 33.3538
# 5 17.1704 33.2288 45.9622 0.0000 53.2335 0.0000
# 6 0.0000 0.0000 0.0000 33.3538 0.0000 17.4764
#
#
#
# Elastic Compliance Matrix: (Units=1/GPa)
#
#
# Indices 1 2 3 4 5 6 
#
# 1 0.012499 0.000128 -0.002441 0.000000 -0.002004 0.000000
# 2 0.000128 0.008001 -0.003136 0.000000 -0.002328 0.000000
# 3 -0.002441 -0.003136 0.007265 0.000000 -0.003527 0.000000
# 4 0.000000 0.000000 0.000000 -0.013125 0.000000 0.025049
# 5 -0.002004 -0.002328 -0.003527 0.000000 0.023930 0.000000
# 6 0.000000 0.000000 0.000000 0.025049 0.000000 0.009414
#
#
# Mechanical properties :
#
#
# Convention : Reuss Voigt Hill
#
# Bulk Modulus (GPa) = 59.28957 91.61991 75.45474
# Shear Modulus (GPa) = 77.51373 32.54366 55.02869
#
# Velocity S-wave (km/s) = 5.68837 3.68580 4.79285
# Velocity P-wave (km/s) = 8.23975 7.50731 7.88204
#
# Compressibility (1/GPa) = 0.01686637
#
# Stress axis : x y z
#
# Youngs Moduli (GPa) = 80.00322 124.98914 137.64847
#
# Poissons Ratio (x) = -0.01601 0.33601
# Poissons Ratio (y) = -0.01024 0.43171
# Poissons Ratio (z) = 0.19530 0.39200
#
# Static dielectric constant tensor:
#      x y z
#    x 2.077330 0.000000 -0.137440 
#    y 0.000000 2.108140 0.000000 
#    z -0.137440 0.000000 1.888690 
# 
# From -- ./inp_files/63116.got.cif
#   From: 2010.05.17/outbox.cif.g08.bks.cpg/sg12_32_cif.got.tgz:63116.got - 2010.06.03 13:09:07.
