data_PCOD9189032
_publ_section_title
;
Structure prediction by ZEFSAII (Michael W. Deem and Ramdas Pophale) SiO2 
 PCOD9189032
Probable space group: C 2/M
;
_chemical_formula_sum "Si O2"
_cell_formula_units_Z 64
_cell_length_a 23.307220
_cell_length_b 22.815404
_cell_length_c 17.159809
_cell_angle_alpha 90.000000
_cell_angle_beta 20.369331
_cell_angle_gamma 90.000000
_cell_volume 3176.128379
_symmetry_space_group_name_H-M "C 2/M"
_symmetry_group_IT_number 12
_symmetry_cell_setting 'monoclinic'
loop_
_space_group_symop_operation_xyz
x,y,z
-x,y,-z
-x,-y,-z
x,-y,z
1/2+x,1/2+y,z
1/2-x,1/2+y,-z
1/2-x,1/2-y,-z
1/2+x,1/2-y,z
loop_
_atom_site_type_symbol
_atom_site_label
_atom_site_fract_x
_atom_site_fract_y
_atom_site_fract_z
Si Si1 0.627802 0.772320 0.400819
Si Si2 0.640233 0.066344 0.383849
Si Si3 0.605977 0.359054 0.004393
Si Si4 0.691851 0.166341 0.747395
Si Si5 0.611151 0.432867 0.432365
Si Si6 0.827316 0.069721 0.920786
Si Si7 0.995666 0.633374 0.694924
Si Si8 0.246310 0.679469 0.500032
O O1 0.500000 0.749461 0.500000
O O2 0.774867 0.803595 0.164422
O O3 0.703593 0.721550 0.356310
O O4 0.533275 0.817871 0.579261
O O5 0.500000 0.089484 0.500000
O O6 0.816510 0.097317 0.157178
O O7 0.572061 0.076086 0.556433
O O8 0.662502 0.000000 0.333575
O O9 0.640676 0.395303 0.039616
O O10 0.416784 0.341274 0.243415
O O11 0.734480 0.155943 0.602878
O O12 0.742277 0.111200 0.735878
O O13 0.500000 0.179849 0.000000
O O14 0.500000 0.415689 0.500000
O O15 0.666211 0.500000 0.349732
O O16 0.489017 0.430908 0.661846
O O17 0.689352 0.111186 0.055932
O O18 0.781639 0.000000 0.990528
O O19 0.092648 0.656376 0.645803
O O20 0.250000 0.750000 0.500000
#
# Coordination Sequence:
#
# PCOD9189032 Si02
#       8
#     8   8   8   8   8   8   8   8
#     4  11  22  41  65 101 134 172 219 266 319 391
#     4  10  19  36  66 100 136 171 207 257 324 391
#     4  11  21  40  67  98 132 177 214 260 326 394
#     4  12  26  45  67  94 129 176 223 271 341 398
#     4  10  24  47  71  96 126 165 225 294 341 382
#     4  11  21  41  71 101 133 169 218 277 327 389
#     4  11  22  39  64  98 136 175 216 259 321 394
#     4  12  26  45  61  91 136 180 218 270 329 392
#
# _framework density 20.150319
#
# number of rings (size 3 to 8) (size 9 to 14) (size 15 to 20)
#    0.000    1.000    5.000    2.625    1.750    1.750 
#    2.250    6.250    0.000    0.000    0.000    0.000 
#    0.000    0.000    0.000    0.000    0.000    0.000 
#
# Total GULP energy -178531.857231 kJ/mol
# GULP energy per Si atom -5579.120538 kJ/mol
# Density = 2.010446 g / cm^3
# Si number density = 20.150319 Si / 1000 Ang^3
#
#
#
# Elastic Constant Matrix: (Units=GPa)
#
#
# Indices 1 2 3 4 5 6 
#
# 1 80.1144 23.3669 -15.3176 0.0064 -10.6130 -0.0012
# 2 23.3669 67.3342 8.3011 0.0370 -23.7032 -0.0123
# 3 -15.3176 8.3011 42.8276 0.0468 -12.9193 -0.0289
# 4 0.0064 0.0370 0.0468 23.8603 -0.0120 0.4568
# 5 -10.6130 -23.7032 -12.9193 -0.0120 31.0496 0.0023
# 6 -0.0012 -0.0123 -0.0289 0.4568 0.0023 18.9172
#
#
#
# Elastic Compliance Matrix: (Units=1/GPa)
#
#
# Indices 1 2 3 4 5 6 
#
# 1 0.016169 -0.004749 0.008321 -0.000011 0.005364 0.000010
# 2 -0.004749 0.021731 -0.001596 -0.000022 0.014302 0.000010
# 3 0.008321 -0.001596 0.031019 -0.000054 0.014532 0.000046
# 4 -0.000011 -0.000022 -0.000054 0.041930 -0.000027 -0.001013
# 5 0.005364 0.014302 0.014532 -0.000027 0.051005 0.000026
# 6 0.000010 0.000010 0.000046 -0.001013 0.000026 0.052887
#
#
# Mechanical properties :
#
#
# Convention : Reuss Voigt Hill
#
# Bulk Modulus (GPa) = 13.72279 24.77521 19.24900
# Shear Modulus (GPa) = 21.26964 26.36047 23.81506
#
# Velocity S-wave (km/s) = 3.25245 3.62082 3.44156
# Velocity P-wave (km/s) = 4.57488 5.45915 5.03646
#
# Compressibility (1/GPa) = 0.07287150
#
# Stress axis : x y z
#
# Youngs Moduli (GPa) = 61.84758 46.01809 32.23848
#
# Poissons Ratio (x) = 0.21852 -0.26827
# Poissons Ratio (y) = 0.29369 0.05145
# Poissons Ratio (z) = -0.51466 0.07345
#
# Static dielectric constant tensor:
#      x y z
#    x 1.746630 0.000000 -0.007080 
#    y 0.000000 1.738640 0.000010 
#    z -0.007080 0.000010 1.754060 
# 
# From -- ./inp_files/290917.got.cif
#   From: 2010.05.17/outbox.cif.g08.bks.cpg/sg12_146_cif.got.tgz:290917.got - 2010.06.03 13:09:07.
