data_PCOD9189347
_publ_section_title
;
Structure prediction by ZEFSAII (Michael W. Deem and Ramdas Pophale) SiO2 
 PCOD9189347
Probable space group: C 2/M
;
_chemical_formula_sum "Si O2"
_cell_formula_units_Z 48
_cell_length_a 30.246285
_cell_length_b 17.898667
_cell_length_c 9.248824
_cell_angle_alpha 90.000000
_cell_angle_beta 26.671966
_cell_angle_gamma 90.000000
_cell_volume 2247.559878
_symmetry_space_group_name_H-M "C 2/M"
_symmetry_group_IT_number 12
_symmetry_cell_setting 'monoclinic'
loop_
_space_group_symop_operation_xyz
x,y,z
-x,y,-z
-x,-y,-z
x,-y,z
1/2+x,1/2+y,z
1/2-x,1/2+y,-z
1/2-x,1/2-y,-z
1/2+x,1/2-y,z
loop_
_atom_site_type_symbol
_atom_site_label
_atom_site_fract_x
_atom_site_fract_y
_atom_site_fract_z
Si Si1 0.003206 0.420063 0.815585
Si Si2 0.408124 0.500000 0.470846
Si Si3 0.428387 0.644328 0.582259
Si Si4 0.640399 0.500000 0.722535
Si Si5 0.263569 0.740366 0.219934
Si Si6 0.710610 0.129592 0.636173
Si Si7 0.559577 0.758614 0.675888
O O1 0.046661 0.500000 0.641416
O O2 0.054837 0.342131 0.625334
O O3 0.891802 0.413139 0.085397
O O4 0.000000 0.420847 0.000000
O O5 0.382143 0.574130 0.635554
O O6 0.364166 0.500000 0.438669
O O7 0.527624 0.500000 0.105317
O O8 0.500000 0.617828 0.500000
O O9 0.484084 0.696278 0.302440
O O10 0.348939 0.699642 0.883577
O O11 0.699864 0.572390 0.603369
O O12 0.296469 0.813875 0.208938
O O13 0.226279 0.680905 0.449036
O O14 0.171553 0.759915 0.387521
O O15 0.500000 0.757454 0.000000
#
# Coordination Sequence:
#
# PCOD9189347 Si02
#       7
#     8   4   8   4   8   8   8
#     4  10  19  37  61  96 130 166 216 277 329 392
#     4  11  27  46  62  99 136 179 226 287 358 401
#     4  12  26  44  66  97 136 177 227 282 340 415
#     4  11  24  40  71  95 135 179 222 287 343 425
#     4  11  24  40  68  97 133 180 228 276 337 416
#     4  11  21  40  67 102 131 175 231 274 340 411
#     4  11  23  42  67  98 133 177 222 283 342 407
#
# _framework density 21.356494000000001
#
# number of rings (size 3 to 8) (size 9 to 14) (size 15 to 20)
#    0.000    1.000    4.167    3.750    7.000    0.667 
#    1.500    0.000    1.833    1.500    0.000    0.000 
#    0.000    0.000    0.000    0.000    0.000    0.000 
#
# Total GULP energy -134240.079857 kJ/mol
# GULP energy per Si atom -5593.336661 kJ/mol
# Density = 2.130789 g / cm^3
# Si number density = 21.356494 Si / 1000 Ang^3
#
#
#
# Elastic Constant Matrix: (Units=GPa)
#
#
# Indices 1 2 3 4 5 6 
#
# 1 89.9521 21.4570 0.4719 0.0000 -12.1558 0.0000
# 2 21.4570 126.2889 -8.1656 0.0000 15.3579 0.0000
# 3 0.4719 -8.1656 30.7896 0.0000 2.8209 0.0000
# 4 0.0000 0.0000 0.0000 19.3511 0.0000 -4.9168
# 5 -12.1558 15.3579 2.8209 0.0000 25.5266 0.0000
# 6 0.0000 0.0000 0.0000 -4.9168 0.0000 52.0341
#
#
#
# Elastic Compliance Matrix: (Units=1/GPa)
#
#
# Indices 1 2 3 4 5 6 
#
# 1 0.013074 -0.003371 -0.001870 0.000000 0.008461 0.000000
# 2 -0.003371 0.009652 0.003324 0.000000 -0.007780 0.000000
# 3 -0.001870 0.003324 0.033998 0.000000 -0.006647 0.000000
# 4 0.000000 0.000000 0.000000 0.052948 0.000000 0.005003
# 5 0.008461 -0.007780 -0.006647 0.000000 0.048619 0.000000
# 6 0.000000 0.000000 0.000000 0.005003 0.000000 0.019691
#
#
# Mechanical properties :
#
#
# Convention : Reuss Voigt Hill
#
# Bulk Modulus (GPa) = 18.90675 30.50638 24.70656
# Shear Modulus (GPa) = 25.06945 34.93352 30.00149
#
# Velocity S-wave (km/s) = 3.42988 4.04881 3.75213
# Velocity P-wave (km/s) = 4.95556 6.01436 5.51045
#
# Compressibility (1/GPa) = 0.05289117
#
# Stress axis : x y z
#
# Youngs Moduli (GPa) = 76.48543 103.60349 29.41368
#
# Poissons Ratio (x) = 0.34927 0.05499
# Poissons Ratio (y) = 0.25785 -0.09778
# Poissons Ratio (z) = 0.14300 -0.34441
#
# Static dielectric constant tensor:
#      x y z
#    x 1.756750 0.000000 0.027180 
#    y 0.000000 1.766950 0.000000 
#    z 0.027180 0.000000 1.786800 
# 
# From -- ./inp_files/112768.got.cif
#   From: 2010.05.17/outbox.cif.g08.bks.cpg/sg12_57_cif.got.tgz:112768.got - 2010.06.03 13:09:07.
