data_PCOD9189920
_publ_section_title
;
Structure prediction by ZEFSAII (Michael W. Deem and Ramdas Pophale) SiO2 
 PCOD9189920
Probable space group: C 2/M
;
_chemical_formula_sum "Si O2"
_cell_formula_units_Z 58
_cell_length_a 22.824127
_cell_length_b 14.658705
_cell_length_c 16.547164
_cell_angle_alpha 90.000000
_cell_angle_beta 23.030887
_cell_angle_gamma 90.000000
_cell_volume 2165.920445
_symmetry_space_group_name_H-M "C 2/M"
_symmetry_group_IT_number 12
_symmetry_cell_setting 'monoclinic'
loop_
_space_group_symop_operation_xyz
x,y,z
-x,y,-z
-x,-y,-z
x,-y,z
1/2+x,1/2+y,z
1/2-x,1/2+y,-z
1/2-x,1/2-y,-z
1/2+x,1/2-y,z
loop_
_atom_site_type_symbol
_atom_site_label
_atom_site_fract_x
_atom_site_fract_y
_atom_site_fract_z
Si Si1 0.915422 0.396750 0.409043
Si Si2 0.218608 0.102440 0.421838
Si Si3 0.520817 0.158074 0.101761
Si Si4 0.500000 0.500000 0.000000
Si Si5 0.612958 0.353528 0.734748
Si Si6 0.331156 0.702563 0.724409
Si Si7 0.173760 0.602894 0.215660
Si Si8 0.899490 0.107554 0.787974
O O1 0.852943 0.500000 0.499489
O O2 0.767053 0.334431 0.590345
O O3 0.996001 0.391342 0.219399
O O4 0.037006 0.383763 0.325062
O O5 0.391241 0.128596 0.205618
O O6 0.175026 0.105323 0.572920
O O7 0.068547 0.146495 0.575753
O O8 0.211295 0.000000 0.400500
O O9 0.477431 0.263219 0.170479
O O10 0.692906 0.155305 0.855409
O O11 0.485522 0.421016 0.088369
O O12 0.500000 0.668332 0.500000
O O13 0.327521 0.811822 0.722623
O O14 0.304938 0.673664 0.850905
O O15 0.162546 0.500000 0.264433
O O16 0.323739 0.607034 0.971821
O O17 0.893262 0.000000 0.769322
#
# Coordination Sequence:
#
# PCOD9189920 Si02
#       8
#     8   8   8   2   8   8   8   8
#     4  10  19  38  67  99 125 165 234 282 327 380
#     4  10  20  40  71 103 129 162 236 283 329 384
#     4  11  23  39  65  96 131 174 225 285 322 395
#     4  12  24  44  56  92 160 184 202 264 346 430
#     4  11  22  37  61  97 133 183 214 264 332 403
#     4  12  27  44  64  98 139 180 220 279 355 418
#     4  10  22  40  69  96 128 176 232 278 331 398
#     4  10  22  42  73 102 128 173 224 293 337 397
#
# _framework density 26.778452999999999
#
# number of rings (size 3 to 8) (size 9 to 14) (size 15 to 20)
#    0.000    1.379    2.759    4.138    3.862    2.207 
#    1.241    0.000    0.000    1.655    0.000    0.000 
#    0.000    0.000    0.000    0.000    0.000    0.000 
#
# Total GULP energy -162053.279521 kJ/mol
# GULP energy per Si atom -5588.044121 kJ/mol
# Density = 2.671750 g / cm^3
# Si number density = 26.778453 Si / 1000 Ang^3
#
#
#
# Elastic Constant Matrix: (Units=GPa)
#
#
# Indices 1 2 3 4 5 6 
#
# 1 88.5441 10.1034 18.6079 -0.0001 -19.5794 0.0001
# 2 10.1034 73.8746 -3.6593 -0.0002 -4.2667 0.0001
# 3 18.6079 -3.6593 132.4431 -0.0007 -26.6232 0.0003
# 4 -0.0001 -0.0002 -0.0007 4.6045 0.0002 -12.5577
# 5 -19.5794 -4.2667 -26.6232 0.0002 53.7121 -0.0001
# 6 0.0001 0.0001 0.0003 -12.5577 -0.0001 19.4596
#
#
#
# Elastic Compliance Matrix: (Units=1/GPa)
#
#
# Indices 1 2 3 4 5 6 
#
# 1 0.012556 -0.001539 -0.001012 0.000000 0.003953 0.000000
# 2 -0.001539 0.013839 0.000785 0.000000 0.000927 0.000000
# 3 -0.001012 0.000785 0.008500 -0.000001 0.003906 -0.000001
# 4 0.000000 0.000000 -0.000001 -0.285781 0.000000 -0.184420
# 5 0.003953 0.000927 0.003906 0.000000 0.022069 0.000000
# 6 0.000000 0.000000 -0.000001 -0.184420 0.000000 -0.067621
#
#
# Mechanical properties :
#
#
# Convention : Reuss Voigt Hill
#
# Bulk Modulus (GPa) = 31.88451 38.32952 35.10701
# Shear Modulus (GPa) = -17.70211 33.54257 7.92023
#
# Velocity S-wave (km/s) = -2.57389 3.54304 1.72166
# Velocity P-wave (km/s) = 1.76051 5.57514 4.13410
#
# Compressibility (1/GPa) = 0.03136320
#
# Stress axis : x y z
#
# Youngs Moduli (GPa) = 79.64164 72.25747 117.65355
#
# Poissons Ratio (x) = 0.11121 0.11906
# Poissons Ratio (y) = 0.12257 -0.09236
# Poissons Ratio (z) = 0.08060 -0.05673
#
# Static dielectric constant tensor:
#      x y z
#    x 2.089930 0.000000 -0.004920 
#    y 0.000000 2.031600 0.000000 
#    z -0.004920 0.000000 2.173250 
# 
# From -- ./inp_files/328401.got.cif
#   From: 2010.05.17/outbox.cif.g08.bks.cpg/sg12_165_cif.got.tgz:328401.got - 2010.06.03 13:09:07.
