data_PCOD9189609
_publ_section_title
;
Structure prediction by ZEFSAII (Michael W. Deem and Ramdas Pophale) SiO2 
 PCOD9189609
Probable space group: C 2/M
;
_chemical_formula_sum "Si O2"
_cell_formula_units_Z 50
_cell_length_a 5.244280
_cell_length_b 27.660035
_cell_length_c 14.332472
_cell_angle_alpha 90.000000
_cell_angle_beta 102.840831
_cell_angle_gamma 90.000000
_cell_volume 2027.031067
_symmetry_space_group_name_H-M "C 2/M"
_symmetry_group_IT_number 12
_symmetry_cell_setting 'monoclinic'
loop_
_space_group_symop_operation_xyz
x,y,z
-x,y,-z
-x,-y,-z
x,-y,z
1/2+x,1/2+y,z
1/2-x,1/2+y,-z
1/2-x,1/2-y,-z
1/2+x,1/2-y,z
loop_
_atom_site_type_symbol
_atom_site_label
_atom_site_fract_x
_atom_site_fract_y
_atom_site_fract_z
Si Si1 0.992204 0.228864 0.392748
Si Si2 0.963418 0.883846 0.633824
Si Si3 0.105712 0.869877 0.861899
Si Si4 0.878151 0.419990 0.122638
Si Si5 0.000000 0.000000 0.000000
Si Si6 0.525576 0.942538 0.351873
Si Si7 0.394407 0.231516 0.888235
O O1 0.192150 0.259129 0.346317
O O2 0.000000 0.248093 0.500000
O O3 0.055971 0.171956 0.399436
O O4 0.034189 0.878384 0.748491
O O5 0.204103 0.913792 0.610375
O O6 0.701160 0.915405 0.609227
O O7 0.341432 0.907916 0.899688
O O8 0.246009 0.819047 0.881319
O O9 0.829583 0.875630 0.891302
O O10 0.699681 0.459422 0.059863
O O11 0.946538 0.435970 0.235177
O O12 0.543645 0.000000 0.372126
O O13 0.654700 0.232480 0.847414
O O14 0.500000 0.243099 0.000000
#
# Coordination Sequence:
#
# PCOD9189609 Si02
#       7
#     8   8   8   8   2   8   8
#     4  10  21  38  61  92 125 153 183 229 289 346
#     4  10  21  35  60  84 111 150 191 227 281 344
#     4  10  22  38  53  79 107 139 181 230 276 324
#     4  10  23  35  54  79 107 139 182 231 286 338
#     4  12  24  38  56  82 104 146 182 238 296 350
#     4  10  19  38  55  81 115 151 193 236 279 331
#     4  10  21  35  51  69  95 132 172 212 262 316
#
# _framework density 24.666616999999999
#
# number of rings (size 3 to 8) (size 9 to 14) (size 15 to 20)
#    0.000    1.920    0.800    2.400    2.240    2.560 
#    0.000    0.000    0.000    2.880    0.000    0.000 
#    0.000    0.000    0.000    0.000    0.000    0.000 
#
# Total GULP energy -139475.244219 kJ/mol
# GULP energy per Si atom -5579.009769 kJ/mol
# Density = 2.461047 g / cm^3
# Si number density = 24.666617 Si / 1000 Ang^3
#
#
#
# Elastic Constant Matrix: (Units=GPa)
#
#
# Indices 1 2 3 4 5 6 
#
# 1 195.2525 61.6800 -0.7049 0.0000 -0.2302 0.0000
# 2 61.6800 151.1581 -22.3195 0.0000 -4.5221 0.0000
# 3 -0.7049 -22.3195 49.2477 0.0000 5.0441 0.0000
# 4 0.0000 0.0000 0.0000 27.1074 0.0000 17.8198
# 5 -0.2302 -4.5221 5.0441 0.0000 20.7666 0.0000
# 6 0.0000 0.0000 0.0000 17.8198 0.0000 59.5479
#
#
#
# Elastic Compliance Matrix: (Units=1/GPa)
#
#
# Indices 1 2 3 4 5 6 
#
# 1 0.005934 -0.002585 -0.001062 0.000000 -0.000239 0.000000
# 2 -0.002585 0.008229 0.003601 0.000000 0.000888 0.000000
# 3 -0.001062 0.003601 0.022401 0.000000 -0.004669 0.000000
# 4 0.000000 0.000000 0.000000 0.045925 0.000000 -0.013743
# 5 -0.000239 0.000888 -0.004669 0.000000 0.049479 0.000000
# 6 0.000000 0.000000 0.000000 -0.013743 0.000000 0.020906
#
#
# Mechanical properties :
#
#
# Convention : Reuss Voigt Hill
#
# Bulk Modulus (GPa) = 27.41896 52.55217 39.98557
# Shear Modulus (GPa) = 30.28045 45.28458 37.78251
#
# Velocity S-wave (km/s) = 3.50750 4.28935 3.91797
# Velocity P-wave (km/s) = 5.24817 6.77367 6.05912
#
# Compressibility (1/GPa) = 0.03647111
#
# Stress axis : x y z
#
# Youngs Moduli (GPa) = 168.51475 121.52232 44.64150
#
# Poissons Ratio (x) = 0.31419 0.04742
# Poissons Ratio (y) = 0.43569 -0.16077
# Poissons Ratio (z) = 0.17902 -0.43765
#
# Static dielectric constant tensor:
#      x y z
#    x 2.066210 0.000000 -0.044910 
#    y 0.000000 1.803650 0.000000 
#    z -0.044910 0.000000 2.021960 
# 
# From -- ./inp_files/253509.got.cif
#   From: 2010.05.17/outbox.cif.g08.bks.cpg/sg12_127_cif.got.tgz:253509.got - 2010.06.03 13:09:07.
