data_PCOD9189702
_publ_section_title
;
Structure prediction by ZEFSAII (Michael W. Deem and Ramdas Pophale) SiO2 
 PCOD9189702
Probable space group: C 2/M
;
_chemical_formula_sum "Si O2"
_cell_formula_units_Z 64
_cell_length_a 30.497631
_cell_length_b 7.919312
_cell_length_c 18.905047
_cell_angle_alpha 90.000000
_cell_angle_beta 39.543964
_cell_angle_gamma 90.000000
_cell_volume 2907.005034
_symmetry_space_group_name_H-M "C 2/M"
_symmetry_group_IT_number 12
_symmetry_cell_setting 'monoclinic'
loop_
_space_group_symop_operation_xyz
x,y,z
-x,y,-z
-x,-y,-z
x,-y,z
1/2+x,1/2+y,z
1/2-x,1/2+y,-z
1/2-x,1/2-y,-z
1/2+x,1/2-y,z
loop_
_atom_site_type_symbol
_atom_site_label
_atom_site_fract_x
_atom_site_fract_y
_atom_site_fract_z
Si Si1 0.182436 0.703552 0.128663
Si Si2 0.814541 0.707534 0.712891
Si Si3 0.822688 0.804770 0.195949
Si Si4 0.595170 0.196827 0.523598
Si Si5 0.950367 0.296893 0.945979
Si Si6 0.684769 0.688927 0.535973
Si Si7 0.041852 0.706548 0.228577
Si Si8 0.398253 0.805894 0.236112
O O1 0.179623 0.500000 0.134231
O O2 0.185012 0.764067 0.206595
O O3 0.112219 0.762019 0.178547
O O4 0.250000 0.750000 0.000000
O O5 0.814983 0.500000 0.712879
O O6 0.744304 0.759796 0.761232
O O7 0.877535 0.766057 0.584949
O O8 0.844029 0.710700 0.240707
O O9 0.188789 0.000000 0.770406
O O10 0.887564 0.790044 0.063035
O O11 0.657837 0.209470 0.501991
O O12 0.526461 0.268814 0.645588
O O13 0.580545 0.000000 0.529546
O O14 0.939272 0.500000 0.965025
O O15 0.955594 0.248032 0.857132
O O16 0.025567 0.259988 0.884545
O O17 0.697738 0.500000 0.495680
O O18 0.750000 0.750000 0.500000
O O19 0.624246 0.697746 0.669218
O O20 0.039651 0.500000 0.232154
O O21 0.401196 0.000000 0.257505
#
# Coordination Sequence:
#
# PCOD9189702 Si02
#       8
#     8   8   8   8   8   8   8   8
#     4  10  20  37  60  89 118 151 194 239 292 354
#     4   9  20  36  57  84 116 149 190 241 291 343
#     4  11  22  35  52  81 117 154 196 244 296 352
#     4  10  19  38  61  83 115 155 194 244 297 346
#     4  10  20  36  55  80 112 150 193 241 296 354
#     4  12  24  38  58  85 117 156 200 243 289 348
#     4   9  18  34  60  87 113 148 196 246 296 354
#     4  11  22  38  58  81 113 151 196 245 296 350
#
# _framework density 22.015785999999999
#
# number of rings (size 3 to 8) (size 9 to 14) (size 15 to 20)
#    0.000    1.750    1.250    3.750    0.000    4.000 
#    0.000    5.000    0.000    0.000    0.000    1.750 
#    0.000    0.000    0.000    0.000    0.000    0.000 
#
# Total GULP energy -178861.784520 kJ/mol
# GULP energy per Si atom -5589.430766 kJ/mol
# Density = 2.196568 g / cm^3
# Si number density = 22.015786 Si / 1000 Ang^3
#
#
#
# Elastic Constant Matrix: (Units=GPa)
#
#
# Indices 1 2 3 4 5 6 
#
# 1 109.3033 -1.3080 33.6231 -0.0052 5.2315 0.0006
# 2 -1.3080 26.0797 3.2473 0.0150 -2.7373 0.0077
# 3 33.6231 3.2473 113.8096 0.0052 13.7805 -0.0031
# 4 -0.0052 0.0150 0.0052 23.9752 -0.0022 -0.0103
# 5 5.2315 -2.7373 13.7805 -0.0022 38.3111 -0.0031
# 6 0.0006 0.0077 -0.0031 -0.0103 -0.0031 17.6486
#
#
#
# Elastic Compliance Matrix: (Units=1/GPa)
#
#
# Indices 1 2 3 4 5 6 
#
# 1 0.010086 0.000850 -0.002974 0.000002 -0.000247 -0.000001
# 2 0.000850 0.038953 -0.001762 -0.000024 0.003301 -0.000017
# 3 -0.002974 -0.001762 0.010122 -0.000002 -0.003361 0.000002
# 4 0.000002 -0.000024 -0.000002 0.041710 0.000001 0.000024
# 5 -0.000247 0.003301 -0.003361 0.000001 0.027581 0.000003
# 6 -0.000001 -0.000017 0.000002 0.000024 0.000003 0.056662
#
#
# Mechanical properties :
#
#
# Convention : Reuss Voigt Hill
#
# Bulk Modulus (GPa) = 19.45958 35.59083 27.52520
# Shear Modulus (GPa) = 23.80785 30.22897 27.01841
#
# Velocity S-wave (km/s) = 3.29203 3.70950 3.50698
# Velocity P-wave (km/s) = 4.82784 5.87778 5.37849
#
# Compressibility (1/GPa) = 0.05138858
#
# Stress axis : x y z
#
# Youngs Moduli (GPa) = 99.15043 25.67221 98.79024
#
# Poissons Ratio (x) = -0.02183 0.29380
# Poissons Ratio (y) = -0.08430 0.17410
# Poissons Ratio (z) = 0.29488 0.04524
#
# Static dielectric constant tensor:
#      x y z
#    x 1.787810 -0.000010 -0.010030 
#    y -0.000010 1.828360 0.000000 
#    z -0.010030 0.000000 1.810980 
# 
# From -- ./inp_files/295471.got.cif
#   From: 2010.05.17/outbox.cif.g08.bks.cpg/sg12_148_cif.got.tgz:295471.got - 2010.06.03 13:09:07.
