data_PCOD9189885
_publ_section_title
;
Structure prediction by ZEFSAII (Michael W. Deem and Ramdas Pophale) SiO2 
 PCOD9189885
Probable space group: C 2/M
;
_chemical_formula_sum "Si O2"
_cell_formula_units_Z 48
_cell_length_a 11.336185
_cell_length_b 23.475238
_cell_length_c 11.290956
_cell_angle_alpha 90.000000
_cell_angle_beta 125.415269
_cell_angle_gamma 90.000000
_cell_volume 2448.787351
_symmetry_space_group_name_H-M "C 2/M"
_symmetry_group_IT_number 12
_symmetry_cell_setting 'monoclinic'
loop_
_space_group_symop_operation_xyz
x,y,z
-x,y,-z
-x,-y,-z
x,-y,z
1/2+x,1/2+y,z
1/2-x,1/2+y,-z
1/2-x,1/2-y,-z
1/2+x,1/2-y,z
loop_
_atom_site_type_symbol
_atom_site_label
_atom_site_fract_x
_atom_site_fract_y
_atom_site_fract_z
Si Si1 0.302968 0.130543 0.555877
Si Si2 0.000000 0.660043 0.000000
Si Si3 0.006053 0.897013 0.645817
Si Si4 0.529732 0.936324 0.819924
Si Si5 0.530231 0.500000 0.822353
Si Si6 0.288823 0.295766 0.275211
Si Si7 0.238060 0.000000 0.169152
Si Si8 0.000000 0.701770 0.500000
O O1 0.157862 0.111578 0.408149
O O2 0.380255 0.078563 0.667448
O O3 0.251004 0.176597 0.621810
O O4 0.415778 0.161870 0.540374
O O5 0.137272 0.699216 0.116450
O O6 0.953474 0.615943 0.078458
O O7 0.000000 0.909748 0.500000
O O8 0.099307 0.840463 0.716645
O O9 0.066840 0.946749 0.760912
O O10 0.655448 0.945923 0.793919
O O11 0.523268 0.000000 0.871719
O O12 0.364036 0.500000 0.775158
O O13 0.630110 0.500000 0.995059
O O14 0.381985 0.239970 0.359856
#
# Coordination Sequence:
#
# PCOD9189885 Si02
#       8
#     8   4   8   8   4   8   4   4
#     4  10  22  36  61  88 113 160 195 248 307 355
#     4  10  19  38  66  88 118 160 199 246 308 348
#     4  10  21  38  59  92 118 152 206 250 301 363
#     4   9  20  37  57  87 123 150 200 238 289 373
#     4  11  21  35  59  81 130 160 192 244 310 364
#     4  10  21  40  60  90 116 149 209 253 292 364
#     4   9  22  36  51  83 124 168 191 229 299 374
#     4  12  22  40  65  81 122 158 200 260 308 340
#
# _framework density 19.601538000000001
#
# number of rings (size 3 to 8) (size 9 to 14) (size 15 to 20)
#    0.500    1.500    2.500    2.000    3.500    0.000 
#    9.000    4.583    3.667    0.000    0.000    0.000 
#    0.000    0.000    0.000    0.000    0.000    0.000 
#
# Total GULP energy -133662.117374 kJ/mol
# GULP energy per Si atom -5569.254891 kJ/mol
# Density = 1.955692 g / cm^3
# Si number density = 19.601538 Si / 1000 Ang^3
#
#
#
# Elastic Constant Matrix: (Units=GPa)
#
#
# Indices 1 2 3 4 5 6 
#
# 1 55.6664 4.1796 -6.0931 0.0000 9.7138 0.0000
# 2 4.1796 31.1753 11.6401 0.0000 -4.0954 0.0000
# 3 -6.0931 11.6401 65.8234 0.0000 20.3423 0.0000
# 4 0.0000 0.0000 0.0000 -2.4329 0.0000 7.2335
# 5 9.7138 -4.0954 20.3423 0.0000 22.9711 0.0000
# 6 0.0000 0.0000 0.0000 7.2335 0.0000 40.0366
#
#
#
# Elastic Compliance Matrix: (Units=1/GPa)
#
#
# Indices 1 2 3 4 5 6 
#
# 1 0.023450 -0.009725 0.010313 0.000000 -0.020783 0.000000
# 2 -0.009725 0.043141 -0.016766 0.000000 0.026651 0.000000
# 3 0.010313 -0.016766 0.029440 0.000000 -0.033422 0.000000
# 4 0.000000 0.000000 0.000000 -0.267394 0.000000 0.048311
# 5 -0.020783 0.026651 -0.033422 0.000000 0.086670 0.000000
# 6 0.000000 0.000000 0.000000 0.048311 0.000000 0.016249
#
#
# Mechanical properties :
#
#
# Convention : Reuss Voigt Hill
#
# Bulk Modulus (GPa) = 15.70416 19.12428 17.41422
# Shear Modulus (GPa) = -336.38507 21.64420 -157.37044
#
# Velocity S-wave (km/s) = -13.11427 3.32657 -8.96990
# Velocity P-wave (km/s) = 14.87559 4.95302 9.91843
#
# Compressibility (1/GPa) = 0.06367738
#
# Stress axis : x y z
#
# Youngs Moduli (GPa) = 42.64422 23.17957 33.96698
#
# Poissons Ratio (x) = 0.22542 -0.35031
# Poissons Ratio (y) = 0.41471 0.56948
# Poissons Ratio (z) = -0.43980 0.38862
#
# Static dielectric constant tensor:
#      x y z
#    x 1.719920 0.000000 0.023920 
#    y 0.000000 1.662060 0.000000 
#    z 0.023920 0.000000 1.709650 
# 
# From -- ./inp_files/135590.got.cif
#   From: 2010.05.17/outbox.cif.g08.bks.cpg/sg12_68_cif.got.tgz:135590.got - 2010.06.03 13:09:07.
