data_PCOD9189956
_publ_section_title
;
Structure prediction by ZEFSAII (Michael W. Deem and Ramdas Pophale) SiO2 
 PCOD9189956
Probable space group: C 2/M
;
_chemical_formula_sum "Si O2"
_cell_formula_units_Z 64
_cell_length_a 11.774498
_cell_length_b 21.496283
_cell_length_c 24.593877
_cell_angle_alpha 90.000000
_cell_angle_beta 150.459252
_cell_angle_gamma 90.000000
_cell_volume 3069.142514
_symmetry_space_group_name_H-M "C 2/M"
_symmetry_group_IT_number 12
_symmetry_cell_setting 'monoclinic'
loop_
_space_group_symop_operation_xyz
x,y,z
-x,y,-z
-x,-y,-z
x,-y,z
1/2+x,1/2+y,z
1/2-x,1/2+y,-z
1/2-x,1/2-y,-z
1/2+x,1/2-y,z
loop_
_atom_site_type_symbol
_atom_site_label
_atom_site_fract_x
_atom_site_fract_y
_atom_site_fract_z
Si Si1 0.317204 0.130370 0.535490
Si Si2 0.659608 0.322064 0.361842
Si Si3 0.275111 0.569446 0.696559
Si Si4 0.621706 0.815587 0.323398
Si Si5 0.198745 0.123709 0.927290
Si Si6 0.572999 0.306430 0.091717
Si Si7 0.839974 0.667019 0.868373
Si Si8 0.614125 0.568872 0.607712
O O1 0.306013 0.173001 0.477546
O O2 0.553876 0.092109 0.638296
O O3 0.292439 0.169964 0.579827
O O4 0.100605 0.083790 0.442781
O O5 0.713063 0.381121 0.346953
O O6 0.687440 0.256669 0.341616
O O7 0.387509 0.329846 0.262712
O O8 0.239064 0.500000 0.661590
O O9 0.514148 0.573191 0.829781
O O10 0.345588 0.818264 0.209034
O O11 0.721192 0.870577 0.326982
O O12 0.241064 0.162159 0.888775
O O13 0.068298 0.157714 0.921541
O O14 0.464909 0.114060 0.056782
O O15 0.537192 0.233061 0.087044
O O16 0.500000 0.321723 0.000000
O O17 0.500000 0.565444 0.500000
O O18 0.715409 0.500000 0.661052
#
# Coordination Sequence:
#
# PCOD9189956 Si02
#       8
#     8   8   8   8   8   8   8   8
#     4  11  21  38  62  92 123 167 209 258 310 375
#     4  10  23  38  60  94 129 158 206 261 317 367
#     4  11  24  41  63  88 124 171 214 259 313 377
#     4  10  22  40  58  94 128 163 203 256 319 373
#     4  10  19  39  58  87 123 159 212 252 309 376
#     4  11  20  34  61  93 122 161 204 257 312 372
#     4   9  20  36  60  90 124 163 201 255 314 380
#     4   9  20  38  60  83 115 164 210 247 293 367
#
# _framework density 20.852730000000001
#
# number of rings (size 3 to 8) (size 9 to 14) (size 15 to 20)
#    0.000    1.875    2.500    1.500    0.000    7.000 
#    4.500    5.000    0.000    3.000    0.000    0.000 
#    0.000    0.000    0.000    0.000    0.000    0.000 
#
# Total GULP energy -178375.492125 kJ/mol
# GULP energy per Si atom -5574.234129 kJ/mol
# Density = 2.080527 g / cm^3
# Si number density = 20.852730 Si / 1000 Ang^3
#
#
#
# Elastic Constant Matrix: (Units=GPa)
#
#
# Indices 1 2 3 4 5 6 
#
# 1 58.4845 33.8851 6.2505 0.0008 10.4982 0.0000
# 2 33.8851 127.7795 25.8148 0.0009 11.3660 0.0003
# 3 6.2505 25.8148 90.3067 0.0033 14.9203 0.0015
# 4 0.0008 0.0009 0.0033 20.0280 0.0012 1.9239
# 5 10.4982 11.3660 14.9203 0.0012 27.6966 0.0004
# 6 0.0000 0.0003 0.0015 1.9239 0.0004 14.2567
#
#
#
# Elastic Compliance Matrix: (Units=1/GPa)
#
#
# Indices 1 2 3 4 5 6 
#
# 1 0.021194 -0.005269 0.001108 0.000000 -0.006468 0.000000
# 2 -0.005269 0.009756 -0.002297 0.000000 -0.000769 0.000000
# 3 0.001108 -0.002297 0.012697 -0.000002 -0.006317 -0.000001
# 4 0.000000 0.000000 -0.000002 0.050586 -0.000001 -0.006827
# 5 -0.006468 -0.000769 -0.006317 -0.000001 0.042276 0.000000
# 6 0.000000 0.000000 -0.000001 -0.006827 0.000000 0.071063
#
#
# Mechanical properties :
#
#
# Convention : Reuss Voigt Hill
#
# Bulk Modulus (GPa) = 32.54080 45.38570 38.96325
# Shear Modulus (GPa) = 21.67025 26.43762 24.05393
#
# Velocity S-wave (km/s) = 3.22717 3.56452 3.40003
# Velocity P-wave (km/s) = 5.43370 6.22520 5.84287
#
# Compressibility (1/GPa) = 0.03073065
#
# Stress axis : x y z
#
# Youngs Moduli (GPa) = 47.18357 102.50503 78.75861
#
# Poissons Ratio (x) = 0.54007 -0.08725
# Poissons Ratio (y) = 0.24860 0.18091
# Poissons Ratio (z) = -0.05227 0.23545
#
# Static dielectric constant tensor:
#      x y z
#    x 1.750560 0.000000 0.008600 
#    y 0.000000 1.752530 0.000000 
#    z 0.008600 0.000000 1.848400 
# 
# From -- ./inp_files/359021.got.cif
#   From: 2010.05.17/outbox.cif.g08.bks.cpg/sg12_180_cif.got.tgz:359021.got - 2010.06.03 13:09:07.
