data_PCOD9189293
_publ_section_title
;
Structure prediction by ZEFSAII (Michael W. Deem and Ramdas Pophale) SiO2 
 PCOD9189293
Probable space group: C 2/M
;
_chemical_formula_sum "Si O2"
_cell_formula_units_Z 58
_cell_length_a 22.312215
_cell_length_b 7.298883
_cell_length_c 20.140839
_cell_angle_alpha 90.000000
_cell_angle_beta 127.792238
_cell_angle_gamma 90.000000
_cell_volume 2591.997487
_symmetry_space_group_name_H-M "C 2/M"
_symmetry_group_IT_number 12
_symmetry_cell_setting 'monoclinic'
loop_
_space_group_symop_operation_xyz
x,y,z
-x,y,-z
-x,-y,-z
x,-y,z
1/2+x,1/2+y,z
1/2-x,1/2+y,-z
1/2-x,1/2-y,-z
1/2+x,1/2-y,z
loop_
_atom_site_type_symbol
_atom_site_label
_atom_site_fract_x
_atom_site_fract_y
_atom_site_fract_z
Si Si1 0.000000 0.500000 0.500000
Si Si2 0.456010 0.295098 0.147107
Si Si3 0.441257 0.781495 0.901637
Si Si4 0.694831 0.718086 0.023421
Si Si5 0.235991 0.778575 0.340083
Si Si6 0.603163 0.713843 0.485562
Si Si7 0.271290 0.703948 0.811989
Si Si8 0.413369 0.276705 0.679508
O O1 0.948970 0.340719 0.504046
O O2 0.430360 0.500000 0.148857
O O3 0.523218 0.301686 0.139452
O O4 0.502869 0.211867 0.239894
O O5 0.386226 0.209563 0.058475
O O6 0.361849 0.695721 0.865313
O O7 0.431828 0.000000 0.887140
O O8 0.500000 0.748687 0.000000
O O9 0.684999 0.500000 0.029046
O O10 0.732511 0.790829 0.117141
O O11 0.750000 0.750000 0.000000
O O12 0.309283 0.730015 0.432418
O O13 0.250428 0.712172 0.273935
O O14 0.157588 0.716554 0.322126
O O15 0.230696 0.000000 0.331632
O O16 0.580516 0.500000 0.474580
O O17 0.599039 0.770918 0.405436
O O18 0.236263 0.500000 0.791424
O O19 0.414956 0.500000 0.684802
#
# Coordination Sequence:
#
# PCOD9189293 Si02
#       8
#     2   8   8   8   8   8   8   8
#     4  12  26  52  72  94 132 176 234 274 316 402
#     4  10  19  37  61  85 117 158 206 253 312 382
#     4  11  21  31  50  85 123 157 196 256 316 369
#     4  10  22  38  57  81 113 163 214 258 306 368
#     4  10  19  38  66  99 134 165 209 272 334 397
#     4  11  24  45  70  98 134 177 221 272 329 389
#     4  10  20  36  60  86 118 159 206 252 308 377
#     4   9  19  37  66 100 131 162 208 271 337 400
#
# _framework density 22.376564999999999
#
# number of rings (size 3 to 8) (size 9 to 14) (size 15 to 20)
#    0.000    1.793    3.448    1.034    0.000    2.207 
#    4.966    0.000    0.000    0.000    0.000    0.000 
#    0.000    0.000    0.000    0.000    0.000    0.000 
#
# Total GULP energy -161517.491568 kJ/mol
# GULP energy per Si atom -5569.568675 kJ/mol
# Density = 2.232564 g / cm^3
# Si number density = 22.376565 Si / 1000 Ang^3
#
#
#
# Elastic Constant Matrix: (Units=GPa)
#
#
# Indices 1 2 3 4 5 6 
#
# 1 66.4165 2.1841 13.5776 0.0000 -20.9014 0.0000
# 2 2.1841 106.4711 21.8047 0.0000 -1.7620 0.0000
# 3 13.5776 21.8047 149.3971 0.0000 -17.5956 0.0000
# 4 0.0000 0.0000 0.0000 28.2043 0.0000 -39.1909
# 5 -20.9014 -1.7620 -17.5956 0.0000 17.1986 0.0000
# 6 0.0000 0.0000 0.0000 -39.1909 0.0000 68.2983
#
#
#
# Elastic Compliance Matrix: (Units=1/GPa)
#
#
# Indices 1 2 3 4 5 6 
#
# 1 0.024669 -0.000294 0.001510 0.000000 0.031495 0.000000
# 2 -0.000294 0.009689 -0.001492 0.000000 -0.000892 0.000000
# 3 0.001510 -0.001492 0.007928 0.000000 0.009793 0.000000
# 4 0.000000 0.000000 0.000000 0.174953 0.000000 0.100391
# 5 0.031495 -0.000892 0.009793 0.000000 0.106349 0.000000
# 6 0.000000 0.000000 0.000000 0.100391 0.000000 0.072248
#
#
# Mechanical properties :
#
#
# Convention : Reuss Voigt Hill
#
# Bulk Modulus (GPa) = 23.96159 44.15749 34.05954
# Shear Modulus (GPa) = 12.18624 41.72146 26.95385
#
# Velocity S-wave (km/s) = 2.33619 4.32269 3.47444
# Velocity P-wave (km/s) = 4.24366 6.68512 5.59908
#
# Compressibility (1/GPa) = 0.04173346
#
# Stress axis : x y z
#
# Youngs Moduli (GPa) = 40.53652 103.20836 126.14239
#
# Poissons Ratio (x) = 0.03036 -0.19053
# Poissons Ratio (y) = 0.01192 0.18826
# Poissons Ratio (z) = -0.06123 0.15403
#
# Static dielectric constant tensor:
#      x y z
#    x 1.768340 0.000000 -0.057070 
#    y 0.000000 1.853090 0.000000 
#    z -0.057070 0.000000 2.127700 
# 
# From -- ./inp_files/282238.got.cif
#   From: 2010.05.17/outbox.cif.g08.bks.cpg/sg12_142_cif.got.tgz:282238.got - 2010.06.03 13:09:07.
