data_PCOD9189612
_publ_section_title
;
Structure prediction by ZEFSAII (Michael W. Deem and Ramdas Pophale) SiO2 
 PCOD9189612
Probable space group: C 2/M
;
_chemical_formula_sum "Si O2"
_cell_formula_units_Z 56
_cell_length_a 28.868763
_cell_length_b 14.116528
_cell_length_c 15.338501
_cell_angle_alpha 90.000000
_cell_angle_beta 28.559174
_cell_angle_gamma 90.000000
_cell_volume 2988.319062
_symmetry_space_group_name_H-M "C 2/M"
_symmetry_group_IT_number 12
_symmetry_cell_setting 'monoclinic'
loop_
_space_group_symop_operation_xyz
x,y,z
-x,y,-z
-x,-y,-z
x,-y,z
1/2+x,1/2+y,z
1/2-x,1/2+y,-z
1/2-x,1/2-y,-z
1/2+x,1/2-y,z
loop_
_atom_site_type_symbol
_atom_site_label
_atom_site_fract_x
_atom_site_fract_y
_atom_site_fract_z
Si Si1 0.954141 0.243294 0.859084
Si Si2 0.763067 0.641430 0.453591
Si Si3 0.355725 0.392156 0.674199
Si Si4 0.451101 0.395189 0.169370
Si Si5 0.757692 0.724040 0.280194
Si Si6 0.618700 0.890657 0.581787
Si Si7 0.079567 0.108701 0.242223
O O1 0.912674 0.188418 0.843870
O O2 0.029405 0.172580 0.781949
O O3 0.015475 0.338303 0.739055
O O4 0.866558 0.255237 0.070901
O O5 0.750000 0.750000 0.500000
O O6 0.663634 0.596671 0.651340
O O7 0.764074 0.646406 0.347612
O O8 0.853456 0.607363 0.360976
O O9 0.319910 0.500000 0.722258
O O10 0.296757 0.321012 0.712096
O O11 0.359167 0.371250 0.771675
O O12 0.466967 0.390707 0.457687
O O13 0.492518 0.500000 0.117529
O O14 0.500000 0.358458 0.000000
O O15 0.698928 0.818957 0.406812
O O16 0.621558 0.000000 0.546002
O O17 0.100996 0.000000 0.177618
#
# Coordination Sequence:
#
# PCOD9189612 Si02
#       7
#     8   8   8   8   8   8   8
#     4  12  23  36  61  86 120 161 201 246 290 369
#     4  10  19  38  56  79 116 157 196 240 294 348
#     4   9  18  36  63  91 116 144 190 249 305 356
#     4  11  21  34  59  89 114 147 195 252 300 346
#     4  11  23  38  62  87 117 160 203 247 298 360
#     4  11  24  42  58  83 125 168 201 247 299 357
#     4   9  18  36  63  91 116 145 188 249 310 354
#
# _framework density 18.739632
#
# number of rings (size 3 to 8) (size 9 to 14) (size 15 to 20)
#    0.000    1.571    4.286    3.429    0.000    5.714 
#    0.000    0.714    0.000    1.714    0.000    0.000 
#    0.000    0.000    0.000    0.000    0.000    0.000 
#
# Total GULP energy -156073.880185 kJ/mol
# GULP energy per Si atom -5574.067149 kJ/mol
# Density = 1.869698 g / cm^3
# Si number density = 18.739632 Si / 1000 Ang^3
#
#
#
# Elastic Constant Matrix: (Units=GPa)
#
#
# Indices 1 2 3 4 5 6 
#
# 1 96.3936 48.6709 15.7654 0.0000 0.8654 0.0000
# 2 48.6709 104.2055 22.0884 0.0000 0.5091 0.0000
# 3 15.7654 22.0884 79.6750 0.0000 6.5824 0.0000
# 4 0.0000 0.0000 0.0000 -70.5677 0.0000 -9.6103
# 5 0.8654 0.5091 6.5824 0.0000 20.9974 0.0000
# 6 0.0000 0.0000 0.0000 -9.6103 0.0000 15.7180
#
#
#
# Elastic Compliance Matrix: (Units=1/GPa)
#
#
# Indices 1 2 3 4 5 6 
#
# 1 0.013649 -0.006166 -0.000983 0.000000 -0.000105 0.000000
# 2 -0.006166 0.012990 -0.002439 0.000000 0.000704 0.000000
# 3 -0.000983 -0.002439 0.013770 0.000000 -0.004217 0.000000
# 4 0.000000 0.000000 0.000000 -0.013082 0.000000 -0.007998
# 5 -0.000105 0.000704 -0.004217 0.000000 0.048934 0.000000
# 6 0.000000 0.000000 0.000000 -0.007998 0.000000 0.058731
#
#
# Mechanical properties :
#
#
# Convention : Reuss Voigt Hill
#
# Bulk Modulus (GPa) = 47.09647 50.36925 48.73286
# Shear Modulus (GPa) = 31.00829 6.14617 18.57723
#
# Velocity S-wave (km/s) = 4.07220 1.81298 3.15196
# Velocity P-wave (km/s) = 6.87728 5.59637 6.26962
#
# Compressibility (1/GPa) = 0.02123301
#
# Stress axis : x y z
#
# Youngs Moduli (GPa) = 73.26400 76.98160 72.62126
#
# Poissons Ratio (x) = 0.47469 0.07136
# Poissons Ratio (y) = 0.45177 0.17714
# Poissons Ratio (z) = 0.07199 0.18778
#
# Static dielectric constant tensor:
#      x y z
#    x 1.678800 0.000000 0.010350 
#    y 0.000000 1.646770 0.000000 
#    z 0.010350 0.000000 1.666920 
# 
# From -- ./inp_files/246529.got.cif
#   From: 2010.05.17/outbox.cif.g08.bks.cpg/sg12_124_cif.got.tgz:246529.got - 2010.06.03 13:09:07.
