data_PCOD9189495
_publ_section_title
;
Structure prediction by ZEFSAII (Michael W. Deem and Ramdas Pophale) SiO2 
 PCOD9189495
Probable space group: C 2/M
;
_chemical_formula_sum "Si O2"
_cell_formula_units_Z 64
_cell_length_a 31.621285
_cell_length_b 8.381312
_cell_length_c 12.468510
_cell_angle_alpha 90.000000
_cell_angle_beta 91.089963
_cell_angle_gamma 90.000000
_cell_volume 3303.904548
_symmetry_space_group_name_H-M "C 2/M"
_symmetry_group_IT_number 12
_symmetry_cell_setting 'monoclinic'
loop_
_space_group_symop_operation_xyz
x,y,z
-x,y,-z
-x,-y,-z
x,-y,z
1/2+x,1/2+y,z
1/2-x,1/2+y,-z
1/2-x,1/2-y,-z
1/2+x,1/2-y,z
loop_
_atom_site_type_symbol
_atom_site_label
_atom_site_fract_x
_atom_site_fract_y
_atom_site_fract_z
Si Si1 0.828572 0.305015 0.273582
Si Si2 0.949767 0.682960 0.987099
Si Si3 0.501239 0.192941 0.375860
Si Si4 0.421599 0.314587 0.763938
Si Si5 0.672496 0.190190 0.263440
Si Si6 0.202233 0.307402 0.496463
Si Si7 0.076689 0.695026 0.778918
Si Si8 0.749624 0.309236 0.122311
O O1 0.828159 0.500000 0.271284
O O2 0.818986 0.252851 0.394366
O O3 0.875896 0.254018 0.246790
O O4 0.790950 0.252068 0.191840
O O5 0.934236 0.500000 0.968598
O O6 0.938605 0.786961 0.884546
O O7 0.932834 0.743573 0.099766
O O8 0.000000 0.674942 0.000000
O O9 0.500000 0.246694 0.500000
O O10 0.543937 0.243722 0.316777
O O11 0.460200 0.247401 0.304975
O O12 0.500308 0.000000 0.376484
O O13 0.416560 0.500000 0.740025
O O14 0.375870 0.233048 0.760270
O O15 0.682183 0.249067 0.384462
O O16 0.706993 0.259292 0.182757
O O17 0.677539 0.000000 0.260751
O O18 0.200801 0.500000 0.496566
O O19 0.250000 0.250000 0.500000
O O20 0.075506 0.500000 0.777553
O O21 0.751400 0.500000 0.120758
O O22 0.750000 0.250000 0.000000
#
# Coordination Sequence:
#
# PCOD9189495 Si02
#       8
#     8   8   8   8   8   8   8   8
#     4   9  19  35  58  89 120 154 194 243 302 357
#     4  10  19  37  64  90 118 154 205 257 300 357
#     4  10  21  39  65  92 121 159 207 253 296 361
#     4  12  26  41  60  88 127 165 203 255 314 369
#     4  11  24  41  64  91 120 161 213 257 303 365
#     4  10  20  37  63  89 118 153 199 254 303 361
#     4   9  18  34  59  90 120 153 195 247 298 349
#     4  11  23  40  61  88 127 165 203 252 307 365
#
# _framework density 19.371020000000001
#
# number of rings (size 3 to 8) (size 9 to 14) (size 15 to 20)
#    0.000    1.750    2.500    1.875    3.500    1.000 
#    0.000    0.000    0.000    2.250    0.000    0.000 
#    0.000    0.000    0.000    0.000    0.000    0.000 
#
# Total GULP energy -178663.239279 kJ/mol
# GULP energy per Si atom -5583.226227 kJ/mol
# Density = 1.932693 g / cm^3
# Si number density = 19.371020 Si / 1000 Ang^3
#
#
#
# Elastic Constant Matrix: (Units=GPa)
#
#
# Indices 1 2 3 4 5 6 
#
# 1 155.4347 11.6199 92.1629 0.0000 -20.1867 0.0000
# 2 11.6199 19.6982 22.0469 0.0000 -1.6754 0.0000
# 3 92.1629 22.0469 185.0741 0.0000 -22.4261 0.0000
# 4 0.0000 0.0000 0.0000 11.6308 0.0000 -5.6263
# 5 -20.1867 -1.6754 -22.4261 0.0000 38.2038 0.0000
# 6 0.0000 0.0000 0.0000 -5.6263 0.0000 24.7934
#
#
#
# Elastic Compliance Matrix: (Units=1/GPa)
#
#
# Indices 1 2 3 4 5 6 
#
# 1 0.009328 -0.000489 -0.004298 0.000000 0.002385 0.000000
# 2 -0.000489 0.058698 -0.006963 0.000000 -0.001772 0.000000
# 3 -0.004298 -0.006963 0.008678 0.000000 0.002518 0.000000
# 4 0.000000 0.000000 0.000000 0.096581 0.000000 0.021917
# 5 0.002385 -0.001772 0.002518 0.000000 0.028836 0.000000
# 6 0.000000 0.000000 0.000000 0.021917 0.000000 0.045307
#
#
# Mechanical properties :
#
#
# Convention : Reuss Voigt Hill
#
# Bulk Modulus (GPa) = 18.79609 67.98517 43.39063
# Shear Modulus (GPa) = 17.32121 30.55076 23.93598
#
# Velocity S-wave (km/s) = 2.99353 3.97563 3.51901
# Velocity P-wave (km/s) = 4.65538 7.49978 6.24176
#
# Compressibility (1/GPa) = 0.05320257
#
# Stress axis : x y z
#
# Youngs Moduli (GPa) = 107.20044 17.03645 115.23165
#
# Poissons Ratio (x) = 0.00834 0.49527
# Poissons Ratio (y) = 0.05246 0.80240
# Poissons Ratio (z) = 0.46075 0.11863
#
# Static dielectric constant tensor:
#      x y z
#    x 1.694900 0.000000 0.074790 
#    y 0.000000 1.699080 0.000000 
#    z 0.074790 0.000000 1.837170 
# 
# From -- ./inp_files/187549.got.cif
#   From: 2010.05.17/outbox.cif.g08.bks.cpg/sg12_94_cif.got.tgz:187549.got - 2010.06.03 13:09:07.
