data_PCOD9189965
_publ_section_title
;
Structure prediction by ZEFSAII (Michael W. Deem and Ramdas Pophale) SiO2 
 PCOD9189965
Probable space group: C 2/M
;
_chemical_formula_sum "Si O2"
_cell_formula_units_Z 44
_cell_length_a 9.501411
_cell_length_b 29.136499
_cell_length_c 8.770852
_cell_angle_alpha 90.000000
_cell_angle_beta 126.257399
_cell_angle_gamma 90.000000
_cell_volume 1957.945805
_symmetry_space_group_name_H-M "C 2/M"
_symmetry_group_IT_number 12
_symmetry_cell_setting 'monoclinic'
loop_
_space_group_symop_operation_xyz
x,y,z
-x,y,-z
-x,-y,-z
x,-y,z
1/2+x,1/2+y,z
1/2-x,1/2+y,-z
1/2-x,1/2-y,-z
1/2+x,1/2-y,z
loop_
_atom_site_type_symbol
_atom_site_label
_atom_site_fract_x
_atom_site_fract_y
_atom_site_fract_z
Si Si1 0.882223 0.051929 0.268950
Si Si2 0.000000 0.728302 0.500000
Si Si3 0.176704 0.808312 0.760434
Si Si4 0.386426 0.628904 0.698459
Si Si5 0.872690 0.608601 0.725019
Si Si6 0.334533 0.834582 0.167694
O O1 0.694743 0.067438 0.213469
O O2 0.000000 0.055099 0.500000
O O3 0.968438 0.088507 0.208177
O O4 0.114798 0.000000 0.784965
O O5 0.843674 0.762668 0.352653
O O6 0.988234 0.693864 0.350510
O O7 0.293601 0.846407 0.755653
O O8 0.985887 0.830888 0.668472
O O9 0.257776 0.804815 0.981108
O O10 0.224897 0.607843 0.500391
O O11 0.311010 0.651016 0.803100
O O12 0.074757 0.618978 0.833818
#
# Coordination Sequence:
#
# PCOD9189965 Si02
#       6
#     8   4   8   8   8   8
#     4   8  16  33  65  95 118 160 209 237 288 378
#     4  12  24  42  60  86 122 158 218 262 294 356
#     4  11  23  40  61  82 117 168 211 246 301 369
#     4  10  19  39  60  84 123 159 198 253 306 359
#     4  10  19  39  60  84 123 159 198 253 306 359
#     4  12  24  37  60  90 123 162 201 261 314 345
#
# _framework density 22.472532999999999
#
# number of rings (size 3 to 8) (size 9 to 14) (size 15 to 20)
#    0.000    1.636    3.636    2.727    0.000    2.909 
#    0.000    4.545    0.000   21.818    0.000    0.000 
#    0.000    0.000    0.000    0.364    0.000    0.000 
#
# Total GULP energy -122764.529596 kJ/mol
# GULP energy per Si atom -5580.205891 kJ/mol
# Density = 2.242138 g / cm^3
# Si number density = 22.472533 Si / 1000 Ang^3
#
#
#
# Elastic Constant Matrix: (Units=GPa)
#
#
# Indices 1 2 3 4 5 6 
#
# 1 113.3560 32.2200 4.2937 0.0000 -6.6318 0.0000
# 2 32.2200 96.9617 13.7038 0.0000 -6.2918 0.0000
# 3 4.2937 13.7038 116.1331 0.0000 -4.7473 0.0000
# 4 0.0000 0.0000 0.0000 12.2830 0.0000 1.2079
# 5 -6.6318 -6.2918 -4.7473 0.0000 23.9486 0.0000
# 6 0.0000 0.0000 0.0000 1.2079 0.0000 16.1702
#
#
#
# Elastic Compliance Matrix: (Units=1/GPa)
#
#
# Indices 1 2 3 4 5 6 
#
# 1 0.009827 -0.003154 0.000087 0.000000 0.001910 0.000000
# 2 -0.003154 0.011655 -0.001179 0.000000 0.001955 0.000000
# 3 0.000087 -0.001179 0.008806 0.000000 0.001460 0.000000
# 4 0.000000 0.000000 0.000000 0.082016 0.000000 -0.006127
# 5 0.001910 0.001955 0.001460 0.000000 0.043088 0.000000
# 6 0.000000 0.000000 0.000000 -0.006127 0.000000 0.062300
#
#
# Mechanical properties :
#
#
# Convention : Reuss Voigt Hill
#
# Bulk Modulus (GPa) = 45.87862 47.43174 46.65518
# Shear Modulus (GPa) = 21.41802 28.89590 25.15696
#
# Velocity S-wave (km/s) = 3.09054 3.58974 3.34945
# Velocity P-wave (km/s) = 5.76151 6.19145 5.98034
#
# Compressibility (1/GPa) = 0.02179665
#
# Stress axis : x y z
#
# Youngs Moduli (GPa) = 101.76455 85.80180 113.55409
#
# Poissons Ratio (x) = 0.27059 -0.00987
# Poissons Ratio (y) = 0.32093 0.13385
# Poissons Ratio (z) = -0.00884 0.10114
#
# Static dielectric constant tensor:
#      x y z
#    x 1.817290 0.000000 0.037020 
#    y 0.000000 1.810080 0.000000 
#    z 0.037020 0.000000 1.955190 
# 
# From -- ./inp_files/42378.got.cif
#   From: 2010.05.17/outbox.cif.g08.bks.cpg/sg12_22_cif.got.tgz:42378.got - 2010.06.03 13:09:07.
