data_PCOD9189325
_publ_section_title
;
Structure prediction by ZEFSAII (Michael W. Deem and Ramdas Pophale) SiO2 
 PCOD9189325
Probable space group: C 2/M
;
_chemical_formula_sum "Si O2"
_cell_formula_units_Z 64
_cell_length_a 30.997651
_cell_length_b 13.194841
_cell_length_c 22.252635
_cell_angle_alpha 90.000000
_cell_angle_beta 19.253489
_cell_angle_gamma 90.000000
_cell_volume 3001.212436
_symmetry_space_group_name_H-M "C 2/M"
_symmetry_group_IT_number 12
_symmetry_cell_setting 'monoclinic'
loop_
_space_group_symop_operation_xyz
x,y,z
-x,y,-z
-x,-y,-z
x,-y,z
1/2+x,1/2+y,z
1/2-x,1/2+y,-z
1/2-x,1/2-y,-z
1/2+x,1/2-y,z
loop_
_atom_site_type_symbol
_atom_site_label
_atom_site_fract_x
_atom_site_fract_y
_atom_site_fract_z
Si Si1 0.613029 0.115641 0.542873
Si Si2 0.577327 0.815073 0.719719
Si Si3 0.716402 0.819839 0.855576
Si Si4 0.668191 0.314521 0.412838
Si Si5 0.680121 0.384369 0.530851
Si Si6 0.654916 0.118325 0.282110
Si Si7 0.180431 0.378095 0.107125
Si Si8 0.395458 0.380847 0.729541
O O1 0.632013 0.126988 0.589007
O O2 0.693141 0.199090 0.401126
O O3 0.461561 0.147331 0.732339
O O4 0.631053 0.000000 0.499213
O O5 0.592670 0.696689 0.682104
O O6 0.672432 0.847733 0.648325
O O7 0.427357 0.838140 0.929935
O O8 0.729474 0.856048 0.769931
O O9 0.757186 0.700962 0.800164
O O10 0.820483 0.867002 0.765316
O O11 0.654814 0.373192 0.493140
O O12 0.531437 0.323174 0.556861
O O13 0.659544 0.500000 0.576192
O O14 0.500000 0.131431 0.500000
O O15 0.681563 0.140369 0.176621
O O16 0.685033 0.000000 0.254701
O O17 0.187638 0.500000 0.091811
O O18 0.299505 0.342304 0.908964
O O19 0.422533 0.500000 0.702124
#
# Coordination Sequence:
#
# PCOD9189325 Si02
#       8
#     8   8   8   8   8   8   8   8
#     4  10  19  37  61  88 119 157 202 251 301 356
#     4  10  23  41  68  94 118 155 205 257 306 365
#     4  12  24  39  60  93 127 161 204 250 305 365
#     4  11  25  39  60  91 125 166 203 248 304 366
#     4  10  23  46  68  90 119 157 204 257 309 360
#     4  10  21  36  55  87 132 173 203 242 303 369
#     4   9  18  31  54  83 114 159 206 241 287 352
#     4  11  23  38  57  87 127 167 206 250 300 360
#
# _framework density 21.324715000000001
#
# number of rings (size 3 to 8) (size 9 to 14) (size 15 to 20)
#    0.000    1.625    1.250    3.375    3.500    5.500 
#    0.000    0.625    0.000    0.000    0.000    6.125 
#    0.000    0.000    0.000    0.000    0.000    0.000 
#
# Total GULP energy -178862.679930 kJ/mol
# GULP energy per Si atom -5589.458748 kJ/mol
# Density = 2.127618 g / cm^3
# Si number density = 21.324715 Si / 1000 Ang^3
#
#
#
# Elastic Constant Matrix: (Units=GPa)
#
#
# Indices 1 2 3 4 5 6 
#
# 1 65.5341 -3.7325 28.4811 0.0000 2.1002 0.0000
# 2 -3.7325 88.0470 -8.3793 0.0000 5.0742 0.0000
# 3 28.4811 -8.3793 35.0011 -0.0001 14.5617 0.0000
# 4 0.0000 0.0000 -0.0001 14.3088 0.0000 -1.5231
# 5 2.1002 5.0742 14.5617 0.0000 31.0612 0.0000
# 6 0.0000 0.0000 0.0000 -1.5231 0.0000 14.0875
#
#
#
# Elastic Compliance Matrix: (Units=1/GPa)
#
#
# Indices 1 2 3 4 5 6 
#
# 1 0.026274 -0.002031 -0.026417 0.000000 0.010940 0.000000
# 2 -0.002031 0.012189 0.006636 0.000000 -0.004965 0.000000
# 3 -0.026417 0.006636 0.063808 0.000000 -0.029212 0.000000
# 4 0.000000 0.000000 0.000000 0.070701 0.000000 0.007644
# 5 0.010940 -0.004965 -0.029212 0.000000 0.045961 0.000000
# 6 0.000000 0.000000 0.000000 0.007644 0.000000 0.071811
#
#
# Mechanical properties :
#
#
# Convention : Reuss Voigt Hill
#
# Bulk Modulus (GPa) = 17.05076 24.59116 20.82096
# Shear Modulus (GPa) = 14.12763 23.37238 18.75000
#
# Velocity S-wave (km/s) = 2.57670 3.31422 2.96845
# Velocity P-wave (km/s) = 4.10678 5.11881 4.64046
#
# Compressibility (1/GPa) = 0.05864841
#
# Stress axis : x y z
#
# Youngs Moduli (GPa) = 38.06075 82.03995 15.67190
#
# Poissons Ratio (x) = 0.16660 0.41400
# Poissons Ratio (y) = 0.07729 -0.10400
# Poissons Ratio (z) = 1.00545 -0.54443
#
# Static dielectric constant tensor:
#      x y z
#    x 1.784730 0.000000 0.031390 
#    y 0.000000 1.822230 0.000000 
#    z 0.031390 0.000000 1.746490 
# 
# From -- ./inp_files/330355.got.cif
#   From: 2010.05.17/outbox.cif.g08.bks.cpg/sg12_166_cif.got.tgz:330355.got - 2010.06.03 13:09:07.
