data_PCOD9189855
_publ_section_title
;
Structure prediction by ZEFSAII (Michael W. Deem and Ramdas Pophale) SiO2 
 PCOD9189855
Probable space group: C 2/M
;
_chemical_formula_sum "Si O2"
_cell_formula_units_Z 52
_cell_length_a 13.924484
_cell_length_b 16.927472
_cell_length_c 17.570160
_cell_angle_alpha 90.000000
_cell_angle_beta 147.115560
_cell_angle_gamma 90.000000
_cell_volume 2248.556984
_symmetry_space_group_name_H-M "C 2/M"
_symmetry_group_IT_number 12
_symmetry_cell_setting 'monoclinic'
loop_
_space_group_symop_operation_xyz
x,y,z
-x,y,-z
-x,-y,-z
x,-y,z
1/2+x,1/2+y,z
1/2-x,1/2+y,-z
1/2-x,1/2-y,-z
1/2+x,1/2-y,z
loop_
_atom_site_type_symbol
_atom_site_label
_atom_site_fract_x
_atom_site_fract_y
_atom_site_fract_z
Si Si1 0.243455 0.165282 0.452666
Si Si2 0.675181 0.500000 0.494378
Si Si3 0.558134 0.587233 0.126803
Si Si4 0.871471 0.305138 0.289497
Si Si5 0.820498 0.354211 0.077924
Si Si6 0.226025 0.000000 0.809145
Si Si7 0.840023 0.167318 0.172038
Si Si8 0.934136 0.500000 0.799832
O O1 0.250000 0.250000 0.500000
O O2 0.441137 0.169822 0.550016
O O3 0.047701 0.169479 0.285415
O O4 0.234011 0.081372 0.491020
O O5 0.465066 0.500000 0.358504
O O6 0.760048 0.500000 0.632939
O O7 0.618428 0.500000 0.193220
O O8 0.715256 0.650613 0.229357
O O9 0.500000 0.581539 0.000000
O O10 0.376270 0.610453 0.045361
O O11 0.871432 0.326844 0.197792
O O12 0.835923 0.212247 0.251288
O O13 0.957592 0.422915 0.151128
O O14 0.799069 0.303437 0.984858
O O15 0.220521 0.921537 0.854642
O O16 0.380372 0.000000 0.851167
#
# Coordination Sequence:
#
# PCOD9189855 Si02
#       8
#     8   4   8   8   8   4   8   4
#     4   9  19  36  62  89 118 160 204 247 299 364
#     4  10  19  38  65  87 119 158 206 255 302 359
#     4   9  19  34  57  85 118 147 192 246 288 343
#     4  10  20  38  62  89 115 157 206 245 293 359
#     4  11  21  37  61  88 119 157 196 246 298 364
#     4  10  24  42  59  86 121 160 195 258 303 357
#     4  10  22  41  58  85 125 157 193 249 312 349
#     4  12  22  38  65  92 117 156 215 242 297 371
#
# _framework density 23.125941999999998
#
# number of rings (size 3 to 8) (size 9 to 14) (size 15 to 20)
#    0.000    2.000    2.308    1.154    2.154    1.231 
#   11.077    0.769    0.000    0.923    0.000    0.000 
#    0.000    0.000    0.000    0.000    0.000    0.000 
#
# Total GULP energy -144894.436055 kJ/mol
# GULP energy per Si atom -5572.862925 kJ/mol
# Density = 2.307331 g / cm^3
# Si number density = 23.125942 Si / 1000 Ang^3
#
#
#
# Elastic Constant Matrix: (Units=GPa)
#
#
# Indices 1 2 3 4 5 6 
#
# 1 66.4294 15.9119 8.8221 -0.0002 14.7826 -0.0003
# 2 15.9119 101.5359 10.4017 -0.0007 6.7984 -0.0009
# 3 8.8221 10.4017 61.0027 -0.0018 -7.9890 -0.0012
# 4 -0.0002 -0.0007 -0.0018 30.9163 -0.0003 5.4962
# 5 14.7826 6.7984 -7.9890 -0.0003 38.2931 -0.0002
# 6 -0.0003 -0.0009 -0.0012 5.4962 -0.0002 4.4832
#
#
#
# Elastic Compliance Matrix: (Units=1/GPa)
#
#
# Indices 1 2 3 4 5 6 
#
# 1 0.017508 -0.001951 -0.003124 0.000000 -0.007064 0.000000
# 2 -0.001951 0.010424 -0.001685 0.000000 -0.001449 0.000002
# 3 -0.003124 -0.001685 0.017816 0.000000 0.005222 0.000004
# 4 0.000000 0.000000 0.000000 0.041360 0.000000 -0.050705
# 5 -0.007064 -0.001449 0.005222 0.000000 0.030188 0.000002
# 6 0.000000 0.000002 0.000004 -0.050705 0.000002 0.285215
#
#
# Mechanical properties :
#
#
# Convention : Reuss Voigt Hill
#
# Bulk Modulus (GPa) = 31.02967 33.24883 32.13925
# Shear Modulus (GPa) = 11.71583 27.66069 19.68826
#
# Velocity S-wave (km/s) = 2.25324 3.46220 2.92095
# Velocity P-wave (km/s) = 4.49625 5.51280 5.03027
#
# Compressibility (1/GPa) = 0.03222722
#
# Stress axis : x y z
#
# Youngs Moduli (GPa) = 57.11760 95.93171 56.12995
#
# Poissons Ratio (x) = 0.18713 0.17538
# Poissons Ratio (y) = 0.11141 0.09459
# Poissons Ratio (z) = 0.17846 0.16166
#
# Static dielectric constant tensor:
#      x y z
#    x 1.899330 0.000000 -0.055010 
#    y 0.000000 2.394180 0.000000 
#    z -0.055010 0.000000 1.886760 
# 
# From -- ./inp_files/311542.got.cif
#   From: 2010.05.17/outbox.cif.g08.bks.cpg/sg12_156_cif.got.tgz:311542.got - 2010.06.03 13:09:07.
