data_PCOD9189262
_publ_section_title
;
Structure prediction by ZEFSAII (Michael W. Deem and Ramdas Pophale) SiO2 
 PCOD9189262
Probable space group: C 2/M
;
_chemical_formula_sum "Si O2"
_cell_formula_units_Z 40
_cell_length_a 13.631057
_cell_length_b 22.178159
_cell_length_c 11.664699
_cell_angle_alpha 90.000000
_cell_angle_beta 146.408687
_cell_angle_gamma 90.000000
_cell_volume 1951.021085
_symmetry_space_group_name_H-M "C 2/M"
_symmetry_group_IT_number 12
_symmetry_cell_setting 'monoclinic'
loop_
_space_group_symop_operation_xyz
x,y,z
-x,y,-z
-x,-y,-z
x,-y,z
1/2+x,1/2+y,z
1/2-x,1/2+y,-z
1/2-x,1/2-y,-z
1/2+x,1/2-y,z
loop_
_atom_site_type_symbol
_atom_site_label
_atom_site_fract_x
_atom_site_fract_y
_atom_site_fract_z
Si Si1 0.398631 0.649222 0.796388
Si Si2 0.935316 0.428029 0.567785
Si Si3 0.640203 0.303084 0.832246
Si Si4 0.230779 0.771243 0.611981
Si Si5 0.026069 0.623308 0.903234
O O1 0.251593 0.605211 0.605757
O O2 0.540791 0.662765 0.837365
O O3 0.306286 0.712089 0.750265
O O4 0.500000 0.620007 0.000000
O O5 0.926136 0.500000 0.559563
O O6 0.000000 0.410683 0.500000
O O7 0.026502 0.407864 0.777425
O O8 0.479729 0.283151 0.593559
O O9 0.750000 0.250000 0.000000
O O10 0.785242 0.342813 0.909548
O O11 0.250000 0.750000 0.500000
O O12 0.366919 0.826990 0.752017
O O13 0.000000 0.588711 0.000000
#
# Coordination Sequence:
#
# PCOD9189262 Si02
#       5
#     8   8   8   8   8
#     4  11  21  39  63  98 134 175 226 277 337 400
#     4  11  25  48  72  95 130 182 241 293 337 397
#     4  11  20  36  61  94 138 180 212 260 334 413
#     4  10  19  37  60  98 139 175 213 264 336 421
#     4  12  24  43  66 102 139 173 224 278 349 409
#
# _framework density 20.502085000000001
#
# number of rings (size 3 to 8) (size 9 to 14) (size 15 to 20)
#    0.000    1.000    8.000    1.800    0.000    1.600 
#    0.000    1.000    0.000    1.200    0.000    0.000 
#    0.000    0.000    0.000    0.000    0.000    0.000 
#
# Total GULP energy -111423.603345 kJ/mol
# GULP energy per Si atom -5571.180167 kJ/mol
# Density = 2.045542 g / cm^3
# Si number density = 20.502085 Si / 1000 Ang^3
#
#
#
# Elastic Constant Matrix: (Units=GPa)
#
#
# Indices 1 2 3 4 5 6 
#
# 1 167.8462 34.7397 66.6926 0.0000 -14.8689 0.0000
# 2 34.7397 44.4227 16.1280 0.0000 11.2800 0.0000
# 3 66.6926 16.1280 102.7080 0.0000 20.2662 0.0000
# 4 0.0000 0.0000 0.0000 -48.6858 0.0000 0.6861
# 5 -14.8689 11.2800 20.2662 0.0000 44.1390 0.0000
# 6 0.0000 0.0000 0.0000 0.6861 0.0000 21.0621
#
#
#
# Elastic Compliance Matrix: (Units=1/GPa)
#
#
# Indices 1 2 3 4 5 6 
#
# 1 0.012088 -0.008984 -0.008461 0.000000 0.010253 0.000000
# 2 -0.008984 0.031518 0.003377 0.000000 -0.012632 0.000000
# 3 -0.008461 0.003377 0.016971 0.000000 -0.011505 0.000000
# 4 0.000000 0.000000 0.000000 -0.020530 0.000000 0.000669
# 5 0.010253 -0.012632 -0.011505 0.000000 0.034620 0.000000
# 6 0.000000 0.000000 0.000000 0.000669 0.000000 0.047457
#
#
# Mechanical properties :
#
#
# Convention : Reuss Voigt Hill
#
# Bulk Modulus (GPa) = 30.82652 61.12197 45.97425
# Shear Modulus (GPa) = 31.04162 16.46414 23.75288
#
# Velocity S-wave (km/s) = 3.89533 2.83688 3.40745
# Velocity P-wave (km/s) = 5.94137 6.37243 6.16067
#
# Compressibility (1/GPa) = 0.03243960
#
# Stress axis : x y z
#
# Youngs Moduli (GPa) = 82.72859 31.72741 58.92553
#
# Poissons Ratio (x) = 0.28505 0.49859
# Poissons Ratio (y) = 0.74327 -0.19900
# Poissons Ratio (z) = 0.70000 -0.10715
#
# Static dielectric constant tensor:
#      x y z
#    x 1.704620 0.000000 -0.039310 
#    y 0.000000 1.757410 0.000000 
#    z -0.039310 0.000000 1.680790 
# 
# From -- ./inp_files/148982.got.cif
#   From: 2010.05.17/outbox.cif.g08.bks.cpg/sg12_75_cif.got.tgz:148982.got - 2010.06.03 13:09:07.
