data_PCOD9189701
_publ_section_title
;
Structure prediction by ZEFSAII (Michael W. Deem and Ramdas Pophale) SiO2 
 PCOD9189701
Probable space group: C 2/M
;
_chemical_formula_sum "Si O2"
_cell_formula_units_Z 48
_cell_length_a 15.664105
_cell_length_b 18.939946
_cell_length_c 12.664032
_cell_angle_alpha 90.000000
_cell_angle_beta 34.359685
_cell_angle_gamma 90.000000
_cell_volume 2120.473143
_symmetry_space_group_name_H-M "C 2/M"
_symmetry_group_IT_number 12
_symmetry_cell_setting 'monoclinic'
loop_
_space_group_symop_operation_xyz
x,y,z
-x,y,-z
-x,-y,-z
x,-y,z
1/2+x,1/2+y,z
1/2-x,1/2+y,-z
1/2-x,1/2-y,-z
1/2+x,1/2-y,z
loop_
_atom_site_type_symbol
_atom_site_label
_atom_site_fract_x
_atom_site_fract_y
_atom_site_fract_z
Si Si1 0.341219 0.154343 0.371959
Si Si2 0.629700 0.080448 0.012031
Si Si3 0.171815 0.650651 0.364723
Si Si4 0.336730 0.301466 0.712461
Si Si5 0.832853 0.920377 0.015750
Si Si6 0.978713 0.801614 0.276566
O O1 0.453565 0.099725 0.203318
O O2 0.327790 0.139152 0.511104
O O3 0.168031 0.164610 0.515248
O O4 0.421419 0.230624 0.280947
O O5 0.706719 0.086359 0.050813
O O6 0.650823 0.000000 0.955238
O O7 0.716902 0.136434 0.849581
O O8 0.220700 0.730859 0.285928
O O9 0.264177 0.596251 0.199806
O O10 0.000000 0.647022 0.500000
O O11 0.500000 0.324211 0.500000
O O12 0.390118 0.279726 0.776298
O O13 0.892245 0.000000 0.949148
O O14 0.956177 0.861129 0.865418
#
# Coordination Sequence:
#
# PCOD9189701 Si02
#       6
#     8   8   8   8   8   8
#     4  11  21  36  58  86 112 142 181 230 281 319
#     4  10  21  36  57  83 112 148 184 222 274 331
#     4  11  19  34  59  85 110 140 186 231 266 319
#     4  10  19  38  61  83 106 142 192 230 267 319
#     4  10  21  36  56  82 113 151 184 218 269 333
#     4  10  21  37  57  83 112 145 182 228 277 324
#
# _framework density 22.636457
#
# number of rings (size 3 to 8) (size 9 to 14) (size 15 to 20)
#    0.000    1.667    5.000    1.000    0.000    5.333 
#    0.000    1.667    0.000    1.000    0.000    0.000 
#    0.000    0.000    0.000    0.000    0.000    0.000 
#
# Total GULP energy -134219.051500 kJ/mol
# GULP energy per Si atom -5592.460479 kJ/mol
# Density = 2.258494 g / cm^3
# Si number density = 22.636457 Si / 1000 Ang^3
#
#
#
# Elastic Constant Matrix: (Units=GPa)
#
#
# Indices 1 2 3 4 5 6 
#
# 1 63.4915 -14.8662 -10.6127 0.0002 1.7491 -0.0011
# 2 -14.8662 32.3887 26.5426 0.0007 8.3241 -0.0006
# 3 -10.6127 26.5426 59.5116 -0.0026 10.3840 0.0001
# 4 0.0002 0.0007 -0.0026 20.4398 0.0020 2.0185
# 5 1.7491 8.3241 10.3840 0.0020 21.8388 0.0004
# 6 -0.0011 -0.0006 0.0001 2.0185 0.0004 11.9080
#
#
#
# Elastic Compliance Matrix: (Units=1/GPa)
#
#
# Indices 1 2 3 4 5 6 
#
# 1 0.018154 0.009865 -0.000275 0.000000 -0.005083 0.000002
# 2 0.009865 0.055689 -0.020977 -0.000004 -0.012042 0.000005
# 3 -0.000275 -0.020977 0.026947 0.000005 -0.004795 -0.000002
# 4 0.000000 -0.000004 0.000005 0.049757 -0.000005 -0.008434
# 5 -0.005083 -0.012042 -0.004795 -0.000005 0.053067 -0.000002
# 6 0.000002 0.000005 -0.000002 -0.008434 -0.000002 0.085407
#
#
# Mechanical properties :
#
#
# Convention : Reuss Voigt Hill
#
# Bulk Modulus (GPa) = 12.81830 17.50213 15.16022
# Shear Modulus (GPa) = 14.80160 21.12585 17.96373
#
# Velocity S-wave (km/s) = 2.55989 3.05826 2.82010
# Velocity P-wave (km/s) = 3.79636 4.49658 4.16122
#
# Compressibility (1/GPa) = 0.07801348
#
# Stress axis : x y z
#
# Youngs Moduli (GPa) = 55.08463 17.95701 37.10985
#
# Poissons Ratio (x) = -0.17714 0.01022
# Poissons Ratio (y) = -0.54339 0.77846
# Poissons Ratio (z) = 0.01517 0.37669
#
# Static dielectric constant tensor:
#      x y z
#    x 1.923370 0.000000 0.023200 
#    y 0.000000 1.785220 0.000000 
#    z 0.023200 0.000000 1.845710 
# 
# From -- ./inp_files/63369.got.cif
#   From: 2010.05.17/outbox.cif.g08.bks.cpg/sg12_32_cif.got.tgz:63369.got - 2010.06.03 13:09:07.
