data_PCOD9189120
_publ_section_title
;
Structure prediction by ZEFSAII (Michael W. Deem and Ramdas Pophale) SiO2 
 PCOD9189120
Probable space group: C 2/M
;
_chemical_formula_sum "Si O2"
_cell_formula_units_Z 40
_cell_length_a 25.394287
_cell_length_b 15.395700
_cell_length_c 9.704506
_cell_angle_alpha 90.000000
_cell_angle_beta 29.064303
_cell_angle_gamma 90.000000
_cell_volume 1843.139774
_symmetry_space_group_name_H-M "C 2/M"
_symmetry_group_IT_number 12
_symmetry_cell_setting 'monoclinic'
loop_
_space_group_symop_operation_xyz
x,y,z
-x,y,-z
-x,-y,-z
x,-y,z
1/2+x,1/2+y,z
1/2-x,1/2+y,-z
1/2-x,1/2-y,-z
1/2+x,1/2-y,z
loop_
_atom_site_type_symbol
_atom_site_label
_atom_site_fract_x
_atom_site_fract_y
_atom_site_fract_z
Si Si1 0.569982 0.807020 0.108615
Si Si2 0.253081 0.400325 0.859659
Si Si3 0.965451 0.845700 0.223887
Si Si4 0.164014 0.689678 0.618938
Si Si5 0.845656 0.601125 0.633291
O O1 0.555901 0.703271 0.110196
O O2 0.455069 0.845420 0.420117
O O3 0.669925 0.834519 0.975553
O O4 0.597541 0.851161 0.897053
O O5 0.216245 0.500000 0.919482
O O6 0.374151 0.392191 0.522577
O O7 0.242696 0.382573 0.045976
O O8 0.905737 0.760986 0.300708
O O9 0.000000 0.891343 0.000000
O O10 0.250000 0.750000 0.500000
O O11 0.195334 0.625339 0.425743
O O12 0.874018 0.500000 0.571393
#
# Coordination Sequence:
#
# PCOD9189120 Si02
#       5
#     8   8   8   8   8
#     4  10  20  36  62  89 117 158 206 252 299 367
#     4  11  22  38  60  92 127 161 201 253 313 364
#     4   9  20  37  61  87 122 158 207 257 301 360
#     4  10  19  37  57  84 120 156 206 246 296 359
#     4  10  22  37  56  88 130 157 190 253 316 364
#
# _framework density 21.702097999999999
#
# number of rings (size 3 to 8) (size 9 to 14) (size 15 to 20)
#    0.000    2.000    2.000    3.000    0.000    7.600 
#    3.600    0.000    0.000    0.000    0.000   11.200 
#    0.000    0.000    0.000    0.000    0.000    0.000 
#
# Total GULP energy -111400.861095 kJ/mol
# GULP energy per Si atom -5570.043055 kJ/mol
# Density = 2.165270 g / cm^3
# Si number density = 21.702098 Si / 1000 Ang^3
#
#
#
# Elastic Constant Matrix: (Units=GPa)
#
#
# Indices 1 2 3 4 5 6 
#
# 1 58.4032 15.9017 26.4454 0.0000 5.5950 0.0000
# 2 15.9017 43.8941 26.4206 0.0000 1.5523 0.0000
# 3 26.4454 26.4206 170.5164 0.0000 26.3423 0.0000
# 4 0.0000 0.0000 0.0000 5.0056 0.0000 30.1912
# 5 5.5950 1.5523 26.3423 0.0000 39.2823 0.0000
# 6 0.0000 0.0000 0.0000 30.1912 0.0000 -11.8211
#
#
#
# Elastic Compliance Matrix: (Units=1/GPa)
#
#
# Indices 1 2 3 4 5 6 
#
# 1 0.019741 -0.005936 -0.001945 0.000000 -0.001273 0.000000
# 2 -0.005936 0.027025 -0.003606 0.000000 0.002196 0.000000
# 3 -0.001945 -0.003606 0.007430 0.000000 -0.004563 0.000000
# 4 0.000000 0.000000 0.000000 0.012178 0.000000 0.031103
# 5 -0.001273 0.002196 -0.004563 0.000000 0.028611 0.000000
# 6 0.000000 0.000000 0.000000 0.031103 0.000000 -0.005157
#
#
# Mechanical properties :
#
#
# Convention : Reuss Voigt Hill
#
# Bulk Modulus (GPa) = 32.02858 45.59435 38.81146
# Shear Modulus (GPa) = 40.58082 20.09642 30.33862
#
# Velocity S-wave (km/s) = 4.32893 3.04635 3.74298
# Velocity P-wave (km/s) = 6.30686 5.78173 6.05000
#
# Compressibility (1/GPa) = 0.03122212
#
# Stress axis : x y z
#
# Youngs Moduli (GPa) = 50.65513 37.00220 134.59190
#
# Poissons Ratio (x) = 0.21964 0.26183
# Poissons Ratio (y) = 0.30068 0.48535
# Poissons Ratio (z) = 0.09854 0.13343
#
# Static dielectric constant tensor:
#      x y z
#    x 1.893490 0.000000 0.000190 
#    y 0.000000 1.800770 0.000000 
#    z 0.000190 0.000000 1.924250 
# 
# From -- ./inp_files/105697.got.cif
#   From: 2010.05.17/outbox.cif.g08.bks.cpg/sg12_53_cif.got.tgz:105697.got - 2010.06.03 13:09:07.
