data_PCOD9189306
_publ_section_title
;
Structure prediction by ZEFSAII (Michael W. Deem and Ramdas Pophale) SiO2 
 PCOD9189306
Probable space group: C 2/M
;
_chemical_formula_sum "Si O2"
_cell_formula_units_Z 52
_cell_length_a 17.302525
_cell_length_b 26.522170
_cell_length_c 5.388481
_cell_angle_alpha 90.000000
_cell_angle_beta 113.033094
_cell_angle_gamma 90.000000
_cell_volume 2275.644481
_symmetry_space_group_name_H-M "C 2/M"
_symmetry_group_IT_number 12
_symmetry_cell_setting 'monoclinic'
loop_
_space_group_symop_operation_xyz
x,y,z
-x,y,-z
-x,-y,-z
x,-y,z
1/2+x,1/2+y,z
1/2-x,1/2+y,-z
1/2-x,1/2-y,-z
1/2+x,1/2-y,z
loop_
_atom_site_type_symbol
_atom_site_label
_atom_site_fract_x
_atom_site_fract_y
_atom_site_fract_z
Si Si1 0.852017 0.194330 0.745406
Si Si2 0.093417 0.307088 0.231382
Si Si3 0.885497 0.442017 0.205169
Si Si4 0.205359 0.943441 0.728525
Si Si5 0.500000 0.863354 0.500000
Si Si6 0.908187 0.143943 0.298505
Si Si7 0.213460 0.379300 0.521815
O O1 0.861265 0.254259 0.747642
O O2 0.873843 0.175746 0.492802
O O3 0.762202 0.168732 0.699671
O O4 0.910032 0.175293 0.045883
O O5 0.158660 0.351057 0.239705
O O6 0.070651 0.325870 0.481911
O O7 0.000000 0.304989 0.000000
O O8 0.913665 0.500000 0.267980
O O9 0.961380 0.402964 0.251553
O O10 0.846904 0.416389 0.403616
O O11 0.802915 0.444433 0.931493
O O12 0.150440 0.904694 0.815622
O O13 0.212318 0.916283 0.473001
O O14 0.173170 0.000000 0.686908
O O15 0.000000 0.127462 0.500000
#
# Coordination Sequence:
#
# PCOD9189306 Si02
#       7
#     8   8   8   8   4   8   8
#     4  11  24  42  66  92 128 172 212 259 321 378
#     4  11  23  38  60  87 127 166 212 264 320 374
#     4  10  19  37  61  86 123 163 208 262 322 376
#     4  10  21  38  62  87 121 163 206 262 324 380
#     4  10  23  36  56  92 122 162 213 262 312 384
#     4  11  23  42  64  95 129 164 214 263 315 387
#     4  10  21  40  59  91 121 164 214 266 311 389
#
# _framework density 22.850670000000001
#
# number of rings (size 3 to 8) (size 9 to 14) (size 15 to 20)
#    0.000    1.538    1.538    3.462    3.231    0.308 
#    0.000    2.308    0.000   10.154    0.000    0.000 
#    0.000    0.000    0.000    0.000    0.000    0.000 
#
# Total GULP energy -144805.716231 kJ/mol
# GULP energy per Si atom -5569.450624 kJ/mol
# Density = 2.279866 g / cm^3
# Si number density = 22.850670 Si / 1000 Ang^3
#
#
#
# Elastic Constant Matrix: (Units=GPa)
#
#
# Indices 1 2 3 4 5 6 
#
# 1 56.6431 32.6434 6.9428 0.0000 4.2658 0.0000
# 2 32.6434 184.3356 38.5999 0.0000 -10.3269 0.0000
# 3 6.9428 38.5999 81.3509 0.0000 10.2822 0.0000
# 4 0.0000 0.0000 0.0000 18.8775 0.0000 8.2817
# 5 4.2658 -10.3269 10.2822 0.0000 34.1981 0.0000
# 6 0.0000 0.0000 0.0000 8.2817 0.0000 25.5344
#
#
#
# Elastic Compliance Matrix: (Units=1/GPa)
#
#
# Indices 1 2 3 4 5 6 
#
# 1 0.020125 -0.003913 0.000630 0.000000 -0.003881 0.000000
# 2 -0.003913 0.007050 -0.003474 0.000000 0.003662 0.000000
# 3 0.000630 -0.003474 0.014584 0.000000 -0.005513 0.000000
# 4 0.000000 0.000000 0.000000 0.061761 0.000000 -0.020031
# 5 -0.003881 0.003662 -0.005513 0.000000 0.032489 0.000000
# 6 0.000000 0.000000 0.000000 -0.020031 0.000000 0.045660
#
#
# Mechanical properties :
#
#
# Convention : Reuss Voigt Hill
#
# Bulk Modulus (GPa) = 35.40589 53.18910 44.29749
# Shear Modulus (GPa) = 24.43813 31.99824 28.21818
#
# Velocity S-wave (km/s) = 3.27382 3.74614 3.51792
# Velocity P-wave (km/s) = 5.46065 6.48373 5.99406
#
# Compressibility (1/GPa) = 0.02824389
#
# Stress axis : x y z
#
# Youngs Moduli (GPa) = 49.69034 141.83398 68.56875
#
# Poissons Ratio (x) = 0.55501 -0.04318
# Poissons Ratio (y) = 0.19444 0.23822
# Poissons Ratio (z) = -0.03129 0.49276
#
# Static dielectric constant tensor:
#      x y z
#    x 1.971860 0.000000 0.033400 
#    y 0.000000 1.798710 0.000000 
#    z 0.033400 0.000000 1.975460 
# 
# From -- ./inp_files/21594.got.cif
#   From: 2010.05.17/outbox.cif.g08.bks.cpg/sg12_11_cif.got.tgz:21594.got - 2010.06.03 13:09:07.
