data_PCOD9189578
_publ_section_title
;
Structure prediction by ZEFSAII (Michael W. Deem and Ramdas Pophale) SiO2 
 PCOD9189578
Probable space group: C 2/M
;
_chemical_formula_sum "Si O2"
_cell_formula_units_Z 32
_cell_length_a 8.326945
_cell_length_b 23.694376
_cell_length_c 12.743803
_cell_angle_alpha 90.000000
_cell_angle_beta 32.943201
_cell_angle_gamma 90.000000
_cell_volume 1367.335562
_symmetry_space_group_name_H-M "C 2/M"
_symmetry_group_IT_number 12
_symmetry_cell_setting 'monoclinic'
loop_
_space_group_symop_operation_xyz
x,y,z
-x,y,-z
-x,-y,-z
x,-y,z
1/2+x,1/2+y,z
1/2-x,1/2+y,-z
1/2-x,1/2-y,-z
1/2+x,1/2-y,z
loop_
_atom_site_type_symbol
_atom_site_label
_atom_site_fract_x
_atom_site_fract_y
_atom_site_fract_z
Si Si1 0.310750 0.132749 0.381821
Si Si2 0.905105 0.266322 0.714233
Si Si3 0.771656 0.936922 0.028139
Si Si4 0.531466 0.662666 0.748796
O O1 0.547578 0.182570 0.230806
O O2 0.000000 0.145896 0.500000
O O3 0.246561 0.134854 0.541817
O O4 0.455450 0.078057 0.252386
O O5 0.250000 0.250000 0.500000
O O6 0.711052 0.295929 0.730770
O O7 0.812825 0.206614 0.810877
O O8 0.873013 0.889089 0.891823
O O9 0.774395 0.000000 0.981644
O O10 0.000000 0.934895 0.000000
#
# Coordination Sequence:
#
# PCOD9189578 Si02
#       4
#     8   8   8   8
#     4  11  23  43  70 103 143 182 225 285 353 412
#     4  10  19  37  68 100 139 180 220 273 350 419
#     4  11  26  47  71 102 137 185 245 283 332 419
#     4  11  23  44  70 105 144 183 224 289 350 412
#
# _framework density 23.403182000000001
#
# number of rings (size 3 to 8) (size 9 to 14) (size 15 to 20)
#    0.000    1.250    2.500    6.000    0.000    3.500 
#    0.000    3.750    0.000    0.000    0.000    0.000 
#    0.000    0.000    0.000    0.000    0.000    0.000 
#
# Total GULP energy -89287.382393 kJ/mol
# GULP energy per Si atom -5580.461400 kJ/mol
# Density = 2.334991 g / cm^3
# Si number density = 23.403182 Si / 1000 Ang^3
#
#
#
# Elastic Constant Matrix: (Units=GPa)
#
#
# Indices 1 2 3 4 5 6 
#
# 1 107.9407 61.1671 45.3417 0.0000 6.8398 0.0000
# 2 61.1671 191.2552 75.7448 0.0000 36.8039 0.0000
# 3 45.3417 75.7448 113.1656 0.0000 13.4307 0.0000
# 4 0.0000 0.0000 0.0000 34.8429 0.0000 12.7964
# 5 6.8398 36.8039 13.4307 0.0000 18.2886 0.0000
# 6 0.0000 0.0000 0.0000 12.7964 0.0000 17.9643
#
#
#
# Elastic Compliance Matrix: (Units=1/GPa)
#
#
# Indices 1 2 3 4 5 6 
#
# 1 0.012332 -0.003716 -0.003061 0.000000 0.005113 0.000000
# 2 -0.003716 0.011733 -0.004083 0.000000 -0.019224 0.000000
# 3 -0.003061 -0.004083 0.012801 0.000000 -0.000039 0.000000
# 4 0.000000 0.000000 0.000000 0.038868 0.000000 -0.027687
# 5 0.005113 -0.019224 -0.000039 0.000000 0.091482 0.000000
# 6 0.000000 0.000000 0.000000 -0.027687 0.000000 0.075388
#
#
# Mechanical properties :
#
#
# Convention : Reuss Voigt Hill
#
# Bulk Modulus (GPa) = 66.02234 86.31876 76.17055
# Shear Modulus (GPa) = 18.56173 29.55968 24.06071
#
# Velocity S-wave (km/s) = 2.81931 3.55781 3.20987
# Velocity P-wave (km/s) = 6.23459 7.33763 6.80848
#
# Compressibility (1/GPa) = 0.01514639
#
# Stress axis : x y z
#
# Youngs Moduli (GPa) = 81.09245 85.22644 78.12176
#
# Poissons Ratio (x) = 0.31667 0.23911
# Poissons Ratio (y) = 0.30131 0.31899
# Poissons Ratio (z) = 0.24820 0.34800
#
# Static dielectric constant tensor:
#      x y z
#    x 1.948050 0.000000 0.055660 
#    y 0.000000 1.944050 0.000000 
#    z 0.055660 0.000000 2.009190 
# 
# From -- ./inp_files/198739.got.cif
#   From: 2010.05.17/outbox.cif.g08.bks.cpg/sg12_100_cif.got.tgz:198739.got - 2010.06.03 13:09:07.
