data_PCOD9189082
_publ_section_title
;
Structure prediction by ZEFSAII (Michael W. Deem and Ramdas Pophale) SiO2 
 PCOD9189082
Probable space group: C 2/M
;
_chemical_formula_sum "Si O2"
_cell_formula_units_Z 52
_cell_length_a 20.274744
_cell_length_b 21.049583
_cell_length_c 16.242245
_cell_angle_alpha 90.000000
_cell_angle_beta 24.952578
_cell_angle_gamma 90.000000
_cell_volume 2924.297212
_symmetry_space_group_name_H-M "C 2/M"
_symmetry_group_IT_number 12
_symmetry_cell_setting 'monoclinic'
loop_
_space_group_symop_operation_xyz
x,y,z
-x,y,-z
-x,-y,-z
x,-y,z
1/2+x,1/2+y,z
1/2-x,1/2+y,-z
1/2-x,1/2-y,-z
1/2+x,1/2-y,z
loop_
_atom_site_type_symbol
_atom_site_label
_atom_site_fract_x
_atom_site_fract_y
_atom_site_fract_z
Si Si1 0.773014 0.325200 0.460677
Si Si2 0.777108 0.732355 0.833891
Si Si3 0.711244 0.929462 0.976776
Si Si4 0.562286 0.680215 0.220540
Si Si5 0.427491 0.845433 0.993406
Si Si6 0.600420 0.073069 0.558569
Si Si7 0.500000 0.868522 0.500000
O O1 0.750000 0.250000 0.500000
O O2 0.614161 0.341605 0.592534
O O3 0.929113 0.331690 0.230531
O O4 0.796748 0.371947 0.512587
O O5 0.907383 0.764331 0.746585
O O6 0.860471 0.677216 0.689100
O O7 0.641016 0.705638 0.047348
O O8 0.696254 0.787574 0.871830
O O9 0.654176 0.907486 0.951632
O O10 0.562748 0.926537 0.206136
O O11 0.774698 0.000000 0.905085
O O12 0.834080 0.878233 0.867567
O O13 0.500000 0.853423 0.000000
O O14 0.561173 0.091376 0.508900
O O15 0.661808 0.000000 0.494470
#
# Coordination Sequence:
#
# PCOD9189082 Si02
#       7
#     8   8   8   8   8   8   4
#     4  11  21  36  61  83 114 152 190 237 287 336
#     4  10  21  33  55  84 115 144 188 235 280 332
#     4   9  19  39  60  78 110 156 193 228 279 345
#     4  10  19  37  55  82 111 146 191 232 279 336
#     4  10  22  36  55  87 117 142 186 240 290 336
#     4  10  22  38  57  84 117 154 194 230 282 345
#     4  12  21  34  62  84 113 154 190 236 279 332
#
# _framework density 17.782050000000002
#
# number of rings (size 3 to 8) (size 9 to 14) (size 15 to 20)
#    0.000    1.846    3.077    1.154    4.308    0.923 
#    0.000    0.000    0.000    1.846    0.000    0.000 
#    0.000    0.000    0.000    0.000    0.000    0.000 
#
# Total GULP energy -144985.047239 kJ/mol
# GULP energy per Si atom -5576.347971 kJ/mol
# Density = 1.774158 g / cm^3
# Si number density = 17.782050 Si / 1000 Ang^3
#
#
#
# Elastic Constant Matrix: (Units=GPa)
#
#
# Indices 1 2 3 4 5 6 
#
# 1 96.7094 38.3312 8.4557 -0.0009 5.1739 0.0026
# 2 38.3312 105.5629 9.8974 -0.0059 7.5455 0.0066
# 3 8.4557 9.8974 20.7746 0.0108 -9.2644 -0.0084
# 4 -0.0009 -0.0059 0.0108 19.4355 -0.0033 1.2531
# 5 5.1739 7.5455 -9.2644 -0.0033 26.2813 0.0022
# 6 0.0026 0.0066 -0.0084 1.2531 0.0022 15.6681
#
#
#
# Elastic Compliance Matrix: (Units=1/GPa)
#
#
# Indices 1 2 3 4 5 6 
#
# 1 0.012430 -0.003881 -0.004514 0.000002 -0.002924 -0.000003
# 2 -0.003881 0.011806 -0.006189 0.000007 -0.004807 -0.000008
# 3 -0.004514 -0.006189 0.064203 -0.000036 0.025298 0.000037
# 4 0.000002 0.000007 -0.000036 0.051719 -0.000008 -0.004136
# 5 -0.002924 -0.004807 0.025298 -0.000008 0.048923 0.000010
# 6 -0.000003 -0.000008 0.000037 -0.004136 0.000010 0.064155
#
#
# Mechanical properties :
#
#
# Convention : Reuss Voigt Hill
#
# Bulk Modulus (GPa) = 16.87162 37.37950 27.12556
# Shear Modulus (GPa) = 16.54747 23.36782 19.95764
#
# Velocity S-wave (km/s) = 3.05384 3.62902 3.35378
# Velocity P-wave (km/s) = 4.68435 6.21500 5.50315
#
# Compressibility (1/GPa) = 0.05927113
#
# Stress axis : x y z
#
# Youngs Moduli (GPa) = 80.45263 84.70159 15.57557
#
# Poissons Ratio (x) = 0.32874 0.07031
# Poissons Ratio (y) = 0.31225 0.09639
# Poissons Ratio (z) = 0.36317 0.52419
#
# Static dielectric constant tensor:
#      x y z
#    x -32.649370 -0.007880 25.327440 
#    y -0.007880 1.614710 0.005830 
#    z 25.327440 0.005830 -17.131560 
# 
# From -- ./inp_files/78076.got.cif
#   From: 2010.05.17/outbox.cif.g08.bks.cpg/sg12_40_cif.got.tgz:78076.got - 2010.06.03 13:09:07.
