data_PCOD9189056
_publ_section_title
;
Structure prediction by ZEFSAII (Michael W. Deem and Ramdas Pophale) SiO2 
 PCOD9189056
Probable space group: C 2/M
;
_chemical_formula_sum "Si O2"
_cell_formula_units_Z 40
_cell_length_a 7.740082
_cell_length_b 12.802555
_cell_length_c 15.414273
_cell_angle_alpha 90.000000
_cell_angle_beta 105.107192
_cell_angle_gamma 90.000000
_cell_volume 1474.655288
_symmetry_space_group_name_H-M "C 2/M"
_symmetry_group_IT_number 12
_symmetry_cell_setting 'monoclinic'
loop_
_space_group_symop_operation_xyz
x,y,z
-x,y,-z
-x,-y,-z
x,-y,z
1/2+x,1/2+y,z
1/2-x,1/2+y,-z
1/2-x,1/2-y,-z
1/2+x,1/2-y,z
loop_
_atom_site_type_symbol
_atom_site_label
_atom_site_fract_x
_atom_site_fract_y
_atom_site_fract_z
Si Si1 0.616471 0.874499 0.598108
Si Si2 0.159501 0.334851 0.085191
Si Si3 0.932857 0.879213 0.861928
Si Si4 0.491767 0.616601 0.395183
Si Si5 0.880667 0.303658 0.727114
O O1 0.500000 0.839635 0.500000
O O2 0.523965 0.846647 0.677174
O O3 0.816298 0.836887 0.603218
O O4 0.622474 0.000000 0.595524
O O5 0.168304 0.206254 0.090911
O O6 0.355435 0.377764 0.089832
O O7 0.112994 0.363434 0.178868
O O8 0.000000 0.363990 0.000000
O O9 0.920016 0.813825 0.770048
O O10 0.871693 0.000000 0.852435
O O11 0.500000 0.609615 0.500000
O O12 0.483235 0.500000 0.357771
O O13 0.312326 0.670029 0.338787
#
# Coordination Sequence:
#
# PCOD9189056 Si02
#       5
#     8   8   8   8   8
#     4  10  19  36  71 122 173 222 287 355 426 506
#     4  10  24  50  86 123 166 218 281 351 421 509
#     4  10  25  50  81 119 170 224 280 349 424 505
#     4  10  19  36  71 120 171 222 285 357 427 501
#     4  10  23  41  76 118 173 221 276 354 419 505
#
# _framework density 27.124981999999999
#
# number of rings (size 3 to 8) (size 9 to 14) (size 15 to 20)
#    1.200    0.800    2.000    1.200    0.000    4.000 
#    0.000    5.000    0.000    4.800    0.000    0.000 
#    0.000    0.000    0.000    0.000    0.000    0.000 
#
# Total GULP energy -111933.806918 kJ/mol
# GULP energy per Si atom -5596.690346 kJ/mol
# Density = 2.706324 g / cm^3
# Si number density = 27.124982 Si / 1000 Ang^3
#
#
#
# Elastic Constant Matrix: (Units=GPa)
#
#
# Indices 1 2 3 4 5 6 
#
# 1 149.6845 47.4197 53.0921 0.0000 23.0193 0.0000
# 2 47.4197 181.4685 4.4988 0.0000 16.2206 0.0000
# 3 53.0921 4.4988 197.8129 0.0000 16.6377 0.0000
# 4 0.0000 0.0000 0.0000 25.0643 0.0000 4.2711
# 5 23.0193 16.2206 16.6377 0.0000 56.9672 0.0000
# 6 0.0000 0.0000 0.0000 4.2711 0.0000 37.0769
#
#
#
# Elastic Compliance Matrix: (Units=1/GPa)
#
#
# Indices 1 2 3 4 5 6 
#
# 1 0.008349 -0.001932 -0.002009 0.000000 -0.002237 0.000000
# 2 -0.001932 0.006102 0.000472 0.000000 -0.001094 0.000000
# 3 -0.002009 0.000472 0.005666 0.000000 -0.000977 0.000000
# 4 0.000000 0.000000 0.000000 0.040696 0.000000 -0.004688
# 5 -0.002237 -0.001094 -0.000977 0.000000 0.019055 0.000000
# 6 0.000000 0.000000 0.000000 -0.004688 0.000000 0.027511
#
#
# Mechanical properties :
#
#
# Convention : Reuss Voigt Hill
#
# Bulk Modulus (GPa) = 75.87951 82.10968 78.99459
# Shear Modulus (GPa) = 42.11946 52.08537 47.10241
#
# Velocity S-wave (km/s) = 3.94482 4.38676 4.17165
# Velocity P-wave (km/s) = 6.98453 7.48297 7.23804
#
# Compressibility (1/GPa) = 0.01317879
#
# Stress axis : x y z
#
# Youngs Moduli (GPa) = 119.77036 163.89180 176.49389
#
# Poissons Ratio (x) = 0.31664 0.35455
# Poissons Ratio (y) = 0.23140 -0.08328
# Poissons Ratio (z) = 0.24060 -0.07733
#
# Static dielectric constant tensor:
#      x y z
#    x 2.178240 0.000000 -0.143940 
#    y 0.000000 2.230420 0.000000 
#    z -0.143940 0.000000 2.399780 
# 
# From -- ./inp_files/299609.got.cif
#   From: 2010.05.17/outbox.cif.g08.bks.cpg/sg12_150_cif.got.tgz:299609.got - 2010.06.03 13:09:07.
