data_PCOD9189115
_publ_section_title
;
Structure prediction by ZEFSAII (Michael W. Deem and Ramdas Pophale) SiO2 
 PCOD9189115
Probable space group: C 2/M
;
_chemical_formula_sum "Si O2"
_cell_formula_units_Z 52
_cell_length_a 7.796438
_cell_length_b 22.104699
_cell_length_c 26.765462
_cell_angle_alpha 90.000000
_cell_angle_beta 144.844424
_cell_angle_gamma 90.000000
_cell_volume 2655.988339
_symmetry_space_group_name_H-M "C 2/M"
_symmetry_group_IT_number 12
_symmetry_cell_setting 'monoclinic'
loop_
_space_group_symop_operation_xyz
x,y,z
-x,y,-z
-x,-y,-z
x,-y,z
1/2+x,1/2+y,z
1/2-x,1/2+y,-z
1/2-x,1/2-y,-z
1/2+x,1/2-y,z
loop_
_atom_site_type_symbol
_atom_site_label
_atom_site_fract_x
_atom_site_fract_y
_atom_site_fract_z
Si Si1 0.650844 0.177769 0.089283
Si Si2 0.977954 0.070892 0.798076
Si Si3 0.500000 0.892822 0.500000
Si Si4 0.026602 0.377413 0.256268
Si Si5 0.286262 0.253900 0.810833
Si Si6 0.049489 0.067474 0.569903
Si Si7 0.539408 0.362176 0.307720
O O1 0.513660 0.216065 0.101688
O O2 0.720200 0.108609 0.119360
O O3 0.974100 0.210367 0.165291
O O4 0.500000 0.181929 0.000000
O O5 0.756105 0.083972 0.792064
O O6 0.864794 0.100782 0.718879
O O7 0.018484 0.000000 0.801609
O O8 0.262352 0.930313 0.475392
O O9 0.701252 0.858469 0.589164
O O10 0.242020 0.382301 0.355652
O O11 0.250323 0.394961 0.264561
O O12 0.908371 0.310541 0.216471
O O13 0.076749 0.204198 0.735215
O O14 0.000000 0.077350 0.500000
O O15 0.184076 0.000000 0.608817
#
# Coordination Sequence:
#
# PCOD9189115 Si02
#       7
#     8   8   4   8   8   8   8
#     4  10  20  35  61  86 110 146 184 235 288 341
#     4  10  22  37  58  85 116 152 191 233 283 341
#     4  10  21  34  52  80 106 150 197 232 278 326
#     4  10  20  36  57  80 112 153 192 231 284 336
#     4  10  19  37  57  83 116 143 191 232 283 348
#     4  10  20  34  51  75 109 146 194 242 276 321
#     4  10  21  38  56  83 117 154 192 236 285 331
#
# _framework density 19.578399000000001
#
# number of rings (size 3 to 8) (size 9 to 14) (size 15 to 20)
#    0.000    2.000    1.538    2.077    0.000    5.231 
#    1.385    1.538    0.000    0.000    0.000    4.308 
#    0.000    0.000    0.000    0.000    0.000    0.000 
#
# Total GULP energy -144734.503888 kJ/mol
# GULP energy per Si atom -5566.711688 kJ/mol
# Density = 1.953384 g / cm^3
# Si number density = 19.578399 Si / 1000 Ang^3
#
#
#
# Elastic Constant Matrix: (Units=GPa)
#
#
# Indices 1 2 3 4 5 6 
#
# 1 65.5376 11.3993 2.3457 0.0028 -3.4904 0.0033
# 2 11.3993 102.5427 35.3611 0.0002 -8.7337 0.0014
# 3 2.3457 35.3611 74.3646 -0.0007 -27.6198 0.0014
# 4 0.0028 0.0002 -0.0007 26.7472 0.0024 -7.9032
# 5 -3.4904 -8.7337 -27.6198 0.0024 28.0255 0.0017
# 6 0.0033 0.0014 0.0014 -7.9032 0.0017 24.2843
#
#
#
# Elastic Compliance Matrix: (Units=1/GPa)
#
#
# Indices 1 2 3 4 5 6 
#
# 1 0.015707 -0.002029 0.001516 -0.000003 0.002818 -0.000003
# 2 -0.002029 0.012077 -0.006901 0.000000 -0.003290 0.000000
# 3 0.001516 -0.006901 0.025162 -0.000003 0.022837 -0.000004
# 4 -0.000003 0.000000 -0.000003 0.041365 -0.000007 0.013462
# 5 0.002818 -0.003290 0.022837 -0.000007 0.057514 -0.000008
# 6 -0.000003 0.000000 -0.000004 0.013462 -0.000008 0.045560
#
#
# Mechanical properties :
#
#
# Convention : Reuss Voigt Hill
#
# Bulk Modulus (GPa) = 26.23328 37.85081 32.04205
# Shear Modulus (GPa) = 22.23027 28.70066 25.46547
#
# Velocity S-wave (km/s) = 3.37330 3.83291 3.61042
# Velocity P-wave (km/s) = 5.34793 6.24205 5.81221
#
# Compressibility (1/GPa) = 0.03811951
#
# Stress axis : x y z
#
# Youngs Moduli (GPa) = 63.66540 82.80201 39.74169
#
# Poissons Ratio (x) = 0.16799 -0.06024
# Poissons Ratio (y) = 0.12917 0.27424
# Poissons Ratio (z) = -0.09651 0.57138
#
# Static dielectric constant tensor:
#      x y z
#    x 1.803470 0.000000 0.016420 
#    y 0.000000 1.683890 0.000000 
#    z 0.016420 0.000000 1.688150 
# 
# From -- ./inp_files/373115.got.cif
#   From: 2010.05.17/outbox.cif.g08.bks.cpg/sg12_187_cif.got.tgz:373115.got - 2010.06.03 13:09:07.
