data_PCOD9189049
_publ_section_title
;
Structure prediction by ZEFSAII (Michael W. Deem and Ramdas Pophale) SiO2 
 PCOD9189049
Probable space group: C 2/M
;
_chemical_formula_sum "Si O2"
_cell_formula_units_Z 48
_cell_length_a 27.139514
_cell_length_b 10.320180
_cell_length_c 18.198261
_cell_angle_alpha 90.000000
_cell_angle_beta 32.551727
_cell_angle_gamma 90.000000
_cell_volume 2742.524953
_symmetry_space_group_name_H-M "C 2/M"
_symmetry_group_IT_number 12
_symmetry_cell_setting 'monoclinic'
loop_
_space_group_symop_operation_xyz
x,y,z
-x,y,-z
-x,-y,-z
x,-y,z
1/2+x,1/2+y,z
1/2-x,1/2+y,-z
1/2-x,1/2-y,-z
1/2+x,1/2-y,z
loop_
_atom_site_type_symbol
_atom_site_label
_atom_site_fract_x
_atom_site_fract_y
_atom_site_fract_z
Si Si1 0.395204 0.000000 0.603507
Si Si2 0.733853 0.153381 0.588039
Si Si3 0.607863 0.500000 0.372407
Si Si4 0.847924 0.248459 0.035189
Si Si5 0.264218 0.000000 0.064244
Si Si6 0.308266 0.255324 0.649544
Si Si7 0.761348 0.000000 0.075913
Si Si8 0.981380 0.651091 0.107605
O O1 0.500000 0.000000 0.500000
O O2 0.367253 0.873519 0.591247
O O3 0.328277 0.000000 0.758980
O O4 0.750000 0.250000 0.500000
O O5 0.787610 0.207451 0.591704
O O6 0.625539 0.158733 0.741603
O O7 0.756460 0.000000 0.546848
O O8 0.500000 0.500000 0.500000
O O9 0.661975 0.500000 0.227045
O O10 0.640885 0.374436 0.375293
O O11 0.953712 0.264119 0.922420
O O12 0.814046 0.374489 0.034223
O O13 0.788106 0.240979 0.185496
O O14 0.820611 0.124937 0.022300
O O15 0.264192 0.000000 0.976968
O O16 0.010377 0.500000 0.079293
O O17 0.000000 0.687397 0.000000
#
# Coordination Sequence:
#
# PCOD9189049 Si02
#       8
#     4   8   4   8   4   8   4   8
#     4  10  22  40  60  82 118 162 202 234 291 366
#     4  11  24  42  61  89 125 157 195 246 305 352
#     4  10  20  36  60  84 106 148 204 242 289 350
#     4  10  19  37  60  88 113 152 197 239 297 347
#     4  10  20  36  60  79 114 150 192 247 291 342
#     4  10  20  38  62  83 116 157 195 246 293 351
#     4  10  22  38  54  85 126 148 182 253 307 338
#     4  10  19  36  67  90 110 149 206 242 274 359
#
# _framework density 17.502119
#
# number of rings (size 3 to 8) (size 9 to 14) (size 15 to 20)
#    0.000    1.833    3.333    1.000    1.167    0.000 
#    7.500    0.417    0.000    0.000    0.000    0.000 
#    0.000    0.000    0.000    0.000    0.000    0.000 
#
# Total GULP energy -133929.720705 kJ/mol
# GULP energy per Si atom -5580.405029 kJ/mol
# Density = 1.746228 g / cm^3
# Si number density = 17.502119 Si / 1000 Ang^3
#
#
#
# Elastic Constant Matrix: (Units=GPa)
#
#
# Indices 1 2 3 4 5 6 
#
# 1 115.3849 58.2988 52.2529 0.0000 4.7903 0.0000
# 2 58.2988 143.4797 35.1691 0.0001 4.7018 -0.0002
# 3 52.2529 35.1691 56.1475 0.0000 3.3517 -0.0001
# 4 0.0000 0.0001 0.0000 19.2007 0.0000 4.3368
# 5 4.7903 4.7018 3.3517 0.0000 39.3063 0.0000
# 6 0.0000 -0.0002 -0.0001 4.3368 0.0000 15.7768
#
#
#
# Elastic Compliance Matrix: (Units=1/GPa)
#
#
# Indices 1 2 3 4 5 6 
#
# 1 0.016302 -0.003422 -0.013000 0.000000 -0.000469 0.000000
# 2 -0.003422 0.008964 -0.002403 0.000000 -0.000450 0.000000
# 3 -0.013000 -0.002403 0.031462 0.000000 -0.000811 0.000000
# 4 0.000000 0.000000 0.000000 0.055529 0.000000 -0.015264
# 5 -0.000469 -0.000450 -0.000811 0.000000 0.025621 0.000000
# 6 0.000000 0.000000 0.000000 -0.015264 0.000000 0.067580
#
#
# Mechanical properties :
#
#
# Convention : Reuss Voigt Hill
#
# Bulk Modulus (GPa) = 52.41663 67.38374 59.90019
# Shear Modulus (GPa) = 20.04260 26.14285 23.09272
#
# Velocity S-wave (km/s) = 3.38768 3.86903 3.63633
# Velocity P-wave (km/s) = 6.73169 7.65135 7.20620
#
# Compressibility (1/GPa) = 0.01907791
#
# Stress axis : x y z
#
# Youngs Moduli (GPa) = 61.34109 111.55876 31.78422
#
# Poissons Ratio (x) = 0.38176 0.41320
# Poissons Ratio (y) = 0.20991 0.07638
# Poissons Ratio (z) = 0.79744 0.26809
#
# Static dielectric constant tensor:
#      x y z
#    x 1.563870 0.000000 0.001000 
#    y 0.000000 1.592220 0.000000 
#    z 0.001000 0.000000 1.589690 
# 
# From -- ./inp_files/295432.got.cif
#   From: 2010.05.17/outbox.cif.g08.bks.cpg/sg12_148_cif.got.tgz:295432.got - 2010.06.03 13:09:07.
