data_PCOD9189690
_publ_section_title
;
Structure prediction by ZEFSAII (Michael W. Deem and Ramdas Pophale) SiO2 
 PCOD9189690
Probable space group: C 2/M
;
_chemical_formula_sum "Si O2"
_cell_formula_units_Z 32
_cell_length_a 7.543212
_cell_length_b 27.149240
_cell_length_c 14.426040
_cell_angle_alpha 90.000000
_cell_angle_beta 143.604860
_cell_angle_gamma 90.000000
_cell_volume 1752.962059
_symmetry_space_group_name_H-M "C 2/M"
_symmetry_group_IT_number 12
_symmetry_cell_setting 'monoclinic'
loop_
_space_group_symop_operation_xyz
x,y,z
-x,y,-z
-x,-y,-z
x,-y,z
1/2+x,1/2+y,z
1/2-x,1/2+y,-z
1/2-x,1/2-y,-z
1/2+x,1/2-y,z
loop_
_atom_site_type_symbol
_atom_site_label
_atom_site_fract_x
_atom_site_fract_y
_atom_site_fract_z
Si Si1 0.840099 0.104432 0.653684
Si Si2 0.254362 0.693073 0.475356
Si Si3 0.738772 0.056438 0.312794
Si Si4 0.742148 0.631727 0.178126
O O1 0.500000 0.083514 0.500000
O O2 0.821069 0.156547 0.589642
O O3 0.899629 0.110344 0.787273
O O4 0.093423 0.073208 0.709714
O O5 0.500000 0.684240 0.500000
O O6 0.250000 0.750000 0.500000
O O7 0.941313 0.676759 0.299101
O O8 0.472784 0.092318 0.231412
O O9 0.000000 0.059992 0.500000
O O10 0.637473 0.000000 0.265003
O O11 0.500000 0.645169 0.000000
#
# Coordination Sequence:
#
# PCOD9189690 Si02
#       4
#     8   8   8   8
#     4  10  19  38  60  88 118 160 206 250 294 356
#     4  11  20  40  65  87 116 160 207 246 294 364
#     4  11  21  38  64  91 121 164 211 251 293 360
#     4  11  23  40  60  91 130 157 197 258 308 353
#
# _framework density 18.254816000000002
#
# number of rings (size 3 to 8) (size 9 to 14) (size 15 to 20)
#    0.000    1.250    7.500    2.250    0.000    3.000 
#    0.000    6.250    0.000    0.000    0.000    0.000 
#    0.000    0.000    0.000    0.000    0.000    0.000 
#
# Total GULP energy -89327.981341 kJ/mol
# GULP energy per Si atom -5582.998834 kJ/mol
# Density = 1.821327 g / cm^3
# Si number density = 18.254816 Si / 1000 Ang^3
#
#
#
# Elastic Constant Matrix: (Units=GPa)
#
#
# Indices 1 2 3 4 5 6 
#
# 1 138.7991 26.4376 28.1339 0.0000 -15.7279 0.0000
# 2 26.4376 109.7857 34.0149 0.0000 11.3356 0.0000
# 3 28.1339 34.0149 86.6509 0.0000 -20.3408 0.0000
# 4 0.0000 0.0000 0.0000 11.9508 0.0000 -3.5439
# 5 -15.7279 11.3356 -20.3408 0.0000 22.1674 0.0000
# 6 0.0000 0.0000 0.0000 -3.5439 0.0000 21.0992
#
#
#
# Elastic Compliance Matrix: (Units=1/GPa)
#
#
# Indices 1 2 3 4 5 6 
#
# 1 0.008607 -0.002931 0.000180 0.000000 0.007771 0.000000
# 2 -0.002931 0.014336 -0.008776 0.000000 -0.017463 0.000000
# 3 0.000180 -0.008776 0.020406 0.000000 0.023340 0.000000
# 4 0.000000 0.000000 0.000000 0.088063 0.000000 0.014791
# 5 0.007771 -0.017463 0.023340 0.000000 0.080971 0.000000
# 6 0.000000 0.000000 0.000000 0.014791 0.000000 0.049880
#
#
# Mechanical properties :
#
#
# Convention : Reuss Voigt Hill
#
# Bulk Modulus (GPa) = 49.26924 56.93427 53.10176
# Shear Modulus (GPa) = 17.11859 27.48678 22.30268
#
# Velocity S-wave (km/s) = 3.06560 3.88458 3.49914
# Velocity P-wave (km/s) = 6.29118 7.16773 6.74371
#
# Compressibility (1/GPa) = 0.02029664
#
# Stress axis : x y z
#
# Youngs Moduli (GPa) = 116.18584 69.75238 49.00574
#
# Poissons Ratio (x) = 0.20443 -0.00882
# Poissons Ratio (y) = 0.34051 0.43005
# Poissons Ratio (z) = -0.02092 0.61212
#
# Static dielectric constant tensor:
#      x y z
#    x 1.658280 0.000000 -0.014340 
#    y 0.000000 1.640210 0.000000 
#    z -0.014340 0.000000 1.604960 
# 
# From -- ./inp_files/199543.got.cif
#   From: 2010.05.17/outbox.cif.g08.bks.cpg/sg12_100_cif.got.tgz:199543.got - 2010.06.03 13:09:07.
