data_PCOD9189270
_publ_section_title
;
Structure prediction by ZEFSAII (Michael W. Deem and Ramdas Pophale) SiO2 
 PCOD9189270
Probable space group: C 2/M
;
_chemical_formula_sum "Si O2"
_cell_formula_units_Z 56
_cell_length_a 30.164453
_cell_length_b 11.675545
_cell_length_c 14.801362
_cell_angle_alpha 90.000000
_cell_angle_beta 32.373305
_cell_angle_gamma 90.000000
_cell_volume 2791.127758
_symmetry_space_group_name_H-M "C 2/M"
_symmetry_group_IT_number 12
_symmetry_cell_setting 'monoclinic'
loop_
_space_group_symop_operation_xyz
x,y,z
-x,y,-z
-x,-y,-z
x,-y,z
1/2+x,1/2+y,z
1/2-x,1/2+y,-z
1/2-x,1/2-y,-z
1/2+x,1/2-y,z
loop_
_atom_site_type_symbol
_atom_site_label
_atom_site_fract_x
_atom_site_fract_y
_atom_site_fract_z
Si Si1 0.680029 0.634878 0.374196
Si Si2 0.508445 0.874027 0.234196
Si Si3 0.426716 0.203787 0.556992
Si Si4 0.239251 0.626698 0.068943
Si Si5 0.358845 0.784584 0.385353
Si Si6 0.825569 0.872587 0.282501
Si Si7 0.839007 0.787066 0.060232
O O1 0.683806 0.500000 0.370255
O O2 0.615589 0.682736 0.411331
O O3 0.653556 0.687422 0.516315
O O4 0.767992 0.691464 0.198640
O O5 0.462381 0.863126 0.409404
O O6 0.438733 0.854734 0.278060
O O7 0.546136 0.000000 0.160582
O O8 0.576954 0.776057 0.110410
O O9 0.500000 0.227512 0.500000
O O10 0.353316 0.134453 0.731591
O O11 0.248921 0.500000 0.007056
O O12 0.303885 0.634941 0.040429
O O13 0.250000 0.750000 0.000000
O O14 0.273885 0.856978 0.534960
O O15 0.365344 0.723438 0.277844
O O16 0.846727 0.852414 0.141620
O O17 0.849625 0.000000 0.269342
#
# Coordination Sequence:
#
# PCOD9189270 Si02
#       7
#     8   8   8   8   8   8   8
#     4   9  18  35  56  81 118 155 189 234 291 350
#     4  11  22  39  60  83 116 150 189 242 291 338
#     4  10  22  38  59  88 114 146 196 243 285 340
#     4  11  24  42  64  89 119 155 196 241 292 351
#     4   9  20  35  57  88 110 143 197 239 284 343
#     4  10  19  37  61  81 112 151 189 236 288 345
#     4  10  22  37  57  86 115 150 196 236 285 346
#
# _framework density 20.063573999999999
#
# number of rings (size 3 to 8) (size 9 to 14) (size 15 to 20)
#    0.000    2.000    0.000    3.857    0.000    6.000 
#    0.000   13.571    0.000    0.000    0.000    0.000 
#    0.000    0.000    0.000    0.000    0.000    0.000 
#
# Total GULP energy -156359.172915 kJ/mol
# GULP energy per Si atom -5584.256176 kJ/mol
# Density = 2.001791 g / cm^3
# Si number density = 20.063574 Si / 1000 Ang^3
#
#
#
# Elastic Constant Matrix: (Units=GPa)
#
#
# Indices 1 2 3 4 5 6 
#
# 1 88.4360 1.6247 16.0675 0.0000 4.2657 0.0000
# 2 1.6247 105.4175 12.2337 0.0000 14.7309 0.0000
# 3 16.0675 12.2337 64.7411 0.0000 -1.9287 0.0000
# 4 0.0000 0.0000 0.0000 -8.3580 0.0000 9.3277
# 5 4.2657 14.7309 -1.9287 0.0000 24.7232 0.0000
# 6 0.0000 0.0000 0.0000 9.3277 0.0000 5.2314
#
#
#
# Elastic Compliance Matrix: (Units=1/GPa)
#
#
# Indices 1 2 3 4 5 6 
#
# 1 0.011999 0.000552 -0.003161 0.000000 -0.002646 0.000000
# 2 0.000552 0.010679 -0.002353 0.000000 -0.006641 0.000000
# 3 -0.003161 -0.002353 0.016772 0.000000 0.003256 0.000000
# 4 0.000000 0.000000 0.000000 -0.040017 0.000000 0.071351
# 5 -0.002646 -0.006641 0.003256 0.000000 0.045115 0.000000
# 6 0.000000 0.000000 0.000000 0.071351 0.000000 0.063933
#
#
# Mechanical properties :
#
#
# Convention : Reuss Voigt Hill
#
# Bulk Modulus (GPa) = 33.86835 35.38294 34.62564
# Shear Modulus (GPa) = 38.98681 19.56390 29.27535
#
# Velocity S-wave (km/s) = 4.41292 3.12604 3.82400
# Velocity P-wave (km/s) = 6.54845 5.54105 6.06570
#
# Compressibility (1/GPa) = 0.02952609
#
# Stress axis : x y z
#
# Youngs Moduli (GPa) = 83.33744 93.64455 59.62244
#
# Poissons Ratio (x) = -0.05165 0.18847
# Poissons Ratio (y) = -0.04597 0.14027
# Poissons Ratio (z) = 0.26344 0.22031
#
# Static dielectric constant tensor:
#      x y z
#    x 1.712880 0.000000 0.018610 
#    y 0.000000 1.695950 0.000000 
#    z 0.018610 0.000000 1.699090 
# 
# From -- ./inp_files/250995.got.cif
#   From: 2010.05.17/outbox.cif.g08.bks.cpg/sg12_126_cif.got.tgz:250995.got - 2010.06.03 13:09:07.
