data_PCOD9189828
_publ_section_title
;
Structure prediction by ZEFSAII (Michael W. Deem and Ramdas Pophale) SiO2 
 PCOD9189828
Probable space group: C 2/M
;
_chemical_formula_sum "Si O2"
_cell_formula_units_Z 56
_cell_length_a 19.105071
_cell_length_b 8.556046
_cell_length_c 27.919143
_cell_angle_alpha 90.000000
_cell_angle_beta 141.487989
_cell_angle_gamma 90.000000
_cell_volume 2841.762949
_symmetry_space_group_name_H-M "C 2/M"
_symmetry_group_IT_number 12
_symmetry_cell_setting 'monoclinic'
loop_
_space_group_symop_operation_xyz
x,y,z
-x,y,-z
-x,-y,-z
x,-y,z
1/2+x,1/2+y,z
1/2-x,1/2+y,-z
1/2-x,1/2-y,-z
1/2+x,1/2-y,z
loop_
_atom_site_type_symbol
_atom_site_label
_atom_site_fract_x
_atom_site_fract_y
_atom_site_fract_z
Si Si1 0.419104 0.686533 0.294395
Si Si2 0.262473 0.190125 0.727154
Si Si3 0.094967 0.189005 0.012904
Si Si4 0.632947 0.319838 0.561935
Si Si5 0.021720 0.689463 0.870411
Si Si6 0.851537 0.688355 0.158462
Si Si7 0.638079 0.818175 0.462813
O O1 0.413533 0.500000 0.288250
O O2 0.310325 0.743830 0.266287
O O3 0.418154 0.754981 0.240686
O O4 0.528952 0.732526 0.383203
O O5 0.198614 0.234507 0.644223
O O6 0.391594 0.239967 0.796434
O O7 0.261241 0.000000 0.727536
O O8 0.221665 0.240620 0.093435
O O9 0.093451 0.000000 0.012276
O O10 0.068489 0.246807 0.945353
O O11 0.000000 0.242851 0.000000
O O12 0.500000 0.323078 0.500000
O O13 0.667921 0.500000 0.569965
O O14 0.649904 0.212663 0.525428
O O15 0.024533 0.500000 0.873287
O O16 0.092836 0.740363 0.861909
O O17 0.852651 0.500000 0.158728
O O18 0.750000 0.750000 0.500000
O O19 0.626728 0.000000 0.446091
#
# Coordination Sequence:
#
# PCOD9189828 Si02
#       7
#     8   8   8   8   8   8   8
#     4  11  22  40  62  87 117 156 201 244 298 363
#     4   9  19  36  59  86 117 153 195 244 301 358
#     4  10  21  38  59  84 119 158 196 243 300 352
#     4  10  19  38  64  87 118 160 200 247 305 361
#     4  10  21  37  59  87 117 152 197 243 294 358
#     4  10  22  38  57  86 121 156 196 248 302 354
#     4  12  26  42  61  88 122 159 204 253 303 358
#
# _framework density 19.706078000000002
#
# number of rings (size 3 to 8) (size 9 to 14) (size 15 to 20)
#    0.000    1.714    1.429    3.000    2.000    1.714 
#    0.000    1.429    0.000    0.000    0.000    0.000 
#    0.000    0.000    0.000    0.000    0.000    0.000 
#
# Total GULP energy -156436.652196 kJ/mol
# GULP energy per Si atom -5587.023293 kJ/mol
# Density = 1.966123 g / cm^3
# Si number density = 19.706078 Si / 1000 Ang^3
#
#
#
# Elastic Constant Matrix: (Units=GPa)
#
#
# Indices 1 2 3 4 5 6 
#
# 1 126.4817 16.2203 17.4378 0.0000 -8.0200 0.0000
# 2 16.2203 10.5075 -0.2105 0.0000 0.1538 0.0000
# 3 17.4378 -0.2105 58.9381 0.0000 -15.9848 0.0000
# 4 0.0000 0.0000 0.0000 29.7017 0.0000 -8.7256
# 5 -8.0200 0.1538 -15.9848 0.0000 38.0132 0.0000
# 6 0.0000 0.0000 0.0000 -8.7256 0.0000 19.0220
#
#
#
# Elastic Compliance Matrix: (Units=1/GPa)
#
#
# Indices 1 2 3 4 5 6 
#
# 1 0.010445 -0.016197 -0.002859 0.000000 0.001067 0.000000
# 2 -0.016197 0.120295 0.004699 0.000000 -0.001928 0.000000
# 3 -0.002859 0.004699 0.019934 0.000000 0.007760 0.000000
# 4 0.000000 0.000000 0.000000 0.038912 0.000000 0.017849
# 5 0.001067 -0.001928 0.007760 0.000000 0.029803 0.000000
# 6 0.000000 0.000000 0.000000 0.017849 0.000000 0.060758
#
#
# Mechanical properties :
#
#
# Convention : Reuss Voigt Hill
#
# Bulk Modulus (GPa) = 8.19935 29.20250 18.70093
# Shear Modulus (GPa) = 14.30551 28.17937 21.24244
#
# Velocity S-wave (km/s) = 2.69726 3.78561 3.28680
# Velocity P-wave (km/s) = 3.72426 5.82744 4.89025
#
# Compressibility (1/GPa) = 0.12196083
#
# Stress axis : x y z
#
# Youngs Moduli (GPa) = 95.73746 8.31287 50.16487
#
# Poissons Ratio (x) = 0.13464 0.14341
# Poissons Ratio (y) = 1.55066 -0.23571
# Poissons Ratio (z) = 0.27370 -0.03906
#
# Static dielectric constant tensor:
#      x y z
#    x 1.657340 0.000000 0.028300 
#    y 0.000000 1.684740 0.000000 
#    z 0.028300 0.000000 1.648200 
# 
# From -- ./inp_files/363125.got.cif
#   From: 2010.05.17/outbox.cif.g08.bks.cpg/sg12_182_cif.got.tgz:363125.got - 2010.06.03 13:09:07.
