data_PCOD9189865
_publ_section_title
;
Structure prediction by ZEFSAII (Michael W. Deem and Ramdas Pophale) SiO2 
 PCOD9189865
Probable space group: C 2/M
;
_chemical_formula_sum "Si O2"
_cell_formula_units_Z 40
_cell_length_a 32.298457
_cell_length_b 15.534183
_cell_length_c 9.308325
_cell_angle_alpha 90.000000
_cell_angle_beta 153.710201
_cell_angle_gamma 90.000000
_cell_volume 2068.515398
_symmetry_space_group_name_H-M "C 2/M"
_symmetry_group_IT_number 12
_symmetry_cell_setting 'monoclinic'
loop_
_space_group_symop_operation_xyz
x,y,z
-x,y,-z
-x,-y,-z
x,-y,z
1/2+x,1/2+y,z
1/2-x,1/2+y,-z
1/2-x,1/2-y,-z
1/2+x,1/2-y,z
loop_
_atom_site_type_symbol
_atom_site_label
_atom_site_fract_x
_atom_site_fract_y
_atom_site_fract_z
Si Si1 0.473855 0.188183 0.767379
Si Si2 0.648178 0.761278 0.116227
Si Si3 0.823366 0.175117 0.273129
Si Si4 0.610115 0.593938 0.816322
Si Si5 0.850227 0.400321 0.132489
O O1 0.408897 0.270775 0.604068
O O2 0.414491 0.132187 0.466691
O O3 0.500000 0.144111 0.000000
O O4 0.567246 0.220456 0.979262
O O5 0.750000 0.750000 0.500000
O O6 0.637405 0.670805 0.003800
O O7 0.636294 0.836251 0.959719
O O8 0.862689 0.124554 0.258297
O O9 0.750000 0.250000 0.000000
O O10 0.759133 0.112368 0.166626
O O11 0.500000 0.586973 0.500000
O O12 0.652921 0.500000 0.978297
O O13 0.870514 0.500000 0.164317
#
# Coordination Sequence:
#
# PCOD9189865 Si02
#       5
#     8   8   8   8   8
#     4  11  23  40  66  96 129 170 212 260 323 378
#     4  12  24  42  66  93 130 170 213 264 315 381
#     4  10  19  38  65  90 127 166 206 259 316 373
#     4  11  21  39  66  93 122 164 213 264 318 372
#     4  11  24  43  68  95 129 171 213 260 320 380
#
# _framework density 19.337541000000002
#
# number of rings (size 3 to 8) (size 9 to 14) (size 15 to 20)
#    0.000    1.000    6.000    2.400    2.800    2.800 
#    0.000    0.000    0.000    3.000    0.000    0.000 
#    0.000    0.000    0.000    0.000    0.000    0.000 
#
# Total GULP energy -111556.649755 kJ/mol
# GULP energy per Si atom -5577.832488 kJ/mol
# Density = 1.929353 g / cm^3
# Si number density = 19.337541 Si / 1000 Ang^3
#
#
#
# Elastic Constant Matrix: (Units=GPa)
#
#
# Indices 1 2 3 4 5 6 
#
# 1 109.9709 30.7647 41.5552 0.0000 1.2914 0.0000
# 2 30.7647 152.1783 46.1689 0.0000 -18.8950 0.0000
# 3 41.5552 46.1689 111.9926 0.0000 -4.1647 0.0000
# 4 0.0000 0.0000 0.0000 11.0789 0.0000 15.0608
# 5 1.2914 -18.8950 -4.1647 0.0000 36.3618 0.0000
# 6 0.0000 0.0000 0.0000 15.0608 0.0000 -9.6681
#
#
#
# Elastic Compliance Matrix: (Units=1/GPa)
#
#
# Indices 1 2 3 4 5 6 
#
# 1 0.010807 -0.001295 -0.003530 0.000000 -0.001461 0.000000
# 2 -0.001295 0.008156 -0.002734 0.000000 0.003971 0.000000
# 3 -0.003530 -0.002734 0.011366 0.000000 0.000007 0.000000
# 4 0.000000 0.000000 0.000000 0.028952 0.000000 0.045100
# 5 -0.001461 0.003971 0.000007 0.000000 0.029617 0.000000
# 6 0.000000 0.000000 0.000000 0.045100 0.000000 -0.033176
#
#
# Mechanical properties :
#
#
# Convention : Reuss Voigt Hill
#
# Bulk Modulus (GPa) = 65.74588 67.90213 66.82401
# Shear Modulus (GPa) = 65.86713 24.59803 45.23258
#
# Velocity S-wave (km/s) = 5.84258 3.57043 4.84168
# Velocity P-wave (km/s) = 8.92117 7.22410 8.11711
#
# Compressibility (1/GPa) = 0.01521008
#
# Stress axis : x y z
#
# Youngs Moduli (GPa) = 92.53439 122.61640 87.97862
#
# Poissons Ratio (x) = 0.15880 0.31059
# Poissons Ratio (y) = 0.11984 0.24052
# Poissons Ratio (z) = 0.32668 0.33522
#
# Static dielectric constant tensor:
#      x y z
#    x 1.696240 0.000000 -0.009860 
#    y 0.000000 1.503360 0.000000 
#    z -0.009860 0.000000 1.674540 
# 
# From -- ./inp_files/58958.got.cif
#   From: 2010.05.17/outbox.cif.g08.bks.cpg/sg12_30_cif.got.tgz:58958.got - 2010.06.03 13:09:07.
