data_PCOD9189036
_publ_section_title
;
Structure prediction by ZEFSAII (Michael W. Deem and Ramdas Pophale) SiO2 
 PCOD9189036
Probable space group: C 2/M
;
_chemical_formula_sum "Si O2"
_cell_formula_units_Z 52
_cell_length_a 20.445229
_cell_length_b 11.399110
_cell_length_c 14.295028
_cell_angle_alpha 90.000000
_cell_angle_beta 59.124641
_cell_angle_gamma 90.000000
_cell_volume 2859.432194
_symmetry_space_group_name_H-M "C 2/M"
_symmetry_group_IT_number 12
_symmetry_cell_setting 'monoclinic'
loop_
_space_group_symop_operation_xyz
x,y,z
-x,y,-z
-x,-y,-z
x,-y,z
1/2+x,1/2+y,z
1/2-x,1/2+y,-z
1/2-x,1/2-y,-z
1/2+x,1/2-y,z
loop_
_atom_site_type_symbol
_atom_site_label
_atom_site_fract_x
_atom_site_fract_y
_atom_site_fract_z
Si Si1 0.086496 0.000000 0.648000
Si Si2 0.227103 0.764879 0.297745
Si Si3 0.394313 0.858071 0.152204
Si Si4 0.868624 0.000000 0.596047
Si Si5 0.322406 0.261495 0.877999
Si Si6 0.089090 0.000000 0.220974
Si Si7 0.054482 0.360213 0.094280
Si Si8 0.266769 0.629011 0.434082
O O1 0.141637 0.107741 0.639005
O O2 0.086611 0.000000 0.534397
O O3 0.999397 0.000000 0.745387
O O4 0.314715 0.804173 0.237514
O O5 0.180026 0.879188 0.366373
O O6 0.203351 0.738398 0.209148
O O7 0.224534 0.653102 0.367236
O O8 0.466815 0.820197 0.160553
O O9 0.388315 0.000000 0.159599
O O10 0.412328 0.824196 0.031379
O O11 0.910636 0.000000 0.665429
O O12 0.362033 0.388926 0.848453
O O13 0.389424 0.179168 0.866301
O O14 0.250000 0.250000 0.000000
O O15 0.051969 0.500000 0.094130
O O16 0.241639 0.500000 0.492001
O O17 0.250000 0.750000 0.500000
#
# Coordination Sequence:
#
# PCOD9189036 Si02
#       8
#     4   8   8   4   8   4   8   8
#     4  10  21  42  63  84 125 153 203 269 320 369
#     4  11  19  34  57  90 115 154 208 252 300 367
#     4   9  17  31  55  80 110 144 202 254 288 348
#     4  10  19  36  66  86 113 157 211 268 307 362
#     4  11  23  37  57  81 121 167 201 246 295 373
#     4  10  25  38  57  93 117 161 216 251 306 375
#     4   9  19  33  52  78 109 156 196 244 297 345
#     4  10  22  38  62  91 122 158 201 258 316 369
#
# _framework density 18.185428000000002
#
# number of rings (size 3 to 8) (size 9 to 14) (size 15 to 20)
#    0.462    1.538    3.846    1.154    3.231    0.615 
#    0.000    0.000    0.000    1.846    0.000    2.154 
#    0.000    0.000    0.000    0.000    0.000    0.000 
#
# Total GULP energy -144737.095065 kJ/mol
# GULP energy per Si atom -5566.811349 kJ/mol
# Density = 1.814404 g / cm^3
# Si number density = 18.185428 Si / 1000 Ang^3
#
#
#
# Elastic Constant Matrix: (Units=GPa)
#
#
# Indices 1 2 3 4 5 6 
#
# 1 119.4856 39.7633 36.3295 0.0000 -8.3083 0.0000
# 2 39.7633 74.9021 28.3529 0.0000 0.3603 0.0000
# 3 36.3295 28.3529 56.7321 0.0000 2.9094 0.0000
# 4 0.0000 0.0000 0.0000 22.3731 0.0000 3.6102
# 5 -8.3083 0.3603 2.9094 0.0000 24.5459 0.0000
# 6 0.0000 0.0000 0.0000 3.6102 0.0000 34.4323
#
#
#
# Elastic Compliance Matrix: (Units=1/GPa)
#
#
# Indices 1 2 3 4 5 6 
#
# 1 0.011819 -0.004120 -0.005753 0.000000 0.004743 0.000000
# 2 -0.004120 0.017915 -0.006268 0.000000 -0.000914 0.000000
# 3 -0.005753 -0.006268 0.024689 0.000000 -0.004782 0.000000
# 4 0.000000 0.000000 0.000000 0.045466 0.000000 -0.004767
# 5 0.004743 -0.000914 -0.004782 0.000000 0.042926 0.000000
# 6 0.000000 0.000000 0.000000 -0.004767 0.000000 0.029542
#
#
# Mechanical properties :
#
#
# Convention : Reuss Voigt Hill
#
# Bulk Modulus (GPa) = 45.16539 51.11238 48.13888
# Shear Modulus (GPa) = 23.58282 26.04852 24.81567
#
# Velocity S-wave (km/s) = 3.60501 3.78879 3.69804
# Velocity P-wave (km/s) = 6.49755 6.87802 6.69049
#
# Compressibility (1/GPa) = 0.02214085
#
# Stress axis : x y z
#
# Youngs Moduli (GPa) = 84.60843 55.81952 40.50431
#
# Poissons Ratio (x) = 0.22995 0.23302
# Poissons Ratio (y) = 0.34855 0.25390
# Poissons Ratio (z) = 0.48676 0.34990
#
# Static dielectric constant tensor:
#      x y z
#    x 1.634840 0.000000 0.012100 
#    y 0.000000 1.646790 0.000000 
#    z 0.012100 0.000000 1.678260 
# 
# From -- ./inp_files/231780.got.cif
#   From: 2010.05.17/outbox.cif.g08.bks.cpg/sg12_116_cif.got.tgz:231780.got - 2010.06.03 13:09:07.
