data_PCOD9189584
_publ_section_title
;
Structure prediction by ZEFSAII (Michael W. Deem and Ramdas Pophale) SiO2 
 PCOD9189584
Probable space group: C 2/M
;
_chemical_formula_sum "Si O2"
_cell_formula_units_Z 42
_cell_length_a 13.234800
_cell_length_b 23.725541
_cell_length_c 5.344899
_cell_angle_alpha 90.000000
_cell_angle_beta 105.154530
_cell_angle_gamma 90.000000
_cell_volume 1619.948622
_symmetry_space_group_name_H-M "C 2/M"
_symmetry_group_IT_number 12
_symmetry_cell_setting 'monoclinic'
loop_
_space_group_symop_operation_xyz
x,y,z
-x,y,-z
-x,-y,-z
x,-y,z
1/2+x,1/2+y,z
1/2-x,1/2+y,-z
1/2-x,1/2-y,-z
1/2+x,1/2-y,z
loop_
_atom_site_type_symbol
_atom_site_label
_atom_site_fract_x
_atom_site_fract_y
_atom_site_fract_z
Si Si1 0.125560 0.731125 0.419566
Si Si2 0.866106 0.223268 0.077403
Si Si3 0.500000 0.000000 0.500000
Si Si4 0.279592 0.937482 0.124917
Si Si5 0.068608 0.099136 0.794134
Si Si6 0.872719 0.600930 0.677789
O O1 0.250000 0.750000 0.500000
O O2 0.086340 0.738910 0.675080
O O3 0.104831 0.666922 0.331309
O O4 0.091089 0.772522 0.174914
O O5 0.875842 0.160254 0.187135
O O6 0.750000 0.250000 0.000000
O O7 0.453338 0.051834 0.655702
O O8 0.164909 0.940951 0.929654
O O9 0.342139 0.907379 0.945981
O O10 0.328053 0.000000 0.197476
O O11 0.283677 0.908840 0.400403
O O12 0.000000 0.087662 0.500000
O O13 0.000000 0.099467 0.000000
#
# Coordination Sequence:
#
# PCOD9189584 Si02
#       6
#     8   8   2   8   8   8
#     4  10  19  37  68  99 132 181 237 285 354 446
#     4  10  20  40  66  98 134 181 228 287 370 446
#     4  12  28  50  72 114 160 186 264 316 364 454
#     4  12  24  46  73 101 140 198 245 292 381 446
#     4  12  26  44  71 107 148 185 242 316 368 440
#     4  12  25  46  73 108 145 199 245 311 373 447
#
# _framework density 25.926748
#
# number of rings (size 3 to 8) (size 9 to 14) (size 15 to 20)
#    0.000    0.762    1.905    8.000    0.000    2.286 
#    5.143    0.000    0.000    0.000    0.000    0.000 
#    0.000    0.000    0.000    0.000    0.000    0.000 
#
# Total GULP energy -117174.294901 kJ/mol
# GULP energy per Si atom -5579.728329 kJ/mol
# Density = 2.586774 g / cm^3
# Si number density = 25.926748 Si / 1000 Ang^3
#
#
#
# Elastic Constant Matrix: (Units=GPa)
#
#
# Indices 1 2 3 4 5 6 
#
# 1 56.6364 -8.6265 11.9336 0.0000 11.1952 0.0000
# 2 -8.6265 145.4995 -1.2978 0.0000 -1.8347 0.0000
# 3 11.9336 -1.2978 192.1823 0.0000 18.8353 0.0000
# 4 0.0000 0.0000 0.0000 19.4037 0.0000 12.3941
# 5 11.1952 -1.8347 18.8353 0.0000 55.0519 0.0000
# 6 0.0000 0.0000 0.0000 12.3941 0.0000 21.8874
#
#
#
# Elastic Compliance Matrix: (Units=1/GPa)
#
#
# Indices 1 2 3 4 5 6 
#
# 1 0.018677 0.001056 -0.000811 0.000000 -0.003485 0.000000
# 2 0.001056 0.006936 -0.000021 0.000000 0.000024 0.000000
# 3 -0.000811 -0.000021 0.005419 0.000000 -0.001690 0.000000
# 4 0.000000 0.000000 0.000000 0.080741 0.000000 -0.045721
# 5 -0.003485 0.000024 -0.001690 0.000000 0.019452 0.000000
# 6 0.000000 0.000000 0.000000 -0.045721 0.000000 0.071579
#
#
# Mechanical properties :
#
#
# Convention : Reuss Voigt Hill
#
# Bulk Modulus (GPa) = 31.76598 44.25962 38.01280
# Shear Modulus (GPa) = 23.49083 45.42252 34.45667
#
# Velocity S-wave (km/s) = 3.01333 4.19018 3.64950
# Velocity P-wave (km/s) = 4.93818 6.36539 5.69666
#
# Compressibility (1/GPa) = 0.03148022
#
# Stress axis : x y z
#
# Youngs Moduli (GPa) = 53.54118 144.18349 184.52791
#
# Poissons Ratio (x) = -0.15228 0.14966
# Poissons Ratio (y) = -0.05655 0.00389
# Poissons Ratio (z) = 0.04342 0.00304
#
# Static dielectric constant tensor:
#      x y z
#    x 1.499990 0.000000 -0.213960 
#    y 0.000000 1.991000 0.000000 
#    z -0.213960 0.000000 1.868010 
# 
# From -- ./inp_files/11671.got.cif
#   From: 2010.05.17/outbox.cif.g08.bks.cpg/sg12_6_cif.got.tgz:11671.got - 2010.06.03 13:09:07.
