data_PCOD9189892
_publ_section_title
;
Structure prediction by ZEFSAII (Michael W. Deem and Ramdas Pophale) SiO2 
 PCOD9189892
Probable space group: C 2/M
;
_chemical_formula_sum "Si O2"
_cell_formula_units_Z 42
_cell_length_a 18.387847
_cell_length_b 7.395383
_cell_length_c 15.471217
_cell_angle_alpha 90.000000
_cell_angle_beta 57.157165
_cell_angle_gamma 90.000000
_cell_volume 1767.578639
_symmetry_space_group_name_H-M "C 2/M"
_symmetry_group_IT_number 12
_symmetry_cell_setting 'monoclinic'
loop_
_space_group_symop_operation_xyz
x,y,z
-x,y,-z
-x,-y,-z
x,-y,z
1/2+x,1/2+y,z
1/2-x,1/2+y,-z
1/2-x,1/2-y,-z
1/2+x,1/2-y,z
loop_
_atom_site_type_symbol
_atom_site_label
_atom_site_fract_x
_atom_site_fract_y
_atom_site_fract_z
Si Si1 0.189388 0.285041 0.957561
Si Si2 0.498313 0.209935 0.126125
Si Si3 0.003155 0.218214 0.672272
Si Si4 0.813628 0.221544 0.726960
Si Si5 0.678649 0.283954 0.472583
Si Si6 0.000000 0.000000 0.000000
O O1 0.177451 0.500000 0.954504
O O2 0.240972 0.216869 0.841155
O O3 0.250000 0.250000 0.000000
O O4 0.096031 0.215123 0.047223
O O5 0.481065 0.229033 0.238503
O O6 0.487570 0.000000 0.110434
O O7 0.451188 0.341182 0.090957
O O8 0.084330 0.282966 0.563527
O O9 0.909133 0.277777 0.698746
O O10 0.002059 0.000000 0.669847
O O11 0.798530 0.280883 0.638253
O O12 0.812627 0.000000 0.729558
O O13 0.671135 0.500000 0.470274
O O14 0.750000 0.250000 0.500000
#
# Coordination Sequence:
#
# PCOD9189892 Si02
#       6
#     8   8   8   8   8   2
#     4  10  20  35  62  95 129 165 213 268 328 388
#     4  11  24  41  64  99 133 175 221 272 328 397
#     4  10  19  38  66  92 123 170 220 269 329 396
#     4   9  18  36  64  92 123 167 220 274 325 388
#     4  10  22  39  61  91 124 168 219 270 334 398
#     4  12  26  44  64  90 138 180 224 270 332 400
#
# _framework density 23.761319
#
# number of rings (size 3 to 8) (size 9 to 14) (size 15 to 20)
#    0.000    1.905    2.857    0.857    1.333    4.571 
#    0.000    3.810    0.000    2.286    0.000    0.000 
#    0.000    0.000    0.000    0.000    0.000    0.000 
#
# Total GULP energy -117167.007104 kJ/mol
# GULP energy per Si atom -5579.381291 kJ/mol
# Density = 2.370724 g / cm^3
# Si number density = 23.761319 Si / 1000 Ang^3
#
#
#
# Elastic Constant Matrix: (Units=GPa)
#
#
# Indices 1 2 3 4 5 6 
#
# 1 52.5422 -6.7783 32.9291 0.0000 2.3747 0.0001
# 2 -6.7783 115.1837 9.2077 0.0001 3.1174 0.0000
# 3 32.9291 9.2077 204.9025 0.0000 17.5243 0.0000
# 4 0.0000 0.0001 0.0000 15.3856 0.0000 7.0829
# 5 2.3747 3.1174 17.5243 0.0000 49.8332 0.0000
# 6 0.0001 0.0000 0.0000 7.0829 0.0000 7.1219
#
#
#
# Elastic Compliance Matrix: (Units=1/GPa)
#
#
# Indices 1 2 3 4 5 6 
#
# 1 0.021434 0.001540 -0.003524 0.000000 0.000122 0.000000
# 2 0.001540 0.008832 -0.000609 0.000000 -0.000412 0.000000
# 3 -0.003524 -0.000609 0.005626 0.000000 -0.001772 0.000000
# 4 0.000000 0.000000 0.000000 0.119882 0.000000 -0.119225
# 5 0.000122 -0.000412 -0.001772 0.000000 0.020710 0.000000
# 6 0.000000 0.000000 0.000000 -0.119225 0.000000 0.258986
#
#
# Mechanical properties :
#
#
# Convention : Reuss Voigt Hill
#
# Bulk Modulus (GPa) = 32.56804 49.26062 40.91433
# Shear Modulus (GPa) = 11.08914 36.95280 24.02097
#
# Velocity S-wave (km/s) = 2.16264 3.94784 3.18296
# Velocity P-wave (km/s) = 4.46902 6.44647 5.54658
#
# Compressibility (1/GPa) = 0.03070495
#
# Stress axis : x y z
#
# Youngs Moduli (GPa) = 46.65453 113.22168 177.75639
#
# Poissons Ratio (x) = -0.17434 0.62645
# Poissons Ratio (y) = -0.07184 0.10828
# Poissons Ratio (z) = 0.16442 0.06897
#
# Static dielectric constant tensor:
#      x y z
#    x 2.057760 0.000000 0.032920 
#    y 0.000000 1.992750 0.000000 
#    z 0.032920 0.000000 1.868590 
# 
# From -- ./inp_files/221460.got.cif
#   From: 2010.05.17/outbox.cif.g08.bks.cpg/sg12_111_cif.got.tgz:221460.got - 2010.06.03 13:09:07.
