data_PCOD9189168
_publ_section_title
;
Structure prediction by ZEFSAII (Michael W. Deem and Ramdas Pophale) SiO2 
 PCOD9189168
Probable space group: C 2/M
;
_chemical_formula_sum "Si O2"
_cell_formula_units_Z 56
_cell_length_a 14.488414
_cell_length_b 29.851728
_cell_length_c 8.348218
_cell_angle_alpha 90.000000
_cell_angle_beta 50.676944
_cell_angle_gamma 90.000000
_cell_volume 2793.137385
_symmetry_space_group_name_H-M "C 2/M"
_symmetry_group_IT_number 12
_symmetry_cell_setting 'monoclinic'
loop_
_space_group_symop_operation_xyz
x,y,z
-x,y,-z
-x,-y,-z
x,-y,z
1/2+x,1/2+y,z
1/2-x,1/2+y,-z
1/2-x,1/2-y,-z
1/2+x,1/2-y,z
loop_
_atom_site_type_symbol
_atom_site_label
_atom_site_fract_x
_atom_site_fract_y
_atom_site_fract_z
Si Si1 0.828119 0.000000 0.846725
Si Si2 0.694406 0.401274 0.069155
Si Si3 0.769155 0.840500 0.280951
Si Si4 0.977657 0.703242 0.353773
Si Si5 0.385049 0.500000 0.421009
Si Si6 0.562267 0.406657 0.756871
Si Si7 0.843467 0.746450 0.251516
Si Si8 0.124867 0.344665 0.956603
O O1 0.778185 0.045936 0.972347
O O2 0.820311 0.000000 0.662876
O O3 0.970635 0.000000 0.720000
O O4 0.549517 0.398894 0.240096
O O5 0.726562 0.374001 0.873289
O O6 0.772314 0.380843 0.128265
O O7 0.638993 0.827676 0.490465
O O8 0.849629 0.864715 0.326783
O O9 0.829680 0.792589 0.173275
O O10 0.962853 0.737651 0.223176
O O11 0.000000 0.725481 0.500000
O O12 0.080917 0.670860 0.180607
O O13 0.365833 0.452298 0.357429
O O14 0.500000 0.412055 0.000000
O O15 0.750000 0.750000 0.500000
O O16 0.823280 0.700348 0.180717
O O17 0.000000 0.356684 0.000000
#
# Coordination Sequence:
#
# PCOD9189168 Si02
#       8
#     4   8   8   8   4   8   8   8
#     4   9  20  34  55  81 115 146 192 242 284 359
#     4  10  20  37  58  85 113 151 192 241 301 343
#     4  10  20  37  58  86 120 144 198 241 280 346
#     4  10  19  37  59  81 114 162 194 229 285 343
#     4   9  17  34  54  78 117 150 185 228 303 358
#     4   9  19  33  57  85 113 146 186 245 294 349
#     4   9  21  38  54  84 120 147 197 243 274 339
#     4  10  21  37  62  82 115 161 197 231 289 349
#
# _framework density 20.049140000000001
#
# number of rings (size 3 to 8) (size 9 to 14) (size 15 to 20)
#    0.000    2.429    1.429    0.214    0.000   10.857 
#    5.143    0.357    0.000    2.571    0.000    0.000 
#    0.000    0.000    0.000    0.000    0.000    0.000 
#
# Total GULP energy -155916.709370 kJ/mol
# GULP energy per Si atom -5568.453906 kJ/mol
# Density = 2.000351 g / cm^3
# Si number density = 20.049140 Si / 1000 Ang^3
#
#
#
# Elastic Constant Matrix: (Units=GPa)
#
#
# Indices 1 2 3 4 5 6 
#
# 1 73.0789 59.1675 15.5219 0.0000 0.2202 0.0000
# 2 59.1675 156.6582 34.4428 0.0000 -1.9363 0.0000
# 3 15.5219 34.4428 46.4232 0.0000 2.0060 0.0000
# 4 0.0000 0.0000 0.0000 20.2046 0.0000 9.9056
# 5 0.2202 -1.9363 2.0060 0.0000 24.6391 0.0000
# 6 0.0000 0.0000 0.0000 9.9056 0.0000 26.9063
#
#
#
# Elastic Compliance Matrix: (Units=1/GPa)
#
#
# Indices 1 2 3 4 5 6 
#
# 1 0.019785 -0.007208 -0.001240 0.000000 -0.000642 0.000000
# 2 -0.007208 0.010281 -0.005274 0.000000 0.001302 0.000000
# 3 -0.001240 -0.005274 0.025977 0.000000 -0.002518 0.000000
# 4 0.000000 0.000000 0.000000 0.060394 0.000000 -0.022234
# 5 -0.000642 0.001302 -0.002518 0.000000 0.040899 0.000000
# 6 0.000000 0.000000 0.000000 -0.022234 0.000000 0.045352
#
#
# Mechanical properties :
#
#
# Convention : Reuss Voigt Hill
#
# Bulk Modulus (GPa) = 34.96513 54.93609 44.95061
# Shear Modulus (GPa) = 20.86241 25.48522 23.17382
#
# Velocity S-wave (km/s) = 3.22928 3.56917 3.40347
# Velocity P-wave (km/s) = 5.60195 6.66675 6.15741
#
# Compressibility (1/GPa) = 0.02859992
#
# Stress axis : x y z
#
# Youngs Moduli (GPa) = 50.54378 97.26397 38.49488
#
# Poissons Ratio (x) = 0.70106 0.04772
# Poissons Ratio (y) = 0.36431 0.20303
# Poissons Ratio (z) = 0.06266 0.51300
#
# Static dielectric constant tensor:
#      x y z
#    x 1.843840 0.000000 -0.013410 
#    y 0.000000 1.729780 0.000000 
#    z -0.013410 0.000000 1.768770 
# 
# From -- ./inp_files/68163.got.cif
#   From: 2010.05.17/outbox.cif.g08.bks.cpg/sg12_35_cif.got.tgz:68163.got - 2010.06.03 13:09:07.
