data_PCOD9189635
_publ_section_title
;
Structure prediction by ZEFSAII (Michael W. Deem and Ramdas Pophale) SiO2 
 PCOD9189635
Probable space group: C 2/M
;
_chemical_formula_sum "Si O2"
_cell_formula_units_Z 60
_cell_length_a 22.979675
_cell_length_b 18.604330
_cell_length_c 16.393720
_cell_angle_alpha 90.000000
_cell_angle_beta 151.603885
_cell_angle_gamma 90.000000
_cell_volume 3333.073684
_symmetry_space_group_name_H-M "C 2/M"
_symmetry_group_IT_number 12
_symmetry_cell_setting 'monoclinic'
loop_
_space_group_symop_operation_xyz
x,y,z
-x,y,-z
-x,-y,-z
x,-y,z
1/2+x,1/2+y,z
1/2-x,1/2+y,-z
1/2-x,1/2-y,-z
1/2+x,1/2-y,z
loop_
_atom_site_type_symbol
_atom_site_label
_atom_site_fract_x
_atom_site_fract_y
_atom_site_fract_z
Si Si1 0.273356 0.860746 0.994622
Si Si2 0.500000 0.183680 0.500000
Si Si3 0.275126 0.082213 0.175810
Si Si4 0.501648 0.415461 0.904276
Si Si5 0.157795 0.815670 0.405366
Si Si6 0.335223 0.913303 0.725093
Si Si7 0.888706 0.414092 0.970771
Si Si8 0.546651 0.264162 0.721629
O O1 0.275270 0.909886 0.077698
O O2 0.365569 0.796082 0.130630
O O3 0.321323 0.893019 0.969779
O O4 0.137336 0.830165 0.815445
O O5 0.379232 0.134462 0.339796
O O6 0.492089 0.231948 0.571254
O O7 0.302326 0.000000 0.232325
O O8 0.138919 0.099632 0.040188
O O9 0.473260 0.500000 0.848286
O O10 0.409002 0.357621 0.751041
O O11 0.500000 0.410154 0.000000
O O12 0.250000 0.750000 0.500000
O O13 0.233942 0.875991 0.546809
O O14 0.054470 0.785869 0.338316
O O15 0.327923 0.889851 0.810865
O O16 0.327006 0.000000 0.711081
O O17 0.469477 0.890851 0.857955
O O18 0.891931 0.500000 0.970229
#
# Coordination Sequence:
#
# PCOD9189635 Si02
#       8
#     8   4   8   8   8   8   8   8
#     4  10  19  38  58  82 116 153 191 235 300 352
#     4  10  23  38  58  86 121 154 192 244 298 358
#     4  10  20  39  64  87 113 151 201 249 297 354
#     4  10  23  44  65  85 117 160 201 252 305 355
#     4  12  24  40  59  92 119 156 207 244 299 362
#     4   9  20  39  60  86 120 154 193 249 296 349
#     4   9  18  36  61  87 112 148 196 238 296 356
#     4  10  23  37  54  82 121 155 186 240 295 354
#
# _framework density 18.001403
#
# number of rings (size 3 to 8) (size 9 to 14) (size 15 to 20)
#    0.000    2.000    1.333    2.600    3.733    0.000 
#    4.800    0.000    0.000    1.600    0.000    0.000 
#    0.000    0.000    0.000    0.000    0.000    0.000 
#
# Total GULP energy -167365.401910 kJ/mol
# GULP energy per Si atom -5578.846730 kJ/mol
# Density = 1.796043 g / cm^3
# Si number density = 18.001403 Si / 1000 Ang^3
#
#
#
# Elastic Constant Matrix: (Units=GPa)
#
#
# Indices 1 2 3 4 5 6 
#
# 1 137.6936 33.8681 59.7213 0.0000 1.8097 0.0000
# 2 33.8681 57.0955 49.4327 0.0000 -1.7957 0.0000
# 3 59.7213 49.4327 104.0601 0.0000 -7.1057 0.0000
# 4 0.0000 0.0000 0.0000 22.6801 0.0000 6.4559
# 5 1.8097 -1.7957 -7.1057 0.0000 22.5008 0.0000
# 6 0.0000 0.0000 0.0000 6.4559 0.0000 32.3632
#
#
#
# Elastic Compliance Matrix: (Units=1/GPa)
#
#
# Indices 1 2 3 4 5 6 
#
# 1 0.009894 -0.001499 -0.005139 0.000000 -0.002538 0.000000
# 2 -0.001499 0.030078 -0.013548 0.000000 -0.001757 0.000000
# 3 -0.005139 -0.013548 0.019367 0.000000 0.005448 0.000000
# 4 0.000000 0.000000 0.000000 0.046746 0.000000 -0.009325
# 5 -0.002538 -0.001757 0.005448 0.000000 0.046227 0.000000
# 6 0.000000 0.000000 0.000000 -0.009325 0.000000 0.032759
#
#
# Mechanical properties :
#
#
# Convention : Reuss Voigt Hill
#
# Bulk Modulus (GPa) = 52.72506 64.98817 58.85661
# Shear Modulus (GPa) = 21.57343 25.89728 23.73536
#
# Velocity S-wave (km/s) = 3.46559 3.79704 3.63509
# Velocity P-wave (km/s) = 6.73549 7.44335 7.09825
#
# Compressibility (1/GPa) = 0.01896631
#
# Stress axis : x y z
#
# Youngs Moduli (GPa) = 101.07527 33.24669 51.63360
#
# Poissons Ratio (x) = 0.04984 0.26536
# Poissons Ratio (y) = 0.15151 0.69953
# Poissons Ratio (z) = 0.51946 0.45043
#
# Static dielectric constant tensor:
#      x y z
#    x 1.612760 0.000000 0.003480 
#    y 0.000000 1.624820 0.000000 
#    z 0.003480 0.000000 1.604720 
# 
# From -- ./inp_files/235198.got.cif
#   From: 2010.05.17/outbox.cif.g08.bks.cpg/sg12_118_cif.got.tgz:235198.got - 2010.06.03 13:09:07.
