data_PCOD9189598
_publ_section_title
;
Structure prediction by ZEFSAII (Michael W. Deem and Ramdas Pophale) SiO2 
 PCOD9189598
Probable space group: C 2/M
;
_chemical_formula_sum "Si O2"
_cell_formula_units_Z 56
_cell_length_a 9.987338
_cell_length_b 17.142068
_cell_length_c 14.341797
_cell_angle_alpha 90.000000
_cell_angle_beta 63.597772
_cell_angle_gamma 90.000000
_cell_volume 2199.259239
_symmetry_space_group_name_H-M "C 2/M"
_symmetry_group_IT_number 12
_symmetry_cell_setting 'monoclinic'
loop_
_space_group_symop_operation_xyz
x,y,z
-x,y,-z
-x,-y,-z
x,-y,z
1/2+x,1/2+y,z
1/2-x,1/2+y,-z
1/2-x,1/2-y,-z
1/2+x,1/2-y,z
loop_
_atom_site_type_symbol
_atom_site_label
_atom_site_fract_x
_atom_site_fract_y
_atom_site_fract_z
Si Si1 0.017223 0.375047 0.886135
Si Si2 0.894769 0.792277 0.909000
Si Si3 0.732786 0.830659 0.287911
Si Si4 0.318504 0.660409 0.719961
Si Si5 0.192737 0.911181 0.917243
Si Si6 0.128744 0.907049 0.573665
Si Si7 0.559440 0.089457 0.589256
O O1 0.174490 0.393513 0.787187
O O2 0.008130 0.280089 0.884942
O O3 0.869698 0.409445 0.885739
O O4 0.000000 0.396933 0.000000
O O5 0.872383 0.812451 0.807540
O O6 0.750000 0.750000 0.000000
O O7 0.889877 0.872730 0.968885
O O8 0.732147 0.740403 0.312870
O O9 0.818274 0.854892 0.168325
O O10 0.807143 0.881135 0.345874
O O11 0.559807 0.854803 0.326356
O O12 0.461489 0.625774 0.622314
O O13 0.151320 0.000000 0.909677
O O14 0.268195 0.884247 0.463652
O O15 0.120140 0.000000 0.570213
O O16 0.500000 0.088750 0.500000
O O17 0.547939 0.000000 0.625750
#
# Coordination Sequence:
#
# PCOD9189598 Si02
#       7
#     8   8   8   8   8   8   8
#     4  11  20  38  57  76 112 160 196 232 290 354
#     4  10  19  38  53  80 109 153 191 239 291 338
#     4  11  20  37  65  90 120 150 199 251 296 356
#     4  12  22  36  63  86 119 159 200 243 297 356
#     4  11  22  36  59  90 114 151 205 248 292 352
#     4  10  23  41  62  91 122 155 199 248 305 360
#     4   8  16  35  61  87 119 156 189 241 309 358
#
# _framework density 25.463121000000001
#
# number of rings (size 3 to 8) (size 9 to 14) (size 15 to 20)
#    0.000    1.571    5.714    3.000    0.000    2.000 
#    0.000    0.000    0.000    3.000    0.000    3.000 
#    0.000    0.000    0.000    0.000    0.000    0.000 
#
# Total GULP energy -156696.775372 kJ/mol
# GULP energy per Si atom -5596.313406 kJ/mol
# Density = 2.540517 g / cm^3
# Si number density = 25.463121 Si / 1000 Ang^3
#
#
#
# Elastic Constant Matrix: (Units=GPa)
#
#
# Indices 1 2 3 4 5 6 
#
# 1 77.2952 6.4920 36.5344 0.0000 -34.1455 0.0000
# 2 6.4920 118.3173 37.8014 0.0000 -15.3722 0.0000
# 3 36.5344 37.8014 128.5268 0.0000 -62.5066 0.0000
# 4 0.0000 0.0000 0.0000 19.8052 0.0000 -8.3986
# 5 -34.1455 -15.3722 -62.5066 0.0000 69.7492 0.0000
# 6 0.0000 0.0000 0.0000 -8.3986 0.0000 29.6243
#
#
#
# Elastic Compliance Matrix: (Units=1/GPa)
#
#
# Indices 1 2 3 4 5 6 
#
# 1 0.016664 0.000467 -0.001519 0.000000 0.006900 0.000000
# 2 0.000467 0.009362 -0.003140 0.000000 -0.000522 0.000000
# 3 -0.001519 -0.003140 0.014956 0.000000 0.011967 0.000000
# 4 0.000000 0.000000 0.000000 0.057391 0.000000 0.016271
# 5 0.006900 -0.000522 0.011967 0.000000 0.028324 0.000000
# 6 0.000000 0.000000 0.000000 0.016271 0.000000 0.038369
#
#
# Mechanical properties :
#
#
# Convention : Reuss Voigt Hill
#
# Bulk Modulus (GPa) = 30.67621 53.97719 42.32670
# Shear Modulus (GPa) = 27.12742 40.05651 33.59197
#
# Velocity S-wave (km/s) = 3.26753 3.97056 3.63607
# Velocity P-wave (km/s) = 5.12924 6.50113 5.85550
#
# Compressibility (1/GPa) = 0.03259856
#
# Stress axis : x y z
#
# Youngs Moduli (GPa) = 60.00951 106.81910 66.86374
#
# Poissons Ratio (x) = -0.04992 0.10154
# Poissons Ratio (y) = -0.02804 0.20996
# Poissons Ratio (z) = 0.09113 0.33542
#
# Static dielectric constant tensor:
#      x y z
#    x 2.141860 0.000000 -0.048770 
#    y 0.000000 1.924580 0.000000 
#    z -0.048770 0.000000 2.071170 
# 
# From -- ./inp_files/264175.got.cif
#   From: 2010.05.17/outbox.cif.g08.bks.cpg/sg12_133_cif.got.tgz:264175.got - 2010.06.03 13:09:07.
