data_PCOD9189498
_publ_section_title
;
Structure prediction by ZEFSAII (Michael W. Deem and Ramdas Pophale) SiO2 
 PCOD9189498
Probable space group: C 2/M
;
_chemical_formula_sum "Si O2"
_cell_formula_units_Z 56
_cell_length_a 19.508275
_cell_length_b 9.269191
_cell_length_c 13.930758
_cell_angle_alpha 90.000000
_cell_angle_beta 75.876975
_cell_angle_gamma 90.000000
_cell_volume 2442.901754
_symmetry_space_group_name_H-M "C 2/M"
_symmetry_group_IT_number 12
_symmetry_cell_setting 'monoclinic'
loop_
_space_group_symop_operation_xyz
x,y,z
-x,y,-z
-x,-y,-z
x,-y,z
1/2+x,1/2+y,z
1/2-x,1/2+y,-z
1/2-x,1/2-y,-z
1/2+x,1/2-y,z
loop_
_atom_site_type_symbol
_atom_site_label
_atom_site_fract_x
_atom_site_fract_y
_atom_site_fract_z
Si Si1 0.102030 0.667547 0.331237
Si Si2 0.320840 0.333662 0.082085
Si Si3 0.959079 0.832933 0.381401
Si Si4 0.240604 0.166551 0.269881
Si Si5 0.031813 0.159933 0.853062
Si Si6 0.603901 0.164306 0.098672
Si Si7 0.682590 0.833126 0.563489
O O1 0.098103 0.500000 0.361359
O O2 0.174167 0.746367 0.335139
O O3 0.105937 0.671110 0.213178
O O4 0.032244 0.755635 0.383897
O O5 0.297997 0.500000 0.081870
O O6 0.267075 0.243162 0.164844
O O7 0.394892 0.329301 0.116022
O O8 0.339232 0.262984 0.974257
O O9 0.956664 0.831581 0.265379
O O10 0.890494 0.744201 0.436442
O O11 0.956378 0.000000 0.412658
O O12 0.303541 0.169516 0.326314
O O13 0.220449 0.000000 0.260612
O O14 0.973941 0.277255 0.900513
O O15 0.000886 0.000000 0.883011
O O16 0.613611 0.000000 0.064152
O O17 0.750000 0.750000 0.500000
O O18 0.682720 0.000000 0.533518
#
# Coordination Sequence:
#
# PCOD9189498 Si02
#       7
#     8   8   8   8   8   8   8
#     4  10  22  40  61  86 122 165 206 246 295 353
#     4  11  21  34  54  81 116 158 203 249 299 352
#     4  10  19  37  64  91 122 159 198 243 296 354
#     4  11  24  41  62  89 120 156 199 248 300 354
#     4   9  18  32  52  80 114 154 199 244 294 350
#     4  10  21  34  51  80 116 158 204 250 295 343
#     4  11  24  42  67  97 125 152 190 241 298 360
#
# _framework density 22.923556999999999
#
# number of rings (size 3 to 8) (size 9 to 14) (size 15 to 20)
#    0.000    1.714    1.429    3.000    0.000    7.429 
#    0.000    0.714    0.000    4.286    0.000    0.000 
#    0.000    0.000    0.000    0.000    0.000    0.000 
#
# Total GULP energy -156803.067317 kJ/mol
# GULP energy per Si atom -5600.109547 kJ/mol
# Density = 2.287138 g / cm^3
# Si number density = 22.923557 Si / 1000 Ang^3
#
#
#
# Elastic Constant Matrix: (Units=GPa)
#
#
# Indices 1 2 3 4 5 6 
#
# 1 123.3836 67.5828 21.9229 0.0000 -16.2223 0.0000
# 2 67.5828 201.9282 49.0345 0.0000 -29.6604 0.0000
# 3 21.9229 49.0345 87.8898 0.0000 -12.3821 0.0000
# 4 0.0000 0.0000 0.0000 29.9969 0.0000 -13.6487
# 5 -16.2223 -29.6604 -12.3821 0.0000 43.7264 0.0000
# 6 0.0000 0.0000 0.0000 -13.6487 0.0000 31.2516
#
#
#
# Elastic Compliance Matrix: (Units=1/GPa)
#
#
# Indices 1 2 3 4 5 6 
#
# 1 0.010054 -0.002989 -0.000625 0.000000 0.001525 0.000000
# 2 -0.002989 0.007052 -0.002782 0.000000 0.002887 0.000000
# 3 -0.000625 -0.002782 0.013319 0.000000 0.001652 0.000000
# 4 0.000000 0.000000 0.000000 0.041604 0.000000 0.018170
# 5 0.001525 0.002887 0.001652 0.000000 0.025861 0.000000
# 6 0.000000 0.000000 0.000000 0.018170 0.000000 0.039934
#
#
# Mechanical properties :
#
#
# Convention : Reuss Voigt Hill
#
# Bulk Modulus (GPa) = 56.71568 76.69801 66.70685
# Shear Modulus (GPa) = 31.94994 39.30574 35.62784
#
# Velocity S-wave (km/s) = 3.73736 4.14532 3.94661
# Velocity P-wave (km/s) = 6.58929 7.51281 7.06616
#
# Compressibility (1/GPa) = 0.01763181
#
# Stress axis : x y z
#
# Youngs Moduli (GPa) = 99.46659 141.79801 75.08136
#
# Poissons Ratio (x) = 0.42382 0.04695
# Poissons Ratio (y) = 0.29730 0.20890
# Poissons Ratio (z) = 0.06220 0.39452
#
# Static dielectric constant tensor:
#      x y z
#    x 1.845690 0.000000 0.053000 
#    y 0.000000 1.788380 0.000000 
#    z 0.053000 0.000000 1.864350 
# 
# From -- ./inp_files/280978.got.cif
#   From: 2010.05.17/outbox.cif.g08.bks.cpg/sg12_141_cif.got.tgz:280978.got - 2010.06.03 13:09:07.
