data_PCOD9189231
_publ_section_title
;
Structure prediction by ZEFSAII (Michael W. Deem and Ramdas Pophale) SiO2 
 PCOD9189231
Probable space group: C 2/M
;
_chemical_formula_sum "Si O2"
_cell_formula_units_Z 48
_cell_length_a 16.589642
_cell_length_b 15.159387
_cell_length_c 10.907045
_cell_angle_alpha 90.000000
_cell_angle_beta 77.156075
_cell_angle_gamma 90.000000
_cell_volume 2674.367704
_symmetry_space_group_name_H-M "C 2/M"
_symmetry_group_IT_number 12
_symmetry_cell_setting 'monoclinic'
loop_
_space_group_symop_operation_xyz
x,y,z
-x,y,-z
-x,-y,-z
x,-y,z
1/2+x,1/2+y,z
1/2-x,1/2+y,-z
1/2-x,1/2-y,-z
1/2+x,1/2-y,z
loop_
_atom_site_type_symbol
_atom_site_label
_atom_site_fract_x
_atom_site_fract_y
_atom_site_fract_z
Si Si1 0.775087 0.601167 0.669055
Si Si2 0.427166 0.344997 0.857577
Si Si3 0.110753 0.894029 0.852054
Si Si4 0.326307 0.500000 0.774770
Si Si5 0.720696 0.000000 0.568406
Si Si6 0.551950 0.000000 0.774521
Si Si7 0.091650 0.640930 0.194216
Si Si8 0.658358 0.000000 0.985425
O O1 0.779389 0.500000 0.715555
O O2 0.691846 0.640637 0.754605
O O3 0.770562 0.584325 0.525379
O O4 0.857989 0.641501 0.695299
O O5 0.524695 0.365071 0.821776
O O6 0.379676 0.412584 0.784736
O O7 0.417442 0.241773 0.838784
O O8 0.393518 0.365666 0.005344
O O9 0.111709 0.000000 0.848365
O O10 0.288090 0.500000 0.652067
O O11 0.247957 0.500000 0.893663
O O12 0.630190 0.000000 0.658413
O O13 0.493334 0.914970 0.772506
O O14 0.590375 0.000000 0.898786
O O15 0.143941 0.585817 0.075095
#
# Coordination Sequence:
#
# PCOD9189231 Si02
#       8
#     8   8   8   4   4   4   8   4
#     4   9  19  38  63  80 104 154 201 230 286 329
#     4  11  22  34  59  91 123 148 183 234 300 349
#     4  10  19  37  60  85 117 152 188 235 283 353
#     4  11  21  39  56  85 117 152 200 235 285 338
#     4   9  21  41  67  74 110 164 195 251 281 314
#     4  10  21  37  59  85 118 151 194 236 288 342
#     4  11  21  36  59  89 118 149 187 239 293 357
#     4  10  21  34  56  86 120 149 186 239 294 351
#
# _framework density 17.948167000000002
#
# number of rings (size 3 to 8) (size 9 to 14) (size 15 to 20)
#    0.500    1.333    3.333    2.500    4.667    4.000 
#    3.000    2.500    3.667    0.000    0.000    0.000 
#    0.000    0.000    0.000    0.000    0.000    0.000 
#
# Total GULP energy -133761.033852 kJ/mol
# GULP energy per Si atom -5573.376410 kJ/mol
# Density = 1.790732 g / cm^3
# Si number density = 17.948167 Si / 1000 Ang^3
#
#
#
# Elastic Constant Matrix: (Units=GPa)
#
#
# Indices 1 2 3 4 5 6 
#
# 1 100.1935 42.4372 51.2418 0.0000 29.3500 0.0000
# 2 42.4372 119.1401 20.9919 0.0000 19.1701 0.0000
# 3 51.2418 20.9919 72.6729 0.0000 20.5184 0.0000
# 4 0.0000 0.0000 0.0000 -9.2576 0.0000 -4.5251
# 5 29.3500 19.1701 20.5184 0.0000 25.2598 0.0000
# 6 0.0000 0.0000 0.0000 -4.5251 0.0000 -4.6610
#
#
#
# Elastic Compliance Matrix: (Units=1/GPa)
#
#
# Indices 1 2 3 4 5 6 
#
# 1 0.020105 -0.003383 -0.009509 0.000000 -0.013069 0.000000
# 2 -0.003383 0.010178 0.000670 0.000000 -0.004338 0.000000
# 3 -0.009509 0.000670 0.022443 0.000000 -0.007690 0.000000
# 4 0.000000 0.000000 0.000000 -0.205569 0.000000 0.199573
# 5 -0.013069 -0.004338 -0.007690 0.000000 0.064313 0.000000
# 6 0.000000 0.000000 0.000000 0.199573 0.000000 -0.408297
#
#
# Mechanical properties :
#
#
# Convention : Reuss Voigt Hill
#
# Bulk Modulus (GPa) = 35.35778 57.92761 46.64269
# Shear Modulus (GPa) = -10.80016 14.09061 1.64523
#
# Velocity S-wave (km/s) = -2.45570 2.80495 0.95846
# Velocity P-wave (km/s) = 3.42083 6.54487 5.22195
#
# Compressibility (1/GPa) = 0.02828232
#
# Stress axis : x y z
#
# Youngs Moduli (GPa) = 49.73853 98.24675 44.55794
#
# Poissons Ratio (x) = 0.33237 0.42370
# Poissons Ratio (y) = 0.16827 -0.02986
# Poissons Ratio (z) = 0.47297 -0.06584
#
# Static dielectric constant tensor:
#      x y z
#    x 1.640540 0.000000 0.001780 
#    y 0.000000 1.594950 0.000000 
#    z 0.001780 0.000000 1.616790 
# 
# From -- ./inp_files/142947.got.cif
#   From: 2010.05.17/outbox.cif.g08.bks.cpg/sg12_72_cif.got.tgz:142947.got - 2010.06.03 13:09:07.
