data_PCOD9189404
_publ_section_title
;
Structure prediction by ZEFSAII (Michael W. Deem and Ramdas Pophale) SiO2 
 PCOD9189404
Probable space group: C 2/M
;
_chemical_formula_sum "Si O2"
_cell_formula_units_Z 48
_cell_length_a 16.246353
_cell_length_b 28.160560
_cell_length_c 5.187276
_cell_angle_alpha 90.000000
_cell_angle_beta 120.054442
_cell_angle_gamma 90.000000
_cell_volume 2054.133415
_symmetry_space_group_name_H-M "C 2/M"
_symmetry_group_IT_number 12
_symmetry_cell_setting 'monoclinic'
loop_
_space_group_symop_operation_xyz
x,y,z
-x,y,-z
-x,-y,-z
x,-y,z
1/2+x,1/2+y,z
1/2-x,1/2+y,-z
1/2-x,1/2-y,-z
1/2+x,1/2-y,z
loop_
_atom_site_type_symbol
_atom_site_label
_atom_site_fract_x
_atom_site_fract_y
_atom_site_fract_z
Si Si1 0.600931 0.744818 0.135347
Si Si2 0.261181 0.307149 0.296067
Si Si3 0.274522 0.091762 0.620218
Si Si4 0.887877 0.948031 0.263160
Si Si5 0.908078 0.851310 0.167049
Si Si6 0.387783 0.056866 0.291504
O O1 0.663269 0.731719 0.482247
O O2 0.668927 0.777965 0.076176
O O3 0.500000 0.769347 0.000000
O O4 0.579561 0.692642 0.996732
O O5 0.237321 0.351313 0.447695
O O6 0.313203 0.335697 0.159618
O O7 0.177071 0.068810 0.594525
O O8 0.323452 0.069413 0.442556
O O9 0.346160 0.082970 0.973991
O O10 0.888616 0.905287 0.056003
O O11 0.000000 0.952033 0.500000
O O12 0.854576 0.000000 0.125538
O O13 0.000000 0.851993 0.500000
O O14 0.500000 0.068594 0.500000
O O15 0.381866 0.000000 0.239768
#
# Coordination Sequence:
#
# PCOD9189404 Si02
#       6
#     8   8   8   8   8   8
#     4  11  22  40  64  88 123 168 219 269 332 402
#     4  10  24  40  61  91 125 169 217 270 334 395
#     4  11  24  43  68 101 138 177 222 283 337 398
#     4   9  19  37  62  95 135 176 221 271 328 398
#     4  10  19  37  62  89 123 168 213 269 333 393
#     4  11  24  44  71  99 134 179 226 277 340 405
#
# _framework density 23.367519000000001
#
# number of rings (size 3 to 8) (size 9 to 14) (size 15 to 20)
#    0.000    1.667    1.667    2.500    4.667    2.667 
#    0.000    1.667    0.000    3.500    0.000    0.000 
#    0.000    0.000    0.000    0.000    0.000    0.000 
#
# Total GULP energy -133830.951817 kJ/mol
# GULP energy per Si atom -5576.289659 kJ/mol
# Density = 2.331433 g / cm^3
# Si number density = 23.367519 Si / 1000 Ang^3
#
#
#
# Elastic Constant Matrix: (Units=GPa)
#
#
# Indices 1 2 3 4 5 6 
#
# 1 123.3165 50.9209 45.7726 0.0000 37.1635 0.0000
# 2 50.9209 119.8935 17.4046 0.0000 12.9764 0.0000
# 3 45.7726 17.4046 86.0721 0.0000 16.8009 0.0000
# 4 0.0000 0.0000 0.0000 60.6467 0.0000 17.7753
# 5 37.1635 12.9764 16.8009 0.0000 38.9416 0.0000
# 6 0.0000 0.0000 0.0000 17.7753 0.0000 69.9581
#
#
#
# Elastic Compliance Matrix: (Units=1/GPa)
#
#
# Indices 1 2 3 4 5 6 
#
# 1 0.015055 -0.004509 -0.005005 0.000000 -0.010706 0.000000
# 2 -0.004509 0.010138 0.000183 0.000000 0.000846 0.000000
# 3 -0.005005 0.000183 0.014547 0.000000 -0.001561 0.000000
# 4 0.000000 0.000000 0.000000 0.017816 0.000000 -0.004527
# 5 -0.010706 0.000846 -0.001561 0.000000 0.036288 0.000000
# 6 0.000000 0.000000 0.000000 -0.004527 0.000000 0.015444
#
#
# Mechanical properties :
#
#
# Convention : Reuss Voigt Hill
#
# Bulk Modulus (GPa) = 47.44194 61.94201 54.69197
# Shear Modulus (GPa) = 37.04347 48.25488 42.64917
#
# Velocity S-wave (km/s) = 3.98585 4.54920 4.27681
# Velocity P-wave (km/s) = 6.44432 7.35928 6.91694
#
# Compressibility (1/GPa) = 0.02107840
#
# Stress axis : x y z
#
# Youngs Moduli (GPa) = 66.42227 98.64205 68.74080
#
# Poissons Ratio (x) = 0.44477 0.34403
# Poissons Ratio (y) = 0.29949 -0.01256
# Poissons Ratio (z) = 0.33243 -0.01803
#
# Static dielectric constant tensor:
#      x y z
#    x 2.031550 0.000000 0.067790 
#    y 0.000000 1.912510 0.000000 
#    z 0.067790 0.000000 2.031830 
# 
# From -- ./inp_files/13223.got.cif
#   From: 2010.05.17/outbox.cif.g08.bks.cpg/sg12_7_cif.got.tgz:13223.got - 2010.06.03 13:09:07.
