data_PCOD9189222
_publ_section_title
;
Structure prediction by ZEFSAII (Michael W. Deem and Ramdas Pophale) SiO2 
 PCOD9189222
Probable space group: C 2/M
;
_chemical_formula_sum "Si O2"
_cell_formula_units_Z 56
_cell_length_a 20.845973
_cell_length_b 8.984558
_cell_length_c 22.659072
_cell_angle_alpha 90.000000
_cell_angle_beta 131.561549
_cell_angle_gamma 90.000000
_cell_volume 3175.440273
_symmetry_space_group_name_H-M "C 2/M"
_symmetry_group_IT_number 12
_symmetry_cell_setting 'monoclinic'
loop_
_space_group_symop_operation_xyz
x,y,z
-x,y,-z
-x,-y,-z
x,-y,z
1/2+x,1/2+y,z
1/2-x,1/2+y,-z
1/2-x,1/2-y,-z
1/2+x,1/2-y,z
loop_
_atom_site_type_symbol
_atom_site_label
_atom_site_fract_x
_atom_site_fract_y
_atom_site_fract_z
Si Si1 0.818397 0.821741 0.997060
Si Si2 0.822092 0.322072 0.753161
Si Si3 0.949982 0.321559 0.272610
Si Si4 0.254301 0.822576 0.408636
Si Si5 0.980477 0.321493 0.153827
Si Si6 0.752187 0.321381 0.175146
Si Si7 0.615095 0.677156 0.425667
O O1 0.911317 0.761143 0.071510
O O2 0.814801 0.000000 0.000578
O O3 0.750000 0.750000 0.000000
O O4 0.792100 0.783258 0.914165
O O5 0.813806 0.500000 0.745292
O O6 0.767797 0.249068 0.667327
O O7 0.790620 0.260993 0.796394
O O8 0.922126 0.284734 0.803558
O O9 0.961522 0.500000 0.284597
O O10 0.963646 0.282452 0.212059
O O11 0.853078 0.285015 0.231627
O O12 0.021702 0.240740 0.354917
O O13 0.337965 0.753924 0.490608
O O14 0.175490 0.789895 0.405561
O O15 0.262523 0.000000 0.408699
O O16 0.968511 0.500000 0.140938
O O17 0.745054 0.500000 0.178784
O O18 0.613283 0.500000 0.432529
#
# Coordination Sequence:
#
# PCOD9189222 Si02
#       7
#     8   8   8   8   8   8   8
#     4  11  22  38  61  88 117 152 195 244 291 340
#     4  11  23  39  60  86 119 155 191 241 292 341
#     4  10  19  37  60  83 116 154 193 238 288 344
#     4  10  20  35  57  85 119 156 191 233 289 347
#     4  10  21  38  60  86 117 152 194 240 290 343
#     4  10  23  41  59  82 117 157 192 234 292 352
#     4  10  20  33  56  90 119 147 193 243 285 335
#
# _framework density 17.635351
#
# number of rings (size 3 to 8) (size 9 to 14) (size 15 to 20)
#    0.000    1.714    2.857    1.714    0.000    5.143 
#    0.000    3.571    0.000    4.286    0.000    0.000 
#    0.000    0.000    0.000    0.000    0.000    0.000 
#
# Total GULP energy -156430.345735 kJ/mol
# GULP energy per Si atom -5586.798062 kJ/mol
# Density = 1.759521 g / cm^3
# Si number density = 17.635351 Si / 1000 Ang^3
#
#
#
# Elastic Constant Matrix: (Units=GPa)
#
#
# Indices 1 2 3 4 5 6 
#
# 1 107.2597 47.7916 68.2943 0.0000 -7.9606 0.0000
# 2 47.7916 44.8640 65.4171 0.0000 -3.4428 0.0000
# 3 68.2943 65.4171 168.1752 0.0000 0.6305 0.0000
# 4 0.0000 0.0000 0.0000 38.5552 0.0000 1.4526
# 5 -7.9606 -3.4428 0.6305 0.0000 27.8074 0.0000
# 6 0.0000 0.0000 0.0000 1.4526 0.0000 30.9610
#
#
#
# Elastic Compliance Matrix: (Units=1/GPa)
#
#
# Indices 1 2 3 4 5 6 
#
# 1 0.017961 -0.019107 0.000128 0.000000 0.002773 0.000000
# 2 -0.019107 0.073155 -0.020712 0.000000 0.004057 0.000000
# 3 0.000128 -0.020712 0.013962 0.000000 -0.002844 0.000000
# 4 0.000000 0.000000 0.000000 0.025983 0.000000 -0.001219
# 5 0.002773 0.004057 -0.002844 0.000000 0.037322 0.000000
# 6 0.000000 0.000000 0.000000 -0.001219 0.000000 0.032356
#
#
# Mechanical properties :
#
#
# Convention : Reuss Voigt Hill
#
# Bulk Modulus (GPa) = 38.91678 75.92276 57.41977
# Shear Modulus (GPa) = 17.31985 28.71779 23.01882
#
# Velocity S-wave (km/s) = 3.13726 4.03975 3.61677
# Velocity P-wave (km/s) = 5.93621 8.05632 7.07612
#
# Compressibility (1/GPa) = 0.02569586
#
# Stress axis : x y z
#
# Youngs Moduli (GPa) = 55.67679 13.66952 71.62527
#
# Poissons Ratio (x) = 0.26118 -0.00917
# Poissons Ratio (y) = 1.06380 1.48353
# Poissons Ratio (z) = -0.00713 0.28313
#
# Static dielectric constant tensor:
#      x y z
#    x 1.580690 0.000000 0.004120 
#    y 0.000000 1.586220 0.000000 
#    z 0.004120 0.000000 1.574840 
# 
# From -- ./inp_files/320239.got.cif
#   From: 2010.05.17/outbox.cif.g08.bks.cpg/sg12_161_cif.got.tgz:320239.got - 2010.06.03 13:09:07.
