data_PCOD9189786
_publ_section_title
;
Structure prediction by ZEFSAII (Michael W. Deem and Ramdas Pophale) SiO2 
 PCOD9189786
Probable space group: C 2/M
;
_chemical_formula_sum "Si O2"
_cell_formula_units_Z 56
_cell_length_a 28.458146
_cell_length_b 16.557414
_cell_length_c 5.267267
_cell_angle_alpha 90.000000
_cell_angle_beta 85.344859
_cell_angle_gamma 90.000000
_cell_volume 2473.713736
_symmetry_space_group_name_H-M "C 2/M"
_symmetry_group_IT_number 12
_symmetry_cell_setting 'monoclinic'
loop_
_space_group_symop_operation_xyz
x,y,z
-x,y,-z
-x,-y,-z
x,-y,z
1/2+x,1/2+y,z
1/2-x,1/2+y,-z
1/2-x,1/2-y,-z
1/2+x,1/2-y,z
loop_
_atom_site_type_symbol
_atom_site_label
_atom_site_fract_x
_atom_site_fract_y
_atom_site_fract_z
Si Si1 0.674938 0.409106 0.597120
Si Si2 0.071909 0.090267 0.911834
Si Si3 0.243889 0.304737 0.249013
Si Si4 0.909937 0.408824 0.311932
Si Si5 0.140878 0.644611 0.147361
Si Si6 0.120089 0.813800 0.271128
Si Si7 0.043687 0.248922 0.670606
O O1 0.686701 0.500000 0.520625
O O2 0.623481 0.409340 0.753731
O O3 0.714582 0.370267 0.751766
O O4 0.666938 0.353430 0.355563
O O5 0.041510 0.166282 0.832038
O O6 0.052538 0.000000 0.892983
O O7 0.086456 0.114914 0.189605
O O8 0.250000 0.250000 0.500000
O O9 0.193489 0.348624 0.237097
O O10 0.250000 0.250000 0.000000
O O11 0.928760 0.500000 0.295790
O O12 0.890310 0.391950 0.606890
O O13 0.947840 0.338413 0.223174
O O14 0.869631 0.400703 0.111350
O O15 0.129116 0.739245 0.081446
O O16 0.092090 0.768021 0.501470
O O17 0.000000 0.251843 0.500000
#
# Coordination Sequence:
#
# PCOD9189786 Si02
#       7
#     8   8   8   8   8   8   8
#     4  10  22  37  58  91 123 164 212 263 309 371
#     4  10  20  38  63  90 124 165 211 256 319 390
#     4  12  24  39  64  93 129 171 217 262 313 371
#     4  11  24  44  68  94 129 173 219 268 324 385
#     4  11  22  41  67  93 127 173 218 263 320 382
#     4  10  19  38  63  85 124 164 208 255 318 388
#     4  10  23  40  62  92 125 162 208 265 327 389
#
# _framework density 22.638027000000001
#
# number of rings (size 3 to 8) (size 9 to 14) (size 15 to 20)
#    0.000    1.429    2.857    2.571    2.000    2.857 
#    0.000    0.714    0.000    2.571    0.000    0.000 
#    0.000    0.000    0.000    0.000    0.000    0.000 
#
# Total GULP energy -156189.234966 kJ/mol
# GULP energy per Si atom -5578.186963 kJ/mol
# Density = 2.258650 g / cm^3
# Si number density = 22.638027 Si / 1000 Ang^3
#
#
#
# Elastic Constant Matrix: (Units=GPa)
#
#
# Indices 1 2 3 4 5 6 
#
# 1 79.5701 55.5123 8.9246 0.0000 25.0875 0.0000
# 2 55.5123 200.7826 30.8259 0.0000 21.1626 0.0000
# 3 8.9246 30.8259 80.1931 0.0000 16.7491 0.0000
# 4 0.0000 0.0000 0.0000 -88.4190 0.0000 -43.0098
# 5 25.0875 21.1626 16.7491 0.0000 37.0414 0.0000
# 6 0.0000 0.0000 0.0000 -43.0098 0.0000 -39.8273
#
#
#
# Elastic Compliance Matrix: (Units=1/GPa)
#
#
# Indices 1 2 3 4 5 6 
#
# 1 0.018910 -0.004341 0.001901 0.000000 -0.011187 0.000000
# 2 -0.004341 0.006477 -0.002040 0.000000 0.000162 0.000000
# 3 0.001901 -0.002040 0.014431 0.000000 -0.006647 0.000000
# 4 0.000000 0.000000 0.000000 -0.023825 0.000000 0.025729
# 5 -0.011187 0.000162 -0.006647 0.000000 0.037486 0.000000
# 6 0.000000 0.000000 0.000000 0.025729 0.000000 -0.052893
#
#
# Mechanical properties :
#
#
# Convention : Reuss Voigt Hill
#
# Bulk Modulus (GPa) = 32.40847 61.23017 46.81932
# Shear Modulus (GPa) = 252.11711 -0.55546 125.78083
#
# Velocity S-wave (km/s) = 10.56459 -0.49588 7.46206
# Velocity P-wave (km/s) = 12.77346 5.17478 9.74524
#
# Compressibility (1/GPa) = 0.03085613
#
# Stress axis : x y z
#
# Youngs Moduli (GPa) = 52.88256 154.39610 69.29529
#
# Poissons Ratio (x) = 0.67022 -0.13170
# Poissons Ratio (y) = 0.22956 0.14140
# Poissons Ratio (z) = -0.10051 0.31504
#
# Static dielectric constant tensor:
#      x y z
#    x 1.785660 0.000000 0.014750 
#    y 0.000000 1.869470 0.000000 
#    z 0.014750 0.000000 1.912080 
# 
# From -- ./inp_files/31520.got.cif
#   From: 2010.05.17/outbox.cif.g08.bks.cpg/sg12_16_cif.got.tgz:31520.got - 2010.06.03 13:09:07.
