data_PCOD9189092
_publ_section_title
;
Structure prediction by ZEFSAII (Michael W. Deem and Ramdas Pophale) SiO2 
 PCOD9189092
Probable space group: C 2/M
;
_chemical_formula_sum "Si O2"
_cell_formula_units_Z 56
_cell_length_a 25.149642
_cell_length_b 19.623454
_cell_length_c 18.524894
_cell_angle_alpha 90.000000
_cell_angle_beta 19.861335
_cell_angle_gamma 90.000000
_cell_volume 3106.103933
_symmetry_space_group_name_H-M "C 2/M"
_symmetry_group_IT_number 12
_symmetry_cell_setting 'monoclinic'
loop_
_space_group_symop_operation_xyz
x,y,z
-x,y,-z
-x,-y,-z
x,-y,z
1/2+x,1/2+y,z
1/2-x,1/2+y,-z
1/2-x,1/2-y,-z
1/2+x,1/2-y,z
loop_
_atom_site_type_symbol
_atom_site_label
_atom_site_fract_x
_atom_site_fract_y
_atom_site_fract_z
Si Si1 0.442226 0.763707 0.994448
Si Si2 0.365234 0.872991 0.816297
Si Si3 0.472435 0.307462 0.748027
Si Si4 0.417763 0.759873 0.529622
Si Si5 0.333291 0.000000 0.752071
Si Si6 0.993796 0.658275 0.223882
Si Si7 0.874694 0.862796 0.310753
Si Si8 0.519066 0.500000 0.061805
O O1 0.445343 0.826822 0.934447
O O2 0.554466 0.703209 0.821418
O O3 0.500000 0.783272 0.000000
O O4 0.267047 0.734186 0.223131
O O5 0.502358 0.828603 0.603391
O O6 0.326084 0.935008 0.813847
O O7 0.419419 0.889754 0.828921
O O8 0.207950 0.828508 0.023244
O O9 0.544852 0.298590 0.576600
O O10 0.486512 0.232772 0.765082
O O11 0.565500 0.356281 0.683359
O O12 0.500000 0.744564 0.500000
O O13 0.500000 0.000000 0.500000
O O14 0.195310 0.000000 0.868965
O O15 0.811723 0.640620 0.453656
O O16 0.937927 0.931673 0.195090
O O17 0.500000 0.500000 0.000000
#
# Coordination Sequence:
#
# PCOD9189092 Si02
#       8
#     8   8   8   8   4   8   8   4
#     4  11  20  34  56  89 119 145 191 240 297 339
#     4  11  22  39  56  83 122 157 194 227 281 350
#     4  10  19  37  56  80 117 154 194 232 289 350
#     4  11  20  31  56  87 115 148 183 243 295 332
#     4  12  28  40  62  86 118 158 198 232 274 342
#     4  10  21  35  58  82 112 157 188 240 289 343
#     4  11  22  39  56  81 120 158 194 227 283 346
#     4  12  28  42  60  86 118 157 198 232 276 339
#
# _framework density 18.029017
#
# number of rings (size 3 to 8) (size 9 to 14) (size 15 to 20)
#    0.000    1.143    1.429    9.429    4.000    0.000 
#    0.000    0.000    0.000    0.000    0.000   20.000 
#    0.000    0.000    0.000    0.000    0.000    0.000 
#
# Total GULP energy -156344.310371 kJ/mol
# GULP energy per Si atom -5583.725370 kJ/mol
# Density = 1.798798 g / cm^3
# Si number density = 18.029017 Si / 1000 Ang^3
#
#
#
# Elastic Constant Matrix: (Units=GPa)
#
#
# Indices 1 2 3 4 5 6 
#
# 1 172.3434 30.8149 32.8192 0.0040 -1.3366 -0.0056
# 2 30.8149 48.5598 14.3435 0.0054 4.2950 -0.0031
# 3 32.8192 14.3435 82.8928 0.0109 -23.4590 -0.0129
# 4 0.0040 0.0054 0.0109 18.9706 -0.0057 -1.6528
# 5 -1.3366 4.2950 -23.4590 -0.0057 38.8018 0.0067
# 6 -0.0056 -0.0031 -0.0129 -1.6528 0.0067 17.5222
#
#
#
# Elastic Compliance Matrix: (Units=1/GPa)
#
#
# Indices 1 2 3 4 5 6 
#
# 1 0.006884 -0.003617 -0.002315 0.000001 -0.000762 0.000000
# 2 -0.003617 0.024676 -0.004398 -0.000005 -0.005515 0.000002
# 3 -0.002315 -0.004398 0.016717 -0.000004 0.010514 0.000006
# 4 0.000001 -0.000005 -0.000004 0.053150 0.000005 0.005013
# 5 -0.000762 -0.005515 0.010514 0.000005 0.032713 -0.000005
# 6 0.000000 0.000002 0.000006 0.005013 -0.000005 0.057543
#
#
# Mechanical properties :
#
#
# Convention : Reuss Voigt Hill
#
# Bulk Modulus (GPa) = 36.21267 51.08349 43.64808
# Shear Modulus (GPa) = 22.56827 30.11347 26.34087
#
# Velocity S-wave (km/s) = 3.54188 4.09134 3.82648
# Velocity P-wave (km/s) = 6.07091 7.12140 6.61703
#
# Compressibility (1/GPa) = 0.02761465
#
# Stress axis : x y z
#
# Youngs Moduli (GPa) = 145.26161 40.52595 59.81886
#
# Poissons Ratio (x) = 0.14659 0.13851
# Poissons Ratio (y) = 0.52543 0.26311
# Poissons Ratio (z) = 0.33634 0.17825
#
# Static dielectric constant tensor:
#      x y z
#    x 1.676700 0.000000 0.011320 
#    y 0.000000 1.600080 0.000000 
#    z 0.011320 0.000000 1.618980 
# 
# From -- ./inp_files/290834.got.cif
#   From: 2010.05.17/outbox.cif.g08.bks.cpg/sg12_146_cif.got.tgz:290834.got - 2010.06.03 13:09:07.
