data_PCOD9189290
_publ_section_title
;
Structure prediction by ZEFSAII (Michael W. Deem and Ramdas Pophale) SiO2 
 PCOD9189290
Probable space group: C 2/M
;
_chemical_formula_sum "Si O2"
_cell_formula_units_Z 48
_cell_length_a 26.290412
_cell_length_b 7.786470
_cell_length_c 17.670139
_cell_angle_alpha 90.000000
_cell_angle_beta 32.932923
_cell_angle_gamma 90.000000
_cell_volume 1966.540123
_symmetry_space_group_name_H-M "C 2/M"
_symmetry_group_IT_number 12
_symmetry_cell_setting 'monoclinic'
loop_
_space_group_symop_operation_xyz
x,y,z
-x,y,-z
-x,-y,-z
x,-y,z
1/2+x,1/2+y,z
1/2-x,1/2+y,-z
1/2-x,1/2-y,-z
1/2+x,1/2-y,z
loop_
_atom_site_type_symbol
_atom_site_label
_atom_site_fract_x
_atom_site_fract_y
_atom_site_fract_z
Si Si1 0.681740 0.807311 0.152563
Si Si2 0.931031 0.706943 0.979241
Si Si3 0.335772 0.290403 0.512061
Si Si4 0.466195 0.701626 0.774801
Si Si5 0.599082 0.300317 0.404489
Si Si6 0.135049 0.709424 0.777775
O O1 0.581894 0.794909 0.234860
O O2 0.670803 0.707911 0.244746
O O3 0.705219 0.000000 0.143745
O O4 0.750000 0.750000 0.000000
O O5 0.930767 0.500000 0.977084
O O6 0.036832 0.767994 0.866025
O O7 0.909554 0.770419 0.922569
O O8 0.868187 0.757177 0.129067
O O9 0.331293 0.500000 0.515689
O O10 0.426322 0.239003 0.350693
O O11 0.359871 0.233538 0.567971
O O12 0.232010 0.228994 0.620975
O O13 0.465563 0.500000 0.757492
O O14 0.500000 0.223068 0.500000
O O15 0.579762 0.500000 0.445252
O O16 0.132476 0.500000 0.778047
#
# Coordination Sequence:
#
# PCOD9189290 Si02
#       6
#     8   8   8   8   8   8
#     4  12  26  42  60  85 117 152 193 239 290 346
#     4   9  18  34  57  84 113 147 193 245 286 336
#     4   9  18  33  56  82 113 155 196 230 279 344
#     4  11  22  38  57  83 116 151 191 237 292 347
#     4  10  19  37  61  85 116 155 194 235 286 345
#     4   8  16  33  56  82 111 149 196 237 285 346
#
# _framework density 24.408352000000001
#
# number of rings (size 3 to 8) (size 9 to 14) (size 15 to 20)
#    0.000    2.167    1.667    3.000    2.333    1.000 
#    0.000    1.667    0.000    4.000    0.000    0.000 
#    0.000    0.000    0.000    0.000    0.000    0.000 
#
# Total GULP energy -134095.095510 kJ/mol
# GULP energy per Si atom -5587.295646 kJ/mol
# Density = 2.435280 g / cm^3
# Si number density = 24.408352 Si / 1000 Ang^3
#
#
#
# Elastic Constant Matrix: (Units=GPa)
#
#
# Indices 1 2 3 4 5 6 
#
# 1 30.8660 -4.8397 2.9803 -0.0020 11.7518 0.0032
# 2 -4.8397 37.3293 -6.2671 0.0017 -3.5025 -0.0047
# 3 2.9803 -6.2671 99.0391 0.0018 0.1559 -0.0005
# 4 -0.0020 0.0017 0.0018 16.2241 -0.0018 3.2313
# 5 11.7518 -3.5025 0.1559 -0.0018 50.0344 0.0021
# 6 0.0032 -0.0047 -0.0005 3.2313 0.0021 10.9756
#
#
#
# Elastic Compliance Matrix: (Units=1/GPa)
#
#
# Indices 1 2 3 4 5 6 
#
# 1 0.036208 0.003781 -0.000837 0.000005 -0.008237 -0.000009
# 2 0.003781 0.027651 0.001634 -0.000005 0.001043 0.000012
# 3 -0.000837 0.001634 0.010225 -0.000002 0.000279 0.000002
# 4 0.000005 -0.000005 -0.000002 0.065476 0.000002 -0.019277
# 5 -0.008237 0.001043 0.000279 0.000002 0.021993 -0.000002
# 6 -0.000009 0.000012 0.000002 -0.019277 -0.000002 0.096787
#
#
# Mechanical properties :
#
#
# Convention : Reuss Voigt Hill
#
# Bulk Modulus (GPa) = 12.01350 16.77572 14.39461
# Shear Modulus (GPa) = 18.05507 27.13754 22.59630
#
# Velocity S-wave (km/s) = 2.72271 3.33800 3.04593
# Velocity P-wave (km/s) = 3.84925 4.66307 4.27557
#
# Compressibility (1/GPa) = 0.08323969
#
# Stress axis : x y z
#
# Youngs Moduli (GPa) = 27.61825 36.16511 97.79767
#
# Poissons Ratio (x) = -0.13673 0.08189
# Poissons Ratio (y) = -0.10442 -0.15983
# Poissons Ratio (z) = 0.02313 -0.05910
#
# Static dielectric constant tensor:
#      x y z
#    x 1.971920 -0.000010 -0.027100 
#    y -0.000010 1.896770 0.000000 
#    z -0.027100 0.000000 1.991520 
# 
# From -- ./inp_files/244716.got.cif
#   From: 2010.05.17/outbox.cif.g08.bks.cpg/sg12_123_cif.got.tgz:244716.got - 2010.06.03 13:09:07.
