data_PCOD9189844
_publ_section_title
;
Structure prediction by ZEFSAII (Michael W. Deem and Ramdas Pophale) SiO2 
 PCOD9189844
Probable space group: C 2/M
;
_chemical_formula_sum "Si O2"
_cell_formula_units_Z 56
_cell_length_a 19.991846
_cell_length_b 15.082183
_cell_length_c 17.490661
_cell_angle_alpha 90.000000
_cell_angle_beta 29.723037
_cell_angle_gamma 90.000000
_cell_volume 2614.789614
_symmetry_space_group_name_H-M "C 2/M"
_symmetry_group_IT_number 12
_symmetry_cell_setting 'monoclinic'
loop_
_space_group_symop_operation_xyz
x,y,z
-x,y,-z
-x,-y,-z
x,-y,z
1/2+x,1/2+y,z
1/2-x,1/2+y,-z
1/2-x,1/2-y,-z
1/2+x,1/2-y,z
loop_
_atom_site_type_symbol
_atom_site_label
_atom_site_fract_x
_atom_site_fract_y
_atom_site_fract_z
Si Si1 0.452945 0.675589 0.351057
Si Si2 0.216831 0.289049 0.696981
Si Si3 0.041430 0.401108 0.069485
Si Si4 0.196057 0.788316 0.223920
Si Si5 0.107788 0.597360 0.324270
Si Si6 0.057183 0.620269 0.665057
Si Si7 0.850673 0.098073 0.308327
O O1 0.309624 0.672586 0.537130
O O2 0.572833 0.675347 0.294578
O O3 0.452946 0.774238 0.317880
O O4 0.456854 0.614212 0.272234
O O5 0.310833 0.299008 0.677947
O O6 0.169780 0.187015 0.724195
O O7 0.086179 0.349497 0.838900
O O8 0.065705 0.500000 0.014326
O O9 0.001844 0.411515 0.197407
O O10 0.171161 0.338984 0.934357
O O11 0.203427 0.680968 0.213719
O O12 0.167719 0.500000 0.281140
O O13 0.000000 0.616342 0.500000
O O14 0.025135 0.593219 0.327934
O O15 0.208592 0.595129 0.494002
O O16 0.872027 0.000000 0.251274
#
# Coordination Sequence:
#
# PCOD9189844 Si02
#       7
#     8   8   8   8   8   8   8
#     4  10  20  39  65  95 126 159 207 269 328 369
#     4  11  22  43  64  93 122 170 219 266 312 380
#     4  12  25  43  65  88 122 174 224 259 305 380
#     4  11  25  39  63  93 136 166 208 266 324 373
#     4  10  20  37  65 100 131 163 206 260 322 383
#     4  10  19  38  64  94 125 165 217 258 302 378
#     4  11  20  36  67  99 128 160 207 271 329 384
#
# _framework density 21.416636
#
# number of rings (size 3 to 8) (size 9 to 14) (size 15 to 20)
#    0.000    1.286    2.857    5.571    0.000    5.714 
#    0.000    0.714    0.000    6.429    0.000    0.000 
#    0.000    0.000    0.000    0.000    0.000    0.000 
#
# Total GULP energy -156129.200684 kJ/mol
# GULP energy per Si atom -5576.042882 kJ/mol
# Density = 2.136789 g / cm^3
# Si number density = 21.416636 Si / 1000 Ang^3
#
#
#
# Elastic Constant Matrix: (Units=GPa)
#
#
# Indices 1 2 3 4 5 6 
#
# 1 106.9861 15.6305 7.4621 0.0002 -4.8206 0.0000
# 2 15.6305 134.2776 46.7264 0.0004 -19.4178 -0.0001
# 3 7.4621 46.7264 49.1323 0.0008 -14.0312 -0.0001
# 4 0.0002 0.0004 0.0008 -87.9990 -0.0003 34.0502
# 5 -4.8206 -19.4178 -14.0312 -0.0003 32.5946 0.0000
# 6 0.0000 -0.0001 -0.0001 34.0502 0.0000 0.9760
#
#
#
# Elastic Compliance Matrix: (Units=1/GPa)
#
#
# Indices 1 2 3 4 5 6 
#
# 1 0.009534 -0.000857 -0.000429 0.000000 0.000715 0.000000
# 2 -0.000857 0.011370 -0.010016 0.000000 0.002335 0.000000
# 3 -0.000429 -0.010016 0.032178 0.000000 0.007821 0.000000
# 4 0.000000 0.000000 0.000000 -0.000784 0.000000 0.027343
# 5 0.000715 0.002335 0.007821 0.000000 0.035544 0.000000
# 6 0.000000 0.000000 0.000000 0.027343 0.000000 0.070665
#
#
# Mechanical properties :
#
#
# Convention : Reuss Voigt Hill
#
# Bulk Modulus (GPa) = 32.81074 47.78155 40.29614
# Shear Modulus (GPa) = 26.14093 3.81946 14.98019
#
# Velocity S-wave (km/s) = 3.49748 1.33689 2.64761
# Velocity P-wave (km/s) = 5.62702 4.97413 5.31062
#
# Compressibility (1/GPa) = 0.03047783
#
# Stress axis : x y z
#
# Youngs Moduli (GPa) = 104.88373 87.94846 31.07728
#
# Poissons Ratio (x) = 0.07540 0.01332
# Poissons Ratio (y) = 0.08992 0.31128
# Poissons Ratio (z) = 0.04495 0.88093
#
# Static dielectric constant tensor:
#      x y z
#    x 1.834380 0.000000 0.008300 
#    y 0.000000 1.843890 0.000000 
#    z 0.008300 0.000000 1.746620 
# 
# From -- ./inp_files/284520.got.cif
#   From: 2010.05.17/outbox.cif.g08.bks.cpg/sg12_143_cif.got.tgz:284520.got - 2010.06.03 13:09:07.
