data_PCOD9189764
_publ_section_title
;
Structure prediction by ZEFSAII (Michael W. Deem and Ramdas Pophale) SiO2 
 PCOD9189764
Probable space group: C 2/M
;
_chemical_formula_sum "Si O2"
_cell_formula_units_Z 56
_cell_length_a 27.769547
_cell_length_b 16.212353
_cell_length_c 9.825823
_cell_angle_alpha 90.000000
_cell_angle_beta 136.359695
_cell_angle_gamma 90.000000
_cell_volume 3052.909509
_symmetry_space_group_name_H-M "C 2/M"
_symmetry_group_IT_number 12
_symmetry_cell_setting 'monoclinic'
loop_
_space_group_symop_operation_xyz
x,y,z
-x,y,-z
-x,-y,-z
x,-y,z
1/2+x,1/2+y,z
1/2-x,1/2+y,-z
1/2-x,1/2-y,-z
1/2+x,1/2-y,z
loop_
_atom_site_type_symbol
_atom_site_label
_atom_site_fract_x
_atom_site_fract_y
_atom_site_fract_z
Si Si1 0.190915 0.407589 0.218038
Si Si2 0.572605 0.095168 0.200805
Si Si3 0.429096 0.500000 0.774551
Si Si4 0.689519 0.729438 0.102872
Si Si5 0.171353 0.850105 0.361671
Si Si6 0.584096 0.319468 0.652417
Si Si7 0.068492 0.000000 0.543977
Si Si8 0.847426 0.714150 0.442463
O O1 0.196773 0.500000 0.170043
O O2 0.123054 0.403436 0.173570
O O3 0.191428 0.329241 0.119182
O O4 0.255316 0.392738 0.452261
O O5 0.610902 0.139248 0.404204
O O6 0.559227 0.000000 0.211270
O O7 0.500000 0.133838 0.000000
O O8 0.386357 0.419173 0.731165
O O9 0.443520 0.500000 0.642432
O O10 0.500000 0.500000 0.000000
O O11 0.672920 0.690500 0.216723
O O12 0.768179 0.699050 0.228479
O O13 0.629213 0.702907 0.876769
O O14 0.161714 0.777943 0.451443
O O15 0.500000 0.315524 0.500000
O O16 0.604185 0.413122 0.651249
O O17 0.607913 0.257783 0.582759
O O18 0.000000 0.000000 0.500000
#
# Coordination Sequence:
#
# PCOD9189764 Si02
#       8
#     8   8   4   8   8   8   4   8
#     4  10  19  38  62  90 125 159 199 260 319 367
#     4  10  21  36  61  93 125 159 200 257 322 366
#     4  12  26  38  66 102 127 162 213 262 315 382
#     4  11  23  40  63  98 120 167 213 257 310 384
#     4  11  21  38  64  94 124 159 204 264 312 370
#     4  11  26  42  65  86 129 172 209 256 322 379
#     4  10  24  48  58  86 134 170 203 252 324 390
#     4  11  21  42  64  88 127 161 211 263 305 381
#
# _framework density 18.343157999999999
#
# number of rings (size 3 to 8) (size 9 to 14) (size 15 to 20)
#    0.000    1.286    5.000    1.286    6.000    0.571 
#    1.286    0.714    0.000    0.857    0.000    0.000 
#    0.000    0.000    0.000    0.000    0.000    0.000 
#
# Total GULP energy -156261.662728 kJ/mol
# GULP energy per Si atom -5580.773669 kJ/mol
# Density = 1.830141 g / cm^3
# Si number density = 18.343158 Si / 1000 Ang^3
#
#
#
# Elastic Constant Matrix: (Units=GPa)
#
#
# Indices 1 2 3 4 5 6 
#
# 1 79.4488 17.6476 44.6850 0.0000 8.9395 0.0000
# 2 17.6476 92.2475 60.6376 0.0000 2.9473 0.0000
# 3 44.6850 60.6376 145.6551 0.0000 19.0562 0.0000
# 4 0.0000 0.0000 0.0000 9.9492 0.0000 6.2670
# 5 8.9395 2.9473 19.0562 0.0000 26.6296 0.0000
# 6 0.0000 0.0000 0.0000 6.2670 0.0000 38.9978
#
#
#
# Elastic Compliance Matrix: (Units=1/GPa)
#
#
# Indices 1 2 3 4 5 6 
#
# 1 0.015304 0.000073 -0.004471 0.000000 -0.001946 0.000000
# 2 0.000073 0.015158 -0.006741 0.000000 0.003122 0.000000
# 3 -0.004471 -0.006741 0.011860 0.000000 -0.006240 0.000000
# 4 0.000000 0.000000 0.000000 0.111831 0.000000 -0.017971
# 5 -0.001946 0.003122 -0.006240 0.000000 0.042325 0.000000
# 6 0.000000 0.000000 0.000000 -0.017971 0.000000 0.028531
#
#
# Mechanical properties :
#
#
# Convention : Reuss Voigt Hill
#
# Bulk Modulus (GPa) = 49.88996 62.58797 56.23897
# Shear Modulus (GPa) = 19.68751 28.07406 23.88079
#
# Velocity S-wave (km/s) = 3.27966 3.91639 3.61209
# Velocity P-wave (km/s) = 6.44971 7.39226 6.93701
#
# Compressibility (1/GPa) = 0.02004411
#
# Stress axis : x y z
#
# Youngs Moduli (GPa) = 65.34213 65.97196 84.31666
#
# Poissons Ratio (x) = -0.00484 0.37698
# Poissons Ratio (y) = -0.00479 0.56841
# Poissons Ratio (z) = 0.29214 0.44474
#
# Static dielectric constant tensor:
#      x y z
#    x 1.658180 0.000000 0.041810 
#    y 0.000000 1.658880 0.000000 
#    z 0.041810 0.000000 1.629340 
# 
# From -- ./inp_files/106073.got.cif
#   From: 2010.05.17/outbox.cif.g08.bks.cpg/sg12_54_cif.got.tgz:106073.got - 2010.06.03 13:09:07.
