data_PCOD9189442
_publ_section_title
;
Structure prediction by ZEFSAII (Michael W. Deem and Ramdas Pophale) SiO2 
 PCOD9189442
Probable space group: C 2/M
;
_chemical_formula_sum "Si O2"
_cell_formula_units_Z 48
_cell_length_a 15.314767
_cell_length_b 25.535939
_cell_length_c 11.069258
_cell_angle_alpha 90.000000
_cell_angle_beta 28.212531
_cell_angle_gamma 90.000000
_cell_volume 2046.474338
_symmetry_space_group_name_H-M "C 2/M"
_symmetry_group_IT_number 12
_symmetry_cell_setting 'monoclinic'
loop_
_space_group_symop_operation_xyz
x,y,z
-x,y,-z
-x,-y,-z
x,-y,z
1/2+x,1/2+y,z
1/2-x,1/2+y,-z
1/2-x,1/2-y,-z
1/2+x,1/2-y,z
loop_
_atom_site_type_symbol
_atom_site_label
_atom_site_fract_x
_atom_site_fract_y
_atom_site_fract_z
Si Si1 0.718465 0.844026 0.516536
Si Si2 0.181262 0.133734 0.344163
Si Si3 0.907203 0.728870 0.981193
Si Si4 0.801888 0.444522 0.812376
Si Si5 0.773278 0.666201 0.766618
Si Si6 0.957133 0.440565 0.887359
O O1 0.834784 0.846448 0.498372
O O2 0.790998 0.836257 0.294438
O O3 0.570143 0.796542 0.705354
O O4 0.613255 0.899675 0.654628
O O5 0.254170 0.183832 0.180764
O O6 0.334098 0.088292 0.139228
O O7 0.000000 0.114414 0.500000
O O8 0.815936 0.783727 0.060563
O O9 0.000000 0.733098 0.000000
O O10 0.710640 0.500000 0.888977
O O11 0.711054 0.389479 0.894360
O O12 0.000000 0.443888 0.500000
O O13 0.835507 0.444636 0.913998
O O14 0.000000 0.669623 0.500000
O O15 0.016835 0.500000 0.842809
#
# Coordination Sequence:
#
# PCOD9189442 Si02
#       6
#     8   8   8   8   8   8
#     4  10  21  39  60  86 121 151 197 238 285 346
#     4  10  22  40  57  85 119 154 192 244 288 336
#     4   9  21  39  56  85 118 153 192 238 288 344
#     4   9  17  33  58  87 117 146 188 239 282 338
#     4  11  20  36  60  91 113 153 194 235 292 346
#     4  10  19  37  63  87 117 154 192 239 291 344
#
# _framework density 23.454974
#
# number of rings (size 3 to 8) (size 9 to 14) (size 15 to 20)
#    0.000    2.167    3.333    2.000    0.000    5.000 
#    6.000    0.000    0.000    0.500    0.000    0.000 
#    0.000    0.000    0.000    0.000    0.000    0.000 
#
# Total GULP energy -134037.393065 kJ/mol
# GULP energy per Si atom -5584.891378 kJ/mol
# Density = 2.340159 g / cm^3
# Si number density = 23.454974 Si / 1000 Ang^3
#
#
#
# Elastic Constant Matrix: (Units=GPa)
#
#
# Indices 1 2 3 4 5 6 
#
# 1 85.3177 7.7700 28.2198 -0.0028 13.1148 -0.0045
# 2 7.7700 211.3870 40.0623 0.0021 0.6769 0.0003
# 3 28.2198 40.0623 60.1713 -0.0148 -3.3795 -0.0125
# 4 -0.0028 0.0021 -0.0148 27.3468 0.0068 23.4267
# 5 13.1148 0.6769 -3.3795 0.0068 27.3460 0.0079
# 6 -0.0045 0.0003 -0.0125 23.4267 0.0079 53.7034
#
#
#
# Elastic Compliance Matrix: (Units=1/GPa)
#
#
# Indices 1 2 3 4 5 6 
#
# 1 0.015807 0.001080 -0.008620 -0.000002 -0.008673 0.000002
# 2 0.001080 0.005497 -0.004233 -0.000003 -0.001177 0.000000
# 3 -0.008620 -0.004233 0.023884 0.000012 0.007190 -0.000001
# 4 -0.000002 -0.000003 0.000012 0.058386 -0.000004 -0.025469
# 5 -0.008673 -0.001177 0.007190 -0.000004 0.041645 -0.000003
# 6 0.000002 0.000000 -0.000001 -0.025469 -0.000003 0.029731
#
#
# Mechanical properties :
#
#
# Convention : Reuss Voigt Hill
#
# Bulk Modulus (GPa) = 46.20331 56.55336 51.37833
# Shear Modulus (GPa) = 24.30632 40.40084 32.35358
#
# Velocity S-wave (km/s) = 3.22265 4.15479 3.71804
# Velocity P-wave (km/s) = 5.79558 6.86878 6.35488
#
# Compressibility (1/GPa) = 0.02164347
#
# Stress axis : x y z
#
# Youngs Moduli (GPa) = 63.26435 181.92075 41.86951
#
# Poissons Ratio (x) = -0.19654 0.36090
# Poissons Ratio (y) = -0.06835 0.17722
# Poissons Ratio (z) = 0.54531 0.77001
#
# Static dielectric constant tensor:
#      x y z
#    x 1.917260 0.000000 -0.034010 
#    y 0.000000 1.888970 0.000000 
#    z -0.034010 0.000000 1.937370 
# 
# From -- ./inp_files/149621.got.cif
#   From: 2010.05.17/outbox.cif.g08.bks.cpg/sg12_75_cif.got.tgz:149621.got - 2010.06.03 13:09:07.
