data_PCOD9189858
_publ_section_title
;
Structure prediction by ZEFSAII (Michael W. Deem and Ramdas Pophale) SiO2 
 PCOD9189858
Probable space group: C 2/M
;
_chemical_formula_sum "Si O2"
_cell_formula_units_Z 34
_cell_length_a 19.431160
_cell_length_b 12.346421
_cell_length_c 8.554858
_cell_angle_alpha 90.000000
_cell_angle_beta 126.635857
_cell_angle_gamma 90.000000
_cell_volume 1646.900837
_symmetry_space_group_name_H-M "C 2/M"
_symmetry_group_IT_number 12
_symmetry_cell_setting 'monoclinic'
loop_
_space_group_symop_operation_xyz
x,y,z
-x,y,-z
-x,-y,-z
x,-y,z
1/2+x,1/2+y,z
1/2-x,1/2+y,-z
1/2-x,1/2-y,-z
1/2+x,1/2-y,z
loop_
_atom_site_type_symbol
_atom_site_label
_atom_site_fract_x
_atom_site_fract_y
_atom_site_fract_z
Si Si1 0.534201 0.118680 0.224382
Si Si2 0.000000 0.000000 0.000000
Si Si3 0.859624 0.170719 0.679884
Si Si4 0.857718 0.623940 0.166701
Si Si5 0.733753 0.712418 0.736275
O O1 0.599910 0.215387 0.319418
O O2 0.453386 0.135655 0.228418
O O3 0.571710 0.000000 0.308200
O O4 0.500000 0.117680 0.000000
O O5 0.065795 0.093514 0.159343
O O6 0.795093 0.200792 0.732054
O O7 0.807416 0.138087 0.454251
O O8 0.847944 0.500000 0.210475
O O9 0.834498 0.717219 0.258091
O O10 0.791743 0.644421 0.934447
#
# Coordination Sequence:
#
# PCOD9189858 Si02
#       5
#     8   2   8   8   8
#     4  10  19  38  65  89 119 164 210 269 317 373
#     4  12  24  40  66  94 136 176 212 264 320 402
#     4  11  23  41  64  92 129 172 217 258 323 388
#     4  10  21  39  65  91 126 161 208 270 325 365
#     4  10  23  40  61  94 126 166 216 265 311 392
#
# _framework density 20.644836999999999
#
# number of rings (size 3 to 8) (size 9 to 14) (size 15 to 20)
#    0.000    1.647    3.529    0.000    3.294    1.882 
#    4.235    2.353    0.000    4.235    0.000    0.000 
#    0.000    0.000    0.000    0.000    0.000    0.000 
#
# Total GULP energy -94702.441103 kJ/mol
# GULP energy per Si atom -5570.731830 kJ/mol
# Density = 2.059785 g / cm^3
# Si number density = 20.644837 Si / 1000 Ang^3
#
#
#
# Elastic Constant Matrix: (Units=GPa)
#
#
# Indices 1 2 3 4 5 6 
#
# 1 78.1916 36.4993 9.1018 0.0000 2.8747 0.0000
# 2 36.4993 80.1223 6.6124 0.0000 8.4637 0.0000
# 3 9.1018 6.6124 95.4149 0.0000 -12.9754 0.0000
# 4 0.0000 0.0000 0.0000 -44.4310 0.0000 -25.9485
# 5 2.8747 8.4637 -12.9754 0.0000 17.6885 0.0000
# 6 0.0000 0.0000 0.0000 -25.9485 0.0000 -2.7544
#
#
#
# Elastic Compliance Matrix: (Units=1/GPa)
#
#
# Indices 1 2 3 4 5 6 
#
# 1 0.016347 -0.007374 -0.001033 0.000000 0.000114 0.000000
# 2 -0.007374 0.016811 -0.001547 0.000000 -0.007980 0.000000
# 3 -0.001033 -0.001547 0.012008 0.000000 0.009716 0.000000
# 4 0.000000 0.000000 0.000000 0.004999 0.000000 -0.047098
# 5 0.000114 -0.007980 0.009716 0.000000 0.067461 0.000000
# 6 0.000000 0.000000 0.000000 -0.047098 0.000000 0.080645
#
#
# Mechanical properties :
#
#
# Convention : Reuss Voigt Hill
#
# Bulk Modulus (GPa) = 39.59049 39.79506 39.69278
# Shear Modulus (GPa) = 22.06566 7.53500 14.80033
#
# Velocity S-wave (km/s) = 3.27283 1.91252 2.68041
# Velocity P-wave (km/s) = 5.78796 4.91883 5.37100
#
# Compressibility (1/GPa) = 0.02525859
#
# Stress axis : x y z
#
# Youngs Moduli (GPa) = 61.17293 59.48643 83.28084
#
# Poissons Ratio (x) = 0.43863 0.08602
# Poissons Ratio (y) = 0.45107 0.12882
# Poissons Ratio (z) = 0.06319 0.09201
#
# Static dielectric constant tensor:
#      x y z
#    x 1.714200 0.000000 -0.022250 
#    y 0.000000 1.711830 0.000000 
#    z -0.022250 0.000000 1.784840 
# 
# From -- ./inp_files/72237.got.cif
#   From: 2010.05.17/outbox.cif.g08.bks.cpg/sg12_37_cif.got.tgz:72237.got - 2010.06.03 13:09:07.
