data_PCOD9189776
_publ_section_title
;
Structure prediction by ZEFSAII (Michael W. Deem and Ramdas Pophale) SiO2 
 PCOD9189776
Probable space group: C 2/M
;
_chemical_formula_sum "Si O2"
_cell_formula_units_Z 64
_cell_length_a 24.114166
_cell_length_b 8.302802
_cell_length_c 15.662097
_cell_angle_alpha 90.000000
_cell_angle_beta 85.343183
_cell_angle_gamma 90.000000
_cell_volume 3125.437353
_symmetry_space_group_name_H-M "C 2/M"
_symmetry_group_IT_number 12
_symmetry_cell_setting 'monoclinic'
loop_
_space_group_symop_operation_xyz
x,y,z
-x,y,-z
-x,-y,-z
x,-y,z
1/2+x,1/2+y,z
1/2-x,1/2+y,-z
1/2-x,1/2-y,-z
1/2+x,1/2-y,z
loop_
_atom_site_type_symbol
_atom_site_label
_atom_site_fract_x
_atom_site_fract_y
_atom_site_fract_z
Si Si1 0.356411 0.310063 0.346109
Si Si2 0.255728 0.691190 0.695214
Si Si3 0.718832 0.807322 0.130492
Si Si4 0.835590 0.192835 0.030528
Si Si5 0.960620 0.806751 0.582131
Si Si6 0.455998 0.194979 0.077163
Si Si7 0.026947 0.310737 0.734276
Si Si8 0.339458 0.696326 0.542131
O O1 0.369603 0.500000 0.347810
O O2 0.303569 0.278271 0.293425
O O3 0.410744 0.219559 0.307575
O O4 0.339258 0.254851 0.443422
O O5 0.246706 0.500000 0.689677
O O6 0.289807 0.729542 0.776289
O O7 0.289091 0.750938 0.607864
O O8 0.674886 0.755562 0.064137
O O9 0.718633 0.000000 0.138035
O O10 0.780237 0.754057 0.089315
O O11 0.835634 0.000000 0.029868
O O12 0.893384 0.252237 0.062530
O O13 0.897969 0.749439 0.574807
O O14 0.000000 0.745892 0.500000
O O15 0.985771 0.764983 0.670391
O O16 0.959499 0.000000 0.574723
O O17 0.474269 0.253211 0.168799
O O18 0.456186 0.000000 0.078738
O O19 0.500000 0.248519 0.000000
O O20 0.015390 0.500000 0.738193
O O21 0.338051 0.500000 0.543584
#
# Coordination Sequence:
#
# PCOD9189776 Si02
#       8
#     8   8   8   8   8   8   8   8
#     4  11  21  38  60  82 114 155 197 236 287 351
#     4  11  22  36  55  85 121 151 190 240 287 338
#     4  10  21  38  60  86 116 153 191 231 289 352
#     4  10  21  38  62  88 113 146 193 244 288 337
#     4  10  19  38  63  83 111 154 196 237 287 347
#     4  10  23  42  60  82 119 159 193 236 295 356
#     4  11  23  38  60  90 117 149 195 247 294 340
#     4   9  20  37  57  82 114 154 194 236 287 342
#
# _framework density 20.477135000000001
#
# number of rings (size 3 to 8) (size 9 to 14) (size 15 to 20)
#    0.000    1.750    1.250    3.000    0.000    6.000 
#    0.000    5.625    0.000    0.000    0.000    0.000 
#    0.000    0.000    0.000    0.000    0.000    0.000 
#
# Total GULP energy -178829.410526 kJ/mol
# GULP energy per Si atom -5588.419079 kJ/mol
# Density = 2.043053 g / cm^3
# Si number density = 20.477135 Si / 1000 Ang^3
#
#
#
# Elastic Constant Matrix: (Units=GPa)
#
#
# Indices 1 2 3 4 5 6 
#
# 1 61.1749 -2.0630 14.4033 0.0000 19.1382 0.0000
# 2 -2.0630 10.3653 -3.4102 0.0000 -2.2659 0.0000
# 3 14.4033 -3.4102 116.7192 0.0000 13.7558 0.0000
# 4 0.0000 0.0000 0.0000 26.5463 0.0000 10.3422
# 5 19.1382 -2.2659 13.7558 0.0000 30.7038 0.0000
# 6 0.0000 0.0000 0.0000 10.3422 0.0000 21.9955
#
#
#
# Elastic Compliance Matrix: (Units=1/GPa)
#
#
# Indices 1 2 3 4 5 6 
#
# 1 0.020445 0.001057 -0.001055 0.000000 -0.012193 0.000000
# 2 0.001057 0.098614 0.002081 0.000000 0.005687 0.000000
# 3 -0.001055 0.002081 0.009146 0.000000 -0.003286 0.000000
# 4 0.000000 0.000000 0.000000 0.046118 0.000000 -0.021685
# 5 -0.012193 0.005687 -0.003286 0.000000 0.042061 0.000000
# 6 0.000000 0.000000 0.000000 -0.021685 0.000000 0.055660
#
#
# Mechanical properties :
#
#
# Convention : Reuss Voigt Hill
#
# Bulk Modulus (GPa) = 7.55461 22.90217 15.22839
# Shear Modulus (GPa) = 16.02546 27.80440 21.91493
#
# Velocity S-wave (km/s) = 2.80054 3.68887 3.27496
# Velocity P-wave (km/s) = 3.76227 5.41777 4.66406
#
# Compressibility (1/GPa) = 0.13236953
#
# Stress axis : x y z
#
# Youngs Moduli (GPa) = 48.91125 10.14053 109.33913
#
# Poissons Ratio (x) = -0.01071 0.11536
# Poissons Ratio (y) = -0.05168 -0.22749
# Poissons Ratio (z) = 0.05161 -0.02110
#
# Static dielectric constant tensor:
#      x y z
#    x 1.700830 0.000000 -0.006720 
#    y 0.000000 1.714170 0.000000 
#    z -0.006720 0.000000 1.743890 
# 
# From -- ./inp_files/238793.got.cif
#   From: 2010.05.17/outbox.cif.g08.bks.cpg/sg12_120_cif.got.tgz:238793.got - 2010.06.03 13:09:07.
