data_PCOD9189711
_publ_section_title
;
Structure prediction by ZEFSAII (Michael W. Deem and Ramdas Pophale) SiO2 
 PCOD9189711
Probable space group: C 2/M
;
_chemical_formula_sum "Si O2"
_cell_formula_units_Z 48
_cell_length_a 19.910967
_cell_length_b 14.979088
_cell_length_c 19.944226
_cell_angle_alpha 90.000000
_cell_angle_beta 25.613122
_cell_angle_gamma 90.000000
_cell_volume 2571.416276
_symmetry_space_group_name_H-M "C 2/M"
_symmetry_group_IT_number 12
_symmetry_cell_setting 'monoclinic'
loop_
_space_group_symop_operation_xyz
x,y,z
-x,y,-z
-x,-y,-z
x,-y,z
1/2+x,1/2+y,z
1/2-x,1/2+y,-z
1/2-x,1/2-y,-z
1/2+x,1/2-y,z
loop_
_atom_site_type_symbol
_atom_site_label
_atom_site_fract_x
_atom_site_fract_y
_atom_site_fract_z
Si Si1 0.873008 0.300277 0.436130
Si Si2 0.402351 0.500000 0.654487
Si Si3 0.318088 0.807355 0.643582
Si Si4 0.820449 0.500000 0.641154
Si Si5 0.811962 0.804530 0.880394
Si Si6 0.459049 0.500000 0.751730
Si Si7 0.667970 0.837222 0.872634
Si Si8 0.305823 0.000000 0.494745
O O1 0.750000 0.250000 0.500000
O O2 0.815823 0.297418 0.565072
O O3 0.880357 0.404762 0.407037
O O4 0.036138 0.248544 0.283262
O O5 0.500000 0.500000 0.500000
O O6 0.498002 0.500000 0.637196
O O7 0.293294 0.414763 0.754262
O O8 0.500000 0.800022 0.500000
O O9 0.256097 0.905157 0.720765
O O10 0.220593 0.737267 0.772734
O O11 0.817598 0.500000 0.563975
O O12 0.000000 0.500000 0.500000
O O13 0.864270 0.907397 0.849622
O O14 0.685448 0.806149 0.934147
O O15 0.750000 0.750000 0.000000
O O16 0.623701 0.500000 0.640437
O O17 0.500000 0.868536 0.000000
#
# Coordination Sequence:
#
# PCOD9189711 Si02
#       8
#     8   4   8   4   8   4   8   4
#     4  11  22  37  64  93 120 161 216 258 309 373
#     4  10  23  41  65  92 124 160 206 265 314 367
#     4  10  19  38  61  86 119 159 206 257 304 355
#     4   8  18  32  55  86 118 149 193 260 294 336
#     4  11  25  43  61  89 132 167 202 263 322 373
#     4  10  22  42  61  90 127 160 207 264 316 371
#     4  11  24  40  63  91 127 166 205 254 318 380
#     4  10  20  35  62  92 120 155 206 257 305 363
#
# _framework density 18.666755999999999
#
# number of rings (size 3 to 8) (size 9 to 14) (size 15 to 20)
#    0.000    1.667    3.333    0.750    4.667    0.667 
#    0.000    1.250    0.000    0.000    0.000    0.000 
#    0.000    0.000    0.000    0.000    0.000    0.000 
#
# Total GULP energy -133832.849966 kJ/mol
# GULP energy per Si atom -5576.368749 kJ/mol
# Density = 1.862427 g / cm^3
# Si number density = 18.666756 Si / 1000 Ang^3
#
#
#
# Elastic Constant Matrix: (Units=GPa)
#
#
# Indices 1 2 3 4 5 6 
#
# 1 153.3544 25.6901 32.3638 0.0004 -3.7456 -0.0003
# 2 25.6901 123.5404 6.7865 0.0012 16.1482 -0.0009
# 3 32.3638 6.7865 31.5024 0.0010 11.7523 -0.0010
# 4 0.0004 0.0012 0.0010 48.9192 -0.0011 3.1598
# 5 -3.7456 16.1482 11.7523 -0.0011 32.2432 0.0007
# 6 -0.0003 -0.0009 -0.0010 3.1598 0.0007 27.8992
#
#
#
# Elastic Compliance Matrix: (Units=1/GPa)
#
#
# Indices 1 2 3 4 5 6 
#
# 1 0.009518 -0.002181 -0.011723 0.000000 0.006471 -0.000001
# 2 -0.002181 0.009164 0.002400 0.000000 -0.005717 0.000001
# 3 -0.011723 0.002400 0.051186 -0.000002 -0.021220 0.000002
# 4 0.000000 0.000000 -0.000002 0.020593 0.000002 -0.002332
# 5 0.006471 -0.005717 -0.021220 0.000002 0.042364 -0.000002
# 6 -0.000001 0.000001 0.000002 -0.002332 -0.000002 0.036107
#
#
# Mechanical properties :
#
#
# Convention : Reuss Voigt Hill
#
# Bulk Modulus (GPa) = 21.34030 48.67532 35.00781
# Shear Modulus (GPa) = 24.08944 38.04945 31.06944
#
# Velocity S-wave (km/s) = 3.59625 4.51971 4.08416
# Velocity P-wave (km/s) = 5.35734 7.30545 6.40588
#
# Compressibility (1/GPa) = 0.04685971
#
# Stress axis : x y z
#
# Youngs Moduli (GPa) = 105.06197 109.12746 19.53655
#
# Poissons Ratio (x) = 0.23802 0.22902
# Poissons Ratio (y) = 0.22916 -0.04688
# Poissons Ratio (z) = 1.23159 -0.26186
#
# Static dielectric constant tensor:
#      x y z
#    x 1.663670 0.000000 -0.011060 
#    y 0.000000 1.696310 0.000000 
#    z -0.011060 0.000000 1.597200 
# 
# From -- ./inp_files/278083.got.cif
#   From: 2010.05.17/outbox.cif.g08.bks.cpg/sg12_140_cif.got.tgz:278083.got - 2010.06.03 13:09:07.
