data_PCOD9189583
_publ_section_title
;
Structure prediction by ZEFSAII (Michael W. Deem and Ramdas Pophale) SiO2 
 PCOD9189583
Probable space group: C 2/M
;
_chemical_formula_sum "Si O2"
_cell_formula_units_Z 44
_cell_length_a 10.556962
_cell_length_b 24.094068
_cell_length_c 7.142602
_cell_angle_alpha 90.000000
_cell_angle_beta 110.561357
_cell_angle_gamma 90.000000
_cell_volume 1701.057513
_symmetry_space_group_name_H-M "C 2/M"
_symmetry_group_IT_number 12
_symmetry_cell_setting 'monoclinic'
loop_
_space_group_symop_operation_xyz
x,y,z
-x,y,-z
-x,-y,-z
x,-y,z
1/2+x,1/2+y,z
1/2-x,1/2+y,-z
1/2-x,1/2-y,-z
1/2+x,1/2-y,z
loop_
_atom_site_type_symbol
_atom_site_label
_atom_site_fract_x
_atom_site_fract_y
_atom_site_fract_z
Si Si1 0.313339 0.689015 0.248814
Si Si2 0.938275 0.117583 0.780322
Si Si3 0.034244 0.585401 0.793773
Si Si4 0.753762 0.500000 0.964891
Si Si5 0.684826 0.188804 0.783962
Si Si6 0.756996 0.921741 0.391131
O O1 0.448902 0.656652 0.255911
O O2 0.341184 0.751878 0.322863
O O3 0.248431 0.644745 0.354017
O O4 0.212456 0.695620 0.021177
O O5 0.820971 0.159752 0.782849
O O6 0.871499 0.073346 0.606461
O O7 0.000000 0.090649 0.000000
O O8 0.068298 0.643559 0.720105
O O9 0.895733 0.560929 0.638428
O O10 0.168039 0.547906 0.867732
O O11 0.000000 0.589179 0.000000
O O12 0.708715 0.452062 0.785355
#
# Coordination Sequence:
#
# PCOD9189583 Si02
#       6
#     8   8   8   4   8   8
#     4  10  21  38  64  92 132 175 210 254 323 397
#     4  10  24  42  59  89 141 165 216 264 317 380
#     4  10  19  37  68  96 122 160 219 266 321 376
#     4  10  21  42  72  99 122 165 225 274 312 387
#     4  10  21  38  64  95 133 169 202 272 327 378
#     4  11  21  40  68  94 124 173 221 266 315 386
#
# _framework density 25.866261000000002
#
# number of rings (size 3 to 8) (size 9 to 14) (size 15 to 20)
#    0.000    1.818    3.636    3.000    2.545    2.182 
#    3.273    3.182    0.000    5.455    0.000    0.000 
#    0.000    0.000    0.000    0.000    0.000    0.000 
#
# Total GULP energy -122551.497861 kJ/mol
# GULP energy per Si atom -5570.522630 kJ/mol
# Density = 2.580739 g / cm^3
# Si number density = 25.866261 Si / 1000 Ang^3
#
#
#
# Elastic Constant Matrix: (Units=GPa)
#
#
# Indices 1 2 3 4 5 6 
#
# 1 69.7498 10.7478 12.9774 0.0000 23.4364 0.0000
# 2 10.7478 163.0499 36.6014 0.0000 3.4182 0.0000
# 3 12.9774 36.6014 171.7566 0.0000 26.3875 0.0000
# 4 0.0000 0.0000 0.0000 -12.7086 0.0000 -43.0070
# 5 23.4364 3.4182 26.3875 0.0000 25.1444 0.0000
# 6 0.0000 0.0000 0.0000 -43.0070 0.0000 254.0474
#
#
#
# Elastic Compliance Matrix: (Units=1/GPa)
#
#
# Indices 1 2 3 4 5 6 
#
# 1 0.021601 -0.001425 0.002068 0.000000 -0.022111 0.000000
# 2 -0.001425 0.006545 -0.001615 0.000000 0.002133 0.000000
# 3 0.002068 -0.001615 0.007478 0.000000 -0.009556 0.000000
# 4 0.000000 0.000000 0.000000 -0.050027 0.000000 -0.008469
# 5 -0.022111 0.002133 -0.009556 0.000000 0.070118 0.000000
# 6 0.000000 0.000000 0.000000 -0.008469 0.000000 0.002503
#
#
# Mechanical properties :
#
#
# Convention : Reuss Voigt Hill
#
# Bulk Modulus (GPa) = 29.68946 58.35661 44.02304
# Shear Modulus (GPa) = 70.04171 76.24530 73.14350
#
# Velocity S-wave (km/s) = 5.20934 5.43514 5.32343
# Velocity P-wave (km/s) = 6.90550 7.87385 7.40552
#
# Compressibility (1/GPa) = 0.03368199
#
# Stress axis : x y z
#
# Youngs Moduli (GPa) = 46.29423 152.79409 133.72280
#
# Poissons Ratio (x) = 0.21768 -0.27659
# Poissons Ratio (y) = 0.06595 0.21592
# Poissons Ratio (z) = -0.09576 0.24672
#
# Static dielectric constant tensor:
#      x y z
#    x 2.094590 0.000000 -0.013760 
#    y 0.000000 2.011440 0.000000 
#    z -0.013760 0.000000 2.094990 
# 
# From -- ./inp_files/51563.got.cif
#   From: 2010.05.17/outbox.cif.g08.bks.cpg/sg12_26_cif.got.tgz:51563.got - 2010.06.03 13:09:07.
