data_PCOD9189649
_publ_section_title
;
Structure prediction by ZEFSAII (Michael W. Deem and Ramdas Pophale) SiO2 
 PCOD9189649
Probable space group: C 2/M
;
_chemical_formula_sum "Si O2"
_cell_formula_units_Z 64
_cell_length_a 9.027971
_cell_length_b 24.074427
_cell_length_c 21.272046
_cell_angle_alpha 90.000000
_cell_angle_beta 45.850880
_cell_angle_gamma 90.000000
_cell_volume 3317.379014
_symmetry_space_group_name_H-M "C 2/M"
_symmetry_group_IT_number 12
_symmetry_cell_setting 'monoclinic'
loop_
_space_group_symop_operation_xyz
x,y,z
-x,y,-z
-x,-y,-z
x,-y,z
1/2+x,1/2+y,z
1/2-x,1/2+y,-z
1/2-x,1/2-y,-z
1/2+x,1/2-y,z
loop_
_atom_site_type_symbol
_atom_site_label
_atom_site_fract_x
_atom_site_fract_y
_atom_site_fract_z
Si Si1 0.781259 0.662350 0.539194
Si Si2 0.892767 0.244752 0.167316
Si Si3 0.314720 0.060830 0.106488
Si Si4 0.502456 0.436494 0.423366
Si Si5 0.479030 0.175490 0.756596
Si Si6 0.254675 0.278652 0.578162
Si Si7 0.566135 0.061713 0.781356
Si Si8 0.263316 0.821175 0.091125
O O1 0.632795 0.611523 0.568770
O O2 0.830627 0.695578 0.460467
O O3 0.689766 0.714101 0.607144
O O4 0.000000 0.642472 0.500000
O O5 0.710330 0.199725 0.228226
O O6 0.958537 0.284455 0.204476
O O7 0.796593 0.284586 0.143305
O O8 0.103203 0.209882 0.092580
O O9 0.391282 0.067466 0.156215
O O10 0.189104 0.116395 0.127627
O O11 0.211189 0.000000 0.133850
O O12 0.500000 0.058962 0.000000
O O13 0.500000 0.426638 0.500000
O O14 0.421666 0.500000 0.439092
O O15 0.723069 0.436202 0.322319
O O16 0.679356 0.180574 0.654000
O O17 0.438187 0.114374 0.795045
O O18 0.500000 0.279112 0.500000
O O19 0.475506 0.000000 0.798768
O O20 0.500000 0.825521 0.000000
#
# Coordination Sequence:
#
# PCOD9189649 Si02
#       8
#     8   8   8   8   8   8   8   8
#     4  10  21  34  52  81 108 142 193 238 291 334
#     4  10  23  34  54  89 112 150 181 227 295 338
#     4   9  18  34  59  86 111 146 193 236 279 335
#     4  10  21  37  58  81 110 154 199 235 281 346
#     4  11  22  37  55  83 120 145 187 245 280 347
#     4  10  22  36  53  77 110 155 192 230 289 343
#     4  10  20  36  60  82 110 157 197 234 284 343
#     4  10  19  38  59  82 114 147 184 228 277 349
#
# _framework density 19.292338999999998
#
# number of rings (size 3 to 8) (size 9 to 14) (size 15 to 20)
#    0.000    2.000    1.250    2.250    7.000    0.750 
#    0.000    0.625    0.000    0.000    0.000    4.375 
#    0.000    0.000    0.000    0.000    0.000    0.000 
#
# Total GULP energy -178143.727700 kJ/mol
# GULP energy per Si atom -5566.991491 kJ/mol
# Density = 1.924843 g / cm^3
# Si number density = 19.292339 Si / 1000 Ang^3
#
#
#
# Elastic Constant Matrix: (Units=GPa)
#
#
# Indices 1 2 3 4 5 6 
#
# 1 61.0652 39.2584 5.8018 0.0000 -8.3599 0.0000
# 2 39.2584 145.4686 13.9935 0.0000 -3.5709 0.0000
# 3 5.8018 13.9935 50.6721 0.0000 7.2388 0.0000
# 4 0.0000 0.0000 0.0000 25.6917 0.0000 -1.2732
# 5 -8.3599 -3.5709 7.2388 0.0000 19.9114 0.0000
# 6 0.0000 0.0000 0.0000 -1.2732 0.0000 15.9609
#
#
#
# Elastic Compliance Matrix: (Units=1/GPa)
#
#
# Indices 1 2 3 4 5 6 
#
# 1 0.021185 -0.005289 -0.002215 0.000000 0.008751 0.000000
# 2 -0.005289 0.008466 -0.001721 0.000000 -0.000077 0.000000
# 3 -0.002215 -0.001721 0.021771 0.000000 -0.009154 0.000000
# 4 0.000000 0.000000 0.000000 0.039078 0.000000 0.003117
# 5 0.008751 -0.000077 -0.009154 0.000000 0.057211 0.000000
# 6 0.000000 0.000000 0.000000 0.003117 0.000000 0.062902
#
#
# Mechanical properties :
#
#
# Convention : Reuss Voigt Hill
#
# Bulk Modulus (GPa) = 30.33022 41.70149 36.01585
# Shear Modulus (GPa) = 20.82869 25.52295 23.17582
#
# Velocity S-wave (km/s) = 3.28935 3.64119 3.46973
# Velocity P-wave (km/s) = 5.49381 6.27218 5.89585
#
# Compressibility (1/GPa) = 0.03297042
#
# Stress axis : x y z
#
# Youngs Moduli (GPa) = 47.20327 118.12645 45.93199
#
# Poissons Ratio (x) = 0.62482 0.10174
# Poissons Ratio (y) = 0.24968 0.07906
# Poissons Ratio (z) = 0.10456 0.20332
#
# Static dielectric constant tensor:
#      x y z
#    x 1.683170 0.000000 0.036150 
#    y 0.000000 1.745970 0.000000 
#    z 0.036150 0.000000 1.768090 
# 
# From -- ./inp_files/302321.got.cif
#   From: 2010.05.17/outbox.cif.g08.bks.cpg/sg12_152_cif.got.tgz:302321.got - 2010.06.03 13:09:07.
