data_PCOD9189486
_publ_section_title
;
Structure prediction by ZEFSAII (Michael W. Deem and Ramdas Pophale) SiO2 
 PCOD9189486
Probable space group: C 2/M
;
_chemical_formula_sum "Si O2"
_cell_formula_units_Z 56
_cell_length_a 9.759555
_cell_length_b 17.481620
_cell_length_c 27.611365
_cell_angle_alpha 90.000000
_cell_angle_beta 141.481670
_cell_angle_gamma 90.000000
_cell_volume 2933.754364
_symmetry_space_group_name_H-M "C 2/M"
_symmetry_group_IT_number 12
_symmetry_cell_setting 'monoclinic'
loop_
_space_group_symop_operation_xyz
x,y,z
-x,y,-z
-x,-y,-z
x,-y,z
1/2+x,1/2+y,z
1/2-x,1/2+y,-z
1/2-x,1/2-y,-z
1/2+x,1/2-y,z
loop_
_atom_site_type_symbol
_atom_site_label
_atom_site_fract_x
_atom_site_fract_y
_atom_site_fract_z
Si Si1 0.696550 0.674681 0.516588
Si Si2 0.502541 0.406953 0.272566
Si Si3 0.725952 0.908372 0.827666
Si Si4 0.485908 0.091136 0.859712
Si Si5 0.745795 0.408553 0.435748
Si Si6 0.088814 0.591672 0.681085
Si Si7 0.127245 0.824649 0.984688
O O1 0.500000 0.686115 0.500000
O O2 0.750000 0.750000 0.500000
O O3 0.648993 0.614040 0.460712
O O4 0.902474 0.641201 0.603501
O O5 0.491967 0.500000 0.272114
O O6 0.256544 0.377607 0.196060
O O7 0.601233 0.379274 0.351007
O O8 0.678972 0.389595 0.280138
O O9 0.561750 0.888595 0.826248
O O10 0.615907 0.893806 0.745506
O O11 0.949506 0.861540 0.899226
O O12 0.773052 0.000000 0.843558
O O13 0.474207 0.000000 0.858382
O O14 0.677423 0.117204 0.948261
O O15 0.751574 0.500000 0.433875
O O16 0.000000 0.382177 0.500000
O O17 0.046352 0.500000 0.661919
O O18 0.250000 0.750000 0.000000
O O19 0.000000 0.809390 0.000000
#
# Coordination Sequence:
#
# PCOD9189486 Si02
#       7
#     8   8   8   8   8   8   8
#     4  12  27  43  58  84 119 160 203 245 299 357
#     4   9  18  33  59  90 115 145 186 237 293 347
#     4   9  19  37  61  88 116 148 194 251 295 337
#     4   9  18  35  61  88 114 149 195 242 287 344
#     4  10  19  37  64  88 116 154 194 240 295 350
#     4  10  21  40  64  90 118 150 196 250 301 350
#     4  10  21  38  57  84 119 157 195 231 290 353
#
# _framework density 19.088170000000002
#
# number of rings (size 3 to 8) (size 9 to 14) (size 15 to 20)
#    0.000    2.143    1.429    1.286    2.000    4.000 
#    2.571    0.000    0.000    4.286    0.000    0.000 
#    0.000    0.000    0.000    0.000    0.000    0.000 
#
# Total GULP energy -156221.537952 kJ/mol
# GULP energy per Si atom -5579.340641 kJ/mol
# Density = 1.904472 g / cm^3
# Si number density = 19.088170 Si / 1000 Ang^3
#
#
#
# Elastic Constant Matrix: (Units=GPa)
#
#
# Indices 1 2 3 4 5 6 
#
# 1 88.8822 28.4425 38.6269 0.0000 15.2116 0.0000
# 2 28.4425 30.3384 32.0628 -0.0001 5.9318 0.0000
# 3 38.6269 32.0628 82.6396 -0.0004 9.3409 0.0000
# 4 0.0000 -0.0001 -0.0004 12.0881 -0.0001 2.2501
# 5 15.2116 5.9318 9.3409 -0.0001 35.3310 0.0000
# 6 0.0000 0.0000 0.0000 2.2501 0.0000 27.2959
#
#
#
# Elastic Compliance Matrix: (Units=1/GPa)
#
#
# Indices 1 2 3 4 5 6 
#
# 1 0.017162 -0.012309 -0.002726 0.000000 -0.004602 0.000000
# 2 -0.012309 0.065188 -0.019483 0.000000 -0.000494 0.000000
# 3 -0.002726 -0.019483 0.021061 0.000001 -0.001123 0.000000
# 4 0.000000 0.000000 0.000001 0.084015 0.000000 -0.006926
# 5 -0.004602 -0.000494 -0.001123 0.000000 0.030665 0.000000
# 6 0.000000 0.000000 0.000000 -0.006926 0.000000 0.037206
#
#
# Mechanical properties :
#
#
# Convention : Reuss Voigt Hill
#
# Bulk Modulus (GPa) = 29.09032 44.45830 36.77431
# Shear Modulus (GPa) = 14.89025 21.79153 18.34089
#
# Velocity S-wave (km/s) = 2.79602 3.38246 3.10312
# Velocity P-wave (km/s) = 5.06919 6.21259 5.66979
#
# Compressibility (1/GPa) = 0.03437569
#
# Stress axis : x y z
#
# Youngs Moduli (GPa) = 58.26859 15.34036 47.48157
#
# Poissons Ratio (x) = 0.18882 0.12943
# Poissons Ratio (y) = 0.71721 0.92506
# Poissons Ratio (z) = 0.15884 0.29887
#
# Static dielectric constant tensor:
#      x y z
#    x 1.663160 0.000000 0.005200 
#    y 0.000000 1.695190 0.000000 
#    z 0.005200 0.000000 1.661410 
# 
# From -- ./inp_files/356720.got.cif
#   From: 2010.05.17/outbox.cif.g08.bks.cpg/sg12_179_cif.got.tgz:356720.got - 2010.06.03 13:09:07.
