data_PCOD9189362
_publ_section_title
;
Structure prediction by ZEFSAII (Michael W. Deem and Ramdas Pophale) SiO2 
 PCOD9189362
Probable space group: C 2/M
;
_chemical_formula_sum "Si O2"
_cell_formula_units_Z 48
_cell_length_a 20.372799
_cell_length_b 9.033731
_cell_length_c 15.076786
_cell_angle_alpha 90.000000
_cell_angle_beta 99.379244
_cell_angle_gamma 90.000000
_cell_volume 2737.672529
_symmetry_space_group_name_H-M "C 2/M"
_symmetry_group_IT_number 12
_symmetry_cell_setting 'monoclinic'
loop_
_space_group_symop_operation_xyz
x,y,z
-x,y,-z
-x,-y,-z
x,-y,z
1/2+x,1/2+y,z
1/2-x,1/2+y,-z
1/2-x,1/2-y,-z
1/2+x,1/2-y,z
loop_
_atom_site_type_symbol
_atom_site_label
_atom_site_fract_x
_atom_site_fract_y
_atom_site_fract_z
Si Si1 0.983683 0.823982 0.760741
Si Si2 0.810271 0.822541 0.566577
Si Si3 0.452927 0.176685 0.572820
Si Si4 0.668713 0.675099 0.224743
Si Si5 0.436138 0.674129 0.049316
Si Si6 0.195316 0.324735 0.050131
O O1 0.986707 0.732999 0.671060
O O2 0.910760 0.796146 0.787213
O O3 0.039319 0.790726 0.845969
O O4 0.985666 0.000000 0.741321
O O5 0.750000 0.750000 0.500000
O O6 0.881273 0.756189 0.552301
O O7 0.804359 0.791648 0.670923
O O8 0.810953 0.000000 0.555907
O O9 0.500000 0.211832 0.500000
O O10 0.443027 0.000000 0.573995
O O11 0.677284 0.500000 0.209329
O O12 0.699968 0.766414 0.151956
O O13 0.416829 0.500000 0.041227
O O14 0.500000 0.691098 0.000000
O O15 0.376156 0.772662 0.002258
O O16 0.201785 0.500000 0.049091
O O17 0.250000 0.250000 0.000000
#
# Coordination Sequence:
#
# PCOD9189362 Si02
#       6
#     8   8   8   8   8   8
#     4   9  18  34  60  87 111 147 188 230 280 334
#     4  10  21  38  62  87 113 148 190 235 283 339
#     4  10  21  37  57  83 118 154 186 231 286 332
#     4   9  18  37  60  83 112 149 187 230 284 337
#     4  10  19  37  62  85 114 148 184 229 281 338
#     4  12  25  39  57  83 116 153 191 234 284 335
#
# _framework density 17.533141000000001
#
# number of rings (size 3 to 8) (size 9 to 14) (size 15 to 20)
#    0.000    2.000    1.667    3.500    0.000    5.667 
#    3.000    0.000    0.000    0.000    0.000    0.000 
#    0.000    0.000    0.000    0.000    0.000    0.000 
#
# Total GULP energy -134003.764327 kJ/mol
# GULP energy per Si atom -5583.490180 kJ/mol
# Density = 1.749323 g / cm^3
# Si number density = 17.533141 Si / 1000 Ang^3
#
#
#
# Elastic Constant Matrix: (Units=GPa)
#
#
# Indices 1 2 3 4 5 6 
#
# 1 72.4543 65.8543 78.4752 0.0000 -4.8573 0.0000
# 2 65.8543 105.5201 93.6033 0.0000 -11.6425 0.0000
# 3 78.4752 93.6033 145.5959 0.0000 -8.0393 0.0000
# 4 0.0000 0.0000 0.0000 35.4855 0.0000 1.0207
# 5 -4.8573 -11.6425 -8.0393 0.0000 29.8017 0.0000
# 6 0.0000 0.0000 0.0000 1.0207 0.0000 30.9011
#
#
#
# Elastic Compliance Matrix: (Units=1/GPa)
#
#
# Indices 1 2 3 4 5 6 
#
# 1 0.040281 -0.014022 -0.012827 0.000000 -0.002373 0.000000
# 2 -0.014022 0.027652 -0.009897 0.000000 0.005848 0.000000
# 3 -0.012827 -0.009897 0.020116 0.000000 -0.000531 0.000000
# 4 0.000000 0.000000 0.000000 0.028207 0.000000 -0.000932
# 5 -0.002373 0.005848 -0.000531 0.000000 0.035310 0.000000
# 6 0.000000 0.000000 0.000000 -0.000932 0.000000 0.032392
#
#
# Mechanical properties :
#
#
# Convention : Reuss Voigt Hill
#
# Bulk Modulus (GPa) = 68.70010 88.82622 78.76316
# Shear Modulus (GPa) = 19.06197 24.94685 22.00441
#
# Velocity S-wave (km/s) = 3.30084 3.77615 3.54647
# Velocity P-wave (km/s) = 7.33454 8.35370 7.86065
#
# Compressibility (1/GPa) = 0.01455602
#
# Stress axis : x y z
#
# Youngs Moduli (GPa) = 24.82581 36.16318 49.71264
#
# Poissons Ratio (x) = 0.50708 0.63768
# Poissons Ratio (y) = 0.34811 0.49201
# Poissons Ratio (z) = 0.31845 0.35791
#
# Static dielectric constant tensor:
#      x y z
#    x 1.572420 0.000000 0.007260 
#    y 0.000000 1.581790 0.000000 
#    z 0.007260 0.000000 1.597200 
# 
# From -- ./inp_files/221629.got.cif
#   From: 2010.05.17/outbox.cif.g08.bks.cpg/sg12_111_cif.got.tgz:221629.got - 2010.06.03 13:09:07.
