data_PCOD9189882
_publ_section_title
;
Structure prediction by ZEFSAII (Michael W. Deem and Ramdas Pophale) SiO2 
 PCOD9189882
Probable space group: C 2/M
;
_chemical_formula_sum "Si O2"
_cell_formula_units_Z 48
_cell_length_a 17.597494
_cell_length_b 16.313576
_cell_length_c 16.727818
_cell_angle_alpha 90.000000
_cell_angle_beta 156.796259
_cell_angle_gamma 90.000000
_cell_volume 1892.071879
_symmetry_space_group_name_H-M "C 2/M"
_symmetry_group_IT_number 12
_symmetry_cell_setting 'monoclinic'
loop_
_space_group_symop_operation_xyz
x,y,z
-x,y,-z
-x,-y,-z
x,-y,z
1/2+x,1/2+y,z
1/2-x,1/2+y,-z
1/2-x,1/2-y,-z
1/2+x,1/2-y,z
loop_
_atom_site_type_symbol
_atom_site_label
_atom_site_fract_x
_atom_site_fract_y
_atom_site_fract_z
Si Si1 0.260176 0.500000 0.359302
Si Si2 0.185832 0.299316 0.720710
Si Si3 0.225446 0.831267 0.889486
Si Si4 0.639742 0.334064 0.279635
Si Si5 0.782564 0.595847 0.108147
Si Si6 0.743507 0.342272 0.545699
Si Si7 0.774697 0.000000 0.193123
O O1 0.201862 0.418380 0.347753
O O2 0.201807 0.500000 0.211984
O O3 0.492683 0.500000 0.582970
O O4 0.184751 0.500000 0.878190
O O5 0.302877 0.330015 0.757508
O O6 0.124137 0.373919 0.718670
O O7 0.000000 0.257417 0.500000
O O8 0.277574 0.763240 0.873440
O O9 0.989966 0.827088 0.670825
O O10 0.278192 0.917673 0.902134
O O11 0.312983 0.840967 0.063305
O O12 0.772348 0.367583 0.480879
O O13 0.649793 0.238835 0.319681
O O14 0.446492 0.387753 0.098221
#
# Coordination Sequence:
#
# PCOD9189882 Si02
#       7
#     4   8   8   8   8   8   4
#     4   9  16  26  52  94 128 163 199 258 316 374
#     4  12  24  40  65  96 129 166 214 269 321 376
#     4  10  19  38  65  95 127 164 211 264 321 375
#     4  10  21  37  61  91 128 168 215 257 308 383
#     4  11  25  45  66  92 127 174 218 262 315 378
#     4   9  18  34  58  93 131 165 211 254 318 380
#     4   9  16  26  58  96 126 152 207 270 304 370
#
# _framework density 25.369015999999998
#
# number of rings (size 3 to 8) (size 9 to 14) (size 15 to 20)
#    0.000    1.833    2.500    2.000    5.833    1.667 
#    0.000    0.000    0.000    1.000    0.000    3.500 
#    0.000    0.000    0.000    0.000    0.000    0.000 
#
# Total GULP energy -134180.153220 kJ/mol
# GULP energy per Si atom -5590.839717 kJ/mol
# Density = 2.531127 g / cm^3
# Si number density = 25.369016 Si / 1000 Ang^3
#
#
#
# Elastic Constant Matrix: (Units=GPa)
#
#
# Indices 1 2 3 4 5 6 
#
# 1 166.4631 29.1591 45.9835 -0.0021 -48.4068 0.0032
# 2 29.1591 106.4966 7.1070 -0.0039 -12.1640 -0.0077
# 3 45.9835 7.1070 127.0449 0.0020 -16.7464 -0.0032
# 4 -0.0021 -0.0039 0.0020 14.0454 0.0003 1.0066
# 5 -48.4068 -12.1640 -16.7464 0.0003 48.2890 -0.0045
# 6 0.0032 -0.0077 -0.0032 1.0066 -0.0045 37.6306
#
#
#
# Elastic Compliance Matrix: (Units=1/GPa)
#
#
# Indices 1 2 3 4 5 6 
#
# 1 0.009230 -0.001453 -0.002188 0.000001 0.008127 0.000000
# 2 -0.001453 0.009903 0.000114 0.000002 0.001078 0.000002
# 3 -0.002188 0.000114 0.008772 -0.000002 0.000878 0.000001
# 4 0.000001 0.000002 -0.000002 0.071335 0.000001 -0.001908
# 5 0.008127 0.001078 0.000878 0.000001 0.029432 0.000003
# 6 0.000000 0.000002 0.000001 -0.001908 0.000003 0.026625
#
#
# Mechanical properties :
#
#
# Convention : Reuss Voigt Hill
#
# Bulk Modulus (GPa) = 47.95807 62.72262 55.34035
# Shear Modulus (GPa) = 29.53315 41.17666 35.35491
#
# Velocity S-wave (km/s) = 3.41565 4.03315 3.73718
# Velocity P-wave (km/s) = 5.87374 6.81661 6.36267
#
# Compressibility (1/GPa) = 0.02085155
#
# Stress axis : x y z
#
# Youngs Moduli (GPa) = 108.34625 100.97694 113.99263
#
# Poissons Ratio (x) = 0.14670 0.24942
# Poissons Ratio (y) = 0.15740 -0.01298
# Poissons Ratio (z) = 0.23707 -0.01150
#
# Static dielectric constant tensor:
#      x y z
#    x 2.051710 0.000000 0.096400 
#    y 0.000000 1.941850 0.000000 
#    z 0.096400 0.000000 2.063380 
# 
# From -- ./inp_files/226957.got.cif
#   From: 2010.05.17/outbox.cif.g08.bks.cpg/sg12_114_cif.got.tgz:226957.got - 2010.06.03 13:09:07.
