data_PCOD9189521
_publ_section_title
;
Structure prediction by ZEFSAII (Michael W. Deem and Ramdas Pophale) SiO2 
 PCOD9189521
Probable space group: C 2/M
;
_chemical_formula_sum "Si O2"
_cell_formula_units_Z 36
_cell_length_a 9.227216
_cell_length_b 24.225282
_cell_length_c 10.624858
_cell_angle_alpha 90.000000
_cell_angle_beta 42.505342
_cell_angle_gamma 90.000000
_cell_volume 1604.686480
_symmetry_space_group_name_H-M "C 2/M"
_symmetry_group_IT_number 12
_symmetry_cell_setting 'monoclinic'
loop_
_space_group_symop_operation_xyz
x,y,z
-x,y,-z
-x,-y,-z
x,-y,z
1/2+x,1/2+y,z
1/2-x,1/2+y,-z
1/2-x,1/2-y,-z
1/2+x,1/2-y,z
loop_
_atom_site_type_symbol
_atom_site_label
_atom_site_fract_x
_atom_site_fract_y
_atom_site_fract_z
Si Si1 0.746205 0.936711 0.702960
Si Si2 0.123938 0.858397 0.169070
Si Si3 0.376994 0.133515 0.446283
Si Si4 0.000000 0.172973 0.000000
Si Si5 0.612362 0.755863 0.301025
O O1 0.742973 0.899837 0.830699
O O2 0.610413 0.908451 0.678127
O O3 0.000000 0.936569 0.500000
O O4 0.684118 0.000000 0.762504
O O5 0.169014 0.795074 0.176977
O O6 0.874159 0.866837 0.361560
O O7 0.134402 0.862649 0.012379
O O8 0.500000 0.121264 0.500000
O O9 0.452840 0.195261 0.357840
O O10 0.833770 0.211616 0.180507
O O11 0.500000 0.734193 0.500000
#
# Coordination Sequence:
#
# PCOD9189521 Si02
#       5
#     8   8   8   4   8
#     4   9  20  38  64  94 122 167 216 257 309 367
#     4  11  22  39  61  90 133 167 204 262 309 370
#     4  10  19  37  65  89 126 165 202 257 316 372
#     4  12  24  38  59  98 125 170 210 250 314 376
#     4  11  22  39  62  93 131 162 205 253 318 375
#
# _framework density 22.434289
#
# number of rings (size 3 to 8) (size 9 to 14) (size 15 to 20)
#    0.000    1.556    4.444    3.333    3.111    0.444 
#    0.000    0.556    0.000    2.667    0.000    0.000 
#    0.000    0.000    0.000    0.000    0.000    0.000 
#
# Total GULP energy -100576.249150 kJ/mol
# GULP energy per Si atom -5587.569397 kJ/mol
# Density = 2.238323 g / cm^3
# Si number density = 22.434289 Si / 1000 Ang^3
#
#
#
# Elastic Constant Matrix: (Units=GPa)
#
#
# Indices 1 2 3 4 5 6 
#
# 1 157.6756 113.6593 23.8353 0.0000 30.9543 0.0000
# 2 113.6593 148.0206 9.0294 0.0000 38.4954 0.0000
# 3 23.8353 9.0294 47.8830 0.0000 2.7399 0.0000
# 4 0.0000 0.0000 0.0000 144.7884 0.0000 230.1415
# 5 30.9543 38.4954 2.7399 0.0000 52.1368 0.0000
# 6 0.0000 0.0000 0.0000 230.1415 0.0000 411.5110
#
#
#
# Elastic Compliance Matrix: (Units=1/GPa)
#
#
# Indices 1 2 3 4 5 6 
#
# 1 0.015545 -0.011478 -0.005547 0.000000 -0.000463 0.000000
# 2 -0.011478 0.016908 0.002858 0.000000 -0.005820 0.000000
# 3 -0.005547 0.002858 0.023108 0.000000 -0.000031 0.000000
# 4 0.000000 0.000000 0.000000 0.062191 0.000000 -0.034781
# 5 -0.000463 -0.005820 -0.000031 0.000000 0.023754 0.000000
# 6 0.000000 0.000000 0.000000 -0.034781 0.000000 0.021882
#
#
# Mechanical properties :
#
#
# Convention : Reuss Voigt Hill
#
# Bulk Modulus (GPa) = 36.72682 71.84747 54.28714
# Shear Modulus (GPa) = 24.90050 135.49093 80.19571
#
# Velocity S-wave (km/s) = 3.33518 7.77983 5.98536
# Velocity P-wave (km/s) = 5.58906 10.62055 8.48628
#
# Compressibility (1/GPa) = 0.02722806
#
# Stress axis : x y z
#
# Youngs Moduli (GPa) = 64.32806 59.14213 43.27430
#
# Poissons Ratio (x) = 0.67882 0.24006
# Poissons Ratio (y) = 0.73834 -0.12368
# Poissons Ratio (z) = 0.35685 -0.16903
#
# Static dielectric constant tensor:
#      x y z
#    x 1.863240 0.000000 0.034530 
#    y 0.000000 1.783960 0.000000 
#    z 0.034530 0.000000 1.938100 
# 
# From -- ./inp_files/121613.got.cif
#   From: 2010.05.17/outbox.cif.g08.bks.cpg/sg12_61_cif.got.tgz:121613.got - 2010.06.03 13:09:07.
