data_PCOD9189052
_publ_section_title
;
Structure prediction by ZEFSAII (Michael W. Deem and Ramdas Pophale) SiO2 
 PCOD9189052
Probable space group: C 2/M
;
_chemical_formula_sum "Si O2"
_cell_formula_units_Z 40
_cell_length_a 7.287547
_cell_length_b 23.044202
_cell_length_c 13.261479
_cell_angle_alpha 90.000000
_cell_angle_beta 131.423380
_cell_angle_gamma 90.000000
_cell_volume 1669.953107
_symmetry_space_group_name_H-M "C 2/M"
_symmetry_group_IT_number 12
_symmetry_cell_setting 'monoclinic'
loop_
_space_group_symop_operation_xyz
x,y,z
-x,y,-z
-x,-y,-z
x,-y,z
1/2+x,1/2+y,z
1/2-x,1/2+y,-z
1/2-x,1/2-y,-z
1/2+x,1/2-y,z
loop_
_atom_site_type_symbol
_atom_site_label
_atom_site_fract_x
_atom_site_fract_y
_atom_site_fract_z
Si Si1 0.391954 0.346479 0.857557
Si Si2 0.528421 0.933724 0.789832
Si Si3 0.336540 0.649875 0.253358
Si Si4 0.023640 0.728466 0.612724
Si Si5 0.743231 0.935664 0.520249
O O1 0.576405 0.340418 0.830620
O O2 0.290903 0.410640 0.846065
O O3 0.145148 0.313287 0.736066
O O4 0.500000 0.321943 0.000000
O O5 0.409088 0.887956 0.824322
O O6 0.349701 0.931592 0.627850
O O7 0.540783 0.000000 0.830444
O O8 0.331857 0.710902 0.313116
O O9 0.556741 0.611712 0.379828
O O10 0.750000 0.750000 0.500000
O O11 0.000000 0.692749 0.500000
O O12 0.500000 0.933222 0.500000
O O13 0.853412 0.000000 0.576174
#
# Coordination Sequence:
#
# PCOD9189052 Si02
#       5
#     8   8   8   8   8
#     4  12  29  49  71 107 150 196 239 302 374 439
#     4  11  25  45  71 107 145 189 248 304 366 437
#     4  12  24  43  73 103 147 190 245 296 374 432
#     4  12  24  45  75 109 141 188 245 302 360 436
#     4  10  19  36  68 105 141 181 233 302 366 424
#
# _framework density 23.952767999999999
#
# number of rings (size 3 to 8) (size 9 to 14) (size 15 to 20)
#    0.000    0.600    4.000    4.800    0.000    4.400 
#    0.000    1.000    0.000    0.000    0.000    0.000 
#    0.000    0.000    0.000    0.000    0.000    0.000 
#
# Total GULP energy -111652.977010 kJ/mol
# GULP energy per Si atom -5582.648851 kJ/mol
# Density = 2.389825 g / cm^3
# Si number density = 23.952768 Si / 1000 Ang^3
#
#
#
# Elastic Constant Matrix: (Units=GPa)
#
#
# Indices 1 2 3 4 5 6 
#
# 1 100.0056 16.0919 20.3732 0.0000 -25.3562 0.0000
# 2 16.0919 147.4335 26.1102 0.0000 -7.3816 0.0000
# 3 20.3732 26.1102 124.4125 0.0000 -26.9593 0.0000
# 4 0.0000 0.0000 0.0000 -1.8334 0.0000 -17.0494
# 5 -25.3562 -7.3816 -26.9593 0.0000 16.7768 0.0000
# 6 0.0000 0.0000 0.0000 -17.0494 0.0000 2.4547
#
#
#
# Elastic Compliance Matrix: (Units=1/GPa)
#
#
# Indices 1 2 3 4 5 6 
#
# 1 0.017840 -0.001072 0.004671 0.000000 0.033997 0.000000
# 2 -0.001072 0.007122 -0.001521 0.000000 -0.000931 0.000000
# 3 0.004671 -0.001521 0.013773 0.000000 0.028521 0.000000
# 4 0.000000 0.000000 0.000000 -0.008316 0.000000 -0.057759
# 5 0.033997 -0.000931 0.028521 0.000000 0.156412 0.000000
# 6 0.000000 0.000000 0.000000 -0.057759 0.000000 0.006211
#
#
# Mechanical properties :
#
#
# Convention : Reuss Voigt Hill
#
# Bulk Modulus (GPa) = 23.31529 55.22248 39.26889
# Shear Modulus (GPa) = 24.60820 24.09803 24.35312
#
# Velocity S-wave (km/s) = 3.20873 3.17529 3.19205
# Velocity P-wave (km/s) = 4.84592 6.04550 5.47864
#
# Compressibility (1/GPa) = 0.04289031
#
# Stress axis : x y z
#
# Youngs Moduli (GPa) = 56.05252 140.40018 72.60828
#
# Poissons Ratio (x) = 0.15054 -0.33912
# Poissons Ratio (y) = 0.06010 0.11043
# Poissons Ratio (z) = -0.26179 0.21353
#
# Static dielectric constant tensor:
#      x y z
#    x 2.046550 0.000000 -0.003630 
#    y 0.000000 1.887780 0.000000 
#    z -0.003630 0.000000 1.838620 
# 
# From -- ./inp_files/198685.got.cif
#   From: 2010.05.17/outbox.cif.g08.bks.cpg/sg12_100_cif.got.tgz:198685.got - 2010.06.03 13:09:07.
