data_PCOD9189171
_publ_section_title
;
Structure prediction by ZEFSAII (Michael W. Deem and Ramdas Pophale) SiO2 
 PCOD9189171
Probable space group: C 2/M
;
_chemical_formula_sum "Si O2"
_cell_formula_units_Z 40
_cell_length_a 31.355297
_cell_length_b 17.092655
_cell_length_c 10.347916
_cell_angle_alpha 90.000000
_cell_angle_beta 158.307994
_cell_angle_gamma 90.000000
_cell_volume 2049.865747
_symmetry_space_group_name_H-M "C 2/M"
_symmetry_group_IT_number 12
_symmetry_cell_setting 'monoclinic'
loop_
_space_group_symop_operation_xyz
x,y,z
-x,y,-z
-x,-y,-z
x,-y,z
1/2+x,1/2+y,z
1/2-x,1/2+y,-z
1/2-x,1/2-y,-z
1/2+x,1/2-y,z
loop_
_atom_site_type_symbol
_atom_site_label
_atom_site_fract_x
_atom_site_fract_y
_atom_site_fract_z
Si Si1 0.236621 0.843022 0.983716
Si Si2 0.146685 0.309994 0.183847
Si Si3 0.362885 0.088919 0.093505
Si Si4 0.739594 0.906275 0.665878
Si Si5 0.018494 0.178792 0.700770
O O1 0.099991 0.862341 0.594222
O O2 0.250000 0.750000 0.000000
O O3 0.303057 0.885368 0.056683
O O4 0.278620 0.870579 0.242858
O O5 0.250000 0.250000 0.500000
O O6 0.148652 0.369554 0.308580
O O7 0.170423 0.356102 0.118867
O O8 0.039228 0.253516 0.850835
O O9 0.500000 0.093268 0.500000
O O10 0.331885 0.000000 0.974104
O O11 0.735889 0.000000 0.657841
O O12 0.867808 0.875839 0.982934
O O13 0.000000 0.206473 0.500000
#
# Coordination Sequence:
#
# PCOD9189171 Si02
#       5
#     8   8   8   8   8
#     4  11  21  37  60  84 112 150 195 234 276 336
#     4  10  19  37  59  82 115 150 185 228 280 335
#     4  11  23  39  59  83 114 151 190 234 283 337
#     4  10  21  37  59  88 118 147 184 235 289 334
#     4   9  19  35  60  86 111 148 192 236 277 331
#
# _framework density 19.513473000000001
#
# number of rings (size 3 to 8) (size 9 to 14) (size 15 to 20)
#    0.000    1.800    0.000    6.600    0.000    4.400 
#    0.000   14.000    0.000   13.200    0.000    0.000 
#    0.000    0.000    0.000    0.000    0.000    0.000 
#
# Total GULP energy -111689.960743 kJ/mol
# GULP energy per Si atom -5584.498037 kJ/mol
# Density = 1.946906 g / cm^3
# Si number density = 19.513473 Si / 1000 Ang^3
#
#
#
# Elastic Constant Matrix: (Units=GPa)
#
#
# Indices 1 2 3 4 5 6 
#
# 1 133.5423 45.7028 48.2879 0.0000 -12.7446 0.0000
# 2 45.7028 124.5599 26.0663 0.0000 -19.1765 0.0000
# 3 48.2879 26.0663 68.5572 0.0000 -15.1128 0.0000
# 4 0.0000 0.0000 0.0000 8.3231 0.0000 0.6334
# 5 -12.7446 -19.1765 -15.1128 0.0000 24.9364 0.0000
# 6 0.0000 0.0000 0.0000 0.6334 0.0000 20.5198
#
#
#
# Elastic Compliance Matrix: (Units=1/GPa)
#
#
# Indices 1 2 3 4 5 6 
#
# 1 0.010759 -0.002635 -0.006706 0.000000 -0.000592 0.000000
# 2 -0.002635 0.010053 -0.000645 0.000000 0.005993 0.000000
# 3 -0.006706 -0.000645 0.021572 0.000000 0.009151 0.000000
# 4 0.000000 0.000000 0.000000 0.120431 0.000000 -0.003718
# 5 -0.000592 0.005993 0.009151 0.000000 0.049954 0.000000
# 6 0.000000 0.000000 0.000000 -0.003718 0.000000 0.048848
#
#
# Mechanical properties :
#
#
# Convention : Reuss Voigt Hill
#
# Bulk Modulus (GPa) = 44.62188 62.97480 53.79834
# Shear Modulus (GPa) = 17.29744 24.52934 20.91339
#
# Velocity S-wave (km/s) = 2.98054 3.54933 3.27730
# Velocity P-wave (km/s) = 5.89590 7.00996 6.47693
#
# Compressibility (1/GPa) = 0.02241053
#
# Stress axis : x y z
#
# Youngs Moduli (GPa) = 92.94896 99.47470 46.35562
#
# Poissons Ratio (x) = 0.26214 0.31088
# Poissons Ratio (y) = 0.24494 0.02990
# Poissons Ratio (z) = 0.62335 0.06416
#
# Static dielectric constant tensor:
#      x y z
#    x 1.654710 0.000000 -0.002100 
#    y 0.000000 1.683600 0.000000 
#    z -0.002100 0.000000 1.709630 
# 
# From -- ./inp_files/60848.got.cif
#   From: 2010.05.17/outbox.cif.g08.bks.cpg/sg12_31_cif.got.tgz:60848.got - 2010.06.03 13:09:07.
