data_PCOD9189668
_publ_section_title
;
Structure prediction by ZEFSAII (Michael W. Deem and Ramdas Pophale) SiO2 
 PCOD9189668
Probable space group: C 2/M
;
_chemical_formula_sum "Si O2"
_cell_formula_units_Z 48
_cell_length_a 17.866778
_cell_length_b 15.081540
_cell_length_c 14.103637
_cell_angle_alpha 90.000000
_cell_angle_beta 146.912025
_cell_angle_gamma 90.000000
_cell_volume 2074.707784
_symmetry_space_group_name_H-M "C 2/M"
_symmetry_group_IT_number 12
_symmetry_cell_setting 'monoclinic'
loop_
_space_group_symop_operation_xyz
x,y,z
-x,y,-z
-x,-y,-z
x,-y,z
1/2+x,1/2+y,z
1/2-x,1/2+y,-z
1/2-x,1/2-y,-z
1/2+x,1/2-y,z
loop_
_atom_site_type_symbol
_atom_site_label
_atom_site_fract_x
_atom_site_fract_y
_atom_site_fract_z
Si Si1 0.689406 0.649750 0.440858
Si Si2 0.913142 0.634909 0.997871
Si Si3 0.475755 0.905044 0.682598
Si Si4 0.354238 0.352731 0.381772
Si Si5 0.562917 0.348832 0.965975
Si Si6 0.628611 0.158115 0.688095
O O1 0.750000 0.750000 0.500000
O O2 0.811962 0.600830 0.514936
O O3 0.674641 0.630228 0.537789
O O4 0.546236 0.633381 0.233953
O O5 0.925543 0.741623 0.020120
O O6 0.973387 0.597819 0.156662
O O7 0.760381 0.609456 0.809104
O O8 0.000000 0.607754 0.000000
O O9 0.556473 0.827120 0.713580
O O10 0.518700 0.000000 0.687666
O O11 0.500000 0.383953 0.500000
O O12 0.349372 0.246252 0.352630
O O13 0.500000 0.377321 0.000000
O O14 0.721153 0.381039 0.132129
O O15 0.500000 0.110495 0.500000
#
# Coordination Sequence:
#
# PCOD9189668 Si02
#       6
#     8   8   8   8   8   8
#     4  12  20  39  65  92 127 165 216 267 308 374
#     4  10  19  38  59  92 123 162 209 254 313 369
#     4  12  26  41  63  92 130 174 208 255 322 386
#     4  10  21  34  61  96 123 156 205 269 317 351
#     4  10  20  35  67  98 122 157 210 274 321 356
#     4  10  22  40  61  94 128 160 207 264 321 371
#
# _framework density 23.135788999999999
#
# number of rings (size 3 to 8) (size 9 to 14) (size 15 to 20)
#    0.000    1.333    3.333    5.000    2.333    2.000 
#    0.000    0.833    0.000    3.000    0.000    0.000 
#    0.000    0.000    0.000    0.000    0.000    0.000 
#
# Total GULP energy -133890.599344 kJ/mol
# GULP energy per Si atom -5578.774973 kJ/mol
# Density = 2.308313 g / cm^3
# Si number density = 23.135789 Si / 1000 Ang^3
#
#
#
# Elastic Constant Matrix: (Units=GPa)
#
#
# Indices 1 2 3 4 5 6 
#
# 1 116.7225 -1.0790 54.9344 -0.0001 13.4391 0.0000
# 2 -1.0790 41.6022 -0.3769 -0.0001 -1.2649 0.0000
# 3 54.9344 -0.3769 219.8439 -0.0001 29.0622 0.0000
# 4 -0.0001 -0.0001 -0.0001 -15.5859 -0.0001 -12.2243
# 5 13.4391 -1.2649 29.0622 -0.0001 55.0050 0.0000
# 6 0.0000 0.0000 0.0000 -12.2243 0.0000 23.8570
#
#
#
# Elastic Compliance Matrix: (Units=1/GPa)
#
#
# Indices 1 2 3 4 5 6 
#
# 1 0.009782 0.000197 -0.002288 0.000000 -0.001176 0.000000
# 2 0.000197 0.024058 -0.000080 0.000000 0.000548 0.000000
# 3 -0.002288 -0.000080 0.005426 0.000000 -0.002309 0.000000
# 4 0.000000 0.000000 0.000000 -0.045767 0.000000 -0.023451
# 5 -0.001176 0.000548 -0.002309 0.000000 0.019700 0.000000
# 6 0.000000 0.000000 0.000000 -0.023451 0.000000 0.029900
#
#
# Mechanical properties :
#
#
# Convention : Reuss Voigt Hill
#
# Bulk Modulus (GPa) = 28.63503 53.90285 41.26894
# Shear Modulus (GPa) = 84.62735 34.30121 59.46428
#
# Velocity S-wave (km/s) = 6.05458 3.85464 5.07524
# Velocity P-wave (km/s) = 7.82822 6.56963 7.22638
#
# Compressibility (1/GPa) = 0.03492226
#
# Stress axis : x y z
#
# Youngs Moduli (GPa) = 102.23288 41.56583 184.30957
#
# Poissons Ratio (x) = -0.00820 0.42177
# Poissons Ratio (y) = -0.02016 0.01482
# Poissons Ratio (z) = 0.23395 0.00334
#
# Static dielectric constant tensor:
#      x y z
#    x 2.082900 0.000000 -0.487010 
#    y 0.000000 2.001580 0.000000 
#    z -0.487010 0.000000 3.372720 
# 
# From -- ./inp_files/148012.got.cif
#   From: 2010.05.17/outbox.cif.g08.bks.cpg/sg12_75_cif.got.tgz:148012.got - 2010.06.03 13:09:07.
