data_PCOD9189904
_publ_section_title
;
Structure prediction by ZEFSAII (Michael W. Deem and Ramdas Pophale) SiO2 
 PCOD9189904
Probable space group: C 2/M
;
_chemical_formula_sum "Si O2"
_cell_formula_units_Z 48
_cell_length_a 18.756810
_cell_length_b 22.950843
_cell_length_c 9.835370
_cell_angle_alpha 90.000000
_cell_angle_beta 151.377477
_cell_angle_gamma 90.000000
_cell_volume 2028.230658
_symmetry_space_group_name_H-M "C 2/M"
_symmetry_group_IT_number 12
_symmetry_cell_setting 'monoclinic'
loop_
_space_group_symop_operation_xyz
x,y,z
-x,y,-z
-x,-y,-z
x,-y,z
1/2+x,1/2+y,z
1/2-x,1/2+y,-z
1/2-x,1/2-y,-z
1/2+x,1/2-y,z
loop_
_atom_site_type_symbol
_atom_site_label
_atom_site_fract_x
_atom_site_fract_y
_atom_site_fract_z
Si Si1 0.744014 0.182176 0.960278
Si Si2 0.209119 0.435624 0.314491
Si Si3 0.111728 0.678797 0.022139
Si Si4 0.203697 0.293107 0.600391
Si Si5 0.155039 0.087589 0.190453
Si Si6 0.524746 0.411471 0.695864
O O1 0.667175 0.157967 0.965378
O O2 0.906860 0.153384 0.213214
O O3 0.750000 0.250000 0.000000
O O4 0.660886 0.181237 0.677758
O O5 0.161961 0.500000 0.189636
O O6 0.119084 0.379840 0.118304
O O7 0.223822 0.436550 0.502702
O O8 0.370033 0.421236 0.514073
O O9 0.052722 0.705985 0.262760
O O10 0.222817 0.729716 0.260806
O O11 0.321872 0.342395 0.755094
O O12 0.143451 0.068820 0.012690
O O13 0.000000 0.070751 0.000000
O O14 0.500000 0.434311 0.500000
#
# Coordination Sequence:
#
# PCOD9189904 Si02
#       6
#     8   8   8   8   8   8
#     4   9  19  33  62  97 143 169 213 271 349 406
#     4  11  25  44  65  93 138 186 233 281 331 402
#     4  11  23  39  67 101 138 176 224 280 348 411
#     4  10  23  39  66 102 134 180 217 287 350 415
#     4   9  22  41  65  96 138 175 221 279 342 407
#     4  10  19  38  66  98 130 171 225 276 331 395
#
# _framework density 23.665948
#
# number of rings (size 3 to 8) (size 9 to 14) (size 15 to 20)
#    0.000    2.000    1.667    0.500    9.333    4.667 
#    0.000    1.667    0.000    3.000    0.000    0.000 
#    0.000    0.000    0.000    0.000    0.000    0.000 
#
# Total GULP energy -133780.800619 kJ/mol
# GULP energy per Si atom -5574.200026 kJ/mol
# Density = 2.361208 g / cm^3
# Si number density = 23.665948 Si / 1000 Ang^3
#
#
#
# Elastic Constant Matrix: (Units=GPa)
#
#
# Indices 1 2 3 4 5 6 
#
# 1 86.7833 31.8685 48.2111 0.0000 -16.5537 0.0000
# 2 31.8685 172.8049 72.8565 0.0000 6.4968 0.0000
# 3 48.2111 72.8565 169.9878 0.0000 -13.1721 0.0000
# 4 0.0000 0.0000 0.0000 -84.6050 0.0000 -34.5521
# 5 -16.5537 6.4968 -13.1721 0.0000 46.9055 0.0000
# 6 0.0000 0.0000 0.0000 -34.5521 0.0000 -19.2733
#
#
#
# Elastic Compliance Matrix: (Units=1/GPa)
#
#
# Indices 1 2 3 4 5 6 
#
# 1 0.014708 -0.001552 -0.003156 0.000000 0.004519 0.000000
# 2 -0.001552 0.007391 -0.002913 0.000000 -0.002389 0.000000
# 3 -0.003156 -0.002913 0.008149 0.000000 0.001578 0.000000
# 4 0.000000 0.000000 0.000000 -0.044127 0.000000 0.079109
# 5 0.004519 -0.002389 0.001578 0.000000 0.023688 0.000000
# 6 0.000000 0.000000 0.000000 0.079109 0.000000 -0.193707
#
#
# Mechanical properties :
#
#
# Convention : Reuss Voigt Hill
#
# Bulk Modulus (GPa) = 66.63848 81.71646 74.17747
# Shear Modulus (GPa) = -30.55219 7.04811 -11.75204
#
# Velocity S-wave (km/s) = -3.59691 1.72761 -2.23083
# Velocity P-wave (km/s) = 3.31190 6.21157 4.97756
#
# Compressibility (1/GPa) = 0.01500634
#
# Stress axis : x y z
#
# Youngs Moduli (GPa) = 67.98921 135.30097 122.72023
#
# Poissons Ratio (x) = 0.20994 0.38733
# Poissons Ratio (y) = 0.10550 0.35746
# Poissons Ratio (z) = 0.21459 0.39410
#
# Static dielectric constant tensor:
#      x y z
#    x 1.964020 0.000000 -0.057670 
#    y 0.000000 1.890990 0.000000 
#    z -0.057670 0.000000 2.000190 
# 
# From -- ./inp_files/90234.got.cif
#   From: 2010.05.17/outbox.cif.g08.bks.cpg/sg12_46_cif.got.tgz:90234.got - 2010.06.03 13:09:07.
