data_PCOD9189991
_publ_section_title
;
Structure prediction by ZEFSAII (Michael W. Deem and Ramdas Pophale) SiO2 
 PCOD9189991
Probable space group: C 2/M
;
_chemical_formula_sum "Si O2"
_cell_formula_units_Z 40
_cell_length_a 12.969663
_cell_length_b 19.005352
_cell_length_c 10.039358
_cell_angle_alpha 90.000000
_cell_angle_beta 137.544171
_cell_angle_gamma 90.000000
_cell_volume 1670.429812
_symmetry_space_group_name_H-M "C 2/M"
_symmetry_group_IT_number 12
_symmetry_cell_setting 'monoclinic'
loop_
_space_group_symop_operation_xyz
x,y,z
-x,y,-z
-x,-y,-z
x,-y,z
1/2+x,1/2+y,z
1/2-x,1/2+y,-z
1/2-x,1/2-y,-z
1/2+x,1/2-y,z
loop_
_atom_site_type_symbol
_atom_site_label
_atom_site_fract_x
_atom_site_fract_y
_atom_site_fract_z
Si Si1 0.181735 0.694281 0.656917
Si Si2 0.218865 0.137622 0.979406
Si Si3 0.879231 0.500000 0.093760
Si Si4 0.408825 0.580735 0.772228
Si Si5 0.214371 0.500000 0.308460
Si Si6 0.179783 0.847336 0.644677
O O1 0.265355 0.631296 0.659500
O O2 0.217557 0.770065 0.624817
O O3 0.000000 0.685450 0.500000
O O4 0.246982 0.691864 0.870880
O O5 0.261180 0.152987 0.867587
O O6 0.040639 0.116721 0.809971
O O7 0.315438 0.067987 0.106956
O O8 0.058105 0.500000 0.241006
O O9 0.811637 0.500000 0.878277
O O10 0.373886 0.500000 0.700790
O O11 0.500000 0.576966 0.000000
O O12 0.284569 0.421468 0.392130
O O13 0.000000 0.845616 0.500000
#
# Coordination Sequence:
#
# PCOD9189991 Si02
#       6
#     8   8   4   8   4   8
#     4  10  22  39  56  88 121 149 190 239 283 337
#     4  10  19  39  62  83 113 158 187 234 291 339
#     4   9  18  36  60  86 116 142 197 240 280 341
#     4   9  18  36  61  82 113 155 195 232 281 341
#     4   9  19  38  60  84 112 153 189 245 286 330
#     4  10  21  40  60  84 117 151 194 236 287 342
#
# _framework density 23.945931000000002
#
# number of rings (size 3 to 8) (size 9 to 14) (size 15 to 20)
#    0.000    2.400    1.000    0.900    1.400    0.400 
#   28.800    2.000    0.000    0.000    0.000    0.000 
#    0.000    0.000    0.000    0.000    0.000    0.000 
#
# Total GULP energy -111703.136850 kJ/mol
# GULP energy per Si atom -5585.156842 kJ/mol
# Density = 2.389143 g / cm^3
# Si number density = 23.945931 Si / 1000 Ang^3
#
#
#
# Elastic Constant Matrix: (Units=GPa)
#
#
# Indices 1 2 3 4 5 6 
#
# 1 79.7173 69.1572 18.6156 0.0000 5.7875 0.0000
# 2 69.1572 230.3792 65.0913 0.0000 26.2865 0.0000
# 3 18.6156 65.0913 62.8971 0.0000 1.7698 0.0000
# 4 0.0000 0.0000 0.0000 6.1863 0.0000 -17.2637
# 5 5.7875 26.2865 1.7698 0.0000 42.9972 0.0000
# 6 0.0000 0.0000 0.0000 -17.2637 0.0000 19.5219
#
#
#
# Elastic Compliance Matrix: (Units=1/GPa)
#
#
# Indices 1 2 3 4 5 6 
#
# 1 0.017003 -0.005348 0.000475 0.000000 0.000961 0.000000
# 2 -0.005348 0.008389 -0.006983 0.000000 -0.004122 0.000000
# 3 0.000475 -0.006983 0.022893 0.000000 0.003263 0.000000
# 4 0.000000 0.000000 0.000000 -0.110127 0.000000 -0.097388
# 5 0.000961 -0.004122 0.003263 0.000000 0.025513 0.000000
# 6 0.000000 0.000000 0.000000 -0.097388 0.000000 -0.034898
#
#
# Mechanical properties :
#
#
# Convention : Reuss Voigt Hill
#
# Bulk Modulus (GPa) = 40.69384 75.41355 58.05369
# Shear Modulus (GPa) = -127.15317 28.41638 -49.36839
#
# Velocity S-wave (km/s) = -7.29489 3.44857 -4.54548
# Velocity P-wave (km/s) = 7.34322 6.88611 1.80339
#
# Compressibility (1/GPa) = 0.02457374
#
# Stress axis : x y z
#
# Youngs Moduli (GPa) = 58.81236 119.19720 43.68067
#
# Poissons Ratio (x) = 0.63748 -0.02076
# Poissons Ratio (y) = 0.31454 0.30503
# Poissons Ratio (z) = -0.02795 0.83239
#
# Static dielectric constant tensor:
#      x y z
#    x 1.870330 0.000000 -0.079920 
#    y 0.000000 1.924070 0.000000 
#    z -0.079920 0.000000 1.976160 
# 
# From -- ./inp_files/145868.got.cif
#   From: 2010.05.17/outbox.cif.g08.bks.cpg/sg12_73_cif.got.tgz:145868.got - 2010.06.03 13:09:07.
