data_PCOD9189806
_publ_section_title
;
Structure prediction by ZEFSAII (Michael W. Deem and Ramdas Pophale) SiO2 
 PCOD9189806
Probable space group: C 2/M
;
_chemical_formula_sum "Si O2"
_cell_formula_units_Z 40
_cell_length_a 14.368675
_cell_length_b 23.017337
_cell_length_c 7.718593
_cell_angle_alpha 90.000000
_cell_angle_beta 138.615166
_cell_angle_gamma 90.000000
_cell_volume 1687.663381
_symmetry_space_group_name_H-M "C 2/M"
_symmetry_group_IT_number 12
_symmetry_cell_setting 'monoclinic'
loop_
_space_group_symop_operation_xyz
x,y,z
-x,y,-z
-x,-y,-z
x,-y,z
1/2+x,1/2+y,z
1/2-x,1/2+y,-z
1/2-x,1/2-y,-z
1/2+x,1/2-y,z
loop_
_atom_site_type_symbol
_atom_site_label
_atom_site_fract_x
_atom_site_fract_y
_atom_site_fract_z
Si Si1 0.159254 0.813754 0.557109
Si Si2 0.925751 0.880169 0.069657
Si Si3 0.645135 0.000000 0.090528
Si Si4 0.045518 0.000000 0.360885
Si Si5 0.085657 0.690223 0.302710
Si Si6 0.666158 0.877455 0.914077
O O1 0.130308 0.746598 0.474737
O O2 0.269480 0.836562 0.564983
O O3 0.010530 0.843830 0.330475
O O4 0.242347 0.832246 0.843058
O O5 0.759086 0.879244 0.869637
O O6 0.979105 0.944827 0.177312
O O7 0.000000 0.858035 0.000000
O O8 0.785063 0.000000 0.405225
O O9 0.500000 0.000000 0.000000
O O10 0.658801 0.058565 0.992611
O O11 0.000000 0.000000 0.500000
O O12 0.988357 0.649018 0.281700
O O13 0.000000 0.704505 0.000000
#
# Coordination Sequence:
#
# PCOD9189806 Si02
#       6
#     8   8   4   4   8   8
#     4  10  19  38  63  90 124 167 208 261 318 378
#     4  12  24  39  61  91 130 168 212 260 311 375
#     4  12  22  38  72 102 122 156 208 264 316 386
#     4  12  21  42  67  95 123 165 213 258 321 381
#     4   9  20  37  62  94 128 162 214 266 318 375
#     4  11  22  40  65  95 127 166 215 259 316 382
#
# _framework density 23.701408000000001
#
# number of rings (size 3 to 8) (size 9 to 14) (size 15 to 20)
#    0.000    1.200    4.000    3.300    0.000    0.800 
#    0.000    5.000    0.000    1.200    0.000    0.000 
#    0.000    0.000    0.000    0.000    0.000    0.000 
#
# Total GULP energy -111696.007350 kJ/mol
# GULP energy per Si atom -5584.800367 kJ/mol
# Density = 2.364746 g / cm^3
# Si number density = 23.701408 Si / 1000 Ang^3
#
#
#
# Elastic Constant Matrix: (Units=GPa)
#
#
# Indices 1 2 3 4 5 6 
#
# 1 188.6802 28.5406 58.0241 0.0000 45.2622 0.0000
# 2 28.5406 58.6733 20.2969 0.0000 13.8455 0.0000
# 3 58.0241 20.2969 96.3158 0.0000 29.8657 0.0000
# 4 0.0000 0.0000 0.0000 30.8972 0.0000 16.5165
# 5 45.2622 13.8455 29.8657 0.0000 60.5429 0.0000
# 6 0.0000 0.0000 0.0000 16.5165 0.0000 12.1361
#
#
#
# Elastic Compliance Matrix: (Units=1/GPa)
#
#
# Indices 1 2 3 4 5 6 
#
# 1 0.007332 -0.001692 -0.002929 0.000000 -0.003650 0.000000
# 2 -0.001692 0.019158 -0.002422 0.000000 -0.001921 0.000000
# 3 -0.002929 -0.002422 0.013939 0.000000 -0.004132 0.000000
# 4 0.000000 0.000000 0.000000 0.118775 0.000000 -0.161646
# 5 -0.003650 -0.001921 -0.004132 0.000000 0.021724 0.000000
# 6 0.000000 0.000000 0.000000 -0.161646 0.000000 0.302390
#
#
# Mechanical properties :
#
#
# Convention : Reuss Voigt Hill
#
# Bulk Modulus (GPa) = 37.96105 61.93252 49.94679
# Shear Modulus (GPa) = 9.87782 36.50240 23.19011
#
# Velocity S-wave (km/s) = 2.04369 3.92866 3.13138
# Velocity P-wave (km/s) = 4.64973 6.83858 5.84749
#
# Compressibility (1/GPa) = 0.02634279
#
# Stress axis : x y z
#
# Youngs Moduli (GPa) = 136.38500 52.19783 71.74251
#
# Poissons Ratio (x) = 0.08833 0.21012
# Poissons Ratio (y) = 0.23079 0.17376
# Poissons Ratio (z) = 0.39945 0.12642
#
# Static dielectric constant tensor:
#      x y z
#    x 1.988980 0.000000 -0.069020 
#    y 0.000000 1.656830 0.000000 
#    z -0.069020 0.000000 1.913510 
# 
# From -- ./inp_files/65621.got.cif
#   From: 2010.05.17/outbox.cif.g08.bks.cpg/sg12_33_cif.got.tgz:65621.got - 2010.06.03 13:09:07.
