data_PCOD9189319
_publ_section_title
;
Structure prediction by ZEFSAII (Michael W. Deem and Ramdas Pophale) SiO2 
 PCOD9189319
Probable space group: C 2/M
;
_chemical_formula_sum "Si O2"
_cell_formula_units_Z 58
_cell_length_a 22.208144
_cell_length_b 16.049411
_cell_length_c 8.765538
_cell_angle_alpha 90.000000
_cell_angle_beta 113.961711
_cell_angle_gamma 90.000000
_cell_volume 2855.020320
_symmetry_space_group_name_H-M "C 2/M"
_symmetry_group_IT_number 12
_symmetry_cell_setting 'monoclinic'
loop_
_space_group_symop_operation_xyz
x,y,z
-x,y,-z
-x,-y,-z
x,-y,z
1/2+x,1/2+y,z
1/2-x,1/2+y,-z
1/2-x,1/2-y,-z
1/2+x,1/2-y,z
loop_
_atom_site_type_symbol
_atom_site_label
_atom_site_fract_x
_atom_site_fract_y
_atom_site_fract_z
Si Si1 0.173597 0.749522 0.962523
Si Si2 0.892943 0.647406 0.847783
Si Si3 0.646367 0.682189 0.635422
Si Si4 0.164649 0.903572 0.181645
Si Si5 0.000000 0.500000 0.000000
Si Si6 0.240848 0.400697 0.437097
Si Si7 0.045617 0.910298 0.698762
Si Si8 0.057365 0.811529 0.251353
O O1 0.145501 0.676739 0.039273
O O2 0.164369 0.835359 0.048415
O O3 0.250000 0.750000 0.000000
O O4 0.143284 0.748278 0.762115
O O5 0.834808 0.625027 0.666607
O O6 0.933649 0.727641 0.832721
O O7 0.942372 0.572431 0.924715
O O8 0.715238 0.655472 0.632616
O O9 0.616702 0.604906 0.700209
O O10 0.597064 0.702476 0.448920
O O11 0.225723 0.886999 0.362141
O O12 0.098302 0.884746 0.209992
O O13 0.167750 0.000000 0.137590
O O14 0.248126 0.500000 0.412738
O O15 0.000000 0.910215 0.500000
O O16 0.015551 0.841239 0.780016
O O17 0.040692 0.000000 0.768960
#
# Coordination Sequence:
#
# PCOD9189319 Si02
#       8
#     8   8   8   8   2   8   8   8
#     4  11  23  38  59  93 126 154 194 262 325 371
#     4  11  24  42  64  85 116 161 216 260 314 358
#     4  10  20  34  60  91 124 156 192 249 312 371
#     4   9  20  36  59  90 126 159 196 251 311 373
#     4  12  28  48  68  86 122 176 226 276 298 380
#     4  10  19  37  61  88 115 158 210 250 297 370
#     4   9  17  32  54  88 123 156 187 227 290 367
#     4   9  20  36  63  87 119 163 205 248 293 381
#
# _framework density 20.315090000000001
#
# number of rings (size 3 to 8) (size 9 to 14) (size 15 to 20)
#    0.000    2.069    2.069    0.828    3.862    6.069 
#    1.241    0.000    0.000    4.138    0.000    0.000 
#    0.000    0.000    0.000    0.000    0.000    0.000 
#
# Total GULP energy -161517.565363 kJ/mol
# GULP energy per Si atom -5569.571219 kJ/mol
# Density = 2.026885 g / cm^3
# Si number density = 20.315090 Si / 1000 Ang^3
#
#
#
# Elastic Constant Matrix: (Units=GPa)
#
#
# Indices 1 2 3 4 5 6 
#
# 1 104.6331 37.4413 32.5885 0.0000 5.9284 0.0000
# 2 37.4413 93.1414 20.4215 0.0000 0.4203 0.0000
# 3 32.5885 20.4215 85.7160 0.0000 2.2623 0.0000
# 4 0.0000 0.0000 0.0000 14.1341 0.0000 4.3921
# 5 5.9284 0.4203 2.2623 0.0000 25.3493 0.0000
# 6 0.0000 0.0000 0.0000 4.3921 0.0000 22.9741
#
#
#
# Elastic Compliance Matrix: (Units=1/GPa)
#
#
# Indices 1 2 3 4 5 6 
#
# 1 0.012310 -0.004142 -0.003628 0.000000 -0.002487 0.000000
# 2 -0.004142 0.012722 -0.001480 0.000000 0.000890 0.000000
# 3 -0.003628 -0.001480 0.013407 0.000000 -0.000323 0.000000
# 4 0.000000 0.000000 0.000000 0.075219 0.000000 -0.014380
# 5 -0.002487 0.000890 -0.000323 0.000000 0.040044 0.000000
# 6 0.000000 0.000000 0.000000 -0.014380 0.000000 0.046276
#
#
# Mechanical properties :
#
#
# Convention : Reuss Voigt Hill
#
# Bulk Modulus (GPa) = 50.15059 51.59922 50.87490
# Shear Modulus (GPa) = 22.20997 25.36078 23.78537
#
# Velocity S-wave (km/s) = 3.31006 3.53706 3.42544
# Velocity P-wave (km/s) = 6.27285 6.49120 6.38296
#
# Compressibility (1/GPa) = 0.01993994
#
# Stress axis : x y z
#
# Youngs Moduli (GPa) = 81.23431 78.60576 74.58924
#
# Poissons Ratio (x) = 0.32557 0.27059
# Poissons Ratio (y) = 0.33646 0.11037
# Poissons Ratio (z) = 0.29470 0.11631
#
# Static dielectric constant tensor:
#      x y z
#    x 1.741060 0.000000 0.052980 
#    y 0.000000 1.726120 0.000000 
#    z 0.052980 0.000000 1.776030 
# 
# From -- ./inp_files/96422.got.cif
#   From: 2010.05.17/outbox.cif.g08.bks.cpg/sg12_49_cif.got.tgz:96422.got - 2010.06.03 13:09:07.
