data_PCOD9189437
_publ_section_title
;
Structure prediction by ZEFSAII (Michael W. Deem and Ramdas Pophale) SiO2 
 PCOD9189437
Probable space group: C 2/M
;
_chemical_formula_sum "Si O2"
_cell_formula_units_Z 44
_cell_length_a 14.500504
_cell_length_b 21.619514
_cell_length_c 9.991601
_cell_angle_alpha 90.000000
_cell_angle_beta 139.260378
_cell_angle_gamma 90.000000
_cell_volume 2044.213093
_symmetry_space_group_name_H-M "C 2/M"
_symmetry_group_IT_number 12
_symmetry_cell_setting 'monoclinic'
loop_
_space_group_symop_operation_xyz
x,y,z
-x,y,-z
-x,-y,-z
x,-y,z
1/2+x,1/2+y,z
1/2-x,1/2+y,-z
1/2-x,1/2-y,-z
1/2+x,1/2-y,z
loop_
_atom_site_type_symbol
_atom_site_label
_atom_site_fract_x
_atom_site_fract_y
_atom_site_fract_z
Si Si1 0.970007 0.725575 0.823874
Si Si2 0.000000 0.693744 0.500000
Si Si3 0.678602 0.000000 0.473097
Si Si4 0.000000 0.901769 0.500000
Si Si5 0.712626 0.000000 0.831947
Si Si6 0.498198 0.500000 0.268892
Si Si7 0.156120 0.206109 0.549812
Si Si8 0.463880 0.894744 0.215664
O O1 0.962437 0.774463 0.692995
O O2 0.807611 0.703237 0.650050
O O3 0.063334 0.662271 0.916619
O O4 0.000000 0.755909 0.000000
O O5 0.864931 0.738680 0.365853
O O6 0.990275 0.648660 0.612530
O O7 0.666366 0.000000 0.624019
O O8 0.593025 0.059404 0.323328
O O9 0.841192 0.000000 0.607179
O O10 0.876778 0.856521 0.411135
O O11 0.970553 0.942949 0.338443
O O12 0.653340 0.059205 0.850450
O O13 0.881473 0.000000 0.025518
#
# Coordination Sequence:
#
# PCOD9189437 Si02
#       8
#     8   4   4   4   4   4   8   8
#     4  10  21  37  60  94 122 152 201 251 297 361
#     4   9  16  36  62  84 110 169 190 240 292 369
#     4  11  20  40  61  87 123 163 201 250 299 355
#     4  10  22  45  58  79 126 164 194 238 306 374
#     4  11  22  38  59  97 115 157 211 252 292 356
#     4  11  25  38  62  88 123 161 202 248 308 345
#     4   9  20  39  61  85 122 158 200 239 305 357
#     4  10  19  37  63  86 124 160 199 243 305 348
#
# _framework density 21.524175
#
# number of rings (size 3 to 8) (size 9 to 14) (size 15 to 20)
#    0.000    2.000    1.818    1.909    2.545    0.000 
#    3.273    3.636    0.000    0.000    0.000    0.000 
#    0.000    0.000    0.000    0.000    0.000    0.000 
#
# Total GULP energy -122473.617448 kJ/mol
# GULP energy per Si atom -5566.982611 kJ/mol
# Density = 2.147518 g / cm^3
# Si number density = 21.524175 Si / 1000 Ang^3
#
#
#
# Elastic Constant Matrix: (Units=GPa)
#
#
# Indices 1 2 3 4 5 6 
#
# 1 84.8054 19.5676 4.3853 0.0000 2.9473 0.0000
# 2 19.5676 102.3304 -0.7415 0.0000 11.4029 0.0000
# 3 4.3853 -0.7415 43.3736 0.0000 1.6736 0.0000
# 4 0.0000 0.0000 0.0000 -22.2398 0.0000 21.6750
# 5 2.9473 11.4029 1.6736 0.0000 23.9375 0.0000
# 6 0.0000 0.0000 0.0000 21.6750 0.0000 7.6577
#
#
#
# Elastic Compliance Matrix: (Units=1/GPa)
#
#
# Indices 1 2 3 4 5 6 
#
# 1 0.012411 -0.002347 -0.001283 0.000000 -0.000320 0.000000
# 2 -0.002347 0.010770 0.000610 0.000000 -0.004884 0.000000
# 3 -0.001283 0.000610 0.023263 0.000000 -0.001759 0.000000
# 4 0.000000 0.000000 0.000000 -0.011963 0.000000 0.033861
# 5 -0.000320 -0.004884 -0.001759 0.000000 0.044264 0.000000
# 6 0.000000 0.000000 0.000000 0.033861 0.000000 0.034744
#
#
# Mechanical properties :
#
#
# Convention : Reuss Voigt Hill
#
# Bulk Modulus (GPa) = 24.74948 30.77024 27.75986
# Shear Modulus (GPa) = 37.59511 15.69093 26.64302
#
# Velocity S-wave (km/s) = 4.18382 2.70291 3.52208
# Velocity P-wave (km/s) = 5.90445 4.90588 5.42818
#
# Compressibility (1/GPa) = 0.04040490
#
# Stress axis : x y z
#
# Youngs Moduli (GPa) = 80.57600 92.85350 42.98581
#
# Poissons Ratio (x) = 0.21790 0.05513
# Poissons Ratio (y) = 0.18909 -0.02621
# Poissons Ratio (z) = 0.10334 -0.05662
#
# Static dielectric constant tensor:
#      x y z
#    x 1.924880 0.000000 -0.066070 
#    y 0.000000 1.830210 0.000000 
#    z -0.066070 0.000000 1.839170 
# 
# From -- ./inp_files/147823.got.cif
#   From: 2010.05.17/outbox.cif.g08.bks.cpg/sg12_74_cif.got.tgz:147823.got - 2010.06.03 13:09:07.
