data_PCOD9189042
_publ_section_title
;
Structure prediction by ZEFSAII (Michael W. Deem and Ramdas Pophale) SiO2 
 PCOD9189042
Probable space group: C 2/M
;
_chemical_formula_sum "Si O2"
_cell_formula_units_Z 64
_cell_length_a 9.309122
_cell_length_b 29.850888
_cell_length_c 16.369208
_cell_angle_alpha 90.000000
_cell_angle_beta 44.918455
_cell_angle_gamma 90.000000
_cell_volume 3211.882620
_symmetry_space_group_name_H-M "C 2/M"
_symmetry_group_IT_number 12
_symmetry_cell_setting 'monoclinic'
loop_
_space_group_symop_operation_xyz
x,y,z
-x,y,-z
-x,-y,-z
x,-y,z
1/2+x,1/2+y,z
1/2-x,1/2+y,-z
1/2-x,1/2-y,-z
1/2+x,1/2-y,z
loop_
_atom_site_type_symbol
_atom_site_label
_atom_site_fract_x
_atom_site_fract_y
_atom_site_fract_z
Si Si1 0.982487 0.238329 0.417748
Si Si2 0.393657 0.924367 0.459459
Si Si3 0.463237 0.336709 0.735288
Si Si4 0.186787 0.297695 0.986799
Si Si5 0.439776 0.411774 0.615649
Si Si6 0.253820 0.636767 0.105530
Si Si7 0.632666 0.162372 0.336365
Si Si8 0.501267 0.049653 0.760674
O O1 0.750000 0.250000 0.500000
O O2 0.000000 0.216747 0.500000
O O3 0.043009 0.206757 0.319701
O O4 0.096023 0.285740 0.370339
O O5 0.500000 0.938258 0.500000
O O6 0.442561 0.870884 0.427013
O O7 0.497194 0.946105 0.338457
O O8 0.153374 0.933903 0.556173
O O9 0.349525 0.322468 0.863319
O O10 0.386180 0.375262 0.705934
O O11 0.685174 0.351631 0.677197
O O12 0.250000 0.250000 0.000000
O O13 0.159497 0.331248 0.073914
O O14 0.000000 0.290687 0.000000
O O15 0.500000 0.394090 0.500000
O O16 0.237798 0.441262 0.687875
O O17 0.198324 0.656947 0.216316
O O18 0.145299 0.588349 0.146018
O O19 0.500000 0.634637 0.000000
O O20 0.440326 0.000000 0.810829
#
# Coordination Sequence:
#
# PCOD9189042 Si02
#       8
#     8   8   8   8   8   8   8   8
#     4  12  24  36  55  87 128 169 208 256 306 374
#     4  10  19  36  66  92 129 168 210 258 320 396
#     4  12  23  38  64  86 124 171 219 264 320 377
#     4  12  27  43  66  96 131 172 226 275 324 376
#     4  10  21  39  64  94 128 170 207 259 327 398
#     4  11  23  45  71  94 124 172 222 276 328 381
#     4  11  22  40  60  91 129 169 218 266 318 376
#     4  10  24  43  65  96 131 166 209 267 334 402
#
# _framework density 19.926007999999999
#
# number of rings (size 3 to 8) (size 9 to 14) (size 15 to 20)
#    0.000    1.000    3.750    3.375    1.750    5.750 
#    0.000    0.000    0.000    3.375    0.000    0.000 
#    0.000    0.000    0.000    0.000    0.000    0.000 
#
# Total GULP energy -178702.164239 kJ/mol
# GULP energy per Si atom -5584.442632 kJ/mol
# Density = 1.988066 g / cm^3
# Si number density = 19.926008 Si / 1000 Ang^3
#
#
#
# Elastic Constant Matrix: (Units=GPa)
#
#
# Indices 1 2 3 4 5 6 
#
# 1 141.0268 31.7501 34.9151 0.0000 15.4126 0.0000
# 2 31.7501 102.6868 26.0165 0.0000 17.2294 0.0000
# 3 34.9151 26.0165 95.6759 0.0000 18.5985 0.0000
# 4 0.0000 0.0000 0.0000 -3.2989 0.0000 -6.6674
# 5 15.4126 17.2294 18.5985 0.0000 36.1192 0.0000
# 6 0.0000 0.0000 0.0000 -6.6674 0.0000 6.4564
#
#
#
# Elastic Compliance Matrix: (Units=1/GPa)
#
#
# Indices 1 2 3 4 5 6 
#
# 1 0.008195 -0.001712 -0.002227 0.000000 -0.001533 0.000000
# 2 -0.001712 0.011340 -0.001722 0.000000 -0.003792 0.000000
# 3 -0.002227 -0.001722 0.012655 0.000000 -0.004745 0.000000
# 4 0.000000 0.000000 0.000000 -0.098192 0.000000 -0.101401
# 5 -0.001533 -0.003792 -0.004745 0.000000 0.032593 0.000000
# 6 0.000000 0.000000 0.000000 -0.101401 0.000000 0.050171
#
#
# Mechanical properties :
#
#
# Convention : Reuss Voigt Hill
#
# Bulk Modulus (GPa) = 47.91847 58.30588 53.11218
# Shear Modulus (GPa) = 142.69104 24.30253 83.49678
#
# Velocity S-wave (km/s) = 8.47148 3.49612 6.48031
# Velocity P-wave (km/s) = 10.94478 6.75440 9.09423
#
# Compressibility (1/GPa) = 0.02086878
#
# Stress axis : x y z
#
# Youngs Moduli (GPa) = 122.02087 88.18117 79.01924
#
# Poissons Ratio (x) = 0.15100 0.17597
# Poissons Ratio (y) = 0.20895 0.13604
# Poissons Ratio (z) = 0.27174 0.15181
#
# Static dielectric constant tensor:
#      x y z
#    x 1.697700 0.000000 -0.026780 
#    y 0.000000 2.092380 0.000000 
#    z -0.026780 0.000000 1.717480 
# 
# From -- ./inp_files/200922.got.cif
#   From: 2010.05.17/outbox.cif.g08.bks.cpg/sg12_101_cif.got.tgz:200922.got - 2010.06.03 13:09:07.
