data_PCOD9189128
_publ_section_title
;
Structure prediction by ZEFSAII (Michael W. Deem and Ramdas Pophale) SiO2 
 PCOD9189128
Probable space group: C 2/M
;
_chemical_formula_sum "Si O2"
_cell_formula_units_Z 48
_cell_length_a 11.030512
_cell_length_b 15.135223
_cell_length_c 21.094608
_cell_angle_alpha 90.000000
_cell_angle_beta 31.505611
_cell_angle_gamma 90.000000
_cell_volume 1840.392492
_symmetry_space_group_name_H-M "C 2/M"
_symmetry_group_IT_number 12
_symmetry_cell_setting 'monoclinic'
loop_
_space_group_symop_operation_xyz
x,y,z
-x,y,-z
-x,-y,-z
x,-y,z
1/2+x,1/2+y,z
1/2-x,1/2+y,-z
1/2-x,1/2-y,-z
1/2+x,1/2-y,z
loop_
_atom_site_type_symbol
_atom_site_label
_atom_site_fract_x
_atom_site_fract_y
_atom_site_fract_z
Si Si1 0.315535 0.647808 0.825821
Si Si2 0.833829 0.352804 0.971636
Si Si3 0.373446 0.144605 0.814354
Si Si4 0.808492 0.403745 0.702699
Si Si5 0.149475 0.902430 0.573956
Si Si6 0.651272 0.274542 0.373847
O O1 0.295869 0.753595 0.841164
O O2 0.549259 0.614085 0.688696
O O3 0.102814 0.630416 0.871758
O O4 0.284084 0.612187 0.911247
O O5 0.795032 0.390090 0.918166
O O6 0.750000 0.250000 0.000000
O O7 0.300611 0.097763 0.782682
O O8 0.652668 0.156430 0.692038
O O9 0.722957 0.500000 0.720082
O O10 0.077247 0.400338 0.559292
O O11 0.728475 0.306290 0.716394
O O12 0.029223 0.824484 0.589620
O O13 0.070064 0.000000 0.588795
O O14 0.500000 0.242280 0.500000
#
# Coordination Sequence:
#
# PCOD9189128 Si02
#       6
#     8   8   8   8   8   8
#     4  10  19  37  57  87 122 154 203 252 302 360
#     4   9  19  33  59  89 116 155 202 251 301 366
#     4  11  19  36  62  88 121 161 202 248 304 366
#     4  11  24  40  60  93 128 162 205 258 308 362
#     4  11  22  37  58  86 124 160 201 254 301 357
#     4  12  22  37  63  88 123 165 206 246 307 370
#
# _framework density 26.081394
#
# number of rings (size 3 to 8) (size 9 to 14) (size 15 to 20)
#    0.000    1.333    5.000    1.500    0.000    1.333 
#    0.000    3.333    0.000    0.000    0.000   40.833 
#    0.000    0.000    0.000    0.000    0.000    0.000 
#
# Total GULP energy -134248.083322 kJ/mol
# GULP energy per Si atom -5593.670138 kJ/mol
# Density = 2.602203 g / cm^3
# Si number density = 26.081394 Si / 1000 Ang^3
#
#
#
# Elastic Constant Matrix: (Units=GPa)
#
#
# Indices 1 2 3 4 5 6 
#
# 1 83.1800 37.7499 41.1822 0.0016 35.5929 -0.0018
# 2 37.7499 121.2144 7.7246 -0.0067 13.9998 0.0030
# 3 41.1822 7.7246 146.7702 0.0040 33.1947 0.0015
# 4 0.0016 -0.0067 0.0040 -0.8097 -0.0020 -1.8430
# 5 35.5929 13.9998 33.1947 -0.0020 60.9799 0.0014
# 6 -0.0018 0.0030 0.0015 -1.8430 0.0014 24.8122
#
#
#
# Elastic Compliance Matrix: (Units=1/GPa)
#
#
# Indices 1 2 3 4 5 6 
#
# 1 0.019491 -0.004883 -0.003299 0.000066 -0.008460 0.000008
# 2 -0.004883 0.009698 0.000820 -0.000070 0.000178 -0.000007
# 3 -0.003299 0.000820 0.008328 0.000031 -0.002796 0.000002
# 4 0.000066 -0.000070 0.000031 -1.056388 -0.000073 -0.078467
# 5 -0.008460 0.000178 -0.002796 -0.000073 0.022818 -0.000007
# 6 0.000008 -0.000007 0.000002 -0.078467 -0.000007 0.034474
#
#
# Mechanical properties :
#
#
# Convention : Reuss Voigt Hill
#
# Bulk Modulus (GPa) = 43.87241 58.27532 51.07387
# Shear Modulus (GPa) = -5.32336 34.63033 14.65349
#
# Velocity S-wave (km/s) = -1.43021 3.64782 2.37288
# Velocity P-wave (km/s) = 3.75906 6.33516 5.20888
#
# Compressibility (1/GPa) = 0.02279337
#
# Stress axis : x y z
#
# Youngs Moduli (GPa) = 51.30465 103.11621 120.07335
#
# Poissons Ratio (x) = 0.50351 0.39609
# Poissons Ratio (y) = 0.25052 -0.09841
# Poissons Ratio (z) = 0.16924 -0.08451
#
# Static dielectric constant tensor:
#      x y z
#    x 2.117930 -0.000010 -0.022090 
#    y -0.000010 1.989970 0.000000 
#    z -0.022090 0.000000 2.089220 
# 
# From -- ./inp_files/205145.got.cif
#   From: 2010.05.17/outbox.cif.g08.bks.cpg/sg12_103_cif.got.tgz:205145.got - 2010.06.03 13:09:07.
