data_PCOD9189568
_publ_section_title
;
Structure prediction by ZEFSAII (Michael W. Deem and Ramdas Pophale) SiO2 
 PCOD9189568
Probable space group: C 2/M
;
_chemical_formula_sum "Si O2"
_cell_formula_units_Z 44
_cell_length_a 24.212165
_cell_length_b 13.738061
_cell_length_c 19.373785
_cell_angle_alpha 90.000000
_cell_angle_beta 18.832796
_cell_angle_gamma 90.000000
_cell_volume 2080.257810
_symmetry_space_group_name_H-M "C 2/M"
_symmetry_group_IT_number 12
_symmetry_cell_setting 'monoclinic'
loop_
_space_group_symop_operation_xyz
x,y,z
-x,y,-z
-x,-y,-z
x,-y,z
1/2+x,1/2+y,z
1/2-x,1/2+y,-z
1/2-x,1/2-y,-z
1/2+x,1/2-y,z
loop_
_atom_site_type_symbol
_atom_site_label
_atom_site_fract_x
_atom_site_fract_y
_atom_site_fract_z
Si Si1 0.481570 0.288116 0.942696
Si Si2 0.628345 0.836071 0.528890
Si Si3 0.084909 0.609923 0.080891
Si Si4 0.886586 0.829482 0.810451
Si Si5 0.415816 0.500000 0.880137
Si Si6 0.574901 0.500000 0.988635
Si Si7 0.482623 0.000000 0.603187
O O1 0.671021 0.325036 0.699222
O O2 0.433759 0.198767 0.950296
O O3 0.361743 0.385795 0.082037
O O4 0.500000 0.255944 0.000000
O O5 0.537353 0.869387 0.707961
O O6 0.551027 0.732498 0.597168
O O7 0.572383 0.910093 0.535379
O O8 0.049403 0.500000 0.097607
O O9 0.279434 0.615208 0.879231
O O10 0.937612 0.904572 0.809278
O O11 0.750000 0.750000 0.000000
O O12 0.525461 0.500000 0.819675
O O13 0.217484 0.500000 0.140052
O O14 0.500000 0.500000 0.000000
O O15 0.500000 0.000000 0.500000
#
# Coordination Sequence:
#
# PCOD9189568 Si02
#       7
#     8   8   8   8   4   4   4
#     4  11  26  42  64  92 133 175 211 267 329 384
#     4  11  22  43  61  96 127 167 218 258 321 389
#     4  11  21  42  68  92 129 170 216 266 317 385
#     4  10  19  37  67  91 120 160 218 263 306 373
#     4  12  20  40  62  99 119 168 210 265 319 372
#     4  10  23  38  61  90 134 164 204 253 329 392
#     4  12  25  34  68  98 134 162 205 267 336 386
#
# _framework density 21.151225
#
# number of rings (size 3 to 8) (size 9 to 14) (size 15 to 20)
#    0.000    1.091    5.455    3.273    5.091    0.364 
#    1.636    0.000    0.000    1.091    0.000    0.000 
#    0.000    0.000    0.000    0.000    0.000    0.000 
#
# Total GULP energy -122705.428158 kJ/mol
# GULP energy per Si atom -5577.519462 kJ/mol
# Density = 2.110308 g / cm^3
# Si number density = 21.151225 Si / 1000 Ang^3
#
#
#
# Elastic Constant Matrix: (Units=GPa)
#
#
# Indices 1 2 3 4 5 6 
#
# 1 133.2632 89.1734 12.9753 -0.0151 27.3674 -0.0026
# 2 89.1734 180.9000 34.7585 -0.0261 19.7098 -0.0056
# 3 12.9753 34.7585 60.8278 -0.0482 -5.8125 -0.0105
# 4 -0.0151 -0.0261 -0.0482 1042.6473 0.0255 250.6356
# 5 27.3674 19.7098 -5.8125 0.0255 30.2181 0.0054
# 6 -0.0026 -0.0056 -0.0105 250.6356 0.0054 124.2382
#
#
#
# Elastic Compliance Matrix: (Units=1/GPa)
#
#
# Indices 1 2 3 4 5 6 
#
# 1 0.012798 -0.005323 -0.000472 0.000000 -0.008209 0.000000
# 2 -0.005323 0.009200 -0.004313 0.000000 -0.002009 0.000000
# 3 -0.000472 -0.004313 0.019677 0.000001 0.007026 0.000000
# 4 0.000000 0.000000 0.000001 0.001862 -0.000001 -0.003757
# 5 -0.008209 -0.002009 0.007026 -0.000001 0.043189 0.000001
# 6 0.000000 0.000000 0.000000 -0.003757 0.000001 0.015628
#
#
# Mechanical properties :
#
#
# Convention : Reuss Voigt Hill
#
# Bulk Modulus (GPa) = 46.60708 72.08951 59.34830
# Shear Modulus (GPa) = 38.54320 255.29297 146.91808
#
# Velocity S-wave (km/s) = 4.27343 10.99822 8.34336
# Velocity P-wave (km/s) = 6.81415 13.97992 10.99706
#
# Compressibility (1/GPa) = 0.02145597
#
# Stress axis : x y z
#
# Youngs Moduli (GPa) = 78.13673 108.69838 50.82118
#
# Poissons Ratio (x) = 0.57866 0.02401
# Poissons Ratio (y) = 0.41596 0.21921
# Poissons Ratio (z) = 0.03692 0.46886
#
# Static dielectric constant tensor:
#      x y z
#    x 1.815160 0.000000 -0.054840 
#    y 0.000000 1.795290 0.000000 
#    z -0.054840 0.000000 1.831450 
# 
# From -- ./inp_files/290038.got.cif
#   From: 2010.05.17/outbox.cif.g08.bks.cpg/sg12_146_cif.got.tgz:290038.got - 2010.06.03 13:09:07.
