data_PCOD9189083
_publ_section_title
;
Structure prediction by ZEFSAII (Michael W. Deem and Ramdas Pophale) SiO2 
 PCOD9189083
Probable space group: C 2/M
;
_chemical_formula_sum "Si O2"
_cell_formula_units_Z 40
_cell_length_a 8.405179
_cell_length_b 15.444102
_cell_length_c 20.955102
_cell_angle_alpha 90.000000
_cell_angle_beta 130.542644
_cell_angle_gamma 90.000000
_cell_volume 2067.134069
_symmetry_space_group_name_H-M "C 2/M"
_symmetry_group_IT_number 12
_symmetry_cell_setting 'monoclinic'
loop_
_space_group_symop_operation_xyz
x,y,z
-x,y,-z
-x,-y,-z
x,-y,z
1/2+x,1/2+y,z
1/2-x,1/2+y,-z
1/2-x,1/2-y,-z
1/2+x,1/2-y,z
loop_
_atom_site_type_symbol
_atom_site_label
_atom_site_fract_x
_atom_site_fract_y
_atom_site_fract_z
Si Si1 0.252580 0.682280 0.443355
Si Si2 0.076185 0.676669 0.750926
Si Si3 0.321623 0.000000 0.901000
Si Si4 0.000722 0.142777 0.784968
Si Si5 0.782052 0.000000 0.484904
Si Si6 0.061571 0.500000 0.217309
Si Si7 0.533735 0.500000 0.331676
O O1 0.500000 0.672185 0.500000
O O2 0.250000 0.750000 0.500000
O O3 0.122078 0.702542 0.346005
O O4 0.164202 0.587916 0.438154
O O5 0.102655 0.764167 0.798104
O O6 0.032382 0.589253 0.779699
O O7 0.282862 0.658505 0.763794
O O8 0.167715 0.082655 0.865191
O O9 0.421518 0.000000 0.855397
O O10 0.500000 0.000000 0.000000
O O11 0.953801 0.085119 0.709296
O O12 0.000000 0.000000 0.500000
O O13 0.818156 0.000000 0.569640
O O14 0.302769 0.500000 0.302191
#
# Coordination Sequence:
#
# PCOD9189083 Si02
#       7
#     8   8   4   8   4   4   4
#     4  11  22  35  53  81 118 163 208 260 296 326
#     4  12  21  39  60  91 124 165 214 245 293 369
#     4  10  23  46  69  96 121 144 189 251 314 380
#     4  10  22  38  63  88 119 159 197 247 303 369
#     4  10  20  33  50  74 109 155 202 252 305 340
#     4  10  20  36  63  88 120 162 196 248 305 363
#     4  10  19  37  55  82 115 159 209 255 305 361
#
# _framework density 19.350462
#
# number of rings (size 3 to 8) (size 9 to 14) (size 15 to 20)
#    0.000    1.600    0.000    9.000    0.000    0.000 
#    0.000    7.500    0.000    0.000    0.000    0.000 
#    0.000    0.000    0.000    0.000    0.000    0.000 
#
# Total GULP energy -111570.882642 kJ/mol
# GULP energy per Si atom -5578.544132 kJ/mol
# Density = 1.930642 g / cm^3
# Si number density = 19.350462 Si / 1000 Ang^3
#
#
#
# Elastic Constant Matrix: (Units=GPa)
#
#
# Indices 1 2 3 4 5 6 
#
# 1 92.5987 49.5711 7.7855 0.0000 7.9232 0.0000
# 2 49.5711 175.4489 15.7835 0.0000 1.9806 0.0000
# 3 7.7855 15.7835 94.7234 0.0000 13.6669 0.0000
# 4 0.0000 0.0000 0.0000 2.7239 0.0000 -2.4920
# 5 7.9232 1.9806 13.6669 0.0000 17.1936 0.0000
# 6 0.0000 0.0000 0.0000 -2.4920 0.0000 33.1312
#
#
#
# Elastic Compliance Matrix: (Units=1/GPa)
#
#
# Indices 1 2 3 4 5 6 
#
# 1 0.013269 -0.003717 0.000394 0.000000 -0.006000 0.000000
# 2 -0.003717 0.006828 -0.001091 0.000000 0.001793 0.000000
# 3 0.000394 -0.001091 0.012103 0.000000 -0.009676 0.000000
# 4 0.000000 0.000000 0.000000 0.394249 0.000000 0.029654
# 5 -0.006000 0.001793 -0.009676 0.000000 0.068411 0.000000
# 6 0.000000 0.000000 0.000000 0.029654 0.000000 0.032413
#
#
# Mechanical properties :
#
#
# Convention : Reuss Voigt Hill
#
# Bulk Modulus (GPa) = 42.78484 56.56125 49.67305
# Shear Modulus (GPa) = 9.19302 29.91846 19.55574
#
# Velocity S-wave (km/s) = 2.18200 3.93636 3.18246
# Velocity P-wave (km/s) = 5.33916 7.06776 6.26338
#
# Compressibility (1/GPa) = 0.02337276
#
# Stress axis : x y z
#
# Youngs Moduli (GPa) = 75.36209 146.46207 82.62741
#
# Poissons Ratio (x) = 0.54437 -0.03259
# Poissons Ratio (y) = 0.28011 0.09014
# Poissons Ratio (z) = -0.02972 0.15978
#
# Static dielectric constant tensor:
#      x y z
#    x 1.686200 0.000000 -0.005000 
#    y 0.000000 1.739250 0.000000 
#    z -0.005000 0.000000 1.638890 
# 
# From -- ./inp_files/299992.got.cif
#   From: 2010.05.17/outbox.cif.g08.bks.cpg/sg12_150_cif.got.tgz:299992.got - 2010.06.03 13:09:07.
