data_PCOD9189455
_publ_section_title
;
Structure prediction by ZEFSAII (Michael W. Deem and Ramdas Pophale) SiO2 
 PCOD9189455
Probable space group: C 2/M
;
_chemical_formula_sum "Si O2"
_cell_formula_units_Z 28
_cell_length_a 9.779397
_cell_length_b 21.919296
_cell_length_c 10.626690
_cell_angle_alpha 90.000000
_cell_angle_beta 141.523910
_cell_angle_gamma 90.000000
_cell_volume 1417.288673
_symmetry_space_group_name_H-M "C 2/M"
_symmetry_group_IT_number 12
_symmetry_cell_setting 'monoclinic'
loop_
_space_group_symop_operation_xyz
x,y,z
-x,y,-z
-x,-y,-z
x,-y,z
1/2+x,1/2+y,z
1/2-x,1/2+y,-z
1/2-x,1/2-y,-z
1/2+x,1/2-y,z
loop_
_atom_site_type_symbol
_atom_site_label
_atom_site_fract_x
_atom_site_fract_y
_atom_site_fract_z
Si Si1 0.741030 0.000000 0.334715
Si Si2 0.000000 0.603072 0.000000
Si Si3 0.316901 0.320355 0.048173
Si Si4 0.749883 0.000000 0.639690
Si Si5 0.244912 0.131692 0.279206
O O1 0.625088 0.058672 0.188347
O O2 0.000000 0.000000 0.500000
O O3 0.731047 0.000000 0.476885
O O4 0.178309 0.643668 0.053563
O O5 0.581519 0.327244 0.245716
O O6 0.250000 0.250000 0.000000
O O7 0.267469 0.349056 0.875116
O O8 0.500000 0.000000 0.500000
O O9 0.843926 0.936984 0.759810
O O10 0.500000 0.135273 0.500000
#
# Coordination Sequence:
#
# PCOD9189455 Si02
#       5
#     4   4   8   4   8
#     4  11  23  38  60  92 124 153 193 247 306 363
#     4  11  22  38  62  90 124 159 190 248 312 343
#     4  11  24  41  60  88 123 160 205 243 285 356
#     4  10  19  37  63  90 115 146 197 246 295 357
#     4  10  22  41  65  89 117 157 200 247 298 351
#
# _framework density 19.756032000000001
#
# number of rings (size 3 to 8) (size 9 to 14) (size 15 to 20)
#    0.000    1.429    0.000    6.857    0.000    5.714 
#    0.000    5.714    0.000    0.000    0.000    0.000 
#    0.000    0.000    0.000    0.000    0.000    0.000 
#
# Total GULP energy -78154.518011 kJ/mol
# GULP energy per Si atom -5582.465572 kJ/mol
# Density = 1.971107 g / cm^3
# Si number density = 19.756032 Si / 1000 Ang^3
#
#
#
# Elastic Constant Matrix: (Units=GPa)
#
#
# Indices 1 2 3 4 5 6 
#
# 1 188.9744 72.8112 50.9376 0.0000 -6.3159 0.0000
# 2 72.8112 175.6112 49.2371 0.0000 -9.4307 0.0000
# 3 50.9376 49.2371 93.7812 0.0000 -3.2328 0.0000
# 4 0.0000 0.0000 0.0000 19.8376 0.0000 5.2013
# 5 -6.3159 -9.4307 -3.2328 0.0000 50.1454 0.0000
# 6 0.0000 0.0000 0.0000 5.2013 0.0000 35.7306
#
#
#
# Elastic Compliance Matrix: (Units=1/GPa)
#
#
# Indices 1 2 3 4 5 6 
#
# 1 0.006801 -0.002077 -0.002593 0.000000 0.000299 0.000000
# 2 -0.002077 0.007365 -0.002706 0.000000 0.000949 0.000000
# 3 -0.002593 -0.002706 0.013494 0.000000 0.000034 0.000000
# 4 0.000000 0.000000 0.000000 0.052410 0.000000 -0.007629
# 5 0.000299 0.000949 0.000034 0.000000 0.020160 0.000000
# 6 0.000000 0.000000 0.000000 -0.007629 0.000000 0.029098
#
#
# Mechanical properties :
#
#
# Convention : Reuss Voigt Hill
#
# Bulk Modulus (GPa) = 77.47515 89.37095 83.42305
# Shear Modulus (GPa) = 33.69675 40.16811 36.93243
#
# Velocity S-wave (km/s) = 4.13442 4.51400 4.32838
# Velocity P-wave (km/s) = 7.87987 8.51492 8.20354
#
# Compressibility (1/GPa) = 0.01290736
#
# Stress axis : x y z
#
# Youngs Moduli (GPa) = 147.04066 135.77536 74.10857
#
# Poissons Ratio (x) = 0.28195 0.19219
# Poissons Ratio (y) = 0.30534 0.20055
# Poissons Ratio (z) = 0.38133 0.36744
#
# Static dielectric constant tensor:
#      x y z
#    x 1.675620 0.000000 0.027570 
#    y 0.000000 1.781490 0.000000 
#    z 0.027570 0.000000 1.705460 
# 
# From -- ./inp_files/38120.got.cif
#   From: 2010.05.17/outbox.cif.g08.bks.cpg/sg12_20_cif.got.tgz:38120.got - 2010.06.03 13:09:07.
