data_PCOD9189453
_publ_section_title
;
Structure prediction by ZEFSAII (Michael W. Deem and Ramdas Pophale) SiO2 
 PCOD9189453
Probable space group: C 2/M
;
_chemical_formula_sum "Si O2"
_cell_formula_units_Z 48
_cell_length_a 24.821289
_cell_length_b 8.545804
_cell_length_c 11.796890
_cell_angle_alpha 90.000000
_cell_angle_beta 69.372617
_cell_angle_gamma 90.000000
_cell_volume 2341.909928
_symmetry_space_group_name_H-M "C 2/M"
_symmetry_group_IT_number 12
_symmetry_cell_setting 'monoclinic'
loop_
_space_group_symop_operation_xyz
x,y,z
-x,y,-z
-x,-y,-z
x,-y,z
1/2+x,1/2+y,z
1/2-x,1/2+y,-z
1/2-x,1/2-y,-z
1/2+x,1/2-y,z
loop_
_atom_site_type_symbol
_atom_site_label
_atom_site_fract_x
_atom_site_fract_y
_atom_site_fract_z
Si Si1 0.943765 0.310182 0.974070
Si Si2 0.377407 0.189271 0.641850
Si Si3 0.165773 0.312416 0.800049
Si Si4 0.769715 0.313682 0.863844
Si Si5 0.486091 0.811067 0.695690
Si Si6 0.615756 0.314953 0.605301
O O1 0.943317 0.500000 0.981397
O O2 0.952611 0.271846 0.836721
O O3 0.885782 0.257537 0.078056
O O4 0.000000 0.254456 0.000000
O O5 0.332446 0.237412 0.772611
O O6 0.442503 0.234181 0.627957
O O7 0.360767 0.259735 0.533590
O O8 0.376388 0.000000 0.634893
O O9 0.170210 0.500000 0.804349
O O10 0.223963 0.237619 0.803003
O O11 0.147630 0.265604 0.687022
O O12 0.771224 0.500000 0.871911
O O13 0.750000 0.250000 0.000000
O O14 0.548591 0.735183 0.654384
O O15 0.494260 0.000000 0.685177
O O16 0.620643 0.500000 0.613652
#
# Coordination Sequence:
#
# PCOD9189453 Si02
#       6
#     8   8   8   8   8   8
#     4   9  16  31  59  90 117 152 199 245 294 359
#     4  10  23  42  64  87 118 166 214 249 295 367
#     4  11  22  40  66  92 123 164 208 253 303 361
#     4  11  24  44  68  95 125 158 202 252 304 362
#     4  10  19  37  63  89 119 160 208 252 298 365
#     4  12  25  39  58  90 128 161 201 257 317 366
#
# _framework density 20.496092000000001
#
# number of rings (size 3 to 8) (size 9 to 14) (size 15 to 20)
#    0.000    1.500    1.667    4.000    0.000    7.333 
#    0.000    4.167    0.000    0.000    0.000    0.000 
#    0.000    0.000    0.000    0.000    0.000    0.000 
#
# Total GULP energy -134163.962561 kJ/mol
# GULP energy per Si atom -5590.165107 kJ/mol
# Density = 2.044944 g / cm^3
# Si number density = 20.496092 Si / 1000 Ang^3
#
#
#
# Elastic Constant Matrix: (Units=GPa)
#
#
# Indices 1 2 3 4 5 6 
#
# 1 94.0382 6.1248 23.8173 0.0000 -1.9099 0.0000
# 2 6.1248 22.9213 13.1692 0.0000 -8.5760 0.0000
# 3 23.8173 13.1692 101.6236 0.0000 4.1355 0.0000
# 4 0.0000 0.0000 0.0000 23.3114 0.0000 4.7811
# 5 -1.9099 -8.5760 4.1355 0.0000 28.5936 0.0000
# 6 0.0000 0.0000 0.0000 4.7811 0.0000 27.4798
#
#
#
# Elastic Compliance Matrix: (Units=1/GPa)
#
#
# Indices 1 2 3 4 5 6 
#
# 1 0.011374 -0.001315 -0.002525 0.000000 0.000730 0.000000
# 2 -0.001315 0.054815 -0.007505 0.000000 0.017438 0.000000
# 3 -0.002525 -0.007505 0.011571 0.000000 -0.004093 0.000000
# 4 0.000000 0.000000 0.000000 0.044485 0.000000 -0.007740
# 5 0.000730 0.017438 -0.004093 0.000000 0.040844 0.000000
# 6 0.000000 0.000000 0.000000 -0.007740 0.000000 0.037737
#
#
# Mechanical properties :
#
#
# Convention : Reuss Voigt Hill
#
# Bulk Modulus (GPa) = 18.15862 33.86730 26.01296
# Shear Modulus (GPa) = 20.67204 27.57509 24.12357
#
# Velocity S-wave (km/s) = 3.17927 3.67193 3.43444
# Velocity P-wave (km/s) = 4.72819 5.87682 5.33352
#
# Compressibility (1/GPa) = 0.05507028
#
# Stress axis : x y z
#
# Youngs Moduli (GPa) = 87.91992 18.24311 86.42213
#
# Poissons Ratio (x) = 0.02399 0.21821
# Poissons Ratio (y) = 0.11564 0.64858
# Poissons Ratio (z) = 0.22200 0.13691
#
# Static dielectric constant tensor:
#      x y z
#    x 1.716590 0.000000 -0.015060 
#    y 0.000000 1.696870 0.000000 
#    z -0.015060 0.000000 1.740680 
# 
# From -- ./inp_files/172888.got.cif
#   From: 2010.05.17/outbox.cif.g08.bks.cpg/sg12_87_cif.got.tgz:172888.got - 2010.06.03 13:09:07.
