data_PCOD9189095
_publ_section_title
;
Structure prediction by ZEFSAII (Michael W. Deem and Ramdas Pophale) SiO2 
 PCOD9189095
Probable space group: C 2/M
;
_chemical_formula_sum "Si O2"
_cell_formula_units_Z 56
_cell_length_a 9.072039
_cell_length_b 28.779824
_cell_length_c 14.515447
_cell_angle_alpha 90.000000
_cell_angle_beta 139.081201
_cell_angle_gamma 90.000000
_cell_volume 2482.317423
_symmetry_space_group_name_H-M "C 2/M"
_symmetry_group_IT_number 12
_symmetry_cell_setting 'monoclinic'
loop_
_space_group_symop_operation_xyz
x,y,z
-x,y,-z
-x,-y,-z
x,-y,z
1/2+x,1/2+y,z
1/2-x,1/2+y,-z
1/2-x,1/2-y,-z
1/2+x,1/2-y,z
loop_
_atom_site_type_symbol
_atom_site_label
_atom_site_fract_x
_atom_site_fract_y
_atom_site_fract_z
Si Si1 0.325487 0.686873 0.000373
Si Si2 0.931175 0.906921 0.874445
Si Si3 0.311543 0.552147 0.329897
Si Si4 0.313907 0.201627 0.696381
Si Si5 0.868233 0.100450 0.649764
Si Si6 0.981498 0.205962 0.713527
Si Si7 0.933928 0.388355 0.657547
O O1 0.378414 0.632419 0.043036
O O2 0.380554 0.709552 0.124997
O O3 0.000000 0.798603 0.000000
O O4 0.066576 0.693445 0.853443
O O5 0.888648 0.928051 0.754242
O O6 0.696405 0.878741 0.775083
O O7 0.000000 0.933693 0.000000
O O8 0.500000 0.551209 0.500000
O O9 0.282114 0.500000 0.281485
O O10 0.407663 0.586989 0.300027
O O11 0.096648 0.573206 0.278137
O O12 0.141483 0.205665 0.699582
O O13 0.319673 0.249379 0.641551
O O14 0.286893 0.156387 0.618249
O O15 0.661980 0.091602 0.483389
O O16 0.862145 0.155851 0.663281
#
# Coordination Sequence:
#
# PCOD9189095 Si02
#       7
#     8   8   8   8   8   8   8
#     4  10  19  37  56  81 117 162 217 259 292 348
#     4  10  20  38  62  90 119 163 201 240 306 369
#     4   9  19  40  69  96 122 157 207 260 306 362
#     4  12  22  36  55  86 123 165 209 253 297 369
#     4  10  22  39  62  93 122 159 201 254 311 362
#     4  11  24  35  55  86 122 167 208 252 306 361
#     4  11  21  39  63  90 125 157 201 257 308 362
#
# _framework density 22.559567000000001
#
# number of rings (size 3 to 8) (size 9 to 14) (size 15 to 20)
#    0.000    1.571    4.286    2.143    2.000    0.571 
#    0.000    1.429    0.000    6.000    0.000    0.000 
#    0.000    0.000    0.000    0.000    0.000    0.000 
#
# Total GULP energy -156222.615769 kJ/mol
# GULP energy per Si atom -5579.379135 kJ/mol
# Density = 2.250822 g / cm^3
# Si number density = 22.559567 Si / 1000 Ang^3
#
#
#
# Elastic Constant Matrix: (Units=GPa)
#
#
# Indices 1 2 3 4 5 6 
#
# 1 95.6188 -5.9037 32.8559 0.0000 -22.2168 0.0000
# 2 -5.9037 54.4547 -11.4974 0.0000 0.3255 0.0000
# 3 32.8559 -11.4974 103.1259 0.0000 -24.6558 0.0000
# 4 0.0000 0.0000 0.0000 -0.6086 0.0000 3.2042
# 5 -22.2168 0.3255 -24.6558 0.0000 40.8665 0.0000
# 6 0.0000 0.0000 0.0000 3.2042 0.0000 12.5052
#
#
#
# Elastic Compliance Matrix: (Units=1/GPa)
#
#
# Indices 1 2 3 4 5 6 
#
# 1 0.012649 0.000772 -0.002689 0.000000 0.005248 0.000000
# 2 0.000772 0.018913 0.002252 0.000000 0.001628 0.000000
# 3 -0.002689 0.002252 0.012212 0.000000 0.005888 0.000000
# 4 0.000000 0.000000 0.000000 -0.699513 0.000000 0.179234
# 5 0.005248 0.001628 0.005888 0.000000 0.030863 0.000000
# 6 0.000000 0.000000 0.000000 0.179234 0.000000 0.034042
#
#
# Mechanical properties :
#
#
# Convention : Reuss Voigt Hill
#
# Bulk Modulus (GPa) = 22.49994 31.56767 27.03380
# Shear Modulus (GPa) = -8.67021 26.40226 8.86603
#
# Velocity S-wave (km/s) = -1.96255 3.42473 1.98459
# Velocity P-wave (km/s) = 2.20449 5.44626 4.15461
#
# Compressibility (1/GPa) = 0.04444457
#
# Stress axis : x y z
#
# Youngs Moduli (GPa) = 79.05576 52.87282 81.88334
#
# Poissons Ratio (x) = -0.04083 0.22020
# Poissons Ratio (y) = -0.06105 -0.18438
# Poissons Ratio (z) = 0.21260 -0.11906
#
# Static dielectric constant tensor:
#      x y z
#    x 1.861470 0.000000 -0.064680 
#    y 0.000000 1.854670 0.000000 
#    z -0.064680 0.000000 1.894330 
# 
# From -- ./inp_files/200986.got.cif
#   From: 2010.05.17/outbox.cif.g08.bks.cpg/sg12_101_cif.got.tgz:200986.got - 2010.06.03 13:09:07.
