data_PCOD9189426
_publ_section_title
;
Structure prediction by ZEFSAII (Michael W. Deem and Ramdas Pophale) SiO2 
 PCOD9189426
Probable space group: C 2/M
;
_chemical_formula_sum "Si O2"
_cell_formula_units_Z 56
_cell_length_a 26.793867
_cell_length_b 17.384152
_cell_length_c 17.792304
_cell_angle_alpha 90.000000
_cell_angle_beta 158.636132
_cell_angle_gamma 90.000000
_cell_volume 3019.032804
_symmetry_space_group_name_H-M "C 2/M"
_symmetry_group_IT_number 12
_symmetry_cell_setting 'monoclinic'
loop_
_space_group_symop_operation_xyz
x,y,z
-x,y,-z
-x,-y,-z
x,-y,z
1/2+x,1/2+y,z
1/2-x,1/2+y,-z
1/2-x,1/2-y,-z
1/2+x,1/2-y,z
loop_
_atom_site_type_symbol
_atom_site_label
_atom_site_fract_x
_atom_site_fract_y
_atom_site_fract_z
Si Si1 0.812290 0.589704 0.847562
Si Si2 0.100038 0.351053 0.437298
Si Si3 0.856684 0.592841 0.337197
Si Si4 0.297505 0.908129 0.998476
Si Si5 0.136726 0.412640 0.328169
Si Si6 0.327961 0.325098 0.485830
Si Si7 0.616166 0.592155 0.885409
O O1 0.784149 0.500000 0.789848
O O2 0.760588 0.604727 0.859825
O O3 0.743683 0.643511 0.690263
O O4 0.977144 0.598816 0.082156
O O5 0.155932 0.376029 0.596439
O O6 0.145007 0.402768 0.429512
O O7 0.145774 0.265151 0.482587
O O8 0.935341 0.361693 0.210074
O O9 0.860819 0.500000 0.346676
O O10 0.000000 0.617819 0.500000
O O11 0.730530 0.614710 0.106976
O O12 0.179433 0.890243 0.892140
O O13 0.330433 0.000000 0.052503
O O14 0.174666 0.500000 0.359790
O O15 0.230808 0.352186 0.417304
O O16 0.474208 0.366032 0.699010
O O17 0.597323 0.500000 0.863281
#
# Coordination Sequence:
#
# PCOD9189426 Si02
#       7
#     8   8   8   8   8   8   8
#     4   9  19  37  62  84 107 150 204 242 274 337
#     4  11  22  37  58  89 117 148 191 243 297 332
#     4  10  19  37  63  84 107 148 204 243 269 330
#     4   9  18  37  61  83 107 150 205 244 273 328
#     4  10  21  41  67  83 105 152 207 244 272 335
#     4  12  24  36  53  88 128 153 175 233 307 357
#     4  10  21  37  59  84 116 156 195 239 284 336
#
# _framework density 18.548988000000001
#
# number of rings (size 3 to 8) (size 9 to 14) (size 15 to 20)
#    0.000    1.857    1.429    4.286    0.000    4.571 
#    2.571    4.286    0.000    2.571    0.000    0.000 
#    0.000    0.000    0.000    0.000    0.000    0.000 
#
# Total GULP energy -156407.069362 kJ/mol
# GULP energy per Si atom -5585.966763 kJ/mol
# Density = 1.850677 g / cm^3
# Si number density = 18.548988 Si / 1000 Ang^3
#
#
#
# Elastic Constant Matrix: (Units=GPa)
#
#
# Indices 1 2 3 4 5 6 
#
# 1 -36.1959 -33.0689 60.0933 0.0000 -84.8019 0.0000
# 2 -33.0689 19.0678 36.5626 0.0000 -34.7191 0.0000
# 3 60.0933 36.5626 64.5449 0.0000 7.1521 0.0000
# 4 0.0000 0.0000 0.0000 19.5236 0.0000 12.2768
# 5 -84.8019 -34.7191 7.1521 0.0000 -34.2012 0.0000
# 6 0.0000 0.0000 0.0000 12.2768 0.0000 -37.9762
#
#
#
# Elastic Compliance Matrix: (Units=1/GPa)
#
#
# Indices 1 2 3 4 5 6 
#
# 1 0.008435 -0.006988 -0.002310 0.000000 -0.014305 0.000000
# 2 -0.006988 0.029995 -0.008827 0.000000 -0.014969 0.000000
# 3 -0.002310 -0.008827 0.020540 0.000000 0.018984 0.000000
# 4 0.000000 0.000000 0.000000 0.042567 0.000000 0.013761
# 5 -0.014305 -0.014969 0.018984 0.000000 0.025395 0.000000
# 6 0.000000 0.000000 0.000000 0.013761 0.000000 -0.021884
#
#
# Mechanical properties :
#
#
# Convention : Reuss Voigt Hill
#
# Bulk Modulus (GPa) = 44.01101 19.39898 31.70500
# Shear Modulus (GPa) = 33.58592 -11.60875 10.98859
#
# Velocity S-wave (km/s) = 4.25980 -2.50440 2.43659
# Velocity P-wave (km/s) = 6.92625 1.45542 5.00456
#
# Compressibility (1/GPa) = 0.02272158
#
# Stress axis : x y z
#
# Youngs Moduli (GPa) = 118.55083 33.33882 48.68464
#
# Poissons Ratio (x) = 0.23296 0.11246
# Poissons Ratio (y) = 0.82840 0.42973
# Poissons Ratio (z) = 0.27386 0.29427
#
# Static dielectric constant tensor:
#      x y z
#    x 1.639190 0.000000 -0.006790 
#    y 0.000000 1.625800 0.000000 
#    z -0.006790 0.000000 1.611010 
# 
# From -- ./inp_files/143765.got.cif
#   From: 2010.05.17/outbox.cif.g08.bks.cpg/sg12_72_cif.got.tgz:143765.got - 2010.06.03 13:09:07.
