data_PCOD9189988
_publ_section_title
;
Structure prediction by ZEFSAII (Michael W. Deem and Ramdas Pophale) SiO2 
 PCOD9189988
Probable space group: C 2/M
;
_chemical_formula_sum "Si O2"
_cell_formula_units_Z 48
_cell_length_a 7.506522
_cell_length_b 19.632262
_cell_length_c 23.942972
_cell_angle_alpha 90.000000
_cell_angle_beta 145.881216
_cell_angle_gamma 90.000000
_cell_volume 1979.158986
_symmetry_space_group_name_H-M "C 2/M"
_symmetry_group_IT_number 12
_symmetry_cell_setting 'monoclinic'
loop_
_space_group_symop_operation_xyz
x,y,z
-x,y,-z
-x,-y,-z
x,-y,z
1/2+x,1/2+y,z
1/2-x,1/2+y,-z
1/2-x,1/2-y,-z
1/2+x,1/2-y,z
loop_
_atom_site_type_symbol
_atom_site_label
_atom_site_fract_x
_atom_site_fract_y
_atom_site_fract_z
Si Si1 0.337978 0.653838 0.821424
Si Si2 0.917567 0.000000 0.332736
Si Si3 0.782448 0.619553 0.387867
Si Si4 0.705435 0.209857 0.235551
Si Si5 0.711841 0.500000 0.186986
Si Si6 0.309709 0.145768 0.041657
Si Si7 0.815282 0.500000 0.545885
Si Si8 0.126816 0.500000 0.969598
O O1 0.319653 0.708442 0.767584
O O2 0.352368 0.575088 0.805505
O O3 0.028284 0.671334 0.780550
O O4 0.659637 0.661877 0.942233
O O5 0.987256 0.932505 0.317526
O O6 0.187734 0.000000 0.449802
O O7 0.580269 0.000000 0.271853
O O8 0.574727 0.688227 0.330508
O O9 0.000000 0.627695 0.500000
O O10 0.996594 0.572354 0.401380
O O11 0.554210 0.194679 0.135227
O O12 0.509418 0.500000 0.076957
O O13 0.459639 0.070594 0.080084
O O14 0.000000 0.144204 0.000000
O O15 0.500000 0.500000 0.500000
O O16 0.000000 0.500000 0.000000
#
# Coordination Sequence:
#
# PCOD9189988 Si02
#       8
#     8   4   8   8   4   8   4   4
#     4  10  22  38  62  90 124 165 209 252 302 368
#     4   9  16  36  66  81 114 165 209 232 293 388
#     4   9  19  37  64  89 117 163 205 248 303 381
#     4  11  21  38  60  91 123 158 208 260 312 361
#     4  10  19  39  62  81 116 174 205 230 302 380
#     4   9  20  37  59  83 122 173 211 245 300 380
#     4   9  19  37  59  96 125 152 205 260 315 362
#     4  10  21  34  52  91 129 158 205 263 307 351
#
# _framework density 24.252727
#
# number of rings (size 3 to 8) (size 9 to 14) (size 15 to 20)
#    0.000    2.333    1.667    1.750    0.000    6.000 
#    6.000    1.667    0.000    1.000    0.000    0.000 
#    0.000    0.000    0.000    0.000    0.000    0.000 
#
# Total GULP energy -133836.763249 kJ/mol
# GULP energy per Si atom -5576.531802 kJ/mol
# Density = 2.419753 g / cm^3
# Si number density = 24.252727 Si / 1000 Ang^3
#
#
#
# Elastic Constant Matrix: (Units=GPa)
#
#
# Indices 1 2 3 4 5 6 
#
# 1 74.1106 22.2468 48.3887 0.0019 25.1084 0.0010
# 2 22.2468 165.2657 29.8735 0.0027 9.5486 0.0034
# 3 48.3887 29.8735 109.1404 0.0007 14.4629 0.0053
# 4 0.0019 0.0027 0.0007 24.8151 0.0027 -1.6106
# 5 25.1084 9.5486 14.4629 0.0027 29.9782 0.0025
# 6 0.0010 0.0034 0.0053 -1.6106 0.0025 2.3384
#
#
#
# Elastic Compliance Matrix: (Units=1/GPa)
#
#
# Indices 1 2 3 4 5 6 
#
# 1 0.024986 -0.000845 -0.008663 0.000002 -0.016479 0.000030
# 2 -0.000845 0.006440 -0.001293 -0.000001 -0.000720 -0.000006
# 3 -0.008663 -0.001293 0.013184 -0.000001 0.001307 -0.000027
# 4 0.000002 -0.000001 -0.000001 0.042184 -0.000007 0.029054
# 5 -0.016479 -0.000720 0.001307 -0.000007 0.046758 -0.000050
# 6 0.000030 -0.000006 -0.000027 0.029054 -0.000050 0.447645
#
#
# Mechanical properties :
#
#
# Convention : Reuss Voigt Hill
#
# Bulk Modulus (GPa) = 43.46232 61.05942 52.26087
# Shear Modulus (GPa) = 8.19043 27.96020 18.07531
#
# Velocity S-wave (km/s) = 1.83969 3.39907 2.73296
# Velocity P-wave (km/s) = 4.74047 6.37463 5.61729
#
# Compressibility (1/GPa) = 0.02300844
#
# Stress axis : x y z
#
# Youngs Moduli (GPa) = 40.02188 155.28246 75.85003
#
# Poissons Ratio (x) = 0.13129 0.65708
# Poissons Ratio (y) = 0.03384 0.09804
# Poissons Ratio (z) = 0.34670 0.20070
#
# Static dielectric constant tensor:
#      x y z
#    x 1.985400 0.000000 -0.031030 
#    y 0.000000 2.045900 0.000000 
#    z -0.031030 0.000000 1.919000 
# 
# From -- ./inp_files/373052.got.cif
#   From: 2010.05.17/outbox.cif.g08.bks.cpg/sg12_187_cif.got.tgz:373052.got - 2010.06.03 13:09:07.
