data_PCOD9189041
_publ_section_title
;
Structure prediction by ZEFSAII (Michael W. Deem and Ramdas Pophale) SiO2 
 PCOD9189041
Probable space group: C 2/M
;
_chemical_formula_sum "Si O2"
_cell_formula_units_Z 48
_cell_length_a 20.454217
_cell_length_b 14.365290
_cell_length_c 10.533320
_cell_angle_alpha 90.000000
_cell_angle_beta 136.497415
_cell_angle_gamma 90.000000
_cell_volume 2130.567929
_symmetry_space_group_name_H-M "C 2/M"
_symmetry_group_IT_number 12
_symmetry_cell_setting 'monoclinic'
loop_
_space_group_symop_operation_xyz
x,y,z
-x,y,-z
-x,-y,-z
x,-y,z
1/2+x,1/2+y,z
1/2-x,1/2+y,-z
1/2-x,1/2-y,-z
1/2+x,1/2-y,z
loop_
_atom_site_type_symbol
_atom_site_label
_atom_site_fract_x
_atom_site_fract_y
_atom_site_fract_z
Si Si1 0.940208 0.103856 0.288426
Si Si2 0.500000 0.239680 0.000000
Si Si3 0.242778 0.176546 0.829722
Si Si4 0.548814 0.198095 0.795990
Si Si5 0.284244 0.305496 0.671911
Si Si6 0.805820 0.500000 0.510238
Si Si7 0.663810 0.000000 0.156425
Si Si8 0.511058 0.000000 0.709800
O O1 0.836963 0.134665 0.192576
O O2 0.982121 0.196147 0.279812
O O3 0.000000 0.094567 0.500000
O O4 0.939038 0.000000 0.224629
O O5 0.505550 0.182622 0.876429
O O6 0.397877 0.292075 0.854093
O O7 0.227249 0.262924 0.712732
O O8 0.274627 0.091399 0.784733
O O9 0.337521 0.201895 0.038477
O O10 0.530590 0.105475 0.688491
O O11 0.250000 0.250000 0.500000
O O12 0.256887 0.410516 0.606594
O O13 0.851421 0.500000 0.715626
O O14 0.898511 0.500000 0.556238
O O15 0.578325 0.000000 0.933109
#
# Coordination Sequence:
#
# PCOD9189041 Si02
#       8
#     8   4   8   8   8   4   4   4
#     4  11  25  43  67  93 125 171 224 273 318 387
#     4  10  24  44  66  98 138 172 219 269 326 394
#     4  10  21  42  64  91 124 168 217 269 322 384
#     4  10  23  43  67  95 129 171 213 274 326 389
#     4  11  23  39  64  95 135 175 214 268 328 389
#     4  12  23  35  61  97 134 176 207 266 336 399
#     4  10  19  36  66  92 122 167 223 273 320 378
#     4  10  23  36  65  98 129 165 219 271 338 385
#
# _framework density 22.529202999999999
#
# number of rings (size 3 to 8) (size 9 to 14) (size 15 to 20)
#    0.000    1.500    2.500    1.750    9.333    0.333 
#    7.500    1.250    0.000    0.000    0.000    0.000 
#    0.000    0.000    0.000    0.000    0.000    0.000 
#
# Total GULP energy -133769.726942 kJ/mol
# GULP energy per Si atom -5573.738623 kJ/mol
# Density = 2.247793 g / cm^3
# Si number density = 22.529203 Si / 1000 Ang^3
#
#
#
# Elastic Constant Matrix: (Units=GPa)
#
#
# Indices 1 2 3 4 5 6 
#
# 1 30.3938 30.8765 6.2713 0.0000 7.1796 0.0000
# 2 30.8765 217.0571 25.2616 0.0000 -14.3479 0.0000
# 3 6.2713 25.2616 51.2341 0.0000 1.1893 0.0000
# 4 0.0000 0.0000 0.0000 -2.6604 0.0000 -3.5367
# 5 7.1796 -14.3479 1.1893 0.0000 23.0748 0.0000
# 6 0.0000 0.0000 0.0000 -3.5367 0.0000 27.3739
#
#
#
# Elastic Compliance Matrix: (Units=1/GPa)
#
#
# Indices 1 2 3 4 5 6 
#
# 1 0.045222 -0.007503 -0.001403 0.000000 -0.018664 0.000000
# 2 -0.007503 0.006375 -0.002374 0.000000 0.006421 0.000000
# 3 -0.001403 -0.002374 0.020910 0.000000 -0.002117 0.000000
# 4 0.000000 0.000000 0.000000 -0.320786 0.000000 -0.041446
# 5 -0.018664 0.006421 -0.002117 0.000000 0.053246 0.000000
# 6 0.000000 0.000000 0.000000 -0.041446 0.000000 0.031176
#
#
# Mechanical properties :
#
#
# Convention : Reuss Voigt Hill
#
# Bulk Modulus (GPa) = 20.02118 47.05599 33.53859
# Shear Modulus (GPa) = -40.11284 25.30938 -7.40173
#
# Velocity S-wave (km/s) = -4.22415 3.35536 -1.81453
# Velocity P-wave (km/s) = 3.85814 5.99527 3.24484
#
# Compressibility (1/GPa) = 0.04994710
#
# Stress axis : x y z
#
# Youngs Moduli (GPa) = 22.11311 156.85870 47.82491
#
# Poissons Ratio (x) = 1.17696 0.06708
# Poissons Ratio (y) = 0.16592 0.11353
# Poissons Ratio (z) = 0.03101 0.37238
#
# Static dielectric constant tensor:
#      x y z
#    x 1.948770 0.000000 -0.024330 
#    y 0.000000 1.941550 0.000000 
#    z -0.024330 0.000000 1.850110 
# 
# From -- ./inp_files/167687.got.cif
#   From: 2010.05.17/outbox.cif.g08.bks.cpg/sg12_84_cif.got.tgz:167687.got - 2010.06.03 13:09:07.
