data_PCOD9189206
_publ_section_title
;
Structure prediction by ZEFSAII (Michael W. Deem and Ramdas Pophale) SiO2 
 PCOD9189206
Probable space group: C 2/M
;
_chemical_formula_sum "Si O2"
_cell_formula_units_Z 56
_cell_length_a 20.232812
_cell_length_b 7.455131
_cell_length_c 30.345858
_cell_angle_alpha 90.000000
_cell_angle_beta 147.576196
_cell_angle_gamma 90.000000
_cell_volume 2454.254284
_symmetry_space_group_name_H-M "C 2/M"
_symmetry_group_IT_number 12
_symmetry_cell_setting 'monoclinic'
loop_
_space_group_symop_operation_xyz
x,y,z
-x,y,-z
-x,-y,-z
x,-y,z
1/2+x,1/2+y,z
1/2-x,1/2+y,-z
1/2-x,1/2-y,-z
1/2+x,1/2-y,z
loop_
_atom_site_type_symbol
_atom_site_label
_atom_site_fract_x
_atom_site_fract_y
_atom_site_fract_z
Si Si1 0.943081 0.794079 0.363343
Si Si2 0.302042 0.217771 0.446825
Si Si3 0.765318 0.795600 0.687458
Si Si4 0.021444 0.220056 0.871621
Si Si5 0.532562 0.718571 0.320884
Si Si6 0.151798 0.783471 0.858972
Si Si7 0.929947 0.791123 0.002881
O O1 0.075114 0.788105 0.461591
O O2 0.841369 0.703580 0.336417
O O3 0.964421 0.718731 0.326563
O O4 0.902847 0.000000 0.336362
O O5 0.286144 0.280079 0.387265
O O6 0.175422 0.271968 0.399576
O O7 0.312318 0.000000 0.453645
O O8 0.889825 0.719321 0.778171
O O9 0.799762 0.000000 0.694959
O O10 0.122906 0.275342 0.892609
O O11 0.040715 0.285096 0.932158
O O12 0.023355 0.000000 0.873963
O O13 0.532810 0.500000 0.322073
O O14 0.458564 0.772886 0.235630
O O15 0.154059 0.000000 0.859958
O O16 0.282999 0.719842 0.915383
O O17 0.967432 0.000000 0.026077
O O18 0.000000 0.712423 0.000000
#
# Coordination Sequence:
#
# PCOD9189206 Si02
#       7
#     8   8   8   8   8   8   8
#     4  11  23  35  51  80 117 145 170 224 289 325
#     4  10  19  37  60  79 101 141 194 230 258 315
#     4  10  20  36  59  81 103 143 193 226 256 317
#     4   9  18  36  60  81 106 144 186 223 263 315
#     4   9  19  36  57  80 107 141 184 229 268 314
#     4  10  19  37  62  82 104 142 189 227 260 311
#     4  10  22  37  55  85 120 144 168 216 277 329
#
# _framework density 22.817520999999999
#
# number of rings (size 3 to 8) (size 9 to 14) (size 15 to 20)
#    0.000    2.143    1.429    1.714    2.000    2.571 
#    0.000    3.571    0.000    0.000    0.000    0.000 
#    0.000    0.000    0.000    0.000    0.000    0.000 
#
# Total GULP energy -156501.247886 kJ/mol
# GULP energy per Si atom -5589.330282 kJ/mol
# Density = 2.276559 g / cm^3
# Si number density = 22.817521 Si / 1000 Ang^3
#
#
#
# Elastic Constant Matrix: (Units=GPa)
#
#
# Indices 1 2 3 4 5 6 
#
# 1 158.1990 -6.2824 22.8727 0.0001 13.7366 0.0110
# 2 -6.2824 67.8634 -10.5169 -0.0003 -12.9281 0.0185
# 3 22.8727 -10.5169 88.6625 -0.0004 -51.5179 -0.0278
# 4 0.0001 -0.0003 -0.0004 11.1749 0.0013 13.6944
# 5 13.7366 -12.9281 -51.5179 0.0013 177.4643 0.0731
# 6 0.0110 0.0185 -0.0278 13.6944 0.0731 538.6011
#
#
#
# Elastic Compliance Matrix: (Units=1/GPa)
#
#
# Indices 1 2 3 4 5 6 
#
# 1 0.006787 0.000009 -0.002472 0.000000 -0.001242 0.000000
# 2 0.000009 0.015586 0.003014 0.000001 0.002010 -0.000001
# 3 -0.002472 0.003014 0.015052 0.000000 0.004780 0.000000
# 4 0.000000 0.000001 0.000000 0.092364 0.000000 -0.002348
# 5 -0.001242 0.002010 0.004780 0.000000 0.007265 -0.000001
# 6 0.000000 -0.000001 0.000000 -0.002348 -0.000001 0.001916
#
#
# Mechanical properties :
#
#
# Convention : Reuss Voigt Hill
#
# Bulk Modulus (GPa) = 25.95547 36.31907 31.13727
# Shear Modulus (GPa) = 33.17626 166.02483 99.60055
#
# Velocity S-wave (km/s) = 3.81725 8.53932 6.61405
# Velocity P-wave (km/s) = 5.55234 10.63853 8.48548
#
# Compressibility (1/GPa) = 0.03852753
#
# Stress axis : x y z
#
# Youngs Moduli (GPa) = 147.34704 64.15886 66.43837
#
# Poissons Ratio (x) = -0.00055 0.16421
# Poissons Ratio (y) = -0.00127 -0.20027
# Poissons Ratio (z) = 0.36418 -0.19340
#
# Static dielectric constant tensor:
#      x y z
#    x 1.821200 0.000000 -0.029080 
#    y 0.000000 -0.147610 0.000000 
#    z -0.029080 0.000000 1.804410 
# 
# From -- ./inp_files/363153.got.cif
#   From: 2010.05.17/outbox.cif.g08.bks.cpg/sg12_182_cif.got.tgz:363153.got - 2010.06.03 13:09:07.
