data_PCOD9189078
_publ_section_title
;
Structure prediction by ZEFSAII (Michael W. Deem and Ramdas Pophale) SiO2 
 PCOD9189078
Probable space group: C 2/M
;
_chemical_formula_sum "Si O2"
_cell_formula_units_Z 64
_cell_length_a 9.037132
_cell_length_b 31.261875
_cell_length_c 11.157318
_cell_angle_alpha 90.000000
_cell_angle_beta 81.418916
_cell_angle_gamma 90.000000
_cell_volume 3116.853707
_symmetry_space_group_name_H-M "C 2/M"
_symmetry_group_IT_number 12
_symmetry_cell_setting 'monoclinic'
loop_
_space_group_symop_operation_xyz
x,y,z
-x,y,-z
-x,-y,-z
x,-y,z
1/2+x,1/2+y,z
1/2-x,1/2+y,-z
1/2-x,1/2-y,-z
1/2+x,1/2-y,z
loop_
_atom_site_type_symbol
_atom_site_label
_atom_site_fract_x
_atom_site_fract_y
_atom_site_fract_z
Si Si1 0.413164 0.426692 0.129949
Si Si2 0.650131 0.638429 0.400629
Si Si3 0.850503 0.382602 0.948048
Si Si4 0.637951 0.199997 0.210669
Si Si5 0.572499 0.453258 0.357019
Si Si6 0.930970 0.754145 0.121527
Si Si7 0.175522 0.705177 0.473584
Si Si8 0.404644 0.658364 0.855201
O O1 0.241795 0.420386 0.108226
O O2 0.461404 0.446882 0.253586
O O3 0.470952 0.378006 0.139640
O O4 0.500000 0.444114 0.000000
O O5 0.500000 0.639070 0.500000
O O6 0.673894 0.589259 0.355073
O O7 0.774000 0.664169 0.456970
O O8 0.625702 0.663098 0.280677
O O9 0.883236 0.345439 0.848441
O O10 0.738384 0.359566 0.056757
O O11 0.000000 0.396035 0.000000
O O12 0.479885 0.224948 0.226949
O O13 0.709924 0.194679 0.331584
O O14 0.761041 0.231200 0.134072
O O15 0.500000 0.454596 0.500000
O O16 0.644200 0.500000 0.330511
O O17 0.028106 0.797128 0.113745
O O18 0.000000 0.728770 0.000000
O O19 0.250000 0.750000 0.500000
O O20 0.000000 0.710982 0.500000
#
# Coordination Sequence:
#
# PCOD9189078 Si02
#       8
#     8   8   8   8   8   8   8   8
#     4   9  18  37  59  86 119 160 194 246 306 368
#     4  10  21  38  64  87 120 163 199 251 311 363
#     4  11  23  35  55  84 115 153 202 251 305 364
#     4  12  25  36  55  75 110 154 200 258 313 354
#     4   9  19  35  63  99 126 153 200 255 310 379
#     4  12  21  35  50  76 106 143 197 250 306 353
#     4  12  26  43  58  85 121 165 217 258 303 367
#     4  10  19  37  55  78 113 146 197 247 299 364
#
# _framework density 20.533529000000001
#
# number of rings (size 3 to 8) (size 9 to 14) (size 15 to 20)
#    0.000    1.375    2.500    3.750    7.000    0.250 
#    0.000    0.000    0.000    0.750    0.000    8.750 
#    0.000    0.000    0.000    0.000    0.000    0.000 
#
# Total GULP energy -178494.041470 kJ/mol
# GULP energy per Si atom -5577.938796 kJ/mol
# Density = 2.048679 g / cm^3
# Si number density = 20.533529 Si / 1000 Ang^3
#
#
#
# Elastic Constant Matrix: (Units=GPa)
#
#
# Indices 1 2 3 4 5 6 
#
# 1 102.4440 40.9774 17.1191 0.0000 23.8350 0.0000
# 2 40.9774 98.1869 25.9576 0.0000 21.3866 0.0000
# 3 17.1191 25.9576 128.6166 0.0000 32.0347 0.0000
# 4 0.0000 0.0000 0.0000 -16.8730 0.0000 -3.0036
# 5 23.8350 21.3866 32.0347 0.0000 31.0030 0.0000
# 6 0.0000 0.0000 0.0000 -3.0036 0.0000 4.9202
#
#
#
# Elastic Compliance Matrix: (Units=1/GPa)
#
#
# Indices 1 2 3 4 5 6 
#
# 1 0.013137 -0.003918 0.001191 0.000000 -0.008627 0.000000
# 2 -0.003918 0.013177 -0.000840 0.000000 -0.005209 0.000000
# 3 0.001191 -0.000840 0.010597 0.000000 -0.011286 0.000000
# 4 0.000000 0.000000 0.000000 -0.053457 0.000000 -0.032634
# 5 -0.008627 -0.005209 -0.011286 0.000000 0.054142 0.000000
# 6 0.000000 0.000000 0.000000 -0.032634 0.000000 0.183323
#
#
# Mechanical properties :
#
#
# Convention : Reuss Voigt Hill
#
# Bulk Modulus (GPa) = 33.58477 55.26175 44.42326
# Shear Modulus (GPa) = 21.01029 20.15628 20.58329
#
# Velocity S-wave (km/s) = 3.20225 3.13649 3.16954
# Velocity P-wave (km/s) = 5.48307 6.33152 5.92251
#
# Compressibility (1/GPa) = 0.02977540
#
# Stress axis : x y z
#
# Youngs Moduli (GPa) = 76.12090 75.89173 94.36591
#
# Poissons Ratio (x) = 0.29737 -0.11240
# Poissons Ratio (y) = 0.29826 0.07931
# Poissons Ratio (z) = -0.09067 0.06378
#
# Static dielectric constant tensor:
#      x y z
#    x 1.773310 0.000000 0.020590 
#    y 0.000000 1.713720 0.000000 
#    z 0.020590 0.000000 1.892070 
# 
# From -- ./inp_files/125730.got.cif
#   From: 2010.05.17/outbox.cif.g08.bks.cpg/sg12_63_cif.got.tgz:125730.got - 2010.06.03 13:09:07.
