data_PCOD9189656
_publ_section_title
;
Structure prediction by ZEFSAII (Michael W. Deem and Ramdas Pophale) SiO2 
 PCOD9189656
Probable space group: C 2/M
;
_chemical_formula_sum "Si O2"
_cell_formula_units_Z 56
_cell_length_a 14.834264
_cell_length_b 23.338225
_cell_length_c 14.630378
_cell_angle_alpha 90.000000
_cell_angle_beta 35.670015
_cell_angle_gamma 90.000000
_cell_volume 2953.550727
_symmetry_space_group_name_H-M "C 2/M"
_symmetry_group_IT_number 12
_symmetry_cell_setting 'monoclinic'
loop_
_space_group_symop_operation_xyz
x,y,z
-x,y,-z
-x,-y,-z
x,-y,z
1/2+x,1/2+y,z
1/2-x,1/2+y,-z
1/2-x,1/2-y,-z
1/2+x,1/2-y,z
loop_
_atom_site_type_symbol
_atom_site_label
_atom_site_fract_x
_atom_site_fract_y
_atom_site_fract_z
Si Si1 0.858335 0.772586 0.267245
Si Si2 0.080867 0.566921 0.733863
Si Si3 0.662367 0.430494 0.325525
Si Si4 0.116092 0.683561 0.329555
Si Si5 0.637624 0.819888 0.596571
Si Si6 0.597000 0.365551 0.004816
Si Si7 0.782217 0.067741 0.924631
O O1 0.727214 0.775377 0.296861
O O2 0.789823 0.806200 0.412418
O O3 0.874790 0.709388 0.294189
O O4 0.006864 0.806684 0.106939
O O5 0.106182 0.500000 0.688672
O O6 0.194229 0.580769 0.725430
O O7 0.117937 0.612465 0.624527
O O8 0.901329 0.574097 0.907338
O O9 0.500000 0.409628 0.500000
O O10 0.654442 0.500000 0.326676
O O11 0.683429 0.409406 0.205047
O O12 0.234746 0.644539 0.176862
O O13 0.000000 0.655768 0.500000
O O14 0.000974 0.707810 0.348605
O O15 0.500000 0.391319 0.000000
O O16 0.620467 0.401859 0.076482
O O17 0.816180 0.000000 0.899162
#
# Coordination Sequence:
#
# PCOD9189656 Si02
#       7
#     8   8   8   8   8   8   8
#     4   9  21  36  57  83 116 150 192 241 297 341
#     4  10  20  36  59  84 116 153 192 234 287 356
#     4   9  19  35  54  81 118 154 188 239 293 342
#     4   9  18  37  59  78 114 155 186 240 294 341
#     4  10  19  38  59  85 115 152 192 239 292 349
#     4  10  20  37  57  84 114 154 196 245 292 342
#     4  10  20  36  57  82 115 158 197 240 297 349
#
# _framework density 18.960228000000001
#
# number of rings (size 3 to 8) (size 9 to 14) (size 15 to 20)
#    0.000    2.429    1.429    0.429    2.000    2.571 
#    2.571    3.571    0.000    9.429    0.000    0.000 
#    0.000    0.000    0.000    0.000    0.000    0.000 
#
# Total GULP energy -155910.109637 kJ/mol
# GULP energy per Si atom -5568.218201 kJ/mol
# Density = 1.891707 g / cm^3
# Si number density = 18.960228 Si / 1000 Ang^3
#
#
#
# Elastic Constant Matrix: (Units=GPa)
#
#
# Indices 1 2 3 4 5 6 
#
# 1 102.9182 30.7060 20.6818 -0.0082 0.8716 -0.0029
# 2 30.7060 52.9417 25.6572 0.0024 2.3490 -0.0063
# 3 20.6818 25.6572 80.5164 0.0001 -4.0134 -0.0156
# 4 -0.0082 0.0024 0.0001 17.6256 0.0112 9.1825
# 5 0.8716 2.3490 -4.0134 0.0112 21.4269 0.0018
# 6 -0.0029 -0.0063 -0.0156 9.1825 0.0018 21.1510
#
#
#
# Elastic Compliance Matrix: (Units=1/GPa)
#
#
# Indices 1 2 3 4 5 6 
#
# 1 0.011818 -0.006369 -0.001005 0.000009 0.000029 -0.000005
# 2 -0.006369 0.026084 -0.006870 -0.000007 -0.003887 0.000005
# 3 -0.001005 -0.006870 0.015047 -0.000008 0.003612 0.000012
# 4 0.000009 -0.000007 -0.000008 0.073319 -0.000037 -0.031831
# 5 0.000029 -0.003887 0.003612 -0.000037 0.047772 0.000013
# 6 -0.000005 0.000005 0.000012 -0.031831 0.000013 0.061098
#
#
# Mechanical properties :
#
#
# Convention : Reuss Voigt Hill
#
# Bulk Modulus (GPa) = 40.87827 43.38512 42.13170
# Shear Modulus (GPa) = 18.39721 22.66278 20.52999
#
# Velocity S-wave (km/s) = 3.11835 3.46103 3.29415
# Velocity P-wave (km/s) = 5.87982 6.23727 6.06118
#
# Compressibility (1/GPa) = 0.02446287
#
# Stress axis : x y z
#
# Youngs Moduli (GPa) = 84.61443 38.33694 66.45795
#
# Poissons Ratio (x) = 0.24417 0.06677
# Poissons Ratio (y) = 0.53891 0.45656
# Poissons Ratio (z) = 0.08501 0.26337
#
# Static dielectric constant tensor:
#      x y z
#    x 1.691650 0.000000 -0.003830 
#    y 0.000000 1.656810 0.000010 
#    z -0.003830 0.000010 1.671780 
# 
# From -- ./inp_files/65288.got.cif
#   From: 2010.05.17/outbox.cif.g08.bks.cpg/sg12_33_cif.got.tgz:65288.got - 2010.06.03 13:09:07.
