data_PCOD9189063
_publ_section_title
;
Structure prediction by ZEFSAII (Michael W. Deem and Ramdas Pophale) SiO2 
 PCOD9189063
Probable space group: C 2/M
;
_chemical_formula_sum "Si O2"
_cell_formula_units_Z 56
_cell_length_a 16.109192
_cell_length_b 31.040002
_cell_length_c 7.387129
_cell_angle_alpha 90.000000
_cell_angle_beta 51.713248
_cell_angle_gamma 90.000000
_cell_volume 2899.321567
_symmetry_space_group_name_H-M "C 2/M"
_symmetry_group_IT_number 12
_symmetry_cell_setting 'monoclinic'
loop_
_space_group_symop_operation_xyz
x,y,z
-x,y,-z
-x,-y,-z
x,-y,z
1/2+x,1/2+y,z
1/2-x,1/2+y,-z
1/2-x,1/2-y,-z
1/2+x,1/2-y,z
loop_
_atom_site_type_symbol
_atom_site_label
_atom_site_fract_x
_atom_site_fract_y
_atom_site_fract_z
Si Si1 0.764893 0.876213 0.108330
Si Si2 0.496987 0.648614 0.787767
Si Si3 0.377201 0.048433 0.217127
Si Si4 0.117298 0.548640 0.358660
Si Si5 0.266033 0.628034 0.544259
Si Si6 0.287678 0.196661 0.104936
Si Si7 0.076466 0.760050 0.256905
O O1 0.703390 0.920408 0.156124
O O2 0.756482 0.869508 0.338210
O O3 0.889193 0.876962 0.889911
O O4 0.715333 0.837530 0.057835
O O5 0.608599 0.628458 0.578782
O O6 0.480555 0.696552 0.733049
O O7 0.500000 0.651840 0.000000
O O8 0.366836 0.045663 0.448266
O O9 0.296042 0.087143 0.288265
O O10 0.353777 0.000000 0.178150
O O11 0.500000 0.058120 0.000000
O O12 0.117116 0.500000 0.284289
O O13 0.000000 0.567539 0.500000
O O14 0.218014 0.670091 0.703757
O O15 0.181645 0.224634 0.220106
O O16 0.385111 0.228834 0.952659
O O17 0.000000 0.736763 0.500000
#
# Coordination Sequence:
#
# PCOD9189063 Si02
#       7
#     8   8   8   8   8   8   8
#     4   9  20  35  54  83 109 138 185 225 266 326
#     4   9  18  36  58  79 105 144 178 224 274 328
#     4   9  19  35  54  81 112 141 181 224 267 327
#     4   9  18  33  54  77 109 147 177 219 275 321
#     4  10  19  37  59  80 110 145 182 220 277 327
#     4  10  21  35  56  79 105 145 183 221 272 322
#     4  10  19  37  53  77 109 141 181 225 273 321
#
# _framework density 19.314862999999999
#
# number of rings (size 3 to 8) (size 9 to 14) (size 15 to 20)
#    0.000    2.571    1.429    0.000    2.000    0.571 
#    5.143    3.571    0.000    4.286    0.000    3.000 
#    0.000    0.000    0.000    0.000    0.000    0.000 
#
# Total GULP energy -156081.865794 kJ/mol
# GULP energy per Si atom -5574.352350 kJ/mol
# Density = 1.927090 g / cm^3
# Si number density = 19.314863 Si / 1000 Ang^3
#
#
#
# Elastic Constant Matrix: (Units=GPa)
#
#
# Indices 1 2 3 4 5 6 
#
# 1 35.4182 17.7157 21.0051 0.0000 -6.8836 0.0000
# 2 17.7157 66.8582 56.5563 0.0000 -25.5672 0.0000
# 3 21.0051 56.5563 112.3679 0.0000 -17.1322 0.0000
# 4 0.0000 0.0000 0.0000 97.0134 0.0000 -39.1295
# 5 -6.8836 -25.5672 -17.1322 0.0000 34.7921 0.0000
# 6 0.0000 0.0000 0.0000 -39.1295 0.0000 58.7723
#
#
#
# Elastic Compliance Matrix: (Units=1/GPa)
#
#
# Indices 1 2 3 4 5 6 
#
# 1 0.033166 -0.005858 -0.003143 0.000000 0.000709 0.000000
# 2 -0.005858 0.034967 -0.013799 0.000000 0.017742 0.000000
# 3 -0.003143 -0.013799 0.015992 0.000000 -0.002888 0.000000
# 4 0.000000 0.000000 0.000000 0.014092 0.000000 0.009382
# 5 0.000709 0.017742 -0.002888 0.000000 0.040498 0.000000
# 6 0.000000 0.000000 0.000000 0.009382 0.000000 0.023261
#
#
# Mechanical properties :
#
#
# Convention : Reuss Voigt Hill
#
# Bulk Modulus (GPa) = 25.95786 45.02204 35.48995
# Shear Modulus (GPa) = 22.68411 46.07338 34.37874
#
# Velocity S-wave (km/s) = 3.43073 4.88934 4.22348
# Velocity P-wave (km/s) = 5.40015 7.43198 6.49600
#
# Compressibility (1/GPa) = 0.03852397
#
# Stress axis : x y z
#
# Youngs Moduli (GPa) = 30.15124 28.59859 62.53131
#
# Poissons Ratio (x) = 0.16753 0.19655
# Poissons Ratio (y) = 0.17662 0.86288
# Poissons Ratio (z) = 0.09477 0.39464
#
# Static dielectric constant tensor:
#      x y z
#    x 1.708880 0.000000 0.013240 
#    y 0.000000 1.677910 0.000000 
#    z 0.013240 0.000000 1.722740 
# 
# From -- ./inp_files/80438.got.cif
#   From: 2010.05.17/outbox.cif.g08.bks.cpg/sg12_41_cif.got.tgz:80438.got - 2010.06.03 13:09:07.
