data_PCOD9189777
_publ_section_title
;
Structure prediction by ZEFSAII (Michael W. Deem and Ramdas Pophale) SiO2 
 PCOD9189777
Probable space group: C 2/M
;
_chemical_formula_sum "Si O2"
_cell_formula_units_Z 48
_cell_length_a 23.283636
_cell_length_b 13.897596
_cell_length_c 18.092573
_cell_angle_alpha 90.000000
_cell_angle_beta 23.736574
_cell_angle_gamma 90.000000
_cell_volume 2356.630205
_symmetry_space_group_name_H-M "C 2/M"
_symmetry_group_IT_number 12
_symmetry_cell_setting 'monoclinic'
loop_
_space_group_symop_operation_xyz
x,y,z
-x,y,-z
-x,-y,-z
x,-y,z
1/2+x,1/2+y,z
1/2-x,1/2+y,-z
1/2-x,1/2-y,-z
1/2+x,1/2-y,z
loop_
_atom_site_type_symbol
_atom_site_label
_atom_site_fract_x
_atom_site_fract_y
_atom_site_fract_z
Si Si1 0.337986 0.191745 0.165165
Si Si2 0.423050 0.804230 0.744375
Si Si3 0.349612 0.338520 0.357964
Si Si4 0.086485 0.895578 0.555615
Si Si5 0.358430 0.235014 0.984550
Si Si6 0.217472 0.606667 0.359888
O O1 0.228671 0.130820 0.342993
O O2 0.321493 0.170018 0.097987
O O3 0.291875 0.303810 0.231167
O O4 0.500000 0.177643 0.000000
O O5 0.479809 0.693893 0.670841
O O6 0.272965 0.805274 0.879773
O O7 0.548695 0.869916 0.564846
O O8 0.396412 0.818846 0.863258
O O9 0.250000 0.250000 0.500000
O O10 0.374463 0.396273 0.403688
O O11 0.277853 0.388111 0.372601
O O12 0.502120 0.294643 0.156491
O O13 0.029993 0.000000 0.600339
O O14 0.243124 0.500000 0.299163
#
# Coordination Sequence:
#
# PCOD9189777 Si02
#       6
#     8   8   8   8   8   8
#     4  11  21  37  58  85 120 147 189 240 291 338
#     4   9  21  40  61  82 114 154 196 232 281 340
#     4  11  17  38  62  83 113 154 196 231 280 336
#     4  10  21  36  58  84 116 155 192 232 285 342
#     4  10  19  38  63  83 113 155 189 238 286 333
#     4  11  22  37  58  86 117 153 191 234 286 342
#
# _framework density 20.368065999999999
#
# number of rings (size 3 to 8) (size 9 to 14) (size 15 to 20)
#    0.000    1.667    6.667    0.500    0.000    3.333 
#    0.000   13.333    0.000    0.000    0.000    0.000 
#    0.000    0.000    0.000    0.000    0.000    0.000 
#
# Total GULP energy -133969.788226 kJ/mol
# GULP energy per Si atom -5582.074509 kJ/mol
# Density = 2.032171 g / cm^3
# Si number density = 20.368066 Si / 1000 Ang^3
#
#
#
# Elastic Constant Matrix: (Units=GPa)
#
#
# Indices 1 2 3 4 5 6 
#
# 1 43.5383 -14.3626 16.6572 0.0000 2.2074 0.0000
# 2 -14.3626 72.6649 -15.5268 0.0000 -0.9359 0.0000
# 3 16.6572 -15.5268 79.1373 0.0000 -5.9342 0.0000
# 4 0.0000 0.0000 0.0000 -2.5621 0.0000 -1.6119
# 5 2.2074 -0.9359 -5.9342 0.0000 40.0264 0.0000
# 6 0.0000 0.0000 0.0000 -1.6119 0.0000 10.8636
#
#
#
# Elastic Compliance Matrix: (Units=1/GPa)
#
#
# Indices 1 2 3 4 5 6 
#
# 1 0.026304 0.004129 -0.004882 0.000000 -0.002078 0.000000
# 2 0.004129 0.015035 0.002114 0.000000 0.000437 0.000000
# 3 -0.004882 0.002114 0.014261 0.000000 0.002433 0.000000
# 4 0.000000 0.000000 0.000000 -0.356985 0.000000 -0.052969
# 5 -0.002078 0.000437 0.002433 0.000000 0.025469 0.000000
# 6 0.000000 0.000000 0.000000 -0.052969 0.000000 0.084191
#
#
# Mechanical properties :
#
#
# Convention : Reuss Voigt Hill
#
# Bulk Modulus (GPa) = 17.14655 18.76400 17.95528
# Shear Modulus (GPa) = -28.57046 23.57045 -2.50001
#
# Velocity S-wave (km/s) = -3.74934 3.40549 -1.10909
# Velocity P-wave (km/s) = 3.21041 4.96947 2.68224
#
# Compressibility (1/GPa) = 0.05832076
#
# Stress axis : x y z
#
# Youngs Moduli (GPa) = 38.01761 66.51061 70.12116
#
# Poissons Ratio (x) = -0.27463 0.34234
# Poissons Ratio (y) = -0.15698 -0.14821
# Poissons Ratio (z) = 0.18561 -0.14058
#
# Static dielectric constant tensor:
#      x y z
#    x 1.739300 0.000000 0.010900 
#    y 0.000000 1.725380 0.000000 
#    z 0.010900 0.000000 1.712580 
# 
# From -- ./inp_files/328197.got.cif
#   From: 2010.05.17/outbox.cif.g08.bks.cpg/sg12_165_cif.got.tgz:328197.got - 2010.06.03 13:09:07.
