data_PCOD9189391
_publ_section_title
;
Structure prediction by ZEFSAII (Michael W. Deem and Ramdas Pophale) SiO2 
 PCOD9189391
Probable space group: C 2/M
;
_chemical_formula_sum "Si O2"
_cell_formula_units_Z 64
_cell_length_a 15.862185
_cell_length_b 8.313268
_cell_length_c 29.276125
_cell_angle_alpha 90.000000
_cell_angle_beta 56.944917
_cell_angle_gamma 90.000000
_cell_volume 3235.700826
_symmetry_space_group_name_H-M "C 2/M"
_symmetry_group_IT_number 12
_symmetry_cell_setting 'monoclinic'
loop_
_space_group_symop_operation_xyz
x,y,z
-x,y,-z
-x,-y,-z
x,-y,z
1/2+x,1/2+y,z
1/2-x,1/2+y,-z
1/2-x,1/2-y,-z
1/2+x,1/2-y,z
loop_
_atom_site_type_symbol
_atom_site_label
_atom_site_fract_x
_atom_site_fract_y
_atom_site_fract_z
Si Si1 0.868513 0.308873 0.172888
Si Si2 0.455830 0.691059 0.824994
Si Si3 0.280717 0.192687 0.440372
Si Si4 0.091092 0.305643 0.439796
Si Si5 0.358861 0.191453 0.760531
Si Si6 0.911732 0.303915 0.059582
Si Si7 0.488819 0.803584 0.635232
Si Si8 0.781167 0.193215 0.940825
O O1 0.882588 0.500000 0.170999
O O2 0.750762 0.270840 0.207512
O O3 0.913826 0.248328 0.111080
O O4 0.930297 0.230587 0.195645
O O5 0.442204 0.500000 0.824649
O O6 0.416164 0.769320 0.790469
O O7 0.385838 0.749549 0.888029
O O8 0.250000 0.250000 0.500000
O O9 0.197031 0.249321 0.429003
O O10 0.394815 0.249343 0.397090
O O11 0.281725 0.000000 0.440082
O O12 0.091902 0.500000 0.439865
O O13 0.063608 0.252266 0.396660
O O14 0.000000 0.253128 0.500000
O O15 0.425302 0.247612 0.697924
O O16 0.345122 0.000000 0.761022
O O17 0.915816 0.500000 0.059246
O O18 0.806074 0.257477 0.068500
O O19 0.000000 0.247717 0.000000
O O20 0.490061 0.000000 0.634545
O O21 0.783398 0.000000 0.941816
O O22 0.750000 0.250000 0.000000
#
# Coordination Sequence:
#
# PCOD9189391 Si02
#       8
#     8   8   8   8   8   8   8   8
#     4  11  22  40  64  89 120 159 204 253 308 364
#     4  11  23  41  62  88 123 162 206 254 303 362
#     4  11  21  37  60  90 124 159 201 247 298 356
#     4  10  19  37  62  87 121 162 197 241 302 357
#     4  11  23  42  65  89 122 164 208 252 302 361
#     4   9  17  32  55  82 115 151 189 238 300 361
#     4   9  21  40  61  87 123 162 200 245 299 359
#     4  10  20  35  55  84 120 155 194 248 305 365
#
# _framework density 19.779332
#
# number of rings (size 3 to 8) (size 9 to 14) (size 15 to 20)
#    0.000    1.750    2.500    2.250    0.000    3.250 
#    0.000    6.250    0.000    2.625    0.000    0.000 
#    0.000    0.000    0.000    0.000    0.000    0.000 
#
# Total GULP energy -178749.362454 kJ/mol
# GULP energy per Si atom -5585.917577 kJ/mol
# Density = 1.973431 g / cm^3
# Si number density = 19.779332 Si / 1000 Ang^3
#
#
#
# Elastic Constant Matrix: (Units=GPa)
#
#
# Indices 1 2 3 4 5 6 
#
# 1 147.8104 -1.4589 55.8925 0.0000 3.5950 0.0000
# 2 -1.4589 16.4554 4.2158 0.0000 4.1584 0.0000
# 3 55.8925 4.2158 131.2969 0.0000 7.4386 0.0000
# 4 0.0000 0.0000 0.0000 19.0083 0.0000 -0.2806
# 5 3.5950 4.1584 7.4386 0.0000 28.4774 0.0000
# 6 0.0000 0.0000 0.0000 -0.2806 0.0000 30.9832
#
#
#
# Elastic Compliance Matrix: (Units=1/GPa)
#
#
# Indices 1 2 3 4 5 6 
#
# 1 0.008109 0.001704 -0.003486 0.000000 -0.000362 0.000000
# 2 0.001704 0.063759 -0.002266 0.000000 -0.008934 0.000000
# 3 -0.003486 -0.002266 0.009267 0.000000 -0.001650 0.000000
# 4 0.000000 0.000000 0.000000 0.052616 0.000000 0.000477
# 5 -0.000362 -0.008934 -0.001650 0.000000 0.036897 0.000000
# 6 0.000000 0.000000 0.000000 0.000477 0.000000 0.032280
#
#
# Mechanical properties :
#
#
# Convention : Reuss Voigt Hill
#
# Bulk Modulus (GPa) = 13.69163 45.87350 29.78256
# Shear Modulus (GPa) = 21.24303 31.48801 26.36552
#
# Velocity S-wave (km/s) = 3.28075 3.99427 3.65497
# Velocity P-wave (km/s) = 4.61393 6.67198 5.73601
#
# Compressibility (1/GPa) = 0.07303733
#
# Stress axis : x y z
#
# Youngs Moduli (GPa) = 123.31455 15.68395 107.91373
#
# Poissons Ratio (x) = -0.02672 0.37622
# Poissons Ratio (y) = -0.21008 0.24457
# Poissons Ratio (z) = 0.42991 0.03554
#
# Static dielectric constant tensor:
#      x y z
#    x 1.673710 0.000000 -0.007440 
#    y 0.000000 1.685970 0.000000 
#    z -0.007440 0.000000 1.695190 
# 
# From -- ./inp_files/375475.got.cif
#   From: 2010.05.17/outbox.cif.g08.bks.cpg/sg12_188_cif.got.tgz:375475.got - 2010.06.03 13:09:07.
