data_PCOD9189742
_publ_section_title
;
Structure prediction by ZEFSAII (Michael W. Deem and Ramdas Pophale) SiO2 
 PCOD9189742
Probable space group: C 2/M
;
_chemical_formula_sum "Si O2"
_cell_formula_units_Z 64
_cell_length_a 7.743335
_cell_length_b 31.866741
_cell_length_c 16.929108
_cell_angle_alpha 90.000000
_cell_angle_beta 46.670798
_cell_angle_gamma 90.000000
_cell_volume 3038.693353
_symmetry_space_group_name_H-M "C 2/M"
_symmetry_group_IT_number 12
_symmetry_cell_setting 'monoclinic'
loop_
_space_group_symop_operation_xyz
x,y,z
-x,y,-z
-x,-y,-z
x,-y,z
1/2+x,1/2+y,z
1/2-x,1/2+y,-z
1/2-x,1/2-y,-z
1/2+x,1/2-y,z
loop_
_atom_site_type_symbol
_atom_site_label
_atom_site_fract_x
_atom_site_fract_y
_atom_site_fract_z
Si Si1 0.948051 0.047101 0.229089
Si Si2 0.200089 0.683829 0.999877
Si Si3 0.647461 0.624023 0.373611
Si Si4 0.352674 0.203786 0.236998
Si Si5 0.231741 0.624107 0.373614
Si Si6 0.297201 0.411896 0.999845
Si Si7 0.563313 0.296104 0.762914
Si Si8 0.635320 0.047112 0.771173
O O1 0.087858 0.062478 0.107865
O O2 0.142826 0.045846 0.237996
O O3 0.757927 0.082337 0.312816
O O4 0.853636 0.000000 0.248213
O O5 0.206042 0.633272 0.999591
O O6 0.448066 0.699295 0.886175
O O7 0.000000 0.697494 0.000000
O O8 0.107008 0.699130 0.113672
O O9 0.500000 0.624584 0.500000
O O10 0.805633 0.665537 0.311040
O O11 0.454724 0.623955 0.363532
O O12 0.803544 0.582246 0.312755
O O13 0.331159 0.249928 0.279524
O O14 0.152645 0.199876 0.231716
O O15 0.261425 0.665658 0.311111
O O16 0.000000 0.624683 0.500000
O O17 0.500000 0.403445 0.000000
O O18 0.088230 0.437394 0.107665
O O19 0.597625 0.000000 0.752419
#
# Coordination Sequence:
#
# PCOD9189742 Si02
#       8
#     8   8   8   8   8   8   8   8
#     4  10  21  40  64  85 113 157 198 230 282 355
#     4  10  19  38  62  83 116 156 192 231 283 355
#     4  10  22  40  60  84 114 152 197 243 287 335
#     4  10  21  37  60  86 116 151 190 237 285 343
#     4  10  22  40  60  84 114 152 197 243 287 335
#     4  12  23  34  57  92 125 151 184 239 293 338
#     4  10  21  37  60  86 116 151 190 237 285 343
#     4  10  21  40  64  85 113 157 198 230 282 355
#
# _framework density 21.061685000000001
#
# number of rings (size 3 to 8) (size 9 to 14) (size 15 to 20)
#    0.000    1.750    2.500    1.875    0.000    6.000 
#    0.000    2.500    0.000    0.000    0.000    0.000 
#    0.000    0.000    0.000    0.000    0.000    0.000 
#
# Total GULP energy -178836.359996 kJ/mol
# GULP energy per Si atom -5588.636250 kJ/mol
# Density = 2.101375 g / cm^3
# Si number density = 21.061685 Si / 1000 Ang^3
#
#
#
# Elastic Constant Matrix: (Units=GPa)
#
#
# Indices 1 2 3 4 5 6 
#
# 1 33.4104 -1.4475 -1.5163 0.0000 0.7505 0.0000
# 2 -1.4475 183.1814 97.8095 0.0000 4.4143 0.0000
# 3 -1.5163 97.8095 163.7874 0.0000 4.3098 0.0000
# 4 0.0000 0.0000 0.0000 -3.4379 0.0000 -0.2555
# 5 0.7505 4.4143 4.3098 0.0000 3.3527 0.0000
# 6 0.0000 0.0000 0.0000 -0.2555 0.0000 15.5344
#
#
#
# Elastic Compliance Matrix: (Units=1/GPa)
#
#
# Indices 1 2 3 4 5 6 
#
# 1 0.030125 0.000241 0.000332 0.000000 -0.007488 0.000000
# 2 0.000241 0.008084 -0.004703 0.000000 -0.004653 0.000000
# 3 0.000332 -0.004703 0.009063 0.000000 -0.005532 0.000000
# 4 0.000000 0.000000 0.000000 -0.290524 0.000000 -0.004777
# 5 -0.007488 -0.004653 -0.005532 0.000000 0.313183 0.000000
# 6 0.000000 0.000000 0.000000 -0.004777 0.000000 0.064295
#
#
# Mechanical properties :
#
#
# Convention : Reuss Voigt Hill
#
# Bulk Modulus (GPa) = 25.63342 63.34118 44.48730
# Shear Modulus (GPa) = 32.15657 22.12541 27.14099
#
# Velocity S-wave (km/s) = 3.91164 3.24467 3.59366
# Velocity P-wave (km/s) = 5.70949 6.64654 6.19576
#
# Compressibility (1/GPa) = 0.03901158
#
# Stress axis : x y z
#
# Youngs Moduli (GPa) = 33.19555 123.69676 110.34296
#
# Poissons Ratio (x) = -0.02985 -0.03661
# Poissons Ratio (y) = -0.00801 0.51895
# Poissons Ratio (z) = -0.01101 0.58175
#
# Static dielectric constant tensor:
#      x y z
#    x 1.790310 0.000000 -0.000820 
#    y 0.000000 1.755730 0.000000 
#    z -0.000820 0.000000 1.719010 
# 
# From -- ./inp_files/260322.got.cif
#   From: 2010.05.17/outbox.cif.g08.bks.cpg/sg12_131_cif.got.tgz:260322.got - 2010.06.03 13:09:07.
