data_PCOD9189088
_publ_section_title
;
Structure prediction by ZEFSAII (Michael W. Deem and Ramdas Pophale) SiO2 
 PCOD9189088
Probable space group: C 2/M
;
_chemical_formula_sum "Si O2"
_cell_formula_units_Z 64
_cell_length_a 9.675160
_cell_length_b 26.921298
_cell_length_c 14.662227
_cell_angle_alpha 90.000000
_cell_angle_beta 80.170597
_cell_angle_gamma 90.000000
_cell_volume 3762.977086
_symmetry_space_group_name_H-M "C 2/M"
_symmetry_group_IT_number 12
_symmetry_cell_setting 'monoclinic'
loop_
_space_group_symop_operation_xyz
x,y,z
-x,y,-z
-x,-y,-z
x,-y,z
1/2+x,1/2+y,z
1/2-x,1/2+y,-z
1/2-x,1/2-y,-z
1/2+x,1/2-y,z
loop_
_atom_site_type_symbol
_atom_site_label
_atom_site_fract_x
_atom_site_fract_y
_atom_site_fract_z
Si Si1 0.870234 0.053672 0.445606
Si Si2 0.875106 0.388927 0.450991
Si Si3 0.967325 0.807853 0.613826
Si Si4 0.430493 0.060178 0.913069
Si Si5 0.019893 0.094205 0.264890
Si Si6 0.165391 0.559732 0.738927
Si Si7 0.890804 0.940525 0.095416
Si Si8 0.325093 0.778237 0.408289
O O1 0.766489 0.098230 0.479210
O O2 0.000000 0.056775 0.500000
O O3 0.934305 0.056477 0.338608
O O4 0.799528 0.000000 0.468635
O O5 0.862573 0.416772 0.356570
O O6 0.890251 0.330305 0.432387
O O7 0.000000 0.407375 0.500000
O O8 0.992475 0.855033 0.675259
O O9 0.803981 0.793486 0.640838
O O10 0.000000 0.816481 0.500000
O O11 0.059957 0.761199 0.635398
O O12 0.537616 0.073713 0.820143
O O13 0.268406 0.074449 0.913974
O O14 0.428343 0.000000 0.917425
O O15 0.500000 0.077807 0.000000
O O16 0.183359 0.078788 0.243260
O O17 0.949369 0.090546 0.174267
O O18 0.172065 0.500000 0.732140
O O19 0.889138 0.000000 0.118330
O O20 0.000000 0.934736 0.000000
O O21 0.250000 0.750000 0.500000
#
# Coordination Sequence:
#
# PCOD9189088 Si02
#       8
#     8   8   8   8   8   8   8   8
#     4  11  21  34  50  73 112 159 195 221 265 328
#     4  12  24  36  51  78 114 153 194 232 275 333
#     4  10  20  36  57  81 110 146 191 242 292 333
#     4   9  19  37  57  78 109 147 186 231 277 323
#     4  12  21  35  56  83 113 149 191 239 279 341
#     4  11  22  36  53  78 116 157 189 222 276 338
#     4  10  21  37  59  87 114 147 192 235 278 334
#     4  10  19  37  56  76 102 143 191 245 287 324
#
# _framework density 17.007811
#
# number of rings (size 3 to 8) (size 9 to 14) (size 15 to 20)
#    0.000    1.375    2.500    5.250    1.750    3.000 
#    0.000    0.000    0.000    0.000    0.000    1.750 
#    0.000    0.000    0.000    0.000    0.000    0.000 
#
# Total GULP energy -178495.146903 kJ/mol
# GULP energy per Si atom -5577.973341 kJ/mol
# Density = 1.696910 g / cm^3
# Si number density = 17.007811 Si / 1000 Ang^3
#
#
#
# Elastic Constant Matrix: (Units=GPa)
#
#
# Indices 1 2 3 4 5 6 
#
# 1 143.8743 39.1963 70.2127 0.0000 8.5158 0.0000
# 2 39.1963 81.7163 20.0784 0.0000 3.5985 0.0000
# 3 70.2127 20.0784 91.1943 0.0000 6.0157 0.0000
# 4 0.0000 0.0000 0.0000 4.0956 0.0000 -6.5943
# 5 8.5158 3.5985 6.0157 0.0000 30.9242 0.0000
# 6 0.0000 0.0000 0.0000 -6.5943 0.0000 21.8943
#
#
#
# Elastic Compliance Matrix: (Units=1/GPa)
#
#
# Indices 1 2 3 4 5 6 
#
# 1 0.012167 -0.003699 -0.008469 0.000000 -0.001272 0.000000
# 2 -0.003699 0.014090 -0.000216 0.000000 -0.000579 0.000000
# 3 -0.008469 -0.000216 0.017604 0.000000 -0.001067 0.000000
# 4 0.000000 0.000000 0.000000 0.474052 0.000000 0.142779
# 5 -0.001272 -0.000579 -0.001067 0.000000 0.032963 0.000000
# 6 0.000000 0.000000 0.000000 0.142779 0.000000 0.088678
#
#
# Mechanical properties :
#
#
# Convention : Reuss Voigt Hill
#
# Bulk Modulus (GPa) = 52.37601 63.97330 58.17466
# Shear Modulus (GPa) = 7.45507 23.86932 15.66219
#
# Velocity S-wave (km/s) = 2.09591 3.75031 3.03790
# Velocity P-wave (km/s) = 6.05964 7.51324 6.82525
#
# Compressibility (1/GPa) = 0.01909271
#
# Stress axis : x y z
#
# Youngs Moduli (GPa) = 82.19289 70.97081 56.80509
#
# Poissons Ratio (x) = 0.26251 0.48108
# Poissons Ratio (y) = 0.30402 0.01228
# Poissons Ratio (z) = 0.69609 0.01535
#
# Static dielectric constant tensor:
#      x y z
#    x 1.608880 0.000000 -0.000060 
#    y 0.000000 1.583060 0.000000 
#    z -0.000060 0.000000 1.578430 
# 
# From -- ./inp_files/199835.got.cif
#   From: 2010.05.17/outbox.cif.g08.bks.cpg/sg12_100_cif.got.tgz:199835.got - 2010.06.03 13:09:07.
