data_PCOD9189371
_publ_section_title
;
Structure prediction by ZEFSAII (Michael W. Deem and Ramdas Pophale) SiO2 
 PCOD9189371
Probable space group: C 2/M
;
_chemical_formula_sum "Si O2"
_cell_formula_units_Z 56
_cell_length_a 26.153732
_cell_length_b 7.796709
_cell_length_c 11.901275
_cell_angle_alpha 90.000000
_cell_angle_beta 80.642565
_cell_angle_gamma 90.000000
_cell_volume 2394.531919
_symmetry_space_group_name_H-M "C 2/M"
_symmetry_group_IT_number 12
_symmetry_cell_setting 'monoclinic'
loop_
_space_group_symop_operation_xyz
x,y,z
-x,y,-z
-x,-y,-z
x,-y,z
1/2+x,1/2+y,z
1/2-x,1/2+y,-z
1/2-x,1/2-y,-z
1/2+x,1/2-y,z
loop_
_atom_site_type_symbol
_atom_site_label
_atom_site_fract_x
_atom_site_fract_y
_atom_site_fract_z
Si Si1 0.578042 0.302987 0.679212
Si Si2 0.444356 0.291197 0.067503
Si Si3 0.870779 0.301870 0.550056
Si Si4 0.533366 0.801100 0.340205
Si Si5 0.771650 0.207532 0.867089
Si Si6 0.612557 0.706836 0.128287
Si Si7 0.259298 0.309612 0.626473
O O1 0.595061 0.500000 0.681139
O O2 0.569816 0.225777 0.804988
O O3 0.618804 0.209558 0.585830
O O4 0.520425 0.295318 0.647516
O O5 0.448623 0.500000 0.075278
O O6 0.500000 0.232621 0.000000
O O7 0.398938 0.252491 0.996629
O O8 0.862867 0.500000 0.585773
O O9 0.923787 0.237931 0.587355
O O10 0.821881 0.194890 0.605789
O O11 0.564840 0.784145 0.213611
O O12 0.521589 0.000000 0.368412
O O13 0.831658 0.267079 0.850530
O O14 0.746570 0.270091 0.756010
O O15 0.771395 0.000000 0.859639
O O16 0.750000 0.250000 0.000000
O O17 0.609948 0.500000 0.142224
O O18 0.237355 0.500000 0.636749
O O19 0.250000 0.250000 0.500000
#
# Coordination Sequence:
#
# PCOD9189371 Si02
#       7
#     8   8   8   8   8   8   8
#     4  11  22  36  58  88 123 165 209 251 300 367
#     4   9  17  32  56  84 115 152 197 247 298 354
#     4  11  24  41  60  87 124 161 204 259 312 367
#     4  11  22  36  57  86 120 159 201 249 304 357
#     4  10  23  41  66  96 126 159 207 263 319 385
#     4  10  19  37  62  86 114 153 199 247 297 361
#     4  11  24  44  69  98 128 165 212 262 323 389
#
# _framework density 23.386617000000001
#
# number of rings (size 3 to 8) (size 9 to 14) (size 15 to 20)
#    0.000    1.571    2.857    2.143    0.000    6.286 
#    0.000    3.571    0.000    0.000    0.000    0.000 
#    0.000    0.000    0.000    0.000    0.000    0.000 
#
# Total GULP energy -156277.740116 kJ/mol
# GULP energy per Si atom -5581.347861 kJ/mol
# Density = 2.333339 g / cm^3
# Si number density = 23.386617 Si / 1000 Ang^3
#
#
#
# Elastic Constant Matrix: (Units=GPa)
#
#
# Indices 1 2 3 4 5 6 
#
# 1 35.5283 5.1281 35.5125 0.0000 17.0803 0.0000
# 2 5.1281 37.3491 3.5576 0.0000 6.6714 0.0000
# 3 35.5125 3.5576 151.6905 0.0000 18.8759 0.0000
# 4 0.0000 0.0000 0.0000 22.1834 0.0000 10.5723
# 5 17.0803 6.6714 18.8759 0.0000 41.7434 0.0000
# 6 0.0000 0.0000 0.0000 10.5723 0.0000 -6.2224
#
#
#
# Elastic Compliance Matrix: (Units=1/GPa)
#
#
# Indices 1 2 3 4 5 6 
#
# 1 0.043478 -0.002748 -0.008429 0.000000 -0.013539 0.000000
# 2 -0.002748 0.027737 0.000429 0.000000 -0.003502 0.000000
# 3 -0.008429 0.000429 0.008620 0.000000 -0.000517 0.000000
# 4 0.000000 0.000000 0.000000 0.024909 0.000000 0.042322
# 5 -0.013539 -0.003502 -0.000517 0.000000 0.030289 0.000000
# 6 0.000000 0.000000 0.000000 0.042322 0.000000 -0.088802
#
#
# Mechanical properties :
#
#
# Convention : Reuss Voigt Hill
#
# Bulk Modulus (GPa) = 17.14192 34.77380 25.95786
# Shear Modulus (GPa) = 57.35662 23.56553 40.46107
#
# Velocity S-wave (km/s) = 4.95769 3.17779 4.16395
# Velocity P-wave (km/s) = 6.33382 5.32596 5.85163
#
# Compressibility (1/GPa) = 0.05833653
#
# Stress axis : x y z
#
# Youngs Moduli (GPa) = 23.00018 36.05356 116.00758
#
# Poissons Ratio (x) = 0.09908 0.97788
# Poissons Ratio (y) = 0.06321 -0.04973
# Poissons Ratio (z) = 0.19388 -0.01546
#
# Static dielectric constant tensor:
#      x y z
#    x 1.855680 0.000000 0.070220 
#    y 0.000000 1.878630 0.000000 
#    z 0.070220 0.000000 1.960060 
# 
# From -- ./inp_files/180809.got.cif
#   From: 2010.05.17/outbox.cif.g08.bks.cpg/sg12_91_cif.got.tgz:180809.got - 2010.06.03 13:09:07.
