data_PCOD9189259
_publ_section_title
;
Structure prediction by ZEFSAII (Michael W. Deem and Ramdas Pophale) SiO2 
 PCOD9189259
Probable space group: C 2/M
;
_chemical_formula_sum "Si O2"
_cell_formula_units_Z 48
_cell_length_a 12.126655
_cell_length_b 26.386916
_cell_length_c 10.595240
_cell_angle_alpha 90.000000
_cell_angle_beta 142.826656
_cell_angle_gamma 90.000000
_cell_volume 2048.526772
_symmetry_space_group_name_H-M "C 2/M"
_symmetry_group_IT_number 12
_symmetry_cell_setting 'monoclinic'
loop_
_space_group_symop_operation_xyz
x,y,z
-x,y,-z
-x,-y,-z
x,-y,z
1/2+x,1/2+y,z
1/2-x,1/2+y,-z
1/2-x,1/2-y,-z
1/2+x,1/2-y,z
loop_
_atom_site_type_symbol
_atom_site_label
_atom_site_fract_x
_atom_site_fract_y
_atom_site_fract_z
Si Si1 0.517123 0.585193 0.660676
Si Si2 0.154585 0.385631 0.439578
Si Si3 0.276188 0.056694 0.106717
Si Si4 0.552330 0.796986 0.831537
Si Si5 0.419270 0.294799 0.292478
Si Si6 0.300500 0.343946 0.832048
O O1 0.500000 0.570124 0.500000
O O2 0.323930 0.580038 0.553559
O O3 0.543782 0.646046 0.692525
O O4 0.684132 0.559469 0.884876
O O5 0.202984 0.354286 0.610218
O O6 0.981695 0.422260 0.296546
O O7 0.095872 0.341122 0.287158
O O8 0.169603 0.099645 0.085428
O O9 0.264329 0.000000 0.145884
O O10 0.490789 0.741806 0.729970
O O11 0.674395 0.816411 0.821134
O O12 0.700118 0.791070 0.076744
O O13 0.500000 0.279335 0.500000
O O14 0.500000 0.320018 0.000000
#
# Coordination Sequence:
#
# PCOD9189259 Si02
#       6
#     8   8   8   8   8   8
#     4  11  24  44  64  88 129 165 211 264 312 365
#     4  11  22  41  65  91 126 168 204 261 320 371
#     4  11  24  43  65  96 124 160 214 260 320 381
#     4  10  20  36  62  95 130 168 213 249 310 382
#     4  10  19  37  60  91 132 170 210 257 302 371
#     4  11  20  39  65  95 132 165 200 258 322 372
#
# _framework density 23.431473
#
# number of rings (size 3 to 8) (size 9 to 14) (size 15 to 20)
#    0.000    1.333    5.000    3.000    0.000    4.000 
#    0.000    7.500    0.000    0.000    0.000    0.000 
#    0.000    0.000    0.000    0.000    0.000    0.000 
#
# Total GULP energy -134192.321768 kJ/mol
# GULP energy per Si atom -5591.346740 kJ/mol
# Density = 2.337814 g / cm^3
# Si number density = 23.431473 Si / 1000 Ang^3
#
#
#
# Elastic Constant Matrix: (Units=GPa)
#
#
# Indices 1 2 3 4 5 6 
#
# 1 54.0238 -5.8885 36.5557 0.0000 8.8554 0.0000
# 2 -5.8885 74.9387 0.4162 0.0000 -11.6007 0.0000
# 3 36.5557 0.4162 153.7956 0.0000 -10.9145 0.0000
# 4 0.0000 0.0000 0.0000 -0.0795 0.0000 -3.9472
# 5 8.8554 -11.6007 -10.9145 0.0000 28.0989 0.0000
# 6 0.0000 0.0000 0.0000 -3.9472 0.0000 9.4048
#
#
#
# Elastic Compliance Matrix: (Units=1/GPa)
#
#
# Indices 1 2 3 4 5 6 
#
# 1 0.024680 0.000401 -0.006589 0.000000 -0.010172 0.000000
# 2 0.000401 0.014285 0.000283 0.000000 0.005881 0.000000
# 3 -0.006589 0.000283 0.008456 0.000000 0.005478 0.000000
# 4 0.000000 0.000000 0.000000 -0.575995 0.000000 -0.241744
# 5 -0.010172 0.005881 0.005478 0.000000 0.043350 0.000000
# 6 0.000000 0.000000 0.000000 -0.241744 0.000000 0.004869
#
#
# Mechanical properties :
#
#
# Convention : Reuss Voigt Hill
#
# Bulk Modulus (GPa) = 28.08053 38.32500 33.20277
# Shear Modulus (GPa) = -10.94871 24.26314 6.65722
#
# Velocity S-wave (km/s) = -2.16398 3.22140 1.68740
# Velocity P-wave (km/s) = 2.40133 5.49802 4.24233
#
# Compressibility (1/GPa) = 0.03561186
#
# Stress axis : x y z
#
# Youngs Moduli (GPa) = 40.51854 70.00547 118.25460
#
# Poissons Ratio (x) = -0.02809 0.77920
# Poissons Ratio (y) = -0.01626 -0.03350
# Poissons Ratio (z) = 0.26698 -0.01983
#
# Static dielectric constant tensor:
#      x y z
#    x 1.932040 0.000000 -0.006540 
#    y 0.000000 1.884710 0.000000 
#    z -0.006540 0.000000 1.933260 
# 
# From -- ./inp_files/150334.got.cif
#   From: 2010.05.17/outbox.cif.g08.bks.cpg/sg12_76_cif.got.tgz:150334.got - 2010.06.03 13:09:07.
