data_PCOD9189470
_publ_section_title
;
Structure prediction by ZEFSAII (Michael W. Deem and Ramdas Pophale) SiO2 
 PCOD9189470
Probable space group: C 2/M
;
_chemical_formula_sum "Si O2"
_cell_formula_units_Z 50
_cell_length_a 14.881309
_cell_length_b 7.471441
_cell_length_c 24.277769
_cell_angle_alpha 90.000000
_cell_angle_beta 135.484120
_cell_angle_gamma 90.000000
_cell_volume 1892.511533
_symmetry_space_group_name_H-M "C 2/M"
_symmetry_group_IT_number 12
_symmetry_cell_setting 'monoclinic'
loop_
_space_group_symop_operation_xyz
x,y,z
-x,y,-z
-x,-y,-z
x,-y,z
1/2+x,1/2+y,z
1/2-x,1/2+y,-z
1/2-x,1/2-y,-z
1/2+x,1/2-y,z
loop_
_atom_site_type_symbol
_atom_site_label
_atom_site_fract_x
_atom_site_fract_y
_atom_site_fract_z
Si Si1 0.786950 0.204218 0.420906
Si Si2 0.032127 0.202215 0.361332
Si Si3 0.500000 0.000000 0.500000
Si Si4 0.100443 0.714631 0.930123
Si Si5 0.906292 0.706117 0.193010
Si Si6 0.274923 0.715723 0.293824
Si Si7 0.641497 0.783635 0.121384
O O1 0.668899 0.211069 0.411401
O O2 0.730361 0.258272 0.335508
O O3 0.899481 0.343270 0.478441
O O4 0.832876 0.000000 0.436826
O O5 0.962326 0.198803 0.270914
O O6 0.920149 0.286424 0.349660
O O7 0.055329 0.000000 0.390514
O O8 0.084688 0.500000 0.921123
O O9 0.059429 0.781269 0.851647
O O10 0.006630 0.774095 0.938313
O O11 0.250000 0.750000 0.000000
O O12 0.950431 0.500000 0.215970
O O13 0.751105 0.709866 0.129678
O O14 0.279969 0.500000 0.292144
O O15 0.194173 0.768064 0.205437
O O16 0.645082 0.000000 0.115274
#
# Coordination Sequence:
#
# PCOD9189470 Si02
#       7
#     8   8   2   8   8   8   8
#     4  11  22  42  66  86 124 164 198 249 295 351
#     4  10  19  37  63  93 120 149 195 250 297 356
#     4  12  26  44  60  94 124 162 210 236 292 366
#     4  10  22  37  53  74 113 157 199 237 293 359
#     4  10  20  35  55  85 114 146 190 245 300 351
#     4   8  17  35  63  88 116 150 192 245 305 350
#     4   9  18  36  57  82 111 146 190 244 295 350
#
# _framework density 26.419919
#
# number of rings (size 3 to 8) (size 9 to 14) (size 15 to 20)
#    0.000    2.240    0.800    3.120    0.000    5.120 
#    7.200    4.000    0.000    0.000    0.000    0.000 
#    0.000    0.000    0.000    0.000    0.000    0.000 
#
# Total GULP energy -139618.044031 kJ/mol
# GULP energy per Si atom -5584.721761 kJ/mol
# Density = 2.635979 g / cm^3
# Si number density = 26.419919 Si / 1000 Ang^3
#
#
#
# Elastic Constant Matrix: (Units=GPa)
#
#
# Indices 1 2 3 4 5 6 
#
# 1 162.3006 -4.6380 11.1418 0.0000 27.3487 0.0000
# 2 -4.6380 105.8507 -7.8580 0.0000 15.1916 0.0000
# 3 11.1418 -7.8580 61.8199 0.0000 3.7246 0.0000
# 4 0.0000 0.0000 0.0000 9.9701 0.0000 13.7708
# 5 27.3487 15.1916 3.7246 0.0000 50.2478 0.0000
# 6 0.0000 0.0000 0.0000 13.7708 0.0000 17.4953
#
#
#
# Elastic Compliance Matrix: (Units=1/GPa)
#
#
# Indices 1 2 3 4 5 6 
#
# 1 0.006910 0.000800 -0.000906 0.000000 -0.003936 0.000000
# 2 0.000800 0.010098 0.001356 0.000000 -0.003589 0.000000
# 3 -0.000906 0.001356 0.016581 0.000000 -0.001146 0.000000
# 4 0.000000 0.000000 0.000000 -1.150634 0.000000 0.905683
# 5 -0.003936 -0.003589 -0.001146 0.000000 0.023213 0.000000
# 6 0.000000 0.000000 0.000000 0.905683 0.000000 -0.655719
#
#
# Mechanical properties :
#
#
# Convention : Reuss Voigt Hill
#
# Bulk Modulus (GPa) = 27.71067 36.36256 32.03661
# Shear Modulus (GPa) = -2.87353 37.63100 17.37874
#
# Velocity S-wave (km/s) = -1.04403 3.77814 2.56752
# Velocity P-wave (km/s) = 3.00965 5.72937 4.57622
#
# Compressibility (1/GPa) = 0.03608718
#
# Stress axis : x y z
#
# Youngs Moduli (GPa) = 144.72477 99.02885 60.31104
#
# Poissons Ratio (x) = -0.07925 0.05467
# Poissons Ratio (y) = -0.11582 -0.08176
# Poissons Ratio (z) = 0.13119 -0.13424
#
# Static dielectric constant tensor:
#      x y z
#    x 2.039430 0.000000 0.008040 
#    y 0.000000 2.046040 0.000000 
#    z 0.008040 0.000000 2.140480 
# 
# From -- ./inp_files/360078.got.cif
#   From: 2010.05.17/outbox.cif.g08.bks.cpg/sg12_181_cif.got.tgz:360078.got - 2010.06.03 13:09:07.
