data_PCOD9189034
_publ_section_title
;
Structure prediction by ZEFSAII (Michael W. Deem and Ramdas Pophale) SiO2 
 PCOD9189034
Probable space group: C 2/M
;
_chemical_formula_sum "Si O2"
_cell_formula_units_Z 44
_cell_length_a 19.118627
_cell_length_b 21.359226
_cell_length_c 4.981403
_cell_angle_alpha 90.000000
_cell_angle_beta 106.675316
_cell_angle_gamma 90.000000
_cell_volume 1948.655245
_symmetry_space_group_name_H-M "C 2/M"
_symmetry_group_IT_number 12
_symmetry_cell_setting 'monoclinic'
loop_
_space_group_symop_operation_xyz
x,y,z
-x,y,-z
-x,-y,-z
x,-y,z
1/2+x,1/2+y,z
1/2-x,1/2+y,-z
1/2-x,1/2-y,-z
1/2+x,1/2-y,z
loop_
_atom_site_type_symbol
_atom_site_label
_atom_site_fract_x
_atom_site_fract_y
_atom_site_fract_z
Si Si1 0.313109 0.430141 0.842289
Si Si2 0.000000 0.657017 0.500000
Si Si3 0.932459 0.765224 0.773582
Si Si4 0.080070 0.573054 0.954401
Si Si5 0.730832 0.883695 0.223717
Si Si6 0.852044 0.190293 0.155811
O O1 0.342561 0.500000 0.846056
O O2 0.278657 0.405748 0.528398
O O3 0.248525 0.428706 0.991269
O O4 0.365587 0.377159 0.026085
O O5 0.968479 0.702459 0.694554
O O6 0.934767 0.613105 0.327684
O O7 0.899017 0.797556 0.473226
O O8 0.872509 0.761042 0.944183
O O9 0.000000 0.798310 0.000000
O O10 0.096875 0.500000 0.931153
O O11 0.145870 0.607248 0.180605
O O12 0.000000 0.574733 0.000000
O O13 0.768320 0.819007 0.162846
#
# Coordination Sequence:
#
# PCOD9189034 Si02
#       6
#     8   4   8   8   8   8
#     4  10  19  36  66 101 138 178 225 279 348 411
#     4  12  27  44  74  98 141 186 246 284 350 412
#     4  12  22  44  73  98 136 186 238 290 349 409
#     4  11  26  46  70 107 148 186 228 284 350 423
#     4  10  22  40  68 102 142 182 231 278 353 407
#     4  10  21  40  68 107 132 186 234 291 346 411
#
# _framework density 22.579673
#
# number of rings (size 3 to 8) (size 9 to 14) (size 15 to 20)
#    1.091    0.182    3.636    2.455    2.545    0.000 
#    0.000    1.818    0.000    3.273    0.000    0.000 
#    0.000    0.000    0.000    0.000    0.000    0.000 
#
# Total GULP energy -122616.281165 kJ/mol
# GULP energy per Si atom -5573.467326 kJ/mol
# Density = 2.252828 g / cm^3
# Si number density = 22.579673 Si / 1000 Ang^3
#
#
#
# Elastic Constant Matrix: (Units=GPa)
#
#
# Indices 1 2 3 4 5 6 
#
# 1 116.1475 69.8222 61.1080 0.0000 -5.3239 0.0000
# 2 69.8222 90.9693 63.4587 0.0000 12.7225 0.0000
# 3 61.1080 63.4587 151.2758 0.0000 -14.0550 0.0000
# 4 0.0000 0.0000 0.0000 49.0837 0.0000 -20.1815
# 5 -5.3239 12.7225 -14.0550 0.0000 40.4455 0.0000
# 6 0.0000 0.0000 0.0000 -20.1815 0.0000 32.8677
#
#
#
# Elastic Compliance Matrix: (Units=1/GPa)
#
#
# Indices 1 2 3 4 5 6 
#
# 1 0.017686 -0.014030 -0.000654 0.000000 0.006514 0.000000
# 2 -0.014030 0.029150 -0.007837 0.000000 -0.013740 0.000000
# 3 -0.000654 -0.007837 0.010730 0.000000 0.006108 0.000000
# 4 0.000000 0.000000 0.000000 0.027254 0.000000 0.016735
# 5 0.006514 -0.013740 0.006108 0.000000 0.032027 0.000000
# 6 0.000000 0.000000 0.000000 0.016735 0.000000 0.040700
#
#
# Mechanical properties :
#
#
# Convention : Reuss Voigt Hill
#
# Bulk Modulus (GPa) = 79.84641 83.01894 81.43268
# Shear Modulus (GPa) = 24.18223 35.41295 29.79759
#
# Velocity S-wave (km/s) = 3.27612 3.96454 3.63666
# Velocity P-wave (km/s) = 7.05333 7.60288 7.33325
#
# Compressibility (1/GPa) = 0.01252404
#
# Stress axis : x y z
#
# Youngs Moduli (GPa) = 56.54060 34.30553 93.19961
#
# Poissons Ratio (x) = 0.48130 0.06094
# Poissons Ratio (y) = 0.79326 0.73042
# Poissons Ratio (z) = 0.03697 0.26886
#
# Static dielectric constant tensor:
#      x y z
#    x 1.960660 0.000000 -0.019630 
#    y 0.000000 1.547680 0.000000 
#    z -0.019630 0.000000 1.838490 
# 
# From -- ./inp_files/17001.got.cif
#   From: 2010.05.17/outbox.cif.g08.bks.cpg/sg12_9_cif.got.tgz:17001.got - 2010.06.03 13:09:07.
