data_PCOD9189029
_publ_section_title
;
Structure prediction by ZEFSAII (Michael W. Deem and Ramdas Pophale) SiO2 
 PCOD9189029
Probable space group: C 2/M
;
_chemical_formula_sum "Si O2"
_cell_formula_units_Z 64
_cell_length_a 22.785256
_cell_length_b 21.170656
_cell_length_c 17.595444
_cell_angle_alpha 90.000000
_cell_angle_beta 158.775075
_cell_angle_gamma 90.000000
_cell_volume 3072.791978
_symmetry_space_group_name_H-M "C 2/M"
_symmetry_group_IT_number 12
_symmetry_cell_setting 'monoclinic'
loop_
_space_group_symop_operation_xyz
x,y,z
-x,y,-z
-x,-y,-z
x,-y,z
1/2+x,1/2+y,z
1/2-x,1/2+y,-z
1/2-x,1/2-y,-z
1/2+x,1/2-y,z
loop_
_atom_site_type_symbol
_atom_site_label
_atom_site_fract_x
_atom_site_fract_y
_atom_site_fract_z
Si Si1 0.469723 0.433089 0.146852
Si Si2 0.532621 0.320463 0.959172
Si Si3 0.083802 0.107249 0.441622
Si Si4 0.588763 0.928457 0.727475
Si Si5 0.863280 0.426375 0.889322
Si Si6 0.245292 0.237185 0.585423
Si Si7 0.733387 0.923516 0.063985
Si Si8 0.604718 0.192853 0.560132
O O1 0.504636 0.500000 0.149872
O O2 0.523813 0.369655 0.171558
O O3 0.552261 0.433716 0.328659
O O4 0.274745 0.427669 0.921705
O O5 0.427428 0.257125 0.828773
O O6 0.500000 0.353206 0.000000
O O7 0.722343 0.310122 0.189814
O O8 0.900598 0.114079 0.251804
O O9 0.194478 0.078227 0.640835
O O10 0.179075 0.168408 0.526143
O O11 0.479477 0.874721 0.558145
O O12 0.526268 0.000000 0.640432
O O13 0.614757 0.916374 0.848952
O O14 0.906865 0.500000 0.952776
O O15 0.844885 0.400920 0.951923
O O16 0.000000 0.397435 0.000000
O O17 0.250000 0.250000 0.500000
O O18 0.136184 0.278363 0.513908
O O19 0.770963 0.000000 0.113892
O O20 0.500000 0.226829 0.500000
#
# Coordination Sequence:
#
# PCOD9189029 Si02
#       8
#     8   8   8   8   8   8   8   8
#     4  10  19  36  65  98 130 163 209 264 325 395
#     4  10  22  42  62  90 135 169 209 269 326 377
#     4  11  21  38  65  88 120 174 230 270 325 392
#     4   9  19  37  64  98 132 169 208 265 331 387
#     4  10  21  36  58  94 138 174 207 272 344 396
#     4  11  25  45  64  85 127 178 220 277 337 376
#     4   9  19  38  63  96 136 170 220 276 324 396
#     4  11  23  41  68  98 131 169 225 271 315 391
#
# _framework density 20.827964000000001
#
# number of rings (size 3 to 8) (size 9 to 14) (size 15 to 20)
#    0.000    1.875    2.500    2.250    0.000    5.500 
#    0.000    7.500    0.000    0.000    0.000    0.000 
#    0.000    0.000    0.000    0.000    0.000    0.000 
#
# Total GULP energy -178237.906797 kJ/mol
# GULP energy per Si atom -5569.934587 kJ/mol
# Density = 2.078056 g / cm^3
# Si number density = 20.827964 Si / 1000 Ang^3
#
#
#
# Elastic Constant Matrix: (Units=GPa)
#
#
# Indices 1 2 3 4 5 6 
#
# 1 134.6435 27.1165 25.1330 0.0000 -7.0340 0.0000
# 2 27.1165 84.5834 33.2477 0.0000 9.9628 0.0000
# 3 25.1330 33.2477 77.1709 0.0000 1.8367 0.0000
# 4 0.0000 0.0000 0.0000 -4.1134 0.0000 4.1235
# 5 -7.0340 9.9628 1.8367 0.0000 22.6166 0.0000
# 6 0.0000 0.0000 0.0000 4.1235 0.0000 12.0415
#
#
#
# Elastic Compliance Matrix: (Units=1/GPa)
#
#
# Indices 1 2 3 4 5 6 
#
# 1 0.008458 -0.002465 -0.001785 0.000000 0.003861 0.000000
# 2 -0.002465 0.015749 -0.005810 0.000000 -0.007232 0.000000
# 3 -0.001785 -0.005810 0.016026 0.000000 0.000703 0.000000
# 4 0.000000 0.000000 0.000000 -0.180981 0.000000 0.061975
# 5 0.003861 -0.007232 0.000703 0.000000 0.048545 0.000000
# 6 0.000000 0.000000 0.000000 0.061975 0.000000 0.061824
#
#
# Mechanical properties :
#
#
# Convention : Reuss Voigt Hill
#
# Bulk Modulus (GPa) = 49.71796 51.93246 50.82521
# Shear Modulus (GPa) = -1405.90592 20.16898 -692.86847
#
# Velocity S-wave (km/s) = -26.00912 3.11523 -18.25883
# Velocity P-wave (km/s) = 29.63179 6.15854 20.49531
#
# Compressibility (1/GPa) = 0.02011346
#
# Stress axis : x y z
#
# Youngs Moduli (GPa) = 118.22710 63.49804 62.39896
#
# Poissons Ratio (x) = 0.15652 0.11136
# Poissons Ratio (y) = 0.29142 0.36254
# Poissons Ratio (z) = 0.21099 0.36893
#
# Static dielectric constant tensor:
#      x y z
#    x 1.817700 0.000000 0.061760 
#    y 0.000000 1.780820 0.000000 
#    z 0.061760 0.000000 1.988410 
# 
# From -- ./inp_files/290962.got.cif
#   From: 2010.05.17/outbox.cif.g08.bks.cpg/sg12_146_cif.got.tgz:290962.got - 2010.06.03 13:09:07.
