data_PCOD9189109
_publ_section_title
;
Structure prediction by ZEFSAII (Michael W. Deem and Ramdas Pophale) SiO2 
 PCOD9189109
Probable space group: C 2/M
;
_chemical_formula_sum "Si O2"
_cell_formula_units_Z 52
_cell_length_a 12.579265
_cell_length_b 27.441755
_cell_length_c 8.246097
_cell_angle_alpha 90.000000
_cell_angle_beta 75.219398
_cell_angle_gamma 90.000000
_cell_volume 2752.336677
_symmetry_space_group_name_H-M "C 2/M"
_symmetry_group_IT_number 12
_symmetry_cell_setting 'monoclinic'
loop_
_space_group_symop_operation_xyz
x,y,z
-x,y,-z
-x,-y,-z
x,-y,z
1/2+x,1/2+y,z
1/2-x,1/2+y,-z
1/2-x,1/2-y,-z
1/2+x,1/2-y,z
loop_
_atom_site_type_symbol
_atom_site_label
_atom_site_fract_x
_atom_site_fract_y
_atom_site_fract_z
Si Si1 0.453619 0.774977 0.192013
Si Si2 0.105838 0.553747 0.841865
Si Si3 0.034183 0.627555 0.302774
Si Si4 0.000000 0.110725 0.000000
Si Si5 0.745590 0.401039 0.945755
Si Si6 0.261425 0.297688 0.887676
Si Si7 0.505902 0.320221 0.316009
O O1 0.531484 0.818532 0.223685
O O2 0.339546 0.800439 0.194482
O O3 0.433748 0.728232 0.312333
O O4 0.500000 0.756591 0.000000
O O5 0.126282 0.500000 0.762965
O O6 0.062846 0.594417 0.735822
O O7 0.205909 0.570531 0.917276
O O8 0.000000 0.550089 0.000000
O O9 0.152425 0.601343 0.222569
O O10 0.000000 0.633957 0.500000
O O11 0.880388 0.083645 0.044062
O O12 0.992325 0.142891 0.169792
O O13 0.734162 0.344829 0.001588
O O14 0.373524 0.297279 0.747133
O O15 0.250000 0.250000 0.000000
O O16 0.500000 0.341167 0.500000
#
# Coordination Sequence:
#
# PCOD9189109 Si02
#       7
#     8   8   8   4   8   8   8
#     4  12  18  33  52  73 108 143 189 231 276 322
#     4   9  18  36  60  83 108 143 184 230 286 346
#     4  11  21  32  54  88 114 140 180 234 292 342
#     4  10  22  40  57  76 118 156 193 238 274 326
#     4  10  19  37  57  80 109 148 190 227 281 337
#     4  11  19  32  55  73 109 152 186 235 280 325
#     4  11  23  35  51  78 108 154 198 232 279 329
#
# _framework density 18.893038000000001
#
# number of rings (size 3 to 8) (size 9 to 14) (size 15 to 20)
#    0.000    1.385    5.385    1.846    0.000    2.154 
#    0.000    0.385    0.000    0.000    0.000    1.077 
#    0.000    0.000    0.000    0.000    0.000    0.000 
#
# Total GULP energy -144772.655754 kJ/mol
# GULP energy per Si atom -5568.179067 kJ/mol
# Density = 1.885004 g / cm^3
# Si number density = 18.893038 Si / 1000 Ang^3
#
#
#
# Elastic Constant Matrix: (Units=GPa)
#
#
# Indices 1 2 3 4 5 6 
#
# 1 124.8869 -2.7672 14.3149 0.0000 -0.4471 0.0000
# 2 -2.7672 52.7056 10.7408 0.0000 8.7426 0.0000
# 3 14.3149 10.7408 89.7425 0.0000 10.1540 0.0000
# 4 0.0000 0.0000 0.0000 6.3648 0.0000 0.9942
# 5 -0.4471 8.7426 10.1540 0.0000 17.5486 0.0000
# 6 0.0000 0.0000 0.0000 0.9942 0.0000 2.6825
#
#
#
# Elastic Compliance Matrix: (Units=1/GPa)
#
#
# Indices 1 2 3 4 5 6 
#
# 1 0.008191 0.000603 -0.001464 0.000000 0.000755 0.000000
# 2 0.000603 0.020893 -0.001520 0.000000 -0.009514 0.000000
# 3 -0.001464 -0.001520 0.012281 0.000000 -0.006386 0.000000
# 4 0.000000 0.000000 0.000000 0.166769 0.000000 -0.061805
# 5 0.000755 -0.009514 -0.006386 0.000000 0.065438 0.000000
# 6 0.000000 0.000000 0.000000 -0.061805 0.000000 0.395690
#
#
# Mechanical properties :
#
#
# Convention : Reuss Voigt Hill
#
# Bulk Modulus (GPa) = 27.32076 34.65689 30.98883
# Shear Modulus (GPa) = 7.28623 21.65561 14.47092
#
# Velocity S-wave (km/s) = 1.96595 3.38926 2.77056
# Velocity P-wave (km/s) = 4.43231 5.80514 5.16455
#
# Compressibility (1/GPa) = 0.03660220
#
# Stress axis : x y z
#
# Youngs Moduli (GPa) = 122.08296 47.86318 81.42615
#
# Poissons Ratio (x) = -0.02887 0.11923
# Poissons Ratio (y) = -0.07363 0.12380
# Poissons Ratio (z) = 0.17876 0.07277
#
# Static dielectric constant tensor:
#      x y z
#    x 2.072300 0.000000 0.112550 
#    y 0.000000 1.715750 0.000000 
#    z 0.112550 0.000000 1.689880 
# 
# From -- ./inp_files/52564.got.cif
#   From: 2010.05.17/outbox.cif.g08.bks.cpg/sg12_27_cif.got.tgz:52564.got - 2010.06.03 13:09:07.
