data_PCOD9189961
_publ_section_title
;
Structure prediction by ZEFSAII (Michael W. Deem and Ramdas Pophale) SiO2 
 PCOD9189961
Probable space group: C 2/M
;
_chemical_formula_sum "Si O2"
_cell_formula_units_Z 64
_cell_length_a 18.877750
_cell_length_b 14.243373
_cell_length_c 19.973913
_cell_angle_alpha 90.000000
_cell_angle_beta 38.184711
_cell_angle_gamma 90.000000
_cell_volume 3320.123970
_symmetry_space_group_name_H-M "C 2/M"
_symmetry_group_IT_number 12
_symmetry_cell_setting 'monoclinic'
loop_
_space_group_symop_operation_xyz
x,y,z
-x,y,-z
-x,-y,-z
x,-y,z
1/2+x,1/2+y,z
1/2-x,1/2+y,-z
1/2-x,1/2-y,-z
1/2+x,1/2-y,z
loop_
_atom_site_type_symbol
_atom_site_label
_atom_site_fract_x
_atom_site_fract_y
_atom_site_fract_z
Si Si1 0.305360 0.104257 0.570113
Si Si2 0.365565 0.395818 0.084943
Si Si3 0.316301 0.608172 0.963781
Si Si4 0.488710 0.229357 0.636190
Si Si5 0.307669 0.348946 0.476541
Si Si6 0.421457 0.204284 0.835384
Si Si7 0.263147 0.241906 0.722528
Si Si8 0.150298 0.391798 0.719479
O O1 0.423008 0.150333 0.455522
O O2 0.215889 0.098333 0.575000
O O3 0.260788 0.174282 0.659669
O O4 0.325749 0.000000 0.581427
O O5 0.322106 0.500000 0.138393
O O6 0.305959 0.311944 0.168610
O O7 0.500000 0.392858 0.000000
O O8 0.346720 0.388178 0.019823
O O9 0.328781 0.500000 0.931883
O O10 0.394306 0.686472 0.870185
O O11 0.185160 0.644357 0.057117
O O12 0.564519 0.321283 0.597397
O O13 0.433559 0.193657 0.746450
O O14 0.392168 0.250629 0.653600
O O15 0.250000 0.250000 0.500000
O O16 0.237847 0.388404 0.591322
O O17 0.538359 0.167168 0.781155
O O18 0.209285 0.339192 0.737854
O O19 0.121311 0.500000 0.754367
#
# Coordination Sequence:
#
# PCOD9189961 Si02
#       8
#     8   8   8   8   8   8   8   8
#     4  11  22  37  63  95 126 161 205 258 316 380
#     4  10  21  38  61  93 128 162 201 254 324 390
#     4  10  22  40  65  98 125 159 212 268 327 375
#     4  11  22  39  62  90 127 169 202 257 312 373
#     4  10  19  39  59  86 123 162 209 261 303 357
#     4  11  21  41  69  92 124 167 211 271 314 369
#     4  12  23  40  61  91 134 164 206 253 318 377
#     4  12  24  41  64  88 122 173 221 253 307 382
#
# _framework density 19.276388000000001
#
# number of rings (size 3 to 8) (size 9 to 14) (size 15 to 20)
#    0.000    1.125    6.250    2.250    0.000    2.000 
#    0.000    6.875    0.000    1.125    0.000    0.000 
#    0.000    0.000    0.000    0.000    0.000    0.000 
#
# Total GULP energy -178667.820700 kJ/mol
# GULP energy per Si atom -5583.369397 kJ/mol
# Density = 1.923251 g / cm^3
# Si number density = 19.276388 Si / 1000 Ang^3
#
#
#
# Elastic Constant Matrix: (Units=GPa)
#
#
# Indices 1 2 3 4 5 6 
#
# 1 85.0929 6.5233 -18.0427 0.0000 -22.2809 0.0000
# 2 6.5233 100.9475 2.6043 0.0000 -6.8637 0.0000
# 3 -18.0427 2.6043 18.3249 0.0000 -6.0373 0.0000
# 4 0.0000 0.0000 0.0000 4.9353 0.0000 -3.0857
# 5 -22.2809 -6.8637 -6.0373 0.0000 26.2386 0.0000
# 6 0.0000 0.0000 0.0000 -3.0857 0.0000 13.8659
#
#
#
# Elastic Compliance Matrix: (Units=1/GPa)
#
#
# Indices 1 2 3 4 5 6 
#
# 1 0.029044 -0.000615 0.039771 0.000000 0.033653 0.000000
# 2 -0.000615 0.010105 -0.001453 0.000000 0.001787 0.000000
# 3 0.039771 -0.001453 0.113544 0.000000 0.059518 0.000000
# 4 0.000000 0.000000 0.000000 0.235373 0.000000 0.052379
# 5 0.033653 0.001787 0.059518 0.000000 0.080851 0.000000
# 6 0.000000 0.000000 0.000000 0.052379 0.000000 0.083776
#
#
# Mechanical properties :
#
#
# Convention : Reuss Voigt Hill
#
# Bulk Modulus (GPa) = 4.38405 20.72613 12.55509
# Shear Modulus (GPa) = 9.03641 23.22666 16.13153
#
# Velocity S-wave (km/s) = 2.16748 3.47497 2.89598
# Velocity P-wave (km/s) = 2.92288 5.18421 4.20828
#
# Compressibility (1/GPa) = 0.22809949
#
# Stress axis : x y z
#
# Youngs Moduli (GPa) = 34.43097 98.96245 8.80718
#
# Poissons Ratio (x) = 0.06083 -0.35027
# Poissons Ratio (y) = 0.02117 0.01279
# Poissons Ratio (z) = -1.36935 0.14375
#
# Static dielectric constant tensor:
#      x y z
#    x 1.681420 0.000000 -0.004000 
#    y 0.000000 1.345880 0.000000 
#    z -0.004000 0.000000 1.675450 
# 
# From -- ./inp_files/278145.got.cif
#   From: 2010.05.17/outbox.cif.g08.bks.cpg/sg12_140_cif.got.tgz:278145.got - 2010.06.03 13:09:07.
