data_PCOD9189626
_publ_section_title
;
Structure prediction by ZEFSAII (Michael W. Deem and Ramdas Pophale) SiO2 
 PCOD9189626
Probable space group: C 2/M
;
_chemical_formula_sum "Si O2"
_cell_formula_units_Z 40
_cell_length_a 13.833616
_cell_length_b 18.405269
_cell_length_c 11.093137
_cell_angle_alpha 90.000000
_cell_angle_beta 142.640377
_cell_angle_gamma 90.000000
_cell_volume 1713.914615
_symmetry_space_group_name_H-M "C 2/M"
_symmetry_group_IT_number 12
_symmetry_cell_setting 'monoclinic'
loop_
_space_group_symop_operation_xyz
x,y,z
-x,y,-z
-x,-y,-z
x,-y,z
1/2+x,1/2+y,z
1/2-x,1/2+y,-z
1/2-x,1/2-y,-z
1/2+x,1/2-y,z
loop_
_atom_site_type_symbol
_atom_site_label
_atom_site_fract_x
_atom_site_fract_y
_atom_site_fract_z
Si Si1 0.763226 0.000000 0.727150
Si Si2 0.546507 0.000000 0.746327
Si Si3 0.371042 0.650676 0.733121
Si Si4 0.529664 0.584424 0.391598
Si Si5 0.709430 0.724381 0.132594
Si Si6 0.688477 0.134111 0.980625
O O1 0.857572 0.072300 0.784560
O O2 0.692882 0.000000 0.793083
O O3 0.609838 0.000000 0.488508
O O4 0.559585 0.928352 0.840058
O O5 0.356481 0.634257 0.577434
O O6 0.252615 0.700460 0.694038
O O7 0.539999 0.689691 0.923773
O O8 0.500000 0.605919 0.500000
O O9 0.580876 0.500000 0.439966
O O10 0.357320 0.592414 0.157129
O O11 0.824905 0.685894 0.150650
O O12 0.691372 0.809461 0.093055
#
# Coordination Sequence:
#
# PCOD9189626 Si02
#       6
#     4   4   8   8   8   8
#     4  11  22  36  61 101 122 159 215 256 322 359
#     4  11  22  37  62  90 135 165 199 267 312 371
#     4  10  19  38  62  88 121 155 209 267 290 371
#     4  10  20  35  63  93 118 155 206 262 312 365
#     4   9  20  33  62  90 120 157 205 254 308 374
#     4  10  19  38  57  90 125 166 203 245 318 369
#
# _framework density 23.338386
#
# number of rings (size 3 to 8) (size 9 to 14) (size 15 to 20)
#    0.000    2.000    4.000    0.000    0.000    1.600 
#    0.000   12.000    0.000    3.600    0.000    0.000 
#    0.000    0.000    0.000    0.100    0.000    0.000 
#
# Total GULP energy -111589.443600 kJ/mol
# GULP energy per Si atom -5579.472180 kJ/mol
# Density = 2.328527 g / cm^3
# Si number density = 23.338386 Si / 1000 Ang^3
#
#
#
# Elastic Constant Matrix: (Units=GPa)
#
#
# Indices 1 2 3 4 5 6 
#
# 1 98.3325 41.6039 17.4163 0.0000 -46.8407 0.0000
# 2 41.6039 154.7920 23.2802 0.0000 -15.6638 0.0000
# 3 17.4163 23.2802 58.7235 0.0000 -16.4950 0.0000
# 4 0.0000 0.0000 0.0000 11.8677 0.0000 -6.7418
# 5 -46.8407 -15.6638 -16.4950 0.0000 42.4434 0.0000
# 6 0.0000 0.0000 0.0000 -6.7418 0.0000 29.5522
#
#
#
# Elastic Compliance Matrix: (Units=1/GPa)
#
#
# Indices 1 2 3 4 5 6 
#
# 1 0.023577 -0.004042 0.001683 0.000000 0.025182 0.000000
# 2 -0.004042 0.007668 -0.002581 0.000000 -0.002634 0.000000
# 3 0.001683 -0.002581 0.019989 0.000000 0.008674 0.000000
# 4 0.000000 0.000000 0.000000 0.096809 0.000000 0.022085
# 5 0.025182 -0.002634 0.008674 0.000000 0.053751 0.000000
# 6 0.000000 0.000000 0.000000 0.022085 0.000000 0.038877
#
#
# Mechanical properties :
#
#
# Convention : Reuss Voigt Hill
#
# Bulk Modulus (GPa) = 24.18054 52.93876 38.55965
# Shear Modulus (GPa) = 18.91538 32.07585 25.49562
#
# Velocity S-wave (km/s) = 2.84999 3.71129 3.30878
# Velocity P-wave (km/s) = 4.60578 6.41071 5.58169
#
# Compressibility (1/GPa) = 0.04135558
#
# Stress axis : x y z
#
# Youngs Moduli (GPa) = 42.41416 130.40732 50.02673
#
# Poissons Ratio (x) = 0.52708 -0.08421
# Poissons Ratio (y) = 0.17143 0.12912
# Poissons Ratio (z) = -0.07140 0.33659
#
# Static dielectric constant tensor:
#      x y z
#    x 2.013650 0.000000 -0.023040 
#    y 0.000000 1.867640 0.000000 
#    z -0.023040 0.000000 1.850620 
# 
# From -- ./inp_files/145877.got.cif
#   From: 2010.05.17/outbox.cif.g08.bks.cpg/sg12_73_cif.got.tgz:145877.got - 2010.06.03 13:09:07.
