data_PCOD9189275
_publ_section_title
;
Structure prediction by ZEFSAII (Michael W. Deem and Ramdas Pophale) SiO2 
 PCOD9189275
Probable space group: C 2/M
;
_chemical_formula_sum "Si O2"
_cell_formula_units_Z 64
_cell_length_a 20.313921
_cell_length_b 7.937703
_cell_length_c 32.180470
_cell_angle_alpha 90.000000
_cell_angle_beta 144.382231
_cell_angle_gamma 90.000000
_cell_volume 3021.925757
_symmetry_space_group_name_H-M "C 2/M"
_symmetry_group_IT_number 12
_symmetry_cell_setting 'monoclinic'
loop_
_space_group_symop_operation_xyz
x,y,z
-x,y,-z
-x,-y,-z
x,-y,z
1/2+x,1/2+y,z
1/2-x,1/2+y,-z
1/2-x,1/2-y,-z
1/2+x,1/2-y,z
loop_
_atom_site_type_symbol
_atom_site_label
_atom_site_fract_x
_atom_site_fract_y
_atom_site_fract_z
Si Si1 0.027563 0.206788 0.221248
Si Si2 0.220068 0.798779 0.753864
Si Si3 0.098948 0.203657 0.019134
Si Si4 0.480571 0.703938 0.875803
Si Si5 0.193647 0.806647 0.514184
Si Si6 0.731314 0.197948 0.624764
Si Si7 0.832744 0.798663 0.181212
Si Si8 0.555242 0.804595 0.597413
O O1 0.990114 0.257220 0.155873
O O2 0.154200 0.267066 0.296150
O O3 0.940003 0.266552 0.210925
O O4 0.029075 0.000000 0.223023
O O5 0.353248 0.763414 0.819287
O O6 0.179083 0.735678 0.777874
O O7 0.150621 0.710333 0.681760
O O8 0.201582 0.000000 0.740887
O O9 0.218735 0.263729 0.097301
O O10 0.100674 0.000000 0.020249
O O11 0.000000 0.258087 0.000000
O O12 0.063881 0.261492 0.955074
O O13 0.479172 0.500000 0.876041
O O14 0.250000 0.750000 0.500000
O O15 0.234700 0.715311 0.577087
O O16 0.058048 0.784805 0.445253
O O17 0.222994 0.000000 0.534993
O O18 0.617479 0.265982 0.588070
O O19 0.728892 0.000000 0.633751
O O20 0.844883 0.000000 0.190699
O O21 0.522768 0.000000 0.573766
#
# Coordination Sequence:
#
# PCOD9189275 Si02
#       8
#     8   8   8   8   8   8   8   8
#     4   9  19  38  61  86 117 158 199 241 300 366
#     4  11  22  35  57  90 121 155 201 257 306 357
#     4  10  20  34  56  83 114 153 201 253 303 361
#     4  10  19  37  61  83 112 158 205 247 301 367
#     4  12  27  45  65  95 132 166 204 254 305 360
#     4  10  21  41  69  93 122 166 209 247 302 373
#     4  10  22  37  56  84 119 157 197 245 309 369
#     4  11  23  42  68  95 123 166 210 249 305 370
#
# _framework density 21.178547999999999
#
# number of rings (size 3 to 8) (size 9 to 14) (size 15 to 20)
#    0.000    1.625    2.500    2.250    1.750    4.250 
#    0.000    1.250    0.000    0.000    0.000    0.000 
#    0.000    0.000    0.000    0.000    0.000    0.000 
#
# Total GULP energy -178816.893705 kJ/mol
# GULP energy per Si atom -5588.027928 kJ/mol
# Density = 2.113034 g / cm^3
# Si number density = 21.178548 Si / 1000 Ang^3
#
#
#
# Elastic Constant Matrix: (Units=GPa)
#
#
# Indices 1 2 3 4 5 6 
#
# 1 146.3370 -1.6391 23.2546 -0.0002 -8.0880 -0.0003
# 2 -1.6391 20.8695 -11.7032 -0.0004 1.5569 -0.0008
# 3 23.2546 -11.7032 67.0754 0.0000 -12.4054 -0.0001
# 4 -0.0002 -0.0004 0.0000 26.0717 0.0000 2.5768
# 5 -8.0880 1.5569 -12.4054 0.0000 37.1372 0.0000
# 6 -0.0003 -0.0008 -0.0001 2.5768 0.0000 12.6033
#
#
#
# Elastic Compliance Matrix: (Units=1/GPa)
#
#
# Indices 1 2 3 4 5 6 
#
# 1 0.007269 -0.000909 -0.002536 0.000000 0.000774 0.000000
# 2 -0.000909 0.053257 0.009761 0.000000 0.000830 0.000003
# 3 -0.002536 0.009761 0.018453 0.000000 0.005203 0.000001
# 4 0.000000 0.000000 0.000000 0.039147 0.000000 -0.008004
# 5 0.000774 0.000830 0.005203 0.000000 0.028799 0.000000
# 6 0.000000 0.000003 0.000001 -0.008004 0.000000 0.080981
#
#
# Mechanical properties :
#
#
# Convention : Reuss Voigt Hill
#
# Bulk Modulus (GPa) = 10.91555 28.23406 19.57481
# Shear Modulus (GPa) = 20.34092 30.12041 25.23067
#
# Velocity S-wave (km/s) = 3.10247 3.77532 3.45531
# Velocity P-wave (km/s) = 4.24253 5.68897 5.01814
#
# Compressibility (1/GPa) = 0.09161239
#
# Stress axis : x y z
#
# Youngs Moduli (GPa) = 137.56904 18.77677 54.19205
#
# Poissons Ratio (x) = 0.01706 0.13740
# Poissons Ratio (y) = 0.12501 -0.52896
# Poissons Ratio (z) = 0.34881 -0.18328
#
# Static dielectric constant tensor:
#      x y z
#    x 1.928350 0.000000 -0.056740 
#    y 0.000000 1.767920 0.000000 
#    z -0.056740 0.000000 1.743500 
# 
# From -- ./inp_files/378402.got.cif
#   From: 2010.05.17/outbox.cif.g08.bks.cpg/sg12_190_cif.got.tgz:378402.got - 2010.06.03 13:09:07.
