data_PCOD9189341
_publ_section_title
;
Structure prediction by ZEFSAII (Michael W. Deem and Ramdas Pophale) SiO2 
 PCOD9189341
Probable space group: C 2/M
;
_chemical_formula_sum "Si O2"
_cell_formula_units_Z 64
_cell_length_a 8.160429
_cell_length_b 23.927175
_cell_length_c 28.661564
_cell_angle_alpha 90.000000
_cell_angle_beta 33.195940
_cell_angle_gamma 90.000000
_cell_volume 3064.019618
_symmetry_space_group_name_H-M "C 2/M"
_symmetry_group_IT_number 12
_symmetry_cell_setting 'monoclinic'
loop_
_space_group_symop_operation_xyz
x,y,z
-x,y,-z
-x,-y,-z
x,-y,z
1/2+x,1/2+y,z
1/2-x,1/2+y,-z
1/2-x,1/2-y,-z
1/2+x,1/2-y,z
loop_
_atom_site_type_symbol
_atom_site_label
_atom_site_fract_x
_atom_site_fract_y
_atom_site_fract_z
Si Si1 0.209471 0.816311 0.516552
Si Si2 0.549420 0.561046 0.933293
Si Si3 0.577238 0.564631 0.780291
Si Si4 0.239961 0.060167 0.242927
Si Si5 0.082623 0.824380 0.320048
Si Si6 0.442603 0.853317 0.367717
Si Si7 0.357294 0.225109 0.756531
Si Si8 0.345384 0.652313 0.913271
O O1 0.250000 0.750000 0.500000
O O2 0.431562 0.845567 0.426255
O O3 0.182126 0.819919 0.579093
O O4 0.889446 0.840865 0.573777
O O5 0.428318 0.500000 0.945563
O O6 0.418323 0.616229 0.941661
O O7 0.902727 0.561694 0.839459
O O8 0.500000 0.562531 0.000000
O O9 0.604748 0.500000 0.789635
O O10 0.365973 0.565163 0.785218
O O11 0.434313 0.606581 0.852149
O O12 0.897806 0.590045 0.687436
O O13 0.116196 0.111331 0.300782
O O14 0.133644 0.000000 0.285868
O O15 0.380327 0.801698 0.275130
O O16 0.076624 0.788447 0.273944
O O17 0.631078 0.805544 0.296575
O O18 0.051391 0.206355 0.854179
O O19 0.000000 0.667461 0.000000
#
# Coordination Sequence:
#
# PCOD9189341 Si02
#       8
#     8   8   8   8   8   8   8   8
#     4  10  19  37  61  92 124 159 205 263 313 377
#     4  10  20  37  62  90 119 159 216 269 313 369
#     4  10  22  40  63  89 127 173 215 265 321 381
#     4  10  22  41  63  89 122 168 214 262 320 380
#     4  11  22  39  64  91 126 165 214 261 320 390
#     4   9  20  37  59  92 126 157 209 258 319 375
#     4  10  22  38  59  91 124 168 204 264 324 377
#     4  11  22  39  61  93 129 165 216 267 324 383
#
# _framework density 20.887594
#
# number of rings (size 3 to 8) (size 9 to 14) (size 15 to 20)
#    0.000    1.875    2.500    1.125    3.500    2.000 
#    0.000    3.125    0.000    1.500    0.000    0.000 
#    0.000    0.000    0.000    0.000    0.000    0.000 
#
# Total GULP energy -178549.345945 kJ/mol
# GULP energy per Si atom -5579.667061 kJ/mol
# Density = 2.084005 g / cm^3
# Si number density = 20.887594 Si / 1000 Ang^3
#
#
#
# Elastic Constant Matrix: (Units=GPa)
#
#
# Indices 1 2 3 4 5 6 
#
# 1 58.9323 10.6519 6.9796 0.0021 -0.7156 -0.0148
# 2 10.6519 92.9950 25.3291 0.0108 9.2515 -0.0242
# 3 6.9796 25.3291 103.3618 -0.0442 1.1466 0.0116
# 4 0.0021 0.0108 -0.0442 23.8834 -0.0041 2.4671
# 5 -0.7156 9.2515 1.1466 -0.0041 31.4598 0.0117
# 6 -0.0148 -0.0242 0.0116 2.4671 0.0117 27.1692
#
#
#
# Elastic Compliance Matrix: (Units=1/GPa)
#
#
# Indices 1 2 3 4 5 6 
#
# 1 0.017409 -0.001895 -0.000722 -0.000003 0.000979 0.000008
# 2 -0.001895 0.012079 -0.002793 -0.000012 -0.003493 0.000014
# 3 -0.000722 -0.002793 0.010403 0.000022 0.000426 -0.000009
# 4 -0.000003 -0.000012 0.000022 0.042267 0.000010 -0.003838
# 5 0.000979 -0.003493 0.000426 0.000010 0.032821 -0.000018
# 6 0.000008 0.000014 -0.000009 -0.003838 -0.000018 0.037155
#
#
# Mechanical properties :
#
#
# Convention : Reuss Voigt Hill
#
# Bulk Modulus (GPa) = 34.39938 37.91225 36.15582
# Shear Modulus (GPa) = 28.96151 30.65769 29.80960
#
# Velocity S-wave (km/s) = 3.72767 3.83527 3.78185
# Velocity P-wave (km/s) = 5.91878 6.14837 6.03466
#
# Compressibility (1/GPa) = 0.02907029
#
# Stress axis : x y z
#
# Youngs Moduli (GPa) = 57.44311 82.79094 96.12348
#
# Poissons Ratio (x) = 0.15687 0.06941
# Poissons Ratio (y) = 0.10884 0.26849
# Poissons Ratio (z) = 0.04148 0.23125
#
# Static dielectric constant tensor:
#      x y z
#    x 1.872000 -0.000030 0.017390 
#    y -0.000030 1.749550 -0.000010 
#    z 0.017390 -0.000010 1.720840 
# 
# From -- ./inp_files/373270.got.cif
#   From: 2010.05.17/outbox.cif.g08.bks.cpg/sg12_187_cif.got.tgz:373270.got - 2010.06.03 13:09:07.
