data_PCOD9189390
_publ_section_title
;
Structure prediction by ZEFSAII (Michael W. Deem and Ramdas Pophale) SiO2 
 PCOD9189390
Probable space group: C 2/M
;
_chemical_formula_sum "Si O2"
_cell_formula_units_Z 56
_cell_length_a 20.742142
_cell_length_b 24.665751
_cell_length_c 14.000988
_cell_angle_alpha 90.000000
_cell_angle_beta 158.199368
_cell_angle_gamma 90.000000
_cell_volume 2660.252701
_symmetry_space_group_name_H-M "C 2/M"
_symmetry_group_IT_number 12
_symmetry_cell_setting 'monoclinic'
loop_
_space_group_symop_operation_xyz
x,y,z
-x,y,-z
-x,-y,-z
x,-y,z
1/2+x,1/2+y,z
1/2-x,1/2+y,-z
1/2-x,1/2-y,-z
1/2+x,1/2-y,z
loop_
_atom_site_type_symbol
_atom_site_label
_atom_site_fract_x
_atom_site_fract_y
_atom_site_fract_z
Si Si1 0.751131 0.167788 0.304447
Si Si2 0.654004 0.619575 0.280709
Si Si3 0.755262 0.601849 0.084498
Si Si4 0.901215 0.438017 0.487052
Si Si5 0.095709 0.216456 0.837759
Si Si6 0.434424 0.802110 0.756117
Si Si7 0.600390 0.437528 0.407547
O O1 0.661581 0.198102 0.272557
O O2 0.780320 0.104869 0.371763
O O3 0.939545 0.196001 0.553506
O O4 0.618643 0.170249 0.034980
O O5 0.756394 0.573272 0.365134
O O6 0.795552 0.665355 0.501119
O O7 0.589126 0.590850 0.287775
O O8 0.500000 0.639715 0.000000
O O9 0.816198 0.577289 0.268981
O O10 0.930042 0.598833 0.263511
O O11 0.686992 0.662486 0.002633
O O12 0.596056 0.567490 0.824274
O O13 0.957466 0.500000 0.563250
O O14 0.998698 0.248709 0.789301
O O15 0.250000 0.250000 0.000000
O O16 0.655651 0.500000 0.480225
#
# Coordination Sequence:
#
# PCOD9189390 Si02
#       7
#     8   8   8   8   8   8   8
#     4   9  22  42  61  89 119 159 210 240 299 373
#     4  11  22  36  59  92 123 153 202 248 302 367
#     4  10  21  35  55  84 116 154 200 235 294 371
#     4  11  21  35  55  86 125 155 187 243 304 358
#     4  11  23  40  62  89 117 157 203 255 308 357
#     4  10  22  43  62  84 125 162 196 256 303 356
#     4  10  19  37  62  87 121 157 197 247 300 358
#
# _framework density 21.050632
#
# number of rings (size 3 to 8) (size 9 to 14) (size 15 to 20)
#    0.000    1.714    1.429    3.429    0.000    4.571 
#    2.571    6.429    0.000    0.000    0.000    5.000 
#    0.000    0.000    0.000    0.000    0.000    0.000 
#
# Total GULP energy -156220.490016 kJ/mol
# GULP energy per Si atom -5579.303215 kJ/mol
# Density = 2.100272 g / cm^3
# Si number density = 21.050632 Si / 1000 Ang^3
#
#
#
# Elastic Constant Matrix: (Units=GPa)
#
#
# Indices 1 2 3 4 5 6 
#
# 1 27.0765 24.5771 21.7953 0.0000 14.3414 0.0000
# 2 24.5771 136.6131 65.1995 0.0000 5.9547 0.0000
# 3 21.7953 65.1995 161.3882 0.0000 4.4983 0.0000
# 4 0.0000 0.0000 0.0000 12.8050 0.0000 10.7917
# 5 14.3414 5.9547 4.4983 0.0000 29.7871 0.0000
# 6 0.0000 0.0000 0.0000 10.7917 0.0000 21.7051
#
#
#
# Elastic Compliance Matrix: (Units=1/GPa)
#
#
# Indices 1 2 3 4 5 6 
#
# 1 0.062407 -0.007883 -0.004469 0.000000 -0.027796 0.000000
# 2 -0.007883 0.010112 -0.003083 0.000000 0.002239 0.000000
# 3 -0.004469 -0.003083 0.008002 0.000000 0.001559 0.000000
# 4 0.000000 0.000000 0.000000 0.134419 0.000000 -0.066833
# 5 -0.027796 0.002239 0.001559 0.000000 0.046271 0.000000
# 6 0.000000 0.000000 0.000000 -0.066833 0.000000 0.079301
#
#
# Mechanical properties :
#
#
# Convention : Reuss Voigt Hill
#
# Bulk Modulus (GPa) = 20.14026 60.91352 40.52689
# Shear Modulus (GPa) = 12.88885 27.09316 19.99100
#
# Velocity S-wave (km/s) = 2.47711 3.59144 3.08500
# Velocity P-wave (km/s) = 4.21542 6.79686 5.65540
#
# Compressibility (1/GPa) = 0.04965179
#
# Stress axis : x y z
#
# Youngs Moduli (GPa) = 16.02376 98.89375 124.97280
#
# Poissons Ratio (x) = 0.77958 0.55846
# Poissons Ratio (y) = 0.12632 0.38528
# Poissons Ratio (z) = 0.07160 0.30488
#
# Static dielectric constant tensor:
#      x y z
#    x 1.820200 0.000000 0.034540 
#    y 0.000000 1.751470 0.000000 
#    z 0.034540 0.000000 1.766590 
# 
# From -- ./inp_files/242168.got.cif
#   From: 2010.05.17/outbox.cif.g08.bks.cpg/sg12_122_cif.got.tgz:242168.got - 2010.06.03 13:09:07.
