data_PCOD9189623
_publ_section_title
;
Structure prediction by ZEFSAII (Michael W. Deem and Ramdas Pophale) SiO2 
 PCOD9189623
Probable space group: C 2/M
;
_chemical_formula_sum "Si O2"
_cell_formula_units_Z 56
_cell_length_a 24.222214
_cell_length_b 15.871338
_cell_length_c 20.168962
_cell_angle_alpha 90.000000
_cell_angle_beta 23.584200
_cell_angle_gamma 90.000000
_cell_volume 3102.240628
_symmetry_space_group_name_H-M "C 2/M"
_symmetry_group_IT_number 12
_symmetry_cell_setting 'monoclinic'
loop_
_space_group_symop_operation_xyz
x,y,z
-x,y,-z
-x,-y,-z
x,-y,z
1/2+x,1/2+y,z
1/2-x,1/2+y,-z
1/2-x,1/2-y,-z
1/2+x,1/2-y,z
loop_
_atom_site_type_symbol
_atom_site_label
_atom_site_fract_x
_atom_site_fract_y
_atom_site_fract_z
Si Si1 0.068742 0.268077 0.262413
Si Si2 0.135708 0.904598 0.820887
Si Si3 0.202810 0.826952 0.463864
Si Si4 0.119452 0.841107 0.698974
Si Si5 0.621554 0.219205 0.050538
Si Si6 0.528103 0.900108 0.892064
Si Si7 0.933670 0.403772 0.501490
O O1 0.214497 0.232690 0.127904
O O2 0.945284 0.199594 0.402401
O O3 0.023127 0.347834 0.354851
O O4 0.081106 0.297847 0.172030
O O5 0.128606 0.904283 0.749511
O O6 0.281511 0.864441 0.677158
O O7 0.139659 0.000000 0.843827
O O8 0.000000 0.861946 0.000000
O O9 0.169661 0.869361 0.571552
O O10 0.282832 0.738800 0.390548
O O11 0.311993 0.879525 0.301375
O O12 0.964085 0.805095 0.868265
O O13 0.564094 0.152610 0.059809
O O14 0.502346 0.000000 0.913070
O O15 0.500000 0.876738 0.000000
O O16 0.919313 0.500000 0.492058
O O17 0.000000 0.406938 0.500000
#
# Coordination Sequence:
#
# PCOD9189623 Si02
#       7
#     8   8   8   8   8   8   8
#     4  10  19  38  57  84 111 146 184 227 274 329
#     4  10  21  34  50  75 110 148 183 218 264 318
#     4   9  18  34  56  80 106 132 182 232 272 324
#     4   9  17  33  53  79 105 139 177 228 269 318
#     4   9  21  36  59  81 112 143 182 228 279 333
#     4  10  22  39  58  82 111 145 186 236 287 334
#     4  10  22  36  51  77 114 150 185 221 264 323
#
# _framework density 18.051469000000001
#
# number of rings (size 3 to 8) (size 9 to 14) (size 15 to 20)
#    0.000    2.429    1.429    0.857    2.000    4.571 
#    0.000    0.714    0.000    6.857    0.000    0.000 
#    0.000    0.000    0.000    0.000    0.000    0.000 
#
# Total GULP energy -155947.250400 kJ/mol
# GULP energy per Si atom -5569.544657 kJ/mol
# Density = 1.801038 g / cm^3
# Si number density = 18.051469 Si / 1000 Ang^3
#
#
#
# Elastic Constant Matrix: (Units=GPa)
#
#
# Indices 1 2 3 4 5 6 
#
# 1 106.9658 34.3101 70.6374 -0.0006 -9.1655 0.0002
# 2 34.3101 37.3072 34.6733 -0.0004 5.4007 0.0002
# 3 70.6374 34.6733 133.5064 -0.0005 -11.8580 0.0003
# 4 -0.0006 -0.0004 -0.0005 16.4188 0.0013 8.7789
# 5 -9.1655 5.4007 -11.8580 0.0013 31.8724 -0.0006
# 6 0.0002 0.0002 0.0003 8.7789 -0.0006 28.2537
#
#
#
# Elastic Compliance Matrix: (Units=1/GPa)
#
#
# Indices 1 2 3 4 5 6 
#
# 1 0.017093 -0.011032 -0.005767 0.000000 0.004639 0.000000
# 2 -0.011032 0.045628 -0.007220 0.000002 -0.013590 -0.000001
# 3 -0.005767 -0.007220 0.012801 0.000000 0.004328 0.000000
# 4 0.000000 0.000002 0.000000 0.073040 -0.000004 -0.022695
# 5 0.004639 -0.013590 0.004328 -0.000004 0.036622 0.000002
# 6 0.000000 -0.000001 0.000000 -0.022695 0.000002 0.042445
#
#
# Mechanical properties :
#
#
# Convention : Reuss Voigt Hill
#
# Bulk Modulus (GPa) = 36.38447 61.89124 49.13785
# Shear Modulus (GPa) = 17.55439 24.51955 21.03697
#
# Velocity S-wave (km/s) = 3.12182 3.68953 3.41748
# Velocity P-wave (km/s) = 5.76143 7.24642 6.54617
#
# Compressibility (1/GPa) = 0.02748425
#
# Stress axis : x y z
#
# Youngs Moduli (GPa) = 58.50358 21.91635 78.11916
#
# Poissons Ratio (x) = 0.24178 0.45048
# Poissons Ratio (y) = 0.64540 0.56405
# Poissons Ratio (z) = 0.33737 0.15824
#
# Static dielectric constant tensor:
#      x y z
#    x 1.632690 0.000000 -0.008050 
#    y 0.000000 1.628040 0.000000 
#    z -0.008050 0.000000 1.655180 
# 
# From -- ./inp_files/328543.got.cif
#   From: 2010.05.17/outbox.cif.g08.bks.cpg/sg12_165_cif.got.tgz:328543.got - 2010.06.03 13:09:07.
