data_PCOD9189398
_publ_section_title
;
Structure prediction by ZEFSAII (Michael W. Deem and Ramdas Pophale) SiO2 
 PCOD9189398
Probable space group: C 2/M
;
_chemical_formula_sum "Si O2"
_cell_formula_units_Z 48
_cell_length_a 8.309059
_cell_length_b 28.435064
_cell_length_c 14.275905
_cell_angle_alpha 90.000000
_cell_angle_beta 140.300268
_cell_angle_gamma 90.000000
_cell_volume 2154.518773
_symmetry_space_group_name_H-M "C 2/M"
_symmetry_group_IT_number 12
_symmetry_cell_setting 'monoclinic'
loop_
_space_group_symop_operation_xyz
x,y,z
-x,y,-z
-x,-y,-z
x,-y,z
1/2+x,1/2+y,z
1/2-x,1/2+y,-z
1/2-x,1/2-y,-z
1/2+x,1/2-y,z
loop_
_atom_site_type_symbol
_atom_site_label
_atom_site_fract_x
_atom_site_fract_y
_atom_site_fract_z
Si Si1 0.086119 0.054473 0.307061
Si Si2 0.775643 0.705337 0.578942
Si Si3 0.265880 0.202807 0.066460
Si Si4 0.929098 0.446863 0.808447
Si Si5 0.232863 0.398218 0.438127
Si Si6 0.610186 0.603907 0.944818
O O1 0.812896 0.061580 0.235393
O O2 0.093796 0.091841 0.226001
O O3 0.268842 0.067180 0.475089
O O4 0.114200 0.000000 0.291371
O O5 0.500000 0.702242 0.500000
O O6 0.750000 0.750000 0.500000
O O7 0.812240 0.654622 0.547319
O O8 0.997480 0.707225 0.756428
O O9 0.250000 0.250000 0.000000
O O10 0.254752 0.154138 0.002094
O O11 0.000000 0.200929 0.000000
O O12 0.908229 0.500000 0.764510
O O13 0.946489 0.413047 0.726575
O O14 0.185331 0.437260 0.977095
O O15 0.500000 0.401077 0.500000
O O16 0.500000 0.600706 0.000000
#
# Coordination Sequence:
#
# PCOD9189398 Si02
#       6
#     8   8   8   8   8   8
#     4  10  21  37  62  93 119 162 218 263 312 372
#     4  11  23  42  67  96 127 166 212 263 326 383
#     4  11  25  44  66  96 129 168 213 263 325 384
#     4  10  19  37  62  88 120 159 207 266 312 371
#     4   9  19  37  61  90 123 156 207 264 319 366
#     4  11  24  40  58  86 129 165 206 256 320 384
#
# _framework density 22.278756000000001
#
# number of rings (size 3 to 8) (size 9 to 14) (size 15 to 20)
#    0.000    1.667    1.667    2.500    2.333    6.000 
#    0.000    0.833    0.000    2.000    0.000    0.000 
#    0.000    0.000    0.000    0.000    0.000    0.000 
#
# Total GULP energy -133942.606017 kJ/mol
# GULP energy per Si atom -5580.941917 kJ/mol
# Density = 2.222805 g / cm^3
# Si number density = 22.278756 Si / 1000 Ang^3
#
#
#
# Elastic Constant Matrix: (Units=GPa)
#
#
# Indices 1 2 3 4 5 6 
#
# 1 35.7658 36.3396 19.6282 0.0000 -0.8405 0.0000
# 2 36.3396 123.8375 29.7602 0.0000 -31.1575 0.0000
# 3 19.6282 29.7602 129.6832 0.0000 -11.1661 0.0000
# 4 0.0000 0.0000 0.0000 42.6689 0.0000 -10.6120
# 5 -0.8405 -31.1575 -11.1661 0.0000 40.8944 0.0000
# 6 0.0000 0.0000 0.0000 -10.6120 0.0000 28.1551
#
#
#
# Elastic Compliance Matrix: (Units=1/GPa)
#
#
# Indices 1 2 3 4 5 6 
#
# 1 0.045719 -0.015366 -0.004425 0.000000 -0.011976 0.000000
# 2 -0.015366 0.015524 -0.000251 0.000000 0.011443 0.000000
# 3 -0.004425 -0.000251 0.008617 0.000000 0.002070 0.000000
# 4 0.000000 0.000000 0.000000 0.025860 0.000000 0.009747
# 5 -0.011976 0.011443 0.002070 0.000000 0.033491 0.000000
# 6 0.000000 0.000000 0.000000 0.009747 0.000000 0.039191
#
#
# Mechanical properties :
#
#
# Convention : Reuss Voigt Hill
#
# Bulk Modulus (GPa) = 33.58490 51.19363 42.38926
# Shear Modulus (GPa) = 22.89266 35.91425 29.40346
#
# Velocity S-wave (km/s) = 3.20903 4.01938 3.63684
# Velocity P-wave (km/s) = 5.37011 6.67601 6.05835
#
# Compressibility (1/GPa) = 0.02977528
#
# Stress axis : x y z
#
# Youngs Moduli (GPa) = 21.87286 64.41813 116.05277
#
# Poissons Ratio (x) = 0.98983 0.51350
# Poissons Ratio (y) = 0.33609 0.02918
# Poissons Ratio (z) = 0.09678 0.01620
#
# Static dielectric constant tensor:
#      x y z
#    x 1.784450 0.000000 -0.000190 
#    y 0.000000 1.859050 0.000000 
#    z -0.000190 0.000000 1.815880 
# 
# From -- ./inp_files/200232.got.cif
#   From: 2010.05.17/outbox.cif.g08.bks.cpg/sg12_101_cif.got.tgz:200232.got - 2010.06.03 13:09:07.
