data_PCOD9189582
_publ_section_title
;
Structure prediction by ZEFSAII (Michael W. Deem and Ramdas Pophale) SiO2 
 PCOD9189582
Probable space group: C 2/M
;
_chemical_formula_sum "Si O2"
_cell_formula_units_Z 44
_cell_length_a 23.658757
_cell_length_b 16.033175
_cell_length_c 14.489916
_cell_angle_alpha 90.000000
_cell_angle_beta 158.595620
_cell_angle_gamma 90.000000
_cell_volume 2005.895308
_symmetry_space_group_name_H-M "C 2/M"
_symmetry_group_IT_number 12
_symmetry_cell_setting 'monoclinic'
loop_
_space_group_symop_operation_xyz
x,y,z
-x,y,-z
-x,-y,-z
x,-y,z
1/2+x,1/2+y,z
1/2-x,1/2+y,-z
1/2-x,1/2-y,-z
1/2+x,1/2-y,z
loop_
_atom_site_type_symbol
_atom_site_label
_atom_site_fract_x
_atom_site_fract_y
_atom_site_fract_z
Si Si1 0.829329 0.692751 0.200659
Si Si2 0.776690 0.131056 0.387996
Si Si3 0.314769 0.000000 0.595411
Si Si4 0.500000 0.254346 0.000000
Si Si5 0.676612 0.000000 0.093983
Si Si6 0.752740 0.000000 0.721315
Si Si7 0.428279 0.659156 0.066084
Si Si8 0.114794 0.500000 0.786783
O O1 0.837577 0.591286 0.185660
O O2 0.000000 0.713020 0.500000
O O3 0.750000 0.750000 0.000000
O O4 0.716134 0.709321 0.114742
O O5 0.653029 0.203859 0.207201
O O6 0.955891 0.150432 0.672574
O O7 0.733700 0.075852 0.412965
O O8 0.750976 0.079551 0.256097
O O9 0.246051 0.000000 0.388281
O O10 0.498322 0.000000 0.857432
O O11 0.529462 0.305123 0.137079
O O12 0.681821 0.000000 0.992389
O O13 0.574031 0.000000 0.486273
O O14 0.847658 0.077496 0.903797
#
# Coordination Sequence:
#
# PCOD9189582 Si02
#       8
#     8   8   4   4   4   4   8   4
#     4  12  29  52  79 112 152 199 256 316 379 456
#     4  11  22  42  63 103 146 182 240 299 371 439
#     4  10  19  37  68  95 135 188 228 297 355 441
#     4  12  26  42  66 102 156 188 240 294 384 446
#     4  10  21  39  74 102 136 191 241 305 366 442
#     4  11  22  44  72 100 140 183 262 292 377 448
#     4  12  27  42  71 102 140 191 240 308 366 454
#     4  11  25  49  83 105 144 203 250 316 388 436
#
# _framework density 21.935343
#
# number of rings (size 3 to 8) (size 9 to 14) (size 15 to 20)
#    0.000    0.727    3.636    4.091    5.091    1.091 
#    0.000    1.364    0.000    0.000    0.000    0.000 
#    0.000    0.000    0.000    0.000    0.000    0.000 
#
# Total GULP energy -122800.690198 kJ/mol
# GULP energy per Si atom -5581.849554 kJ/mol
# Density = 2.188542 g / cm^3
# Si number density = 21.935343 Si / 1000 Ang^3
#
#
#
# Elastic Constant Matrix: (Units=GPa)
#
#
# Indices 1 2 3 4 5 6 
#
# 1 95.0550 34.5952 29.6096 0.0000 -12.2075 0.0000
# 2 34.5952 80.8198 32.3413 0.0000 -18.9809 0.0000
# 3 29.6096 32.3413 153.1944 0.0000 -26.2707 0.0000
# 4 0.0000 0.0000 0.0000 55.8371 0.0000 13.6809
# 5 -12.2075 -18.9809 -26.2707 0.0000 28.1645 0.0000
# 6 0.0000 0.0000 0.0000 13.6809 0.0000 72.3591
#
#
#
# Elastic Compliance Matrix: (Units=1/GPa)
#
#
# Indices 1 2 3 4 5 6 
#
# 1 0.012773 -0.004676 -0.001277 0.000000 0.001194 0.000000
# 2 -0.004676 0.016781 -0.001246 0.000000 0.008120 0.000000
# 3 -0.001277 -0.001246 0.008093 0.000000 0.006156 0.000000
# 4 0.000000 0.000000 0.000000 0.018779 0.000000 -0.003551
# 5 0.001194 0.008120 0.006156 0.000000 0.047237 0.000000
# 6 0.000000 0.000000 0.000000 -0.003551 0.000000 0.014491
#
#
# Mechanical properties :
#
#
# Convention : Reuss Voigt Hill
#
# Bulk Modulus (GPa) = 43.01458 58.01791 50.51625
# Shear Modulus (GPa) = 35.63729 46.77370 41.20549
#
# Velocity S-wave (km/s) = 4.03507 4.62274 4.33887
# Velocity P-wave (km/s) = 6.43128 7.41619 6.94123
#
# Compressibility (1/GPa) = 0.02324793
#
# Stress axis : x y z
#
# Youngs Moduli (GPa) = 78.28878 59.59277 123.56104
#
# Poissons Ratio (x) = 0.27867 0.15777
# Poissons Ratio (y) = 0.36610 0.15400
# Poissons Ratio (z) = 0.09996 0.07427
#
# Static dielectric constant tensor:
#      x y z
#    x 1.775170 0.000000 -0.002140 
#    y 0.000000 1.866090 0.000000 
#    z -0.002140 0.000000 1.853560 
# 
# From -- ./inp_files/241434.got.cif
#   From: 2010.05.17/outbox.cif.g08.bks.cpg/sg12_121_cif.got.tgz:241434.got - 2010.06.03 13:09:07.
