data_PCOD9189794
_publ_section_title
;
Structure prediction by ZEFSAII (Michael W. Deem and Ramdas Pophale) SiO2 
 PCOD9189794
Probable space group: C 2/M
;
_chemical_formula_sum "Si O2"
_cell_formula_units_Z 56
_cell_length_a 20.490598
_cell_length_b 8.410389
_cell_length_c 18.938476
_cell_angle_alpha 90.000000
_cell_angle_beta 47.942413
_cell_angle_gamma 90.000000
_cell_volume 2423.236361
_symmetry_space_group_name_H-M "C 2/M"
_symmetry_group_IT_number 12
_symmetry_cell_setting 'monoclinic'
loop_
_space_group_symop_operation_xyz
x,y,z
-x,y,-z
-x,-y,-z
x,-y,z
1/2+x,1/2+y,z
1/2-x,1/2+y,-z
1/2-x,1/2-y,-z
1/2+x,1/2-y,z
loop_
_atom_site_type_symbol
_atom_site_label
_atom_site_fract_x
_atom_site_fract_y
_atom_site_fract_z
Si Si1 0.624563 0.809618 0.891599
Si Si2 0.212431 0.182514 0.312934
Si Si3 0.263467 0.312781 0.068930
Si Si4 0.218798 0.310768 0.598048
Si Si5 0.515628 0.682291 0.412858
Si Si6 0.952448 0.190460 0.190130
Si Si7 0.572679 0.306379 0.229303
O O1 0.710330 0.739232 0.787074
O O2 0.652839 0.754912 0.949105
O O3 0.550729 0.756741 0.888042
O O4 0.619097 0.000000 0.898947
O O5 0.206474 0.235934 0.398073
O O6 0.120968 0.175291 0.341028
O O7 0.243272 0.000000 0.296050
O O8 0.273839 0.500000 0.060089
O O9 0.169071 0.264654 0.170096
O O10 0.250000 0.250000 0.000000
O O11 0.210169 0.500000 0.597399
O O12 0.250000 0.250000 0.500000
O O13 0.131422 0.246006 0.701064
O O14 0.500000 0.763591 0.500000
O O15 0.478472 0.500000 0.443359
O O16 0.504504 0.744219 0.341465
O O17 0.034297 0.237327 0.180522
O O18 0.950618 0.000000 0.186443
O O19 0.577585 0.500000 0.229089
#
# Coordination Sequence:
#
# PCOD9189794 Si02
#       7
#     8   8   8   8   8   8   8
#     4  10  19  38  63  87 120 160 201 245 299 362
#     4   8  15  28  49  74 104 145 197 243 289 348
#     4  12  25  42  68  97 125 157 200 252 309 373
#     4  10  20  32  49  75 110 157 208 261 311 364
#     4   9  16  27  51  82 112 153 202 247 295 354
#     4  10  21  36  58  88 121 160 205 254 310 367
#     4  10  21  39  62  90 126 164 207 258 309 368
#
# _framework density 23.109590000000001
#
# number of rings (size 3 to 8) (size 9 to 14) (size 15 to 20)
#    0.000    2.143    1.429    3.429    2.000    1.143 
#    0.000    0.714    0.000    4.714    0.000    0.000 
#    0.000    0.000    0.000    0.000    0.000    0.000 
#
# Total GULP energy -155936.364188 kJ/mol
# GULP energy per Si atom -5569.155864 kJ/mol
# Density = 2.305699 g / cm^3
# Si number density = 23.109590 Si / 1000 Ang^3
#
#
#
# Elastic Constant Matrix: (Units=GPa)
#
#
# Indices 1 2 3 4 5 6 
#
# 1 147.7254 44.1023 44.0720 -0.0003 42.3459 0.0004
# 2 44.1023 72.8187 22.3995 -0.0008 15.4264 0.0013
# 3 44.0720 22.3995 103.0444 -0.0002 44.3586 0.0003
# 4 -0.0003 -0.0008 -0.0002 24.5594 0.0001 9.2105
# 5 42.3459 15.4264 44.3586 0.0001 47.2662 -0.0001
# 6 0.0004 0.0013 0.0003 9.2105 -0.0001 24.9896
#
#
#
# Elastic Compliance Matrix: (Units=1/GPa)
#
#
# Indices 1 2 3 4 5 6 
#
# 1 0.010390 -0.004626 -0.000136 0.000000 -0.007671 0.000000
# 2 -0.004626 0.017038 -0.001872 0.000001 0.000340 -0.000001
# 3 -0.000136 -0.001872 0.016534 0.000000 -0.014784 0.000000
# 4 0.000000 0.000001 0.000000 0.047249 -0.000001 -0.017415
# 5 -0.007671 0.000340 -0.014784 -0.000001 0.041793 0.000001
# 6 0.000000 -0.000001 0.000000 -0.017415 0.000001 0.046435
#
#
# Mechanical properties :
#
#
# Convention : Reuss Voigt Hill
#
# Bulk Modulus (GPa) = 32.57857 60.52623 46.55240
# Shear Modulus (GPa) = 24.63831 33.56403 29.10117
#
# Velocity S-wave (km/s) = 3.26874 3.81515 3.55247
# Velocity P-wave (km/s) = 5.32675 6.75685 6.08396
#
# Compressibility (1/GPa) = 0.03069502
#
# Stress axis : x y z
#
# Youngs Moduli (GPa) = 96.24918 58.69258 60.48222
#
# Poissons Ratio (x) = 0.27149 0.00823
# Poissons Ratio (y) = 0.44521 0.11320
# Poissons Ratio (z) = 0.01309 0.10985
#
# Static dielectric constant tensor:
#      x y z
#    x 1.920120 0.000000 0.019050 
#    y 0.000000 1.814260 0.000000 
#    z 0.019050 0.000000 2.033060 
# 
# From -- ./inp_files/280916.got.cif
#   From: 2010.05.17/outbox.cif.g08.bks.cpg/sg12_141_cif.got.tgz:280916.got - 2010.06.03 13:09:07.
