data_PCOD9189724
_publ_section_title
;
Structure prediction by ZEFSAII (Michael W. Deem and Ramdas Pophale) SiO2 
 PCOD9189724
Probable space group: C 2/M
;
_chemical_formula_sum "Si O2"
_cell_formula_units_Z 40
_cell_length_a 17.346902
_cell_length_b 19.650162
_cell_length_c 5.617680
_cell_angle_alpha 90.000000
_cell_angle_beta 85.703908
_cell_angle_gamma 90.000000
_cell_volume 1909.515018
_symmetry_space_group_name_H-M "C 2/M"
_symmetry_group_IT_number 12
_symmetry_cell_setting 'monoclinic'
loop_
_space_group_symop_operation_xyz
x,y,z
-x,y,-z
-x,-y,-z
x,-y,z
1/2+x,1/2+y,z
1/2-x,1/2+y,-z
1/2-x,1/2-y,-z
1/2+x,1/2-y,z
loop_
_atom_site_type_symbol
_atom_site_label
_atom_site_fract_x
_atom_site_fract_y
_atom_site_fract_z
Si Si1 0.500000 0.843270 0.500000
Si Si2 0.500000 0.759954 0.000000
Si Si3 0.791296 0.924951 0.449895
Si Si4 0.657847 0.702694 0.815445
Si Si5 0.290254 0.157363 0.150435
Si Si6 0.628212 0.923842 0.227141
O O1 0.497914 0.799884 0.255303
O O2 0.574253 0.891611 0.441277
O O3 0.422162 0.715056 0.031180
O O4 0.843792 0.861025 0.362278
O O5 0.750655 0.903526 0.703262
O O6 0.716574 0.927929 0.295121
O O7 0.827240 0.000000 0.447243
O O8 0.683095 0.776649 0.703958
O O9 0.725373 0.684136 0.984449
O O10 0.364315 0.127569 0.995409
O O11 0.601950 0.000000 0.170393
#
# Coordination Sequence:
#
# PCOD9189724 Si02
#       6
#     4   4   8   8   8   8
#     4  12  25  42  60  94 131 174 210 256 311 380
#     4  12  26  42  66  92 130 166 216 268 314 370
#     4  10  21  37  62  90 122 161 210 263 317 376
#     4  10  22  37  62  89 120 163 209 263 312 373
#     4  10  19  38  61  91 116 166 207 261 309 375
#     4  10  21  37  58  90 130 166 207 253 311 379
#
# _framework density 20.947728000000001
#
# number of rings (size 3 to 8) (size 9 to 14) (size 15 to 20)
#    0.000    1.600    2.000    2.700    2.800    0.800 
#    0.000    1.500    0.000    1.200    0.000    0.000 
#    0.000    0.000    0.000    0.000    0.000    0.000 
#
# Total GULP energy -111498.121472 kJ/mol
# GULP energy per Si atom -5574.906074 kJ/mol
# Density = 2.090005 g / cm^3
# Si number density = 20.947728 Si / 1000 Ang^3
#
#
#
# Elastic Constant Matrix: (Units=GPa)
#
#
# Indices 1 2 3 4 5 6 
#
# 1 54.8945 40.3158 27.0450 0.0000 -34.4050 0.0000
# 2 40.3158 152.7915 58.5035 0.0000 -26.6944 0.0000
# 3 27.0450 58.5035 92.8994 0.0000 -25.3966 0.0000
# 4 0.0000 0.0000 0.0000 -66.8275 0.0000 94.2790
# 5 -34.4050 -26.6944 -25.3966 0.0000 34.5228 0.0000
# 6 0.0000 0.0000 0.0000 94.2790 0.0000 -111.1289
#
#
#
# Elastic Compliance Matrix: (Units=1/GPa)
#
#
# Indices 1 2 3 4 5 6 
#
# 1 0.052356 -0.005996 0.001916 0.000000 0.048951 0.000000
# 2 -0.005996 0.009632 -0.004904 0.000000 -0.002136 0.000000
# 3 0.001916 -0.004904 0.015997 0.000000 0.009886 0.000000
# 4 0.000000 0.000000 0.000000 0.076008 0.000000 0.064483
# 5 0.048951 -0.002136 0.009886 0.000000 0.083371 0.000000
# 6 0.000000 0.000000 0.000000 0.064483 0.000000 0.045708
#
#
# Mechanical properties :
#
#
# Convention : Reuss Voigt Hill
#
# Bulk Modulus (GPa) = 16.66182 61.36822 39.01502
# Shear Modulus (GPa) = 15.57412 -17.03867 -0.73227
#
# Velocity S-wave (km/s) = 2.72963 -2.85509 -0.59189
# Velocity P-wave (km/s) = 4.23152 4.30009 4.26594
#
# Compressibility (1/GPa) = 0.06001744
#
# Stress axis : x y z
#
# Youngs Moduli (GPa) = 19.09992 103.82569 62.51058
#
# Poissons Ratio (x) = 0.62257 -0.11978
# Poissons Ratio (y) = 0.11453 0.30653
# Poissons Ratio (z) = -0.03660 0.50913
#
# Static dielectric constant tensor:
#      x y z
#    x 1.761850 0.000000 0.034880 
#    y 0.000000 1.812400 0.000000 
#    z 0.034880 0.000000 1.796020 
# 
# From -- ./inp_files/15801.got.cif
#   From: 2010.05.17/outbox.cif.g08.bks.cpg/sg12_8_cif.got.tgz:15801.got - 2010.06.03 13:09:07.
