data_PCOD9189561
_publ_section_title
;
Structure prediction by ZEFSAII (Michael W. Deem and Ramdas Pophale) SiO2 
 PCOD9189561
Probable space group: C 2/M
;
_chemical_formula_sum "Si O2"
_cell_formula_units_Z 56
_cell_length_a 16.148096
_cell_length_b 15.002677
_cell_length_c 19.996650
_cell_angle_alpha 90.000000
_cell_angle_beta 145.229173
_cell_angle_gamma 90.000000
_cell_volume 2762.785644
_symmetry_space_group_name_H-M "C 2/M"
_symmetry_group_IT_number 12
_symmetry_cell_setting 'monoclinic'
loop_
_space_group_symop_operation_xyz
x,y,z
-x,y,-z
-x,-y,-z
x,-y,z
1/2+x,1/2+y,z
1/2-x,1/2+y,-z
1/2-x,1/2-y,-z
1/2+x,1/2-y,z
loop_
_atom_site_type_symbol
_atom_site_label
_atom_site_fract_x
_atom_site_fract_y
_atom_site_fract_z
Si Si1 0.869422 0.102338 0.468572
Si Si2 0.550083 0.097354 0.956607
Si Si3 0.367515 0.599765 0.745659
Si Si4 0.578511 0.899352 0.479160
Si Si5 0.536240 0.725081 0.671008
Si Si6 0.203178 0.715991 0.254464
Si Si7 0.339616 0.316151 0.108359
O O1 0.761677 0.172355 0.361705
O O2 0.000000 0.099013 0.500000
O O3 0.925680 0.147274 0.574190
O O4 0.818713 0.000000 0.443362
O O5 0.452239 0.172807 0.859239
O O6 0.517102 0.000000 0.905426
O O7 0.500000 0.095747 0.000000
O O8 0.717555 0.120059 0.059052
O O9 0.356516 0.500000 0.765334
O O10 0.251732 0.604766 0.607798
O O11 0.311333 0.678289 0.755056
O O12 0.532920 0.625340 0.839780
O O13 0.500000 0.889115 0.500000
O O14 0.524275 0.818230 0.397985
O O15 0.543815 0.000000 0.432313
O O16 0.682439 0.696884 0.728020
O O17 0.577616 0.732303 0.775671
O O18 0.250000 0.250000 0.000000
#
# Coordination Sequence:
#
# PCOD9189561 Si02
#       7
#     8   8   8   8   8   8   8
#     4   9  18  32  56  94 128 154 193 257 322 369
#     4  11  23  41  67  92 119 166 218 259 307 372
#     4  11  23  40  66  93 127 167 204 252 315 377
#     4  10  19  37  66  97 124 158 205 256 312 377
#     4  11  21  37  65  92 123 164 208 261 311 371
#     4  11  19  38  65  97 125 155 209 266 312 366
#     4  12  26  43  62  86 129 172 210 260 311 367
#
# _framework density 20.269397999999999
#
# number of rings (size 3 to 8) (size 9 to 14) (size 15 to 20)
#    0.000    1.286    5.714    1.286    0.000    2.286 
#    0.000    1.429    0.000    1.286    0.000    0.000 
#    0.000    0.000    0.000    0.000    0.000    0.000 
#
# Total GULP energy -156198.970133 kJ/mol
# GULP energy per Si atom -5578.534648 kJ/mol
# Density = 2.022326 g / cm^3
# Si number density = 20.269398 Si / 1000 Ang^3
#
#
#
# Elastic Constant Matrix: (Units=GPa)
#
#
# Indices 1 2 3 4 5 6 
#
# 1 30.6814 5.7393 14.5771 0.0004 4.8058 0.0003
# 2 5.7393 143.6473 39.5347 0.0007 -13.8199 0.0005
# 3 14.5771 39.5347 88.2584 0.0014 -3.4512 0.0011
# 4 0.0004 0.0007 0.0014 21.1571 0.0005 6.6424
# 5 4.8058 -13.8199 -3.4512 0.0005 37.6262 0.0003
# 6 0.0003 0.0005 0.0011 6.6424 0.0003 10.3811
#
#
#
# Elastic Compliance Matrix: (Units=1/GPa)
#
#
# Indices 1 2 3 4 5 6 
#
# 1 0.036370 -0.000289 -0.006085 0.000000 -0.005310 0.000000
# 2 -0.000289 0.008204 -0.003521 0.000000 0.002727 0.000000
# 3 -0.006085 -0.003521 0.013942 0.000000 0.000763 -0.000001
# 4 0.000000 0.000000 0.000000 0.059147 0.000000 -0.037846
# 5 -0.005310 0.002727 0.000763 0.000000 0.028327 -0.000001
# 6 0.000000 0.000000 -0.000001 -0.037846 -0.000001 0.120545
#
#
# Mechanical properties :
#
#
# Convention : Reuss Voigt Hill
#
# Bulk Modulus (GPa) = 25.82201 42.47658 34.14929
# Shear Modulus (GPa) = 16.70926 27.34862 22.02894
#
# Velocity S-wave (km/s) = 2.87428 3.67721 3.30025
# Velocity P-wave (km/s) = 4.87672 6.24745 5.60415
#
# Compressibility (1/GPa) = 0.03872665
#
# Stress axis : x y z
#
# Youngs Moduli (GPa) = 27.49529 121.88557 71.72419
#
# Poissons Ratio (x) = 0.03525 0.43644
# Poissons Ratio (y) = 0.00795 0.25252
# Poissons Ratio (z) = 0.16731 0.42912
#
# Static dielectric constant tensor:
#      x y z
#    x 1.744860 0.000000 0.005680 
#    y 0.000000 1.731340 0.000000 
#    z 0.005680 0.000000 1.723820 
# 
# From -- ./inp_files/316789.got.cif
#   From: 2010.05.17/outbox.cif.g08.bks.cpg/sg12_159_cif.got.tgz:316789.got - 2010.06.03 13:09:07.
