data_PCOD9189367
_publ_section_title
;
Structure prediction by ZEFSAII (Michael W. Deem and Ramdas Pophale) SiO2 
 PCOD9189367
Probable space group: C 2/M
;
_chemical_formula_sum "Si O2"
_cell_formula_units_Z 40
_cell_length_a 9.047262
_cell_length_b 30.540196
_cell_length_c 14.804548
_cell_angle_alpha 90.000000
_cell_angle_beta 151.440677
_cell_angle_gamma 90.000000
_cell_volume 1955.573717
_symmetry_space_group_name_H-M "C 2/M"
_symmetry_group_IT_number 12
_symmetry_cell_setting 'monoclinic'
loop_
_space_group_symop_operation_xyz
x,y,z
-x,y,-z
-x,-y,-z
x,-y,z
1/2+x,1/2+y,z
1/2-x,1/2+y,-z
1/2-x,1/2-y,-z
1/2+x,1/2-y,z
loop_
_atom_site_type_symbol
_atom_site_label
_atom_site_fract_x
_atom_site_fract_y
_atom_site_fract_z
Si Si1 0.099722 0.314723 0.960038
Si Si2 0.164469 0.500000 0.358817
Si Si3 0.853260 0.339860 0.206876
Si Si4 0.097933 0.000000 0.947188
Si Si5 0.766307 0.271433 0.293569
Si Si6 0.876106 0.428116 0.333298
O O1 0.024778 0.342477 0.829518
O O2 0.892307 0.270993 0.835787
O O3 0.462771 0.300353 0.160304
O O4 0.000000 0.336394 0.000000
O O5 0.500000 0.500000 0.500000
O O6 0.086562 0.459202 0.382789
O O7 0.958311 0.500000 0.156388
O O8 0.964994 0.299561 0.327638
O O9 0.847945 0.383682 0.262140
O O10 0.500000 0.326758 0.000000
O O11 0.940018 0.043700 0.824616
O O12 0.000000 0.000000 0.000000
O O13 0.000000 0.261483 0.500000
O O14 0.000000 0.420211 0.500000
#
# Coordination Sequence:
#
# PCOD9189367 Si02
#       6
#     8   4   8   4   8   8
#     4  10  21  36  54  80 111 144 188 241 291 332
#     4  10  20  37  60  89 122 147 176 229 289 331
#     4  10  20  36  58  81 111 151 195 236 275 332
#     4   8  16  33  62  85 110 151 183 215 269 335
#     4  10  20  36  57  79 107 149 192 232 283 343
#     4  10  19  37  62  86 111 152 198 225 264 339
#
# _framework density 20.454357000000002
#
# number of rings (size 3 to 8) (size 9 to 14) (size 15 to 20)
#    0.000    2.400    0.000    6.600    0.000    3.200 
#    0.000    9.000    0.000    0.000    0.000    0.700 
#    0.000    0.000    0.000    0.000    0.000    0.000 
#
# Total GULP energy -111433.689879 kJ/mol
# GULP energy per Si atom -5571.684494 kJ/mol
# Density = 2.040780 g / cm^3
# Si number density = 20.454357 Si / 1000 Ang^3
#
#
#
# Elastic Constant Matrix: (Units=GPa)
#
#
# Indices 1 2 3 4 5 6 
#
# 1 105.5876 17.6502 42.3710 0.0000 -21.9382 0.0000
# 2 17.6502 56.3260 16.7379 0.0000 -12.4485 0.0000
# 3 42.3710 16.7379 103.0621 0.0000 -12.7632 0.0000
# 4 0.0000 0.0000 0.0000 18.3174 0.0000 -19.0946
# 5 -21.9382 -12.4485 -12.7632 0.0000 36.5363 0.0000
# 6 0.0000 0.0000 0.0000 -19.0946 0.0000 20.8096
#
#
#
# Elastic Compliance Matrix: (Units=1/GPa)
#
#
# Indices 1 2 3 4 5 6 
#
# 1 0.012574 -0.001447 -0.004244 0.000000 0.005574 0.000000
# 2 -0.001447 0.019958 -0.001998 0.000000 0.005233 0.000000
# 3 -0.004244 -0.001998 0.011887 0.000000 0.000923 0.000000
# 4 0.000000 0.000000 0.000000 1.255690 0.000000 1.152207
# 5 0.005574 0.005233 0.000923 0.000000 0.032823 0.000000
# 6 0.000000 0.000000 0.000000 1.152207 0.000000 1.105307
#
#
# Mechanical properties :
#
#
# Convention : Reuss Voigt Hill
#
# Bulk Modulus (GPa) = 34.43600 46.49932 40.46766
# Shear Modulus (GPa) = 2.02980 27.68043 14.85512
#
# Velocity S-wave (km/s) = 0.99725 3.68268 2.69784
# Velocity P-wave (km/s) = 4.26592 6.39261 5.43431
#
# Compressibility (1/GPa) = 0.02903938
#
# Stress axis : x y z
#
# Youngs Moduli (GPa) = 79.52918 50.10634 84.12852
#
# Poissons Ratio (x) = 0.07250 0.35705
# Poissons Ratio (y) = 0.11508 0.16811
# Poissons Ratio (z) = 0.33753 0.10013
#
# Static dielectric constant tensor:
#      x y z
#    x 1.836990 0.000000 0.002670 
#    y 0.000000 1.630560 0.000000 
#    z 0.002670 0.000000 1.810370 
# 
# From -- ./inp_files/201434.got.cif
#   From: 2010.05.17/outbox.cif.g08.bks.cpg/sg12_101_cif.got.tgz:201434.got - 2010.06.03 13:09:07.
