data_PCOD9189328
_publ_section_title
;
Structure prediction by ZEFSAII (Michael W. Deem and Ramdas Pophale) SiO2 
 PCOD9189328
Probable space group: C 2/M
;
_chemical_formula_sum "Si O2"
_cell_formula_units_Z 56
_cell_length_a 26.618535
_cell_length_b 8.978587
_cell_length_c 11.971976
_cell_angle_alpha 90.000000
_cell_angle_beta 77.264239
_cell_angle_gamma 90.000000
_cell_volume 2790.869047
_symmetry_space_group_name_H-M "C 2/M"
_symmetry_group_IT_number 12
_symmetry_cell_setting 'monoclinic'
loop_
_space_group_symop_operation_xyz
x,y,z
-x,y,-z
-x,-y,-z
x,-y,z
1/2+x,1/2+y,z
1/2-x,1/2+y,-z
1/2-x,1/2-y,-z
1/2+x,1/2-y,z
loop_
_atom_site_type_symbol
_atom_site_label
_atom_site_fract_x
_atom_site_fract_y
_atom_site_fract_z
Si Si1 0.746212 0.676320 0.880874
Si Si2 0.071733 0.176740 0.200214
Si Si3 0.354822 0.675204 0.213732
Si Si4 0.137878 0.676739 0.560903
Si Si5 0.027200 0.175525 0.606718
Si Si6 0.332458 0.677634 0.683920
Si Si7 0.439425 0.822922 0.026478
O O1 0.756485 0.500000 0.883759
O O2 0.689623 0.696071 0.856214
O O3 0.786824 0.752427 0.778312
O O4 0.750000 0.750000 0.000000
O O5 0.114642 0.205614 0.273305
O O6 0.015759 0.210218 0.279523
O O7 0.073758 0.000000 0.173075
O O8 0.080861 0.268848 0.083892
O O9 0.360677 0.500000 0.232893
O O10 0.340134 0.757957 0.334811
O O11 0.407347 0.741145 0.137977
O O12 0.142617 0.500000 0.555049
O O13 0.077947 0.726390 0.589646
O O14 0.163268 0.749430 0.439507
O O15 0.000000 0.194482 0.500000
O O16 0.041353 0.000000 0.609041
O O17 0.326476 0.500000 0.676869
O O18 0.433666 0.000000 0.041695
O O19 0.500000 0.785470 0.000000
#
# Coordination Sequence:
#
# PCOD9189328 Si02
#       7
#     8   8   8   8   8   8   8
#     4  11  25  45  69  98 126 160 208 262 319 376
#     4  10  21  37  61  90 122 164 212 255 304 372
#     4  11  25  45  67  90 124 169 212 254 310 381
#     4  12  25  40  62  95 131 166 210 262 318 373
#     4  10  19  37  61  88 126 171 213 254 304 371
#     4  11  23  42  66  93 125 165 211 258 312 376
#     4  11  24  40  60  91 128 162 204 259 315 367
#
# _framework density 20.065435000000001
#
# number of rings (size 3 to 8) (size 9 to 14) (size 15 to 20)
#    0.000    1.143    1.429    4.714    0.000   11.714 
#    0.000    0.000    0.000    0.000    0.000    0.000 
#    0.000    0.000    0.000    0.000    0.000    0.000 
#
# Total GULP energy -156726.521515 kJ/mol
# GULP energy per Si atom -5597.375768 kJ/mol
# Density = 2.001977 g / cm^3
# Si number density = 20.065435 Si / 1000 Ang^3
#
#
#
# Elastic Constant Matrix: (Units=GPa)
#
#
# Indices 1 2 3 4 5 6 
#
# 1 58.4610 59.6082 46.6059 0.0000 -4.0896 0.0000
# 2 59.6082 115.4453 84.2248 0.0000 -0.0691 0.0000
# 3 46.6059 84.2248 154.5081 0.0000 1.1180 0.0000
# 4 0.0000 0.0000 0.0000 37.2353 0.0000 -2.7327
# 5 -4.0896 -0.0691 1.1180 0.0000 35.9707 0.0000
# 6 0.0000 0.0000 0.0000 -2.7327 0.0000 23.2250
#
#
#
# Elastic Compliance Matrix: (Units=1/GPa)
#
#
# Indices 1 2 3 4 5 6 
#
# 1 0.036883 -0.018101 -0.001288 0.000000 0.004199 0.000000
# 2 -0.018101 0.023268 -0.007211 0.000000 -0.001789 0.000000
# 3 -0.001288 -0.007211 0.010795 0.000000 -0.000496 0.000000
# 4 0.000000 0.000000 0.000000 0.027090 0.000000 0.003187
# 5 0.004199 -0.001789 -0.000496 0.000000 0.028290 0.000000
# 6 0.000000 0.000000 0.000000 0.003187 0.000000 0.043432
#
#
# Mechanical properties :
#
#
# Convention : Reuss Voigt Hill
#
# Bulk Modulus (GPa) = 56.35397 78.81021 67.58209
# Shear Modulus (GPa) = 21.84611 28.48457 25.16534
#
# Velocity S-wave (km/s) = 3.30319 3.77182 3.54526
# Velocity P-wave (km/s) = 6.53408 7.63746 7.10721
#
# Compressibility (1/GPa) = 0.01774498
#
# Stress axis : x y z
#
# Youngs Moduli (GPa) = 27.11293 42.97742 92.63492
#
# Poissons Ratio (x) = 0.77795 0.11935
# Poissons Ratio (y) = 0.49078 0.66797
# Poissons Ratio (z) = 0.03493 0.30990
#
# Static dielectric constant tensor:
#      x y z
#    x 1.708860 0.000000 0.010210 
#    y 0.000000 1.666620 0.000000 
#    z 0.010210 0.000000 1.685990 
# 
# From -- ./inp_files/180740.got.cif
#   From: 2010.05.17/outbox.cif.g08.bks.cpg/sg12_91_cif.got.tgz:180740.got - 2010.06.03 13:09:07.
