data_PCOD9189599
_publ_section_title
;
Structure prediction by ZEFSAII (Michael W. Deem and Ramdas Pophale) SiO2 
 PCOD9189599
Probable space group: C 2/M
;
_chemical_formula_sum "Si O2"
_cell_formula_units_Z 48
_cell_length_a 16.097133
_cell_length_b 27.576462
_cell_length_c 5.337520
_cell_angle_alpha 90.000000
_cell_angle_beta 91.098014
_cell_angle_gamma 90.000000
_cell_volume 2368.900613
_symmetry_space_group_name_H-M "C 2/M"
_symmetry_group_IT_number 12
_symmetry_cell_setting 'monoclinic'
loop_
_space_group_symop_operation_xyz
x,y,z
-x,y,-z
-x,-y,-z
x,-y,z
1/2+x,1/2+y,z
1/2-x,1/2+y,-z
1/2-x,1/2-y,-z
1/2+x,1/2-y,z
loop_
_atom_site_type_symbol
_atom_site_label
_atom_site_fract_x
_atom_site_fract_y
_atom_site_fract_z
Si Si1 0.054947 0.740769 0.253941
Si Si2 0.576369 0.091793 0.689874
Si Si3 0.360951 0.000000 0.051393
Si Si4 0.252321 0.000000 0.544897
Si Si5 0.782760 0.795952 0.658888
Si Si6 0.653981 0.837164 0.022862
Si Si7 0.746116 0.103613 0.392199
O O1 0.124487 0.782720 0.252763
O O2 0.109606 0.691385 0.243205
O O3 0.000000 0.742859 0.500000
O O4 0.000000 0.743241 0.000000
O O5 0.500000 0.087413 0.500000
O O6 0.584977 0.047118 0.880174
O O7 0.660921 0.093220 0.535648
O O8 0.582120 0.141161 0.845795
O O9 0.288682 0.000000 0.263293
O O10 0.323520 0.000000 0.769839
O O11 0.207736 0.052002 0.588337
O O12 0.750000 0.750000 0.500000
O O13 0.783863 0.847239 0.510154
O O14 0.715284 0.802479 0.874712
O O15 0.713193 0.880797 0.117661
#
# Coordination Sequence:
#
# PCOD9189599 Si02
#       7
#     8   8   4   4   8   8   8
#     4  12  28  42  63  96 132 165 211 267 320 383
#     4  10  22  35  53  84 120 169 216 263 308 363
#     4  10  19  38  54  76 122 165 211 259 313 353
#     4  10  20  40  59  92 116 160 219 266 309 365
#     4  11  23  43  65  92 127 174 216 257 326 384
#     4  11  23  38  63  86 123 172 210 260 313 377
#     4  10  22  37  62  86 123 164 213 264 313 377
#
# _framework density 20.262564000000001
#
# number of rings (size 3 to 8) (size 9 to 14) (size 15 to 20)
#    0.000    1.333    3.333    1.750    7.000    0.000 
#    0.000    1.667    0.000    0.000    0.000    1.750 
#    0.000    0.000    0.000    0.000    0.000    0.000 
#
# Total GULP energy -134087.382457 kJ/mol
# GULP energy per Si atom -5586.974269 kJ/mol
# Density = 2.021645 g / cm^3
# Si number density = 20.262564 Si / 1000 Ang^3
#
#
#
# Elastic Constant Matrix: (Units=GPa)
#
#
# Indices 1 2 3 4 5 6 
#
# 1 60.9343 36.6360 29.6060 0.0000 -1.8928 0.0000
# 2 36.6360 144.2204 27.4750 0.0000 4.6264 0.0000
# 3 29.6060 27.4750 90.0693 0.0000 -6.4538 0.0000
# 4 0.0000 0.0000 0.0000 34.5020 0.0000 15.7106
# 5 -1.8928 4.6264 -6.4538 0.0000 33.5650 0.0000
# 6 0.0000 0.0000 0.0000 15.7106 0.0000 12.4696
#
#
#
# Elastic Compliance Matrix: (Units=1/GPa)
#
#
# Indices 1 2 3 4 5 6 
#
# 1 0.021951 -0.004497 -0.005790 0.000000 0.000744 0.000000
# 2 -0.004497 0.008355 -0.001187 0.000000 -0.001633 0.000000
# 3 -0.005790 -0.001187 0.013543 0.000000 0.002441 0.000000
# 4 0.000000 0.000000 0.000000 0.067990 0.000000 -0.085660
# 5 0.000744 -0.001633 0.002441 0.000000 0.030529 0.000000
# 6 0.000000 0.000000 0.000000 -0.085660 0.000000 0.188119
#
#
# Mechanical properties :
#
#
# Convention : Reuss Voigt Hill
#
# Bulk Modulus (GPa) = 47.84793 53.62868 50.73830
# Shear Modulus (GPa) = 13.87335 29.54113 21.70724
#
# Velocity S-wave (km/s) = 2.61948 3.82241 3.27662
# Velocity P-wave (km/s) = 5.72836 6.78273 6.27772
#
# Compressibility (1/GPa) = 0.02089955
#
# Stress axis : x y z
#
# Youngs Moduli (GPa) = 45.55528 119.69137 73.83890
#
# Poissons Ratio (x) = 0.53826 0.42755
# Poissons Ratio (y) = 0.20486 0.08768
# Poissons Ratio (z) = 0.26378 0.14213
#
# Static dielectric constant tensor:
#      x y z
#    x 1.695270 0.000000 0.009890 
#    y 0.000000 1.828400 0.000000 
#    z 0.009890 0.000000 1.770150 
# 
# From -- ./inp_files/12406.got.cif
#   From: 2010.05.17/outbox.cif.g08.bks.cpg/sg12_7_cif.got.tgz:12406.got - 2010.06.03 13:09:07.
