data_PCOD9189213
_publ_section_title
;
Structure prediction by ZEFSAII (Michael W. Deem and Ramdas Pophale) SiO2 
 PCOD9189213
Probable space group: C 2/M
;
_chemical_formula_sum "Si O2"
_cell_formula_units_Z 56
_cell_length_a 10.379719
_cell_length_b 34.145810
_cell_length_c 8.436345
_cell_angle_alpha 90.000000
_cell_angle_beta 65.891434
_cell_angle_gamma 90.000000
_cell_volume 2729.230334
_symmetry_space_group_name_H-M "C 2/M"
_symmetry_group_IT_number 12
_symmetry_cell_setting 'monoclinic'
loop_
_space_group_symop_operation_xyz
x,y,z
-x,y,-z
-x,-y,-z
x,-y,z
1/2+x,1/2+y,z
1/2-x,1/2+y,-z
1/2-x,1/2-y,-z
1/2+x,1/2-y,z
loop_
_atom_site_type_symbol
_atom_site_label
_atom_site_fract_x
_atom_site_fract_y
_atom_site_fract_z
Si Si1 0.168550 0.543951 0.935073
Si Si2 0.581928 0.749944 0.623882
Si Si3 0.661382 0.542845 0.476192
Si Si4 0.696962 0.126464 0.080245
Si Si5 0.315977 0.376832 0.376488
Si Si6 0.061878 0.663094 0.650886
Si Si7 0.053549 0.172920 0.153526
O O1 0.202955 0.500000 0.983327
O O2 0.240805 0.546040 0.727084
O O3 0.216180 0.582559 0.006046
O O4 0.000000 0.545778 0.000000
O O5 0.500000 0.749418 0.500000
O O6 0.750000 0.750000 0.500000
O O7 0.555508 0.792415 0.712762
O O8 0.510477 0.714209 0.754655
O O9 0.500000 0.545444 0.500000
O O10 0.683361 0.500000 0.538202
O O11 0.691712 0.578101 0.576950
O O12 0.757548 0.128559 0.228544
O O13 0.532953 0.136738 0.187279
O O14 0.783141 0.159449 0.937523
O O15 0.219155 0.352672 0.547114
O O16 0.472816 0.359771 0.297034
O O17 0.000000 0.662367 0.500000
O O18 0.000000 0.170185 0.000000
#
# Coordination Sequence:
#
# PCOD9189213 Si02
#       7
#     8   8   8   8   8   8   8
#     4  10  21  38  57  83 122 157 190 247 309 357
#     4  11  23  43  66  89 123 167 207 249 310 374
#     4  10  21  36  56  83 116 151 191 243 298 355
#     4  10  21  37  58  87 115 156 196 250 299 354
#     4  10  19  37  60  80 112 155 197 242 292 361
#     4   9  19  37  59  80 116 153 195 243 299 350
#     4  10  22  39  60  87 122 152 197 253 309 352
#
# _framework density 20.518604
#
# number of rings (size 3 to 8) (size 9 to 14) (size 15 to 20)
#    0.000    2.000    1.429    1.714    2.000    2.857 
#    2.571    0.000    0.000   10.286    0.000    0.000 
#    0.000    0.000    0.000    0.000    0.000    0.000 
#
# Total GULP energy -156172.085634 kJ/mol
# GULP energy per Si atom -5577.574487 kJ/mol
# Density = 2.047190 g / cm^3
# Si number density = 20.518604 Si / 1000 Ang^3
#
#
#
# Elastic Constant Matrix: (Units=GPa)
#
#
# Indices 1 2 3 4 5 6 
#
# 1 43.7774 0.8251 32.8448 0.0000 -23.6369 0.0000
# 2 0.8251 156.3661 64.2048 0.0000 -15.1894 0.0000
# 3 32.8448 64.2048 93.4119 0.0000 -31.9227 0.0000
# 4 0.0000 0.0000 0.0000 42.2843 0.0000 -1.5284
# 5 -23.6369 -15.1894 -31.9227 0.0000 23.2276 0.0000
# 6 0.0000 0.0000 0.0000 -1.5284 0.0000 26.4809
#
#
#
# Elastic Compliance Matrix: (Units=1/GPa)
#
#
# Indices 1 2 3 4 5 6 
#
# 1 0.056615 0.007797 -0.007230 0.000000 0.052775 0.000000
# 2 0.007797 0.010287 -0.009054 0.000000 0.002217 0.000000
# 3 -0.007230 -0.009054 0.028158 0.000000 0.025420 0.000000
# 4 0.000000 0.000000 0.000000 0.023699 0.000000 0.001368
# 5 0.052775 0.002217 0.025420 0.000000 0.133143 0.000000
# 6 0.000000 0.000000 0.000000 0.001368 0.000000 0.037842
#
#
# Mechanical properties :
#
#
# Convention : Reuss Voigt Hill
#
# Bulk Modulus (GPa) = 12.80661 54.36720 33.58691
# Shear Modulus (GPa) = 15.02637 31.44395 23.23516
#
# Velocity S-wave (km/s) = 2.70909 3.91891 3.36876
# Velocity P-wave (km/s) = 4.00507 6.85793 5.61568
#
# Compressibility (1/GPa) = 0.07808465
#
# Stress axis : x y z
#
# Youngs Moduli (GPa) = 17.66306 97.20766 35.51410
#
# Poissons Ratio (x) = -0.75788 0.25677
# Poissons Ratio (y) = -0.13771 0.32156
# Poissons Ratio (z) = 0.12771 0.88015
#
# Static dielectric constant tensor:
#      x y z
#    x 1.740110 0.000000 -0.020350 
#    y 0.000000 1.759180 0.000000 
#    z -0.020350 0.000000 1.707860 
# 
# From -- ./inp_files/54595.got.cif
#   From: 2010.05.17/outbox.cif.g08.bks.cpg/sg12_28_cif.got.tgz:54595.got - 2010.06.03 13:09:07.
