data_PCOD9189436
_publ_section_title
;
Structure prediction by ZEFSAII (Michael W. Deem and Ramdas Pophale) SiO2 
 PCOD9189436
Probable space group: C 2/M
;
_chemical_formula_sum "Si O2"
_cell_formula_units_Z 56
_cell_length_a 18.837418
_cell_length_b 8.949783
_cell_length_c 26.945185
_cell_angle_alpha 90.000000
_cell_angle_beta 137.337439
_cell_angle_gamma 90.000000
_cell_volume 3078.500827
_symmetry_space_group_name_H-M "C 2/M"
_symmetry_group_IT_number 12
_symmetry_cell_setting 'monoclinic'
loop_
_space_group_symop_operation_xyz
x,y,z
-x,y,-z
-x,-y,-z
x,-y,z
1/2+x,1/2+y,z
1/2-x,1/2+y,-z
1/2-x,1/2-y,-z
1/2+x,1/2-y,z
loop_
_atom_site_type_symbol
_atom_site_label
_atom_site_fract_x
_atom_site_fract_y
_atom_site_fract_z
Si Si1 0.558461 0.837543 0.291642
Si Si2 0.683004 0.679354 0.921520
Si Si3 0.064075 0.173748 0.200350
Si Si4 0.733439 0.678415 0.737468
Si Si5 0.140362 0.670546 0.444409
Si Si6 0.543859 0.181194 0.577996
Si Si7 0.190376 0.671109 0.821788
O O1 0.589670 0.705974 0.271179
O O2 0.604742 0.827076 0.369513
O O3 0.434655 0.836313 0.236191
O O4 0.587831 0.000000 0.284429
O O5 0.691205 0.500000 0.924918
O O6 0.559170 0.715364 0.867074
O O7 0.722227 0.744593 0.888803
O O8 0.750000 0.750000 0.000000
O O9 0.148319 0.270811 0.214353
O O10 0.076016 0.000000 0.193927
O O11 0.723102 0.500000 0.732415
O O12 0.651139 0.746479 0.654522
O O13 0.710844 0.745215 0.780644
O O14 0.155409 0.500000 0.468738
O O15 0.250000 0.750000 0.500000
O O16 0.048262 0.731689 0.431787
O O17 0.500000 0.215508 0.500000
O O18 0.556720 0.000000 0.587700
O O19 0.230582 0.500000 0.840642
#
# Coordination Sequence:
#
# PCOD9189436 Si02
#       7
#     8   8   8   8   8   8   8
#     4   9  18  35  56  79 109 145 190 240 290 342
#     4  10  21  39  64  95 125 156 194 237 288 347
#     4  10  22  38  59  86 117 153 196 236 284 348
#     4  12  24  38  59  87 120 155 198 248 297 350
#     4  10  21  36  53  79 111 146 190 241 294 348
#     4  10  22  41  60  80 112 157 202 245 300 356
#     4  10  19  37  63  86 115 155 195 237 288 346
#
# _framework density 18.190673
#
# number of rings (size 3 to 8) (size 9 to 14) (size 15 to 20)
#    0.000    1.857    1.429    2.571    2.000    3.714 
#    0.000    0.714    0.000    4.286    0.000    0.000 
#    0.000    0.000    0.000    0.000    0.000    0.000 
#
# Total GULP energy -156081.197987 kJ/mol
# GULP energy per Si atom -5574.328500 kJ/mol
# Density = 1.814927 g / cm^3
# Si number density = 18.190673 Si / 1000 Ang^3
#
#
#
# Elastic Constant Matrix: (Units=GPa)
#
#
# Indices 1 2 3 4 5 6 
#
# 1 70.7172 48.8356 47.5115 0.0000 -5.3275 0.0000
# 2 48.8356 94.5626 62.9639 0.0000 -4.1509 0.0000
# 3 47.5115 62.9639 111.3699 0.0000 -11.7676 0.0000
# 4 0.0000 0.0000 0.0000 26.4508 0.0000 -0.7230
# 5 -5.3275 -4.1509 -11.7676 0.0000 21.2551 0.0000
# 6 0.0000 0.0000 0.0000 -0.7230 0.0000 31.1822
#
#
#
# Elastic Compliance Matrix: (Units=1/GPa)
#
#
# Indices 1 2 3 4 5 6 
#
# 1 0.023707 -0.008897 -0.004927 0.000000 0.001477 0.000000
# 2 -0.008897 0.020389 -0.008015 0.000000 -0.002686 0.000000
# 3 -0.004927 -0.008015 0.016268 0.000000 0.006206 0.000000
# 4 0.000000 0.000000 0.000000 0.037830 0.000000 0.000877
# 5 0.001477 -0.002686 0.006206 0.000000 0.050329 0.000000
# 6 0.000000 0.000000 0.000000 0.000877 0.000000 0.032090
#
#
# Mechanical properties :
#
#
# Convention : Reuss Voigt Hill
#
# Bulk Modulus (GPa) = 59.93640 66.14131 63.03885
# Shear Modulus (GPa) = 21.75291 23.60019 22.67655
#
# Velocity S-wave (km/s) = 3.46183 3.60582 3.53456
# Velocity P-wave (km/s) = 6.99996 7.33314 7.16849
#
# Compressibility (1/GPa) = 0.01668435
#
# Stress axis : x y z
#
# Youngs Moduli (GPa) = 42.18185 49.04636 61.46925
#
# Poissons Ratio (x) = 0.43639 0.30288
# Poissons Ratio (y) = 0.37531 0.49268
# Poissons Ratio (z) = 0.20784 0.39311
#
# Static dielectric constant tensor:
#      x y z
#    x 1.623760 0.000000 0.004420 
#    y 0.000000 1.627420 0.000000 
#    z 0.004420 0.000000 1.567490 
# 
# From -- ./inp_files/342512.got.cif
#   From: 2010.05.17/outbox.cif.g08.bks.cpg/sg12_172_cif.got.tgz:342512.got - 2010.06.03 13:09:07.
