data_PCOD9189870
_publ_section_title
;
Structure prediction by ZEFSAII (Michael W. Deem and Ramdas Pophale) SiO2 
 PCOD9189870
Probable space group: C 2/M
;
_chemical_formula_sum "Si O2"
_cell_formula_units_Z 52
_cell_length_a 16.314704
_cell_length_b 32.136683
_cell_length_c 9.577706
_cell_angle_alpha 90.000000
_cell_angle_beta 147.054070
_cell_angle_gamma 90.000000
_cell_volume 2730.981497
_symmetry_space_group_name_H-M "C 2/M"
_symmetry_group_IT_number 12
_symmetry_cell_setting 'monoclinic'
loop_
_space_group_symop_operation_xyz
x,y,z
-x,y,-z
-x,-y,-z
x,-y,z
1/2+x,1/2+y,z
1/2-x,1/2+y,-z
1/2-x,1/2-y,-z
1/2+x,1/2-y,z
loop_
_atom_site_type_symbol
_atom_site_label
_atom_site_fract_x
_atom_site_fract_y
_atom_site_fract_z
Si Si1 0.176886 0.426368 0.259357
Si Si2 0.500000 0.145746 0.500000
Si Si3 0.088689 0.000000 0.480513
Si Si4 0.957026 0.842043 0.084001
Si Si5 0.854784 0.858786 0.379177
Si Si6 0.736635 0.200676 0.979988
Si Si7 0.358823 0.500000 0.905335
Si Si8 0.764532 0.589026 0.330875
O O1 0.299331 0.461412 0.392322
O O2 0.216624 0.389988 0.205580
O O3 0.210163 0.411859 0.466165
O O4 0.000000 0.438664 0.000000
O O5 0.580727 0.177126 0.724326
O O6 0.393665 0.114651 0.435735
O O7 0.000000 0.000000 0.500000
O O8 0.947649 0.000000 0.175571
O O9 0.086827 0.848272 0.382916
O O10 0.835860 0.815253 0.992600
O O11 0.882718 0.885870 0.932454
O O12 0.000000 0.821286 0.000000
O O13 0.000000 0.876677 0.500000
O O14 0.804344 0.819197 0.217549
O O15 0.750000 0.250000 0.000000
O O16 0.500000 0.500000 0.000000
O O17 0.259135 0.541154 0.744553
#
# Coordination Sequence:
#
# PCOD9189870 Si02
#       8
#     8   4   4   8   8   8   4   8
#     4  12  23  39  64  92 138 172 220 271 340 388
#     4  10  24  41  62  94 138 166 214 277 340 396
#     4  12  27  42  62  99 133 175 226 280 314 386
#     4  10  19  38  65  92 121 163 218 271 317 387
#     4  10  21  38  64  93 123 170 220 265 333 392
#     4  10  23  41  65  92 128 169 214 269 338 408
#     4  12  22  41  69  89 122 176 227 264 319 381
#     4  11  22  40  64  96 129 174 219 270 328 396
#
# _framework density 19.040773999999999
#
# number of rings (size 3 to 8) (size 9 to 14) (size 15 to 20)
#    0.000    1.231    3.077    3.000    3.231    4.000 
#    0.000    3.077    0.000    0.000    0.000    0.000 
#    0.000    0.000    0.000    0.000    0.000    0.000 
#
# Total GULP energy -144940.464686 kJ/mol
# GULP energy per Si atom -5574.633257 kJ/mol
# Density = 1.899744 g / cm^3
# Si number density = 19.040774 Si / 1000 Ang^3
#
#
#
# Elastic Constant Matrix: (Units=GPa)
#
#
# Indices 1 2 3 4 5 6 
#
# 1 115.9245 58.8943 55.8967 0.0000 -14.5943 0.0000
# 2 58.8943 154.2550 47.3405 0.0000 3.3213 0.0000
# 3 55.8967 47.3405 110.2556 0.0000 -15.6476 0.0000
# 4 0.0000 0.0000 0.0000 46.0731 0.0000 -20.6538
# 5 -14.5943 3.3213 -15.6476 0.0000 39.6409 0.0000
# 6 0.0000 0.0000 0.0000 -20.6538 0.0000 19.4860
#
#
#
# Elastic Compliance Matrix: (Units=1/GPa)
#
#
# Indices 1 2 3 4 5 6 
#
# 1 0.013132 -0.003671 -0.004610 0.000000 0.003323 0.000000
# 2 -0.003671 0.008646 -0.002273 0.000000 -0.002973 0.000000
# 3 -0.004610 -0.002273 0.012892 0.000000 0.003582 0.000000
# 4 0.000000 0.000000 0.000000 0.041354 0.000000 0.043833
# 5 0.003323 -0.002973 0.003582 0.000000 0.028113 0.000000
# 6 0.000000 0.000000 0.000000 0.043833 0.000000 0.097778
#
#
# Mechanical properties :
#
#
# Convention : Reuss Voigt Hill
#
# Bulk Modulus (GPa) = 73.73790 78.29980 76.01885
# Shear Modulus (GPa) = 21.97379 35.59356 28.78367
#
# Velocity S-wave (km/s) = 3.40080 4.32827 3.89226
# Velocity P-wave (km/s) = 7.36417 8.13572 7.75954
#
# Compressibility (1/GPa) = 0.01356155
#
# Stress axis : x y z
#
# Youngs Moduli (GPa) = 76.14782 115.66171 77.57033
#
# Poissons Ratio (x) = 0.42455 0.35761
# Poissons Ratio (y) = 0.27951 0.17634
# Poissons Ratio (z) = 0.35105 0.26294
#
# Static dielectric constant tensor:
#      x y z
#    x 1.629410 0.000000 0.076130 
#    y 0.000000 1.551400 0.000000 
#    z 0.076130 0.000000 1.651660 
# 
# From -- ./inp_files/68725.got.cif
#   From: 2010.05.17/outbox.cif.g08.bks.cpg/sg12_35_cif.got.tgz:68725.got - 2010.06.03 13:09:07.
