data_PCOD9189464
_publ_section_title
;
Structure prediction by ZEFSAII (Michael W. Deem and Ramdas Pophale) SiO2 
 PCOD9189464
Probable space group: C 2/M
;
_chemical_formula_sum "Si O2"
_cell_formula_units_Z 58
_cell_length_a 22.421756
_cell_length_b 9.529299
_cell_length_c 25.663029
_cell_angle_alpha 90.000000
_cell_angle_beta 146.425303
_cell_angle_gamma 90.000000
_cell_volume 3032.370081
_symmetry_space_group_name_H-M "C 2/M"
_symmetry_group_IT_number 12
_symmetry_cell_setting 'monoclinic'
loop_
_space_group_symop_operation_xyz
x,y,z
-x,y,-z
-x,-y,-z
x,-y,z
1/2+x,1/2+y,z
1/2-x,1/2+y,-z
1/2-x,1/2-y,-z
1/2+x,1/2-y,z
loop_
_atom_site_type_symbol
_atom_site_label
_atom_site_fract_x
_atom_site_fract_y
_atom_site_fract_z
Si Si1 0.146505 0.777692 0.543805
Si Si2 0.000000 0.000000 0.500000
Si Si3 0.044180 0.665238 0.159238
Si Si4 0.031604 0.830632 0.356333
Si Si5 0.117339 0.657632 0.326051
Si Si6 0.083112 0.834500 0.013760
Si Si7 0.172493 0.664610 0.770533
Si Si8 0.253459 0.844115 0.288269
O O1 0.079469 0.755125 0.442544
O O2 0.260220 0.838339 0.605601
O O3 0.182035 0.659454 0.610680
O O4 0.076325 0.880855 0.527866
O O5 0.044345 0.500000 0.148354
O O6 0.044252 0.683210 0.221738
O O7 0.156155 0.734692 0.221570
O O8 0.950062 0.743451 0.060051
O O9 0.097410 0.775042 0.354667
O O10 0.910719 0.770908 0.264000
O O11 0.035986 0.000000 0.365567
O O12 0.095596 0.500000 0.330545
O O13 0.205352 0.812058 0.121268
O O14 0.070182 0.000000 0.993133
O O15 0.000000 0.799379 0.000000
O O16 0.145326 0.500000 0.760107
O O17 0.174458 0.688957 0.709523
O O18 0.207785 0.000000 0.245808
#
# Coordination Sequence:
#
# PCOD9189464 Si02
#       8
#     8   2   8   8   8   8   8   8
#     4  11  23  38  64  92 127 168 205 259 321 379
#     4  12  20  40  62  92 132 158 202 258 332 376
#     4  10  21  36  62  95 126 160 207 264 324 381
#     4  12  25  41  61  91 124 167 217 271 318 372
#     4  10  22  43  63  87 122 169 219 257 310 380
#     4  10  19  37  63  91 128 167 207 258 322 394
#     4  10  22  40  60  88 126 168 207 260 318 380
#     4  10  21  37  60  90 127 165 211 255 316 383
#
# _framework density 19.126954000000001
#
# number of rings (size 3 to 8) (size 9 to 14) (size 15 to 20)
#    0.000    1.517    2.759    2.069    0.966    5.241 
#    0.000    2.414    0.000    0.000    0.000    0.000 
#    0.000    0.000    0.000    0.000    0.000    0.000 
#
# Total GULP energy -161560.614174 kJ/mol
# GULP energy per Si atom -5571.055661 kJ/mol
# Density = 1.908342 g / cm^3
# Si number density = 19.126954 Si / 1000 Ang^3
#
#
#
# Elastic Constant Matrix: (Units=GPa)
#
#
# Indices 1 2 3 4 5 6 
#
# 1 87.6906 38.8917 40.0165 0.0000 9.4568 0.0000
# 2 38.8917 54.9282 33.9901 0.0000 -3.6204 0.0000
# 3 40.0165 33.9901 89.6528 0.0000 -4.4675 0.0000
# 4 0.0000 0.0000 0.0000 -86.4330 0.0000 82.3558
# 5 9.4568 -3.6204 -4.4675 0.0000 16.2378 0.0000
# 6 0.0000 0.0000 0.0000 82.3558 0.0000 -16.6204
#
#
#
# Elastic Compliance Matrix: (Units=1/GPa)
#
#
# Indices 1 2 3 4 5 6 
#
# 1 0.021470 -0.012888 -0.005539 0.000000 -0.016902 0.000000
# 2 -0.012888 0.031655 -0.005600 0.000000 0.013023 0.000000
# 3 -0.005539 -0.005600 0.016068 0.000000 0.006398 0.000000
# 4 0.000000 0.000000 0.000000 0.003109 0.000000 0.015405
# 5 -0.016902 0.013023 0.006398 0.000000 0.076093 0.000000
# 6 0.000000 0.000000 0.000000 0.015405 0.000000 0.016168
#
#
# Mechanical properties :
#
#
# Convention : Reuss Voigt Hill
#
# Bulk Modulus (GPa) = 47.30555 50.89646 49.10101
# Shear Modulus (GPa) = 22.76213 -9.40490 6.67861
#
# Velocity S-wave (km/s) = 3.45346 -2.21986 1.87064
# Velocity P-wave (km/s) = 6.37871 4.48299 5.51295
#
# Compressibility (1/GPa) = 0.02113917
#
# Stress axis : x y z
#
# Youngs Moduli (GPa) = 46.57595 31.59105 62.23432
#
# Poissons Ratio (x) = 0.40716 0.34472
# Poissons Ratio (y) = 0.60029 0.34848
# Poissons Ratio (z) = 0.25799 0.17689
#
# Static dielectric constant tensor:
#      x y z
#    x 1.656470 0.000000 -0.013070 
#    y 0.000000 1.639200 0.000000 
#    z -0.013070 0.000000 1.703790 
# 
# From -- ./inp_files/367619.got.cif
#   From: 2010.05.17/outbox.cif.g08.bks.cpg/sg12_184_cif.got.tgz:367619.got - 2010.06.03 13:09:07.
