data_PCOD9189539
_publ_section_title
;
Structure prediction by ZEFSAII (Michael W. Deem and Ramdas Pophale) SiO2 
 PCOD9189539
Probable space group: C 2/M
;
_chemical_formula_sum "Si O2"
_cell_formula_units_Z 40
_cell_length_a 9.577523
_cell_length_b 15.121989
_cell_length_c 14.167123
_cell_angle_alpha 90.000000
_cell_angle_beta 72.114923
_cell_angle_gamma 90.000000
_cell_volume 1952.684972
_symmetry_space_group_name_H-M "C 2/M"
_symmetry_group_IT_number 12
_symmetry_cell_setting 'monoclinic'
loop_
_space_group_symop_operation_xyz
x,y,z
-x,y,-z
-x,-y,-z
x,-y,z
1/2+x,1/2+y,z
1/2-x,1/2+y,-z
1/2-x,1/2-y,-z
1/2+x,1/2-y,z
loop_
_atom_site_type_symbol
_atom_site_label
_atom_site_fract_x
_atom_site_fract_y
_atom_site_fract_z
Si Si1 0.588903 0.237986 0.074669
Si Si2 0.099610 0.104938 0.206219
Si Si3 0.418188 0.105816 0.238839
Si Si4 0.354678 0.836326 0.467641
Si Si5 0.933126 0.901508 0.419524
O O1 0.559543 0.333332 0.127417
O O2 0.544880 0.163427 0.161152
O O3 0.500000 0.215940 0.000000
O O4 0.750000 0.250000 0.000000
O O5 0.265782 0.117863 0.211113
O O6 0.992596 0.139148 0.311955
O O7 0.079843 0.000000 0.191300
O O8 0.389900 0.139883 0.351710
O O9 0.448949 0.000000 0.234327
O O10 0.500000 0.833215 0.500000
O O11 0.250000 0.750000 0.500000
O O12 0.239753 0.905906 0.534637
O O13 0.000000 0.860389 0.500000
O O14 0.999623 0.000000 0.402323
#
# Coordination Sequence:
#
# PCOD9189539 Si02
#       5
#     8   8   8   8   8
#     4  12  26  45  70  99 134 175 233 299 358 408
#     4  10  22  43  72 102 137 181 229 283 349 423
#     4  11  25  45  72 102 137 186 238 282 344 422
#     4  12  26  40  65 101 143 185 226 275 340 409
#     4  10  19  37  65  95 131 173 216 265 331 411
#
# _framework density 20.484615000000002
#
# number of rings (size 3 to 8) (size 9 to 14) (size 15 to 20)
#    0.000    1.000    4.000    2.400    2.800    4.800 
#    0.000    2.000    0.000    0.000    0.000    0.000 
#    0.000    0.000    0.000    0.000    0.000    0.000 
#
# Total GULP energy -111513.921081 kJ/mol
# GULP energy per Si atom -5575.696054 kJ/mol
# Density = 2.043799 g / cm^3
# Si number density = 20.484615 Si / 1000 Ang^3
#
#
#
# Elastic Constant Matrix: (Units=GPa)
#
#
# Indices 1 2 3 4 5 6 
#
# 1 91.3274 15.9600 24.8285 0.0000 -23.6708 0.0000
# 2 15.9600 119.3681 48.0507 0.0000 -13.0449 0.0000
# 3 24.8285 48.0507 141.4461 0.0000 -32.1809 0.0000
# 4 0.0000 0.0000 0.0000 9.2234 0.0000 -11.6644
# 5 -23.6708 -13.0449 -32.1809 0.0000 36.3441 0.0000
# 6 0.0000 0.0000 0.0000 -11.6644 0.0000 20.1209
#
#
#
# Elastic Compliance Matrix: (Units=1/GPa)
#
#
# Indices 1 2 3 4 5 6 
#
# 1 0.013262 -0.000801 -0.000195 0.000000 0.008177 0.000000
# 2 -0.000801 0.009767 -0.003129 0.000000 0.000214 0.000000
# 3 -0.000195 -0.003129 0.009871 0.000000 0.007490 0.000000
# 4 0.000000 0.000000 0.000000 0.406268 0.000000 0.235520
# 5 0.008177 0.000214 0.007490 0.000000 0.039549 0.000000
# 6 0.000000 0.000000 0.000000 0.235520 0.000000 0.186234
#
#
# Mechanical properties :
#
#
# Convention : Reuss Voigt Hill
#
# Bulk Modulus (GPa) = 40.56782 58.86889 49.71836
# Shear Modulus (GPa) = 7.33763 30.69118 19.01440
#
# Velocity S-wave (km/s) = 1.89468 3.87493 3.04999
# Velocity P-wave (km/s) = 4.96321 6.98717 6.06028
#
# Compressibility (1/GPa) = 0.02465008
#
# Stress axis : x y z
#
# Youngs Moduli (GPa) = 75.40290 102.38147 101.30533
#
# Poissons Ratio (x) = 0.08200 0.01980
# Poissons Ratio (y) = 0.06039 0.31697
# Poissons Ratio (z) = 0.01474 0.32034
#
# Static dielectric constant tensor:
#      x y z
#    x 1.714570 0.000000 0.025690 
#    y 0.000000 2.006110 0.000000 
#    z 0.025690 0.000000 1.477370 
# 
# From -- ./inp_files/118899.got.cif
#   From: 2010.05.17/outbox.cif.g08.bks.cpg/sg12_60_cif.got.tgz:118899.got - 2010.06.03 13:09:07.
