data_PCOD9189513
_publ_section_title
;
Structure prediction by ZEFSAII (Michael W. Deem and Ramdas Pophale) SiO2 
 PCOD9189513
Probable space group: C 2/M
;
_chemical_formula_sum "Si O2"
_cell_formula_units_Z 54
_cell_length_a 19.066683
_cell_length_b 19.545259
_cell_length_c 21.720558
_cell_angle_alpha 90.000000
_cell_angle_beta 161.110450
_cell_angle_gamma 90.000000
_cell_volume 2620.537838
_symmetry_space_group_name_H-M "C 2/M"
_symmetry_group_IT_number 12
_symmetry_cell_setting 'monoclinic'
loop_
_space_group_symop_operation_xyz
x,y,z
-x,y,-z
-x,-y,-z
x,-y,z
1/2+x,1/2+y,z
1/2-x,1/2+y,-z
1/2-x,1/2-y,-z
1/2+x,1/2-y,z
loop_
_atom_site_type_symbol
_atom_site_label
_atom_site_fract_x
_atom_site_fract_y
_atom_site_fract_z
Si Si1 0.000000 0.000000 0.500000
Si Si2 0.923180 0.737570 0.831280
Si Si3 0.000000 0.323039 0.500000
Si Si4 0.944737 0.840742 0.162412
Si Si5 0.899429 0.226283 0.255175
Si Si6 0.625722 0.075644 0.500229
Si Si7 0.827638 0.127152 0.438592
Si Si8 0.497983 0.132220 0.274948
O O1 0.064980 0.938831 0.502974
O O2 0.720026 0.780091 0.686656
O O3 0.837235 0.661644 0.747174
O O4 0.982922 0.772194 0.814521
O O5 0.145118 0.741551 0.053537
O O6 0.985308 0.371377 0.546585
O O7 0.907008 0.823289 0.201982
O O8 0.132860 0.895961 0.311034
O O9 0.725310 0.864008 0.947369
O O10 0.019025 0.294954 0.329634
O O11 0.007527 0.187305 0.402088
O O12 0.503645 0.078033 0.334018
O O13 0.631126 0.000000 0.530866
O O14 0.686541 0.116042 0.383106
#
# Coordination Sequence:
#
# PCOD9189513 Si02
#       8
#     2   8   4   8   8   8   8   8
#     4  12  34  48  54  90 144 196 220 244 314 408
#     4  10  20  39  69  97 128 162 204 284 338 375
#     4  10  22  42  64  92 140 170 208 264 334 396
#     4  10  19  37  65 107 125 148 217 286 334 370
#     4  11  19  38  73 103 120 152 220 288 337 371
#     4  11  24  40  61  93 131 181 214 252 316 392
#     4  12  23  44  66  89 134 174 215 265 317 394
#     4  11  21  37  72 102 125 157 216 285 331 371
#
# _framework density 20.606456999999999
#
# number of rings (size 3 to 8) (size 9 to 14) (size 15 to 20)
#    0.000    1.185    4.444    3.778    1.037    0.593 
#    0.000   18.519    0.000    8.889    0.000    0.000 
#    0.000    0.000    0.000    0.000    0.000    0.000 
#
# Total GULP energy -150653.921312 kJ/mol
# GULP energy per Si atom -5579.774863 kJ/mol
# Density = 2.055956 g / cm^3
# Si number density = 20.606457 Si / 1000 Ang^3
#
#
#
# Elastic Constant Matrix: (Units=GPa)
#
#
# Indices 1 2 3 4 5 6 
#
# 1 114.1959 50.7610 43.6193 -0.0306 17.7857 0.0078
# 2 50.7610 74.7433 22.4227 0.0023 7.3527 -0.0089
# 3 43.6193 22.4227 87.2476 0.0394 10.2469 -0.0177
# 4 -0.0306 0.0023 0.0394 8.7069 -0.0047 -0.2118
# 5 17.7857 7.3527 10.2469 -0.0047 29.7391 -0.0115
# 6 0.0078 -0.0089 -0.0177 -0.2118 -0.0115 19.3250
#
#
#
# Elastic Compliance Matrix: (Units=1/GPa)
#
#
# Indices 1 2 3 4 5 6 
#
# 1 0.015106 -0.008297 -0.004794 0.000074 -0.005331 -0.000017
# 2 -0.008297 0.019219 -0.000851 -0.000030 0.000503 0.000011
# 3 -0.004794 -0.000851 0.014294 -0.000082 -0.001848 0.000013
# 4 0.000074 -0.000030 -0.000082 0.114883 0.000010 0.001259
# 5 -0.005331 0.000503 -0.001848 0.000010 0.037326 0.000023
# 6 -0.000017 0.000011 0.000013 0.001259 0.000023 0.051760
#
#
# Mechanical properties :
#
#
# Convention : Reuss Voigt Hill
#
# Bulk Modulus (GPa) = 48.22241 56.64366 52.43303
# Shear Modulus (GPa) = 17.39831 22.17979 19.78905
#
# Velocity S-wave (km/s) = 2.90886 3.28434 3.10229
# Velocity P-wave (km/s) = 5.89359 6.47538 6.19132
#
# Compressibility (1/GPa) = 0.02073725
#
# Stress axis : x y z
#
# Youngs Moduli (GPa) = 66.19743 52.03092 69.95909
#
# Poissons Ratio (x) = 0.43168 0.33539
# Poissons Ratio (y) = 0.54921 0.05951
# Poissons Ratio (z) = 0.31735 0.04426
#
# Static dielectric constant tensor:
#      x y z
#    x 1.762270 -0.000020 0.004180 
#    y -0.000020 1.731530 -0.000040 
#    z 0.004180 -0.000040 1.754820 
# 
# From -- ./inp_files/318080.got.cif
#   From: 2010.05.17/outbox.cif.g08.bks.cpg/sg12_160_cif.got.tgz:318080.got - 2010.06.03 13:09:07.
