data_PCOD9189469
_publ_section_title
;
Structure prediction by ZEFSAII (Michael W. Deem and Ramdas Pophale) SiO2 
 PCOD9189469
Probable space group: C 2/M
;
_chemical_formula_sum "Si O2"
_cell_formula_units_Z 56
_cell_length_a 11.351192
_cell_length_b 18.617175
_cell_length_c 19.431838
_cell_angle_alpha 90.000000
_cell_angle_beta 46.504949
_cell_angle_gamma 90.000000
_cell_volume 2978.975518
_symmetry_space_group_name_H-M "C 2/M"
_symmetry_group_IT_number 12
_symmetry_cell_setting 'monoclinic'
loop_
_space_group_symop_operation_xyz
x,y,z
-x,y,-z
-x,-y,-z
x,-y,z
1/2+x,1/2+y,z
1/2-x,1/2+y,-z
1/2-x,1/2-y,-z
1/2+x,1/2-y,z
loop_
_atom_site_type_symbol
_atom_site_label
_atom_site_fract_x
_atom_site_fract_y
_atom_site_fract_z
Si Si1 0.277465 0.155313 0.154189
Si Si2 0.646553 0.310528 0.815703
Si Si3 0.715305 0.665056 0.021050
Si Si4 0.914223 0.191304 0.322327
Si Si5 0.511801 0.147170 0.681384
Si Si6 0.345013 0.918162 0.512063
Si Si7 0.011673 0.416024 0.164006
O O1 0.338546 0.235667 0.148940
O O2 0.276070 0.144179 0.073021
O O3 0.387978 0.101137 0.151990
O O4 0.090693 0.154439 0.253094
O O5 0.477835 0.346828 0.906180
O O6 0.627249 0.296666 0.741668
O O7 0.815045 0.352613 0.756725
O O8 0.750000 0.750000 0.000000
O O9 0.820982 0.623496 0.922999
O O10 0.784401 0.140169 0.410270
O O11 0.932185 0.270052 0.348075
O O12 0.591400 0.101150 0.589283
O O13 0.555839 0.118131 0.738794
O O14 0.500000 0.913812 0.500000
O O15 0.281937 0.000000 0.540165
O O16 0.036668 0.500000 0.162552
#
# Coordination Sequence:
#
# PCOD9189469 Si02
#       7
#     8   8   8   8   8   8   8
#     4  10  21  37  61  90 121 159 202 253 306 355
#     4  10  19  37  63  93 115 153 212 261 295 348
#     4  11  21  37  63  89 120 162 212 255 295 355
#     4  10  20  39  66  93 118 154 210 257 301 367
#     4  11  22  41  64  89 124 161 207 256 305 364
#     4  11  23  40  63  91 122 160 202 255 318 367
#     4  12  25  40  58  90 131 168 202 246 313 373
#
# _framework density 18.798407999999998
#
# number of rings (size 3 to 8) (size 9 to 14) (size 15 to 20)
#    0.000    1.286    4.286    3.000    0.000    3.429 
#    0.000    5.000    0.000    1.714    0.000    0.000 
#    0.000    0.000    0.000    0.000    0.000    0.000 
#
# Total GULP energy -156463.053523 kJ/mol
# GULP energy per Si atom -5587.966197 kJ/mol
# Density = 1.875562 g / cm^3
# Si number density = 18.798408 Si / 1000 Ang^3
#
#
#
# Elastic Constant Matrix: (Units=GPa)
#
#
# Indices 1 2 3 4 5 6 
#
# 1 69.2812 13.5925 27.4557 0.0002 -6.2602 -0.0002
# 2 13.5925 91.4633 46.9936 0.0001 -9.0621 -0.0003
# 3 27.4557 46.9936 105.3606 -0.0001 7.2160 -0.0003
# 4 0.0002 0.0001 -0.0001 14.1954 -0.0001 -6.2173
# 5 -6.2602 -9.0621 7.2160 -0.0001 19.2580 0.0003
# 6 -0.0002 -0.0003 -0.0003 -6.2173 0.0003 18.1059
#
#
#
# Elastic Compliance Matrix: (Units=1/GPa)
#
#
# Indices 1 2 3 4 5 6 
#
# 1 0.017141 0.001093 -0.005512 0.000000 0.008151 0.000000
# 2 0.001093 0.016078 -0.008209 0.000000 0.010997 0.000000
# 3 -0.005512 -0.008209 0.015371 0.000000 -0.011414 0.000000
# 4 0.000000 0.000000 0.000000 0.082915 0.000000 0.028472
# 5 0.008151 0.010997 -0.011414 0.000000 0.064028 -0.000001
# 6 0.000000 0.000000 0.000000 0.028472 -0.000001 0.065007
#
#
# Mechanical properties :
#
#
# Convention : Reuss Voigt Hill
#
# Bulk Modulus (GPa) = 42.85951 49.13208 45.99580
# Shear Modulus (GPa) = 17.03138 22.18277 19.60707
#
# Velocity S-wave (km/s) = 3.01325 3.43889 3.23308
# Velocity P-wave (km/s) = 5.91230 6.47773 6.20146
#
# Compressibility (1/GPa) = 0.02333205
#
# Stress axis : x y z
#
# Youngs Moduli (GPa) = 58.34099 62.19489 65.05788
#
# Poissons Ratio (x) = -0.06795 0.35861
# Poissons Ratio (y) = -0.06374 0.53408
# Poissons Ratio (z) = 0.32159 0.51058
#
# Static dielectric constant tensor:
#      x y z
#    x 1.662930 0.000000 -0.001800 
#    y 0.000000 1.622620 0.000000 
#    z -0.001800 0.000000 1.634540 
# 
# From -- ./inp_files/264212.got.cif
#   From: 2010.05.17/outbox.cif.g08.bks.cpg/sg12_133_cif.got.tgz:264212.got - 2010.06.03 13:09:07.
