data_PCOD9189203
_publ_section_title
;
Structure prediction by ZEFSAII (Michael W. Deem and Ramdas Pophale) SiO2 
 PCOD9189203
Probable space group: C 2/M
;
_chemical_formula_sum "Si O2"
_cell_formula_units_Z 56
_cell_length_a 25.675553
_cell_length_b 8.607497
_cell_length_c 15.444007
_cell_angle_alpha 90.000000
_cell_angle_beta 105.979712
_cell_angle_gamma 90.000000
_cell_volume 3281.273109
_symmetry_space_group_name_H-M "C 2/M"
_symmetry_group_IT_number 12
_symmetry_cell_setting 'monoclinic'
loop_
_space_group_symop_operation_xyz
x,y,z
-x,y,-z
-x,-y,-z
x,-y,z
1/2+x,1/2+y,z
1/2-x,1/2+y,-z
1/2-x,1/2-y,-z
1/2+x,1/2-y,z
loop_
_atom_site_type_symbol
_atom_site_label
_atom_site_fract_x
_atom_site_fract_y
_atom_site_fract_z
Si Si1 0.993436 0.812392 0.598713
Si Si2 0.127781 0.810987 0.410463
Si Si3 0.603735 0.816262 0.717818
Si Si4 0.802884 0.186151 0.721033
Si Si5 0.705106 0.814505 0.094758
Si Si6 0.828208 0.814779 0.099877
Si Si7 0.313740 0.313687 0.386573
O O1 0.934126 0.761809 0.603423
O O2 0.000000 0.774190 0.500000
O O3 0.042524 0.737302 0.673386
O O4 0.997159 0.000000 0.607762
O O5 0.154817 0.761295 0.333125
O O6 0.164110 0.763500 0.509368
O O7 0.127571 0.000000 0.411311
O O8 0.626656 0.766717 0.821520
O O9 0.641574 0.732045 0.664063
O O10 0.608787 0.000000 0.708867
O O11 0.813112 0.257976 0.819780
O O12 0.743115 0.236533 0.663002
O O13 0.804856 0.000000 0.728469
O O14 0.768810 0.772341 0.111423
O O15 0.701229 0.000000 0.086300
O O16 0.673572 0.737728 0.000474
O O17 0.834083 0.000000 0.108773
O O18 0.307209 0.500000 0.382757
#
# Coordination Sequence:
#
# PCOD9189203 Si02
#       7
#     8   8   8   8   8   8   8
#     4  10  19  37  60  77 103 146 190 229 269 317
#     4   9  20  36  55  78 107 147 190 226 266 321
#     4  12  23  34  53  83 115 142 177 228 278 321
#     4  11  21  34  53  81 114 146 181 223 271 323
#     4  10  20  34  54  80 111 143 178 218 268 326
#     4  10  20  35  56  80 108 142 179 220 271 326
#     4  11  20  35  54  77 109 149 188 221 267 323
#
# _framework density 17.066547
#
# number of rings (size 3 to 8) (size 9 to 14) (size 15 to 20)
#    0.000    1.571    2.857    3.429    0.000    1.429 
#    0.000    3.571    0.000    0.857    0.000    6.000 
#    0.000    0.000    0.000    0.000    0.000    0.000 
#
# Total GULP energy -156416.982081 kJ/mol
# GULP energy per Si atom -5586.320789 kJ/mol
# Density = 1.702770 g / cm^3
# Si number density = 17.066547 Si / 1000 Ang^3
#
#
#
# Elastic Constant Matrix: (Units=GPa)
#
#
# Indices 1 2 3 4 5 6 
#
# 1 67.5027 -3.4730 38.7352 0.0000 -15.4290 0.0000
# 2 -3.4730 23.9552 10.5891 0.0000 1.0797 0.0000
# 3 38.7352 10.5891 119.9180 0.0000 -5.9128 0.0000
# 4 0.0000 0.0000 0.0000 28.1527 0.0000 3.8838
# 5 -15.4290 1.0797 -5.9128 0.0000 24.9771 0.0000
# 6 0.0000 0.0000 0.0000 3.8838 0.0000 18.9184
#
#
#
# Elastic Compliance Matrix: (Units=1/GPa)
#
#
# Indices 1 2 3 4 5 6 
#
# 1 0.021736 0.005706 -0.006956 0.000000 0.011533 0.000000
# 2 0.005706 0.045135 -0.005819 0.000000 0.000196 0.000000
# 3 -0.006956 -0.005819 0.011029 0.000000 -0.001435 0.000000
# 4 0.000000 0.000000 0.000000 0.036556 0.000000 -0.007505
# 5 0.011533 0.000196 -0.001435 0.000000 0.046813 0.000000
# 6 0.000000 0.000000 0.000000 -0.007505 0.000000 0.054399
#
#
# Mechanical properties :
#
#
# Convention : Reuss Voigt Hill
#
# Bulk Modulus (GPa) = 15.68334 33.67541 24.67938
# Shear Modulus (GPa) = 19.91558 25.44462 22.68010
#
# Velocity S-wave (km/s) = 3.41975 3.86541 3.64939
# Velocity P-wave (km/s) = 4.98020 6.30052 5.67886
#
# Compressibility (1/GPa) = 0.06376192
#
# Stress axis : x y z
#
# Youngs Moduli (GPa) = 46.00751 22.15565 90.66946
#
# Poissons Ratio (x) = -0.12643 0.63071
# Poissons Ratio (y) = -0.26253 0.52762
# Poissons Ratio (z) = 0.32003 0.12893
#
# Static dielectric constant tensor:
#      x y z
#    x 1.556960 0.000000 -0.006520 
#    y 0.000000 1.574510 0.000000 
#    z -0.006520 0.000000 1.566740 
# 
# From -- ./inp_files/237455.got.cif
#   From: 2010.05.17/outbox.cif.g08.bks.cpg/sg12_119_cif.got.tgz:237455.got - 2010.06.03 13:09:07.
