data_PCOD9189223
_publ_section_title
;
Structure prediction by ZEFSAII (Michael W. Deem and Ramdas Pophale) SiO2 
 PCOD9189223
Probable space group: C 2/M
;
_chemical_formula_sum "Si O2"
_cell_formula_units_Z 56
_cell_length_a 18.516280
_cell_length_b 12.123042
_cell_length_c 13.728266
_cell_angle_alpha 90.000000
_cell_angle_beta 72.122178
_cell_angle_gamma 90.000000
_cell_volume 2932.831925
_symmetry_space_group_name_H-M "C 2/M"
_symmetry_group_IT_number 12
_symmetry_cell_setting 'monoclinic'
loop_
_space_group_symop_operation_xyz
x,y,z
-x,y,-z
-x,-y,-z
x,-y,z
1/2+x,1/2+y,z
1/2-x,1/2+y,-z
1/2-x,1/2-y,-z
1/2+x,1/2-y,z
loop_
_atom_site_type_symbol
_atom_site_label
_atom_site_fract_x
_atom_site_fract_y
_atom_site_fract_z
Si Si1 0.796756 0.272558 0.718652
Si Si2 0.137678 0.630407 0.109112
Si Si3 0.061837 0.128448 0.396406
Si Si4 0.226715 0.130327 0.560544
Si Si5 0.026176 0.294547 0.886256
Si Si6 0.936556 0.122950 0.288458
Si Si7 0.681519 0.124120 0.881231
O O1 0.831673 0.323911 0.802328
O O2 0.862600 0.199084 0.642128
O O3 0.764839 0.357033 0.651737
O O4 0.729356 0.195435 0.786157
O O5 0.147835 0.500000 0.104689
O O6 0.048604 0.655745 0.131840
O O7 0.179154 0.670874 0.992675
O O8 0.000000 0.169025 0.500000
O O9 0.014946 0.132117 0.315161
O O10 0.079132 0.000000 0.411665
O O11 0.250000 0.250000 0.500000
O O12 0.135730 0.137282 0.611265
O O13 0.242646 0.000000 0.519072
O O14 0.062563 0.208409 0.798232
O O15 0.093431 0.377496 0.885842
O O16 0.000000 0.243383 0.000000
O O17 0.930654 0.000000 0.250624
O O18 0.712325 0.000000 0.869921
#
# Coordination Sequence:
#
# PCOD9189223 Si02
#       7
#     8   8   8   8   8   8   8
#     4  12  21  37  64  87 122 153 198 253 312 359
#     4  10  21  37  58  86 122 159 196 245 305 365
#     4  10  21  37  60  85 113 153 199 250 310 368
#     4  11  25  44  66  91 123 162 206 258 315 368
#     4  10  19  37  60  83 116 159 201 241 291 362
#     4  10  20  39  60  84 118 155 200 248 297 364
#     4  10  21  36  58  90 121 157 203 247 297 367
#
# _framework density 19.094173000000001
#
# number of rings (size 3 to 8) (size 9 to 14) (size 15 to 20)
#    0.000    1.571    2.857    2.571    0.000    4.286 
#    0.000    0.000    0.000    1.714    0.000    0.000 
#    0.000    0.000    0.000    0.000    0.000    0.000 
#
# Total GULP energy -156031.902783 kJ/mol
# GULP energy per Si atom -5572.567957 kJ/mol
# Density = 1.905071 g / cm^3
# Si number density = 19.094173 Si / 1000 Ang^3
#
#
#
# Elastic Constant Matrix: (Units=GPa)
#
#
# Indices 1 2 3 4 5 6 
#
# 1 83.0939 17.7659 11.5205 0.0000 -0.2386 0.0000
# 2 17.7659 84.9020 36.6423 0.0000 -8.9671 0.0000
# 3 11.5205 36.6423 71.6010 0.0000 -2.7096 0.0000
# 4 0.0000 0.0000 0.0000 33.5609 0.0000 37.7906
# 5 -0.2386 -8.9671 -2.7096 0.0000 34.5643 0.0000
# 6 0.0000 0.0000 0.0000 37.7906 0.0000 270.2605
#
#
#
# Elastic Compliance Matrix: (Units=1/GPa)
#
#
# Indices 1 2 3 4 5 6 
#
# 1 0.012652 -0.002338 -0.000862 0.000000 -0.000587 0.000000
# 2 -0.002338 0.015940 -0.007648 0.000000 0.003520 0.000000
# 3 -0.000862 -0.007648 0.017997 0.000000 -0.000579 0.000000
# 4 0.000000 0.000000 0.000000 0.035365 0.000000 -0.004945
# 5 -0.000587 0.003520 -0.000579 0.000000 0.029795 0.000000
# 6 0.000000 0.000000 0.000000 -0.004945 0.000000 0.004392
#
#
# Mechanical properties :
#
#
# Convention : Reuss Voigt Hill
#
# Bulk Modulus (GPa) = 40.16959 41.27272 40.72115
# Shear Modulus (GPa) = 34.21529 79.25502 56.73515
#
# Velocity S-wave (km/s) = 4.23770 6.44962 5.45691
# Velocity P-wave (km/s) = 6.71025 8.78212 7.81515
#
# Compressibility (1/GPa) = 0.02489445
#
# Stress axis : x y z
#
# Youngs Moduli (GPa) = 79.03805 62.73546 55.56498
#
# Poissons Ratio (x) = 0.14665 0.04788
# Poissons Ratio (y) = 0.18476 0.42497
# Poissons Ratio (z) = 0.06810 0.47981
#
# Static dielectric constant tensor:
#      x y z
#    x 1.671970 0.000000 0.024660 
#    y 0.000000 1.659820 0.000000 
#    z 0.024660 0.000000 1.689350 
# 
# From -- ./inp_files/165590.got.cif
#   From: 2010.05.17/outbox.cif.g08.bks.cpg/sg12_83_cif.got.tgz:165590.got - 2010.06.03 13:09:07.
