data_PCOD9189459
_publ_section_title
;
Structure prediction by ZEFSAII (Michael W. Deem and Ramdas Pophale) SiO2 
 PCOD9189459
Probable space group: C 2/M
;
_chemical_formula_sum "Si O2"
_cell_formula_units_Z 64
_cell_length_a 28.356348
_cell_length_b 17.577195
_cell_length_c 9.101185
_cell_angle_alpha 90.000000
_cell_angle_beta 45.077585
_cell_angle_gamma 90.000000
_cell_volume 3211.959802
_symmetry_space_group_name_H-M "C 2/M"
_symmetry_group_IT_number 12
_symmetry_cell_setting 'monoclinic'
loop_
_space_group_symop_operation_xyz
x,y,z
-x,y,-z
-x,-y,-z
x,-y,z
1/2+x,1/2+y,z
1/2-x,1/2+y,-z
1/2-x,1/2-y,-z
1/2+x,1/2-y,z
loop_
_atom_site_type_symbol
_atom_site_label
_atom_site_fract_x
_atom_site_fract_y
_atom_site_fract_z
Si Si1 0.197603 0.113385 0.251935
Si Si2 0.014231 0.763251 0.802002
Si Si3 0.917451 0.913283 0.287341
Si Si4 0.257648 0.919617 0.812761
Si Si5 0.803111 0.412176 0.269198
Si Si6 0.352186 0.780223 0.668112
Si Si7 0.621873 0.215197 0.036340
Si Si8 0.811061 0.850736 0.285462
O O1 0.128154 0.084857 0.467146
O O2 0.253793 0.086084 0.239169
O O3 0.191896 0.204722 0.259403
O O4 0.217669 0.085185 0.050707
O O5 0.024690 0.854184 0.800012
O O6 0.080911 0.731828 0.576033
O O7 0.951864 0.744244 0.837302
O O8 0.000000 0.734011 0.000000
O O9 0.869295 0.873733 0.270726
O O10 0.933278 0.000000 0.211982
O O11 0.310494 0.851566 0.701477
O O12 0.201572 0.911647 0.812893
O O13 0.293312 0.000000 0.719506
O O14 0.813651 0.500000 0.295520
O O15 0.760174 0.359450 0.475297
O O16 0.866026 0.365976 0.069535
O O17 0.365392 0.787225 0.815639
O O18 0.670433 0.274127 0.842559
#
# Coordination Sequence:
#
# PCOD9189459 Si02
#       8
#     8   8   8   8   8   8   8   8
#     4  10  19  37  63  90 126 159 195 239 313 384
#     4  11  25  44  64  88 112 169 220 255 291 361
#     4  10  21  41  64  92 125 159 200 253 305 363
#     4  12  22  36  62  98 129 156 195 252 318 372
#     4  11  23  39  62  95 127 158 202 255 308 365
#     4  11  24  41  63  88 126 164 207 258 302 364
#     4  12  23  42  64  88 122 170 211 251 302 362
#     4  11  22  38  61  97 129 159 192 246 312 378
#
# _framework density 19.925530999999999
#
# number of rings (size 3 to 8) (size 9 to 14) (size 15 to 20)
#    0.000    1.000    3.750    4.875    1.750    0.250 
#    0.000    0.625    0.000    3.750    0.000    0.000 
#    0.000    0.000    0.000    0.000    0.000    0.000 
#
# Total GULP energy -178556.011282 kJ/mol
# GULP energy per Si atom -5579.875353 kJ/mol
# Density = 1.988018 g / cm^3
# Si number density = 19.925531 Si / 1000 Ang^3
#
#
#
# Elastic Constant Matrix: (Units=GPa)
#
#
# Indices 1 2 3 4 5 6 
#
# 1 61.2174 28.5847 15.2296 0.0000 -3.3023 0.0000
# 2 28.5847 141.0096 26.9714 0.0000 -15.7989 0.0000
# 3 15.2296 26.9714 100.0284 0.0000 8.2818 0.0000
# 4 0.0000 0.0000 0.0000 -19.2314 0.0000 70.7851
# 5 -3.3023 -15.7989 8.2818 0.0000 28.7011 0.0000
# 6 0.0000 0.0000 0.0000 70.7851 0.0000 139.3684
#
#
#
# Elastic Compliance Matrix: (Units=1/GPa)
#
#
# Indices 1 2 3 4 5 6 
#
# 1 0.018397 -0.003245 -0.002001 0.000000 0.000908 0.000000
# 2 -0.003245 0.008760 -0.002291 0.000000 0.005110 0.000000
# 3 -0.002001 -0.002291 0.011313 0.000000 -0.004756 0.000000
# 4 0.000000 0.000000 0.000000 -0.018121 0.000000 0.009204
# 5 0.000908 0.005110 -0.004756 0.000000 0.039132 0.000000
# 6 0.000000 0.000000 0.000000 0.009204 0.000000 0.002501
#
#
# Mechanical properties :
#
#
# Convention : Reuss Voigt Hill
#
# Bulk Modulus (GPa) = 42.74170 49.31410 46.02790
# Shear Modulus (GPa) = 58.92415 45.19894 52.06154
#
# Velocity S-wave (km/s) = 5.44393 4.76793 5.11711
# Velocity P-wave (km/s) = 7.81105 7.42387 7.61992
#
# Compressibility (1/GPa) = 0.02339635
#
# Stress axis : x y z
#
# Youngs Moduli (GPa) = 54.35601 114.15193 88.39074
#
# Poissons Ratio (x) = 0.37041 0.17689
# Poissons Ratio (y) = 0.17638 0.20251
# Poissons Ratio (z) = 0.10878 0.26154
#
# Static dielectric constant tensor:
#      x y z
#    x 1.687500 0.000000 0.023000 
#    y 0.000000 1.737300 0.000000 
#    z 0.023000 0.000000 1.789140 
# 
# From -- ./inp_files/111968.got.cif
#   From: 2010.05.17/outbox.cif.g08.bks.cpg/sg12_56_cif.got.tgz:111968.got - 2010.06.03 13:09:07.
