data_PCOD9189174
_publ_section_title
;
Structure prediction by ZEFSAII (Michael W. Deem and Ramdas Pophale) SiO2 
 PCOD9189174
Probable space group: C 2/M
;
_chemical_formula_sum "Si O2"
_cell_formula_units_Z 40
_cell_length_a 13.577907
_cell_length_b 18.040615
_cell_length_c 20.298035
_cell_angle_alpha 90.000000
_cell_angle_beta 152.717772
_cell_angle_gamma 90.000000
_cell_volume 2279.072008
_symmetry_space_group_name_H-M "C 2/M"
_symmetry_group_IT_number 12
_symmetry_cell_setting 'monoclinic'
loop_
_space_group_symop_operation_xyz
x,y,z
-x,y,-z
-x,-y,-z
x,-y,z
1/2+x,1/2+y,z
1/2-x,1/2+y,-z
1/2-x,1/2-y,-z
1/2+x,1/2-y,z
loop_
_atom_site_type_symbol
_atom_site_label
_atom_site_fract_x
_atom_site_fract_y
_atom_site_fract_z
Si Si1 0.870852 0.151878 0.629200
Si Si2 0.917053 0.196666 0.802795
Si Si3 0.891873 0.647408 0.121462
Si Si4 0.865628 0.000000 0.221371
Si Si5 0.490820 0.000000 0.104893
Si Si6 0.061631 0.308050 0.702537
O O1 0.826452 0.165821 0.680141
O O2 0.652311 0.159322 0.458187
O O3 0.990563 0.074013 0.691975
O O4 0.018597 0.221154 0.693531
O O5 0.756949 0.185373 0.767972
O O6 0.969748 0.283490 0.823597
O O7 0.146837 0.159082 0.952777
O O8 0.979658 0.572273 0.143405
O O9 0.897421 0.652382 0.203639
O O10 0.702229 0.000000 0.185533
O O11 0.713758 0.000000 0.066292
#
# Coordination Sequence:
#
# PCOD9189174 Si02
#       6
#     8   8   8   4   4   8
#     4  10  21  38  58  86 115 149 195 230 278 348
#     4  10  19  37  59  84 113 153 192 231 279 334
#     4  10  21  36  58  87 115 144 195 237 276 336
#     4  11  22  39  62  84 113 150 189 235 288 338
#     4  11  22  39  60  86 115 146 187 243 288 330
#     4  10  21  37  59  84 117 151 187 238 283 329
#
# _framework density 17.551003000000001
#
# number of rings (size 3 to 8) (size 9 to 14) (size 15 to 20)
#    0.000    1.800    2.000    2.400    0.000    0.800 
#    0.000   10.000    0.000    0.000    0.000    0.000 
#    0.000    0.000    0.000    0.000    0.000    0.000 
#
# Total GULP energy -111696.526005 kJ/mol
# GULP energy per Si atom -5584.826300 kJ/mol
# Density = 1.751106 g / cm^3
# Si number density = 17.551003 Si / 1000 Ang^3
#
#
#
# Elastic Constant Matrix: (Units=GPa)
#
#
# Indices 1 2 3 4 5 6 
#
# 1 127.6154 62.3675 24.2965 -0.0006 -6.7889 0.0004
# 2 62.3675 124.0162 31.7282 0.0024 3.2739 0.0008
# 3 24.2965 31.7282 43.2373 0.0021 -20.2251 0.0014
# 4 -0.0006 0.0024 0.0021 14.8685 0.0009 -3.6296
# 5 -6.7889 3.2739 -20.2251 0.0009 30.0100 0.0005
# 6 0.0004 0.0008 0.0014 -3.6296 0.0005 14.0365
#
#
#
# Elastic Compliance Matrix: (Units=1/GPa)
#
#
# Indices 1 2 3 4 5 6 
#
# 1 0.010685 -0.005106 -0.001265 0.000001 0.002122 0.000000
# 2 -0.005106 0.014237 -0.012918 0.000000 -0.011414 0.000001
# 3 -0.001265 -0.012918 0.049425 -0.000009 0.034433 -0.000008
# 4 0.000001 0.000000 -0.000009 0.071788 -0.000008 0.018563
# 5 0.002122 -0.011414 0.034433 -0.000008 0.058253 -0.000007
# 6 0.000000 0.000001 -0.000008 0.018563 -0.000007 0.076043
#
#
# Mechanical properties :
#
#
# Convention : Reuss Voigt Hill
#
# Bulk Modulus (GPa) = 27.95630 59.07259 43.51445
# Shear Modulus (GPa) = 15.10888 23.54811 19.32850
#
# Velocity S-wave (km/s) = 2.93722 3.66689 3.32215
# Velocity P-wave (km/s) = 5.24082 7.18741 6.28987
#
# Compressibility (1/GPa) = 0.03577011
#
# Stress axis : x y z
#
# Youngs Moduli (GPa) = 93.58848 70.23806 20.23276
#
# Poissons Ratio (x) = 0.35862 0.02560
# Poissons Ratio (y) = 0.47785 0.26136
# Poissons Ratio (z) = 0.11841 0.90730
#
# Static dielectric constant tensor:
#      x y z
#    x 1.565160 0.000000 -0.012820 
#    y 0.000000 1.572340 0.000000 
#    z -0.012820 0.000000 1.581030 
# 
# From -- ./inp_files/47193.got.cif
#   From: 2010.05.17/outbox.cif.g08.bks.cpg/sg12_24_cif.got.tgz:47193.got - 2010.06.03 13:09:07.
