data_PCOD9189085
_publ_section_title
;
Structure prediction by ZEFSAII (Michael W. Deem and Ramdas Pophale) SiO2 
 PCOD9189085
Probable space group: C 2/M
;
_chemical_formula_sum "Si O2"
_cell_formula_units_Z 56
_cell_length_a 10.076458
_cell_length_b 28.312489
_cell_length_c 18.365358
_cell_angle_alpha 90.000000
_cell_angle_beta 38.032703
_cell_angle_gamma 90.000000
_cell_volume 3228.080958
_symmetry_space_group_name_H-M "C 2/M"
_symmetry_group_IT_number 12
_symmetry_cell_setting 'monoclinic'
loop_
_space_group_symop_operation_xyz
x,y,z
-x,y,-z
-x,-y,-z
x,-y,z
1/2+x,1/2+y,z
1/2-x,1/2+y,-z
1/2-x,1/2-y,-z
1/2+x,1/2-y,z
loop_
_atom_site_type_symbol
_atom_site_label
_atom_site_fract_x
_atom_site_fract_y
_atom_site_fract_z
Si Si1 0.353840 0.556851 0.401585
Si Si2 0.494658 0.900583 0.340706
Si Si3 0.413759 0.443494 0.207712
Si Si4 0.972061 0.201048 0.598611
Si Si5 0.396749 0.055151 0.964172
Si Si6 0.534838 0.192106 0.568574
Si Si7 0.226268 0.607381 0.719218
O O1 0.349191 0.500000 0.405494
O O2 0.147622 0.576863 0.532928
O O3 0.368717 0.572505 0.310595
O O4 0.563882 0.576342 0.352179
O O5 0.719295 0.927842 0.240442
O O6 0.547823 0.847299 0.341144
O O7 0.354806 0.900329 0.328036
O O8 0.419512 0.500000 0.208568
O O9 0.649506 0.428928 0.078723
O O10 0.802063 0.161753 0.697243
O O11 0.000000 0.193782 0.500000
O O12 0.207309 0.193722 0.531486
O O13 0.928735 0.256648 0.628039
O O14 0.537060 0.088803 0.852764
O O15 0.405541 0.000000 0.935029
O O16 0.500000 0.055504 0.000000
O O17 0.500000 0.179090 0.500000
#
# Coordination Sequence:
#
# PCOD9189085 Si02
#       7
#     8   8   8   8   8   8   8
#     4  11  21  35  56  83 118 154 187 233 290 347
#     4  12  23  35  54  91 123 148 181 238 303 351
#     4  10  22  39  57  80 115 156 201 239 272 337
#     4  10  19  37  55  86 120 148 186 237 291 347
#     4  10  21  40  62  82 108 155 209 240 269 333
#     4  10  20  33  58  83 118 156 186 226 290 354
#     4  12  22  36  58  84 117 150 191 243 288 336
#
# _framework density 17.347767999999999
#
# number of rings (size 3 to 8) (size 9 to 14) (size 15 to 20)
#    0.000    1.286    4.286    2.571    0.000    4.571 
#    0.000    1.429    0.000    0.857    0.000    0.000 
#    0.000    0.000    0.000    0.000    0.000    0.000 
#
# Total GULP energy -156297.707539 kJ/mol
# GULP energy per Si atom -5582.060984 kJ/mol
# Density = 1.730828 g / cm^3
# Si number density = 17.347768 Si / 1000 Ang^3
#
#
#
# Elastic Constant Matrix: (Units=GPa)
#
#
# Indices 1 2 3 4 5 6 
#
# 1 85.2343 17.9618 13.6265 0.0000 -11.6400 0.0000
# 2 17.9618 76.9149 49.0864 0.0000 4.7637 0.0000
# 3 13.6265 49.0864 93.1892 0.0000 -17.3901 0.0000
# 4 0.0000 0.0000 0.0000 25.8984 0.0000 -2.7114
# 5 -11.6400 4.7637 -17.3901 0.0000 27.6143 0.0000
# 6 0.0000 0.0000 0.0000 -2.7114 0.0000 49.1700
#
#
#
# Elastic Compliance Matrix: (Units=1/GPa)
#
#
# Indices 1 2 3 4 5 6 
#
# 1 0.013528 -0.005016 0.002141 0.000000 0.007916 0.000000
# 2 -0.005016 0.025060 -0.015488 0.000000 -0.016191 0.000000
# 3 0.002141 -0.015488 0.021805 0.000000 0.017306 0.000000
# 4 0.000000 0.000000 0.000000 0.038837 0.000000 0.002142
# 5 0.007916 -0.016191 0.017306 0.000000 0.053242 0.000000
# 6 0.000000 0.000000 0.000000 0.002142 0.000000 0.020456
#
#
# Mechanical properties :
#
#
# Convention : Reuss Voigt Hill
#
# Bulk Modulus (GPa) = 42.25120 46.29864 44.27492
# Shear Modulus (GPa) = 22.98410 32.18079 27.58245
#
# Velocity S-wave (km/s) = 3.64387 4.31169 3.99177
# Velocity P-wave (km/s) = 6.48938 7.17872 6.84273
#
# Compressibility (1/GPa) = 0.02366797
#
# Stress axis : x y z
#
# Youngs Moduli (GPa) = 73.91997 39.90464 45.86028
#
# Poissons Ratio (x) = 0.20016 -0.09820
# Poissons Ratio (y) = 0.37078 0.71028
# Poissons Ratio (z) = -0.15828 0.61804
#
# Static dielectric constant tensor:
#      x y z
#    x 1.597690 0.000000 -0.003560 
#    y 0.000000 1.621150 0.000000 
#    z -0.003560 0.000000 1.574100 
# 
# From -- ./inp_files/124208.got.cif
#   From: 2010.05.17/outbox.cif.g08.bks.cpg/sg12_63_cif.got.tgz:124208.got - 2010.06.03 13:09:07.
