data_PCOD9189351
_publ_section_title
;
Structure prediction by ZEFSAII (Michael W. Deem and Ramdas Pophale) SiO2 
 PCOD9189351
Probable space group: C 2/M
;
_chemical_formula_sum "Si O2"
_cell_formula_units_Z 56
_cell_length_a 24.120236
_cell_length_b 14.582899
_cell_length_c 23.134346
_cell_angle_alpha 90.000000
_cell_angle_beta 157.539751
_cell_angle_gamma 90.000000
_cell_volume 3108.809949
_symmetry_space_group_name_H-M "C 2/M"
_symmetry_group_IT_number 12
_symmetry_cell_setting 'monoclinic'
loop_
_space_group_symop_operation_xyz
x,y,z
-x,y,-z
-x,-y,-z
x,-y,z
1/2+x,1/2+y,z
1/2-x,1/2+y,-z
1/2-x,1/2-y,-z
1/2+x,1/2-y,z
loop_
_atom_site_type_symbol
_atom_site_label
_atom_site_fract_x
_atom_site_fract_y
_atom_site_fract_z
Si Si1 0.327201 0.395134 0.424599
Si Si2 0.334202 0.604451 0.229131
Si Si3 0.373720 0.601593 0.831731
Si Si4 0.667433 0.232503 0.479856
Si Si5 0.825401 0.705181 0.826835
Si Si6 0.113465 0.797197 0.838550
Si Si7 0.911999 0.893931 0.739905
O O1 0.288580 0.500000 0.403467
O O2 0.502125 0.393054 0.587459
O O3 0.299144 0.319087 0.446728
O O4 0.242252 0.364012 0.285638
O O5 0.280040 0.500000 0.183311
O O6 0.240335 0.676106 0.175091
O O7 0.342090 0.631758 0.169130
O O8 0.302034 0.500000 0.758819
O O9 0.286276 0.691987 0.766959
O O10 0.450629 0.619624 0.844170
O O11 0.500000 0.594663 0.000000
O O12 0.750000 0.250000 0.500000
O O13 0.497336 0.229116 0.301945
O O14 0.746969 0.143180 0.579896
O O15 0.000000 0.699087 0.000000
O O16 0.016237 0.842786 0.795376
O O17 0.250000 0.750000 0.000000
O O18 0.916610 0.000000 0.729352
#
# Coordination Sequence:
#
# PCOD9189351 Si02
#       7
#     8   8   8   8   8   8   8
#     4  10  20  37  57  81 113 152 190 225 281 348
#     4  10  22  39  57  80 114 156 190 225 279 355
#     4   9  19  34  57  84 111 144 189 234 281 333
#     4   9  19  35  55  83 111 146 194 235 278 334
#     4  11  22  34  58  86 118 143 187 238 286 327
#     4  10  22  36  59  85 118 151 191 237 295 344
#     4  10  19  37  62  83 111 153 196 235 281 343
#
# _framework density 18.013324000000001
#
# number of rings (size 3 to 8) (size 9 to 14) (size 15 to 20)
#    0.000    2.143    1.429    1.286    4.000    5.714 
#    0.000    1.429    0.000    6.000    0.000    0.000 
#    0.000    0.000    0.000    0.000    0.000    0.000 
#
# Total GULP energy -155908.896755 kJ/mol
# GULP energy per Si atom -5568.174884 kJ/mol
# Density = 1.797232 g / cm^3
# Si number density = 18.013324 Si / 1000 Ang^3
#
#
#
# Elastic Constant Matrix: (Units=GPa)
#
#
# Indices 1 2 3 4 5 6 
#
# 1 101.9630 49.4643 29.3820 -0.0003 -4.5286 0.0000
# 2 49.4643 103.8479 40.7045 0.0044 9.6481 0.0012
# 3 29.3820 40.7045 80.3543 0.0013 -15.9211 -0.0003
# 4 -0.0003 0.0044 0.0013 7.5587 0.0004 6.7079
# 5 -4.5286 9.6481 -15.9211 0.0004 26.4673 -0.0003
# 6 0.0000 0.0012 -0.0003 6.7079 -0.0003 26.5088
#
#
#
# Elastic Compliance Matrix: (Units=1/GPa)
#
#
# Indices 1 2 3 4 5 6 
#
# 1 0.013339 -0.006423 -0.000803 0.000005 0.004141 -0.000001
# 2 -0.006423 0.017426 -0.009031 -0.000009 -0.012884 0.000001
# 3 -0.000803 -0.009031 0.020366 0.000000 0.015406 0.000001
# 4 0.000005 -0.000009 0.000000 0.170609 0.000001 -0.043171
# 5 0.004141 -0.012884 0.015406 0.000001 0.052455 0.000001
# 6 -0.000001 0.000001 0.000001 -0.043171 0.000001 0.048648
#
#
# Mechanical properties :
#
#
# Convention : Reuss Voigt Hill
#
# Bulk Modulus (GPa) = 53.72034 58.36297 56.04166
# Shear Modulus (GPa) = 13.82887 23.21461 18.52174
#
# Velocity S-wave (km/s) = 2.77375 3.59381 3.21007
# Velocity P-wave (km/s) = 6.33605 7.04917 6.70210
#
# Compressibility (1/GPa) = 0.01861492
#
# Stress axis : x y z
#
# Youngs Moduli (GPa) = 74.96842 57.38552 49.10160
#
# Poissons Ratio (x) = 0.36861 0.03944
# Poissons Ratio (y) = 0.48155 0.44346
# Poissons Ratio (z) = 0.06021 0.51827
#
# Static dielectric constant tensor:
#      x y z
#    x 1.630670 0.000000 -0.033470 
#    y 0.000000 1.681090 0.000000 
#    z -0.033470 0.000000 1.658800 
# 
# From -- ./inp_files/96302.got.cif
#   From: 2010.05.17/outbox.cif.g08.bks.cpg/sg12_49_cif.got.tgz:96302.got - 2010.06.03 13:09:07.
