data_PCOD9189145
_publ_section_title
;
Structure prediction by ZEFSAII (Michael W. Deem and Ramdas Pophale) SiO2 
 PCOD9189145
Probable space group: C 2/M
;
_chemical_formula_sum "Si O2"
_cell_formula_units_Z 52
_cell_length_a 17.350288
_cell_length_b 12.988130
_cell_length_c 13.706325
_cell_angle_alpha 90.000000
_cell_angle_beta 130.877759
_cell_angle_gamma 90.000000
_cell_volume 2335.381985
_symmetry_space_group_name_H-M "C 2/M"
_symmetry_group_IT_number 12
_symmetry_cell_setting 'monoclinic'
loop_
_space_group_symop_operation_xyz
x,y,z
-x,y,-z
-x,-y,-z
x,-y,z
1/2+x,1/2+y,z
1/2-x,1/2+y,-z
1/2-x,1/2-y,-z
1/2+x,1/2-y,z
loop_
_atom_site_type_symbol
_atom_site_label
_atom_site_fract_x
_atom_site_fract_y
_atom_site_fract_z
Si Si1 0.076659 0.381852 0.938550
Si Si2 0.714777 0.169695 0.613785
Si Si3 0.384754 0.311802 0.912187
Si Si4 0.195288 0.113528 0.948588
Si Si5 0.019484 0.238192 0.724768
Si Si6 0.674635 0.617404 0.486927
Si Si7 0.000000 0.654489 0.500000
O O1 0.044438 0.500000 0.928894
O O2 0.005864 0.317286 0.804395
O O3 0.100952 0.310604 0.052526
O O4 0.185739 0.385534 0.974297
O O5 0.813438 0.161626 0.763142
O O6 0.693834 0.292864 0.582285
O O7 0.740281 0.128783 0.526926
O O8 0.615283 0.114448 0.576047
O O9 0.500000 0.352823 0.000000
O O10 0.330929 0.357075 0.963062
O O11 0.130565 0.189994 0.829268
O O12 0.156237 0.000000 0.895735
O O13 0.931808 0.151943 0.651636
O O14 0.014970 0.289366 0.615778
O O15 0.670844 0.500000 0.519417
#
# Coordination Sequence:
#
# PCOD9189145 Si02
#       7
#     8   8   8   8   8   8   4
#     4  10  21  37  57  82 116 157 195 235 289 349
#     4  10  21  39  59  86 119 152 194 239 286 340
#     4  11  22  37  59  86 118 153 192 242 288 337
#     4  10  20  35  58  85 115 154 194 236 290 346
#     4  10  19  37  58  83 117 150 192 241 289 340
#     4  10  22  40  61  83 114 155 193 235 288 346
#     4  10  20  36  60  84 114 154 190 238 290 334
#
# _framework density 22.266166999999999
#
# number of rings (size 3 to 8) (size 9 to 14) (size 15 to 20)
#    0.000    1.846    0.000    6.000    0.000    1.846 
#    0.000   24.231    0.000    0.000    0.000    0.000 
#    0.000    0.000    0.000    0.000    0.000    0.000 
#
# Total GULP energy -145078.224307 kJ/mol
# GULP energy per Si atom -5579.931704 kJ/mol
# Density = 2.221549 g / cm^3
# Si number density = 22.266167 Si / 1000 Ang^3
#
#
#
# Elastic Constant Matrix: (Units=GPa)
#
#
# Indices 1 2 3 4 5 6 
#
# 1 87.9374 -4.9649 7.6440 0.0000 24.0752 0.0000
# 2 -4.9649 97.5479 10.0056 0.0000 5.2835 0.0000
# 3 7.6440 10.0056 106.6337 0.0000 3.4246 0.0000
# 4 0.0000 0.0000 0.0000 -167.9889 0.0000 -133.8389
# 5 24.0752 5.2835 3.4246 0.0000 32.6017 0.0000
# 6 0.0000 0.0000 0.0000 -133.8389 0.0000 -106.0778
#
#
#
# Elastic Compliance Matrix: (Units=1/GPa)
#
#
# Indices 1 2 3 4 5 6 
#
# 1 0.014491 0.001409 -0.000823 0.000000 -0.010843 0.000000
# 2 0.001409 0.010570 -0.001008 0.000000 -0.002648 0.000000
# 3 -0.000823 -0.001008 0.009539 0.000000 -0.000231 0.000000
# 4 0.000000 0.000000 0.000000 1.141199 0.000000 -1.439856
# 5 -0.010843 -0.002648 -0.000231 0.000000 0.039134 0.000000
# 6 0.000000 0.000000 0.000000 -1.439856 0.000000 1.807246
#
#
# Mechanical properties :
#
#
# Convention : Reuss Voigt Hill
#
# Bulk Modulus (GPa) = 29.62294 35.27647 32.44970
# Shear Modulus (GPa) = 1.64784 -29.66404 -14.00810
#
# Velocity S-wave (km/s) = 0.86120 -3.65396 -2.51095
# Velocity P-wave (km/s) = 3.78441 1.38722 2.48972
#
# Compressibility (1/GPa) = 0.03375763
#
# Stress axis : x y z
#
# Youngs Moduli (GPa) = 69.00605 94.60846 104.83427
#
# Poissons Ratio (x) = -0.13333 0.08626
# Poissons Ratio (y) = -0.09725 0.10565
# Poissons Ratio (z) = 0.05678 0.09534
#
# Static dielectric constant tensor:
#      x y z
#    x 1.830490 0.000000 0.034930 
#    y 0.000000 1.868220 0.000000 
#    z 0.034930 0.000000 1.797170 
# 
# From -- ./inp_files/225793.got.cif
#   From: 2010.05.17/outbox.cif.g08.bks.cpg/sg12_113_cif.got.tgz:225793.got - 2010.06.03 13:09:07.
