data_PCOD9189837
_publ_section_title
;
Structure prediction by ZEFSAII (Michael W. Deem and Ramdas Pophale) SiO2 
 PCOD9189837
Probable space group: C 2/M
;
_chemical_formula_sum "Si O2"
_cell_formula_units_Z 36
_cell_length_a 5.602625
_cell_length_b 30.108039
_cell_length_c 10.002958
_cell_angle_alpha 90.000000
_cell_angle_beta 65.702445
_cell_angle_gamma 90.000000
_cell_volume 1537.876367
_symmetry_space_group_name_H-M "C 2/M"
_symmetry_group_IT_number 12
_symmetry_cell_setting 'monoclinic'
loop_
_space_group_symop_operation_xyz
x,y,z
-x,y,-z
-x,-y,-z
x,-y,z
1/2+x,1/2+y,z
1/2-x,1/2+y,-z
1/2-x,1/2-y,-z
1/2+x,1/2-y,z
loop_
_atom_site_type_symbol
_atom_site_label
_atom_site_fract_x
_atom_site_fract_y
_atom_site_fract_z
Si Si1 0.494593 0.370658 0.814080
Si Si2 0.746093 0.578726 0.505352
Si Si3 0.879621 0.232806 0.830617
Si Si4 0.183694 0.500000 0.088757
Si Si5 0.007918 0.403237 0.184066
O O1 0.640822 0.390992 0.649958
O O2 0.408900 0.319991 0.823368
O O3 0.724386 0.375039 0.872456
O O4 0.220509 0.398288 0.874535
O O5 0.500000 0.552985 0.500000
O O6 0.000000 0.553359 0.500000
O O7 0.852623 0.607807 0.357007
O O8 0.672819 0.247352 0.765176
O O9 0.750000 0.250000 0.000000
O O10 0.103147 0.453987 0.175463
O O11 0.500000 0.500000 0.000000
O O12 0.000000 0.500000 0.000000
#
# Coordination Sequence:
#
# PCOD9189837 Si02
#       5
#     8   8   8   4   8
#     4  10  19  38  64  91 122 161 208 252 307 375
#     4   8  16  32  59  87 114 151 201 246 298 363
#     4  10  21  38  55  87 128 159 208 257 301 361
#     4  12  26  46  58  92 134 158 210 258 302 366
#     4  10  21  40  63  88 122 164 203 255 309 364
#
# _framework density 23.408902000000001
#
# number of rings (size 3 to 8) (size 9 to 14) (size 15 to 20)
#    0.000    2.222    0.000    2.667    0.000    0.000 
#   24.000   10.000    0.000   36.000    0.000    0.000 
#    0.000    0.000    0.000    0.000    0.000    0.000 
#
# Total GULP energy -100325.133652 kJ/mol
# GULP energy per Si atom -5573.618536 kJ/mol
# Density = 2.335562 g / cm^3
# Si number density = 23.408902 Si / 1000 Ang^3
#
#
#
# Elastic Constant Matrix: (Units=GPa)
#
#
# Indices 1 2 3 4 5 6 
#
# 1 279.9305 36.3295 31.0754 0.0000 -28.8703 0.0000
# 2 36.3295 143.1263 10.4305 0.0000 -19.5779 0.0000
# 3 31.0754 10.4305 71.1674 0.0000 -11.5918 0.0000
# 4 0.0000 0.0000 0.0000 -1.5716 0.0000 -3.8123
# 5 -28.8703 -19.5779 -11.5918 0.0000 38.9777 0.0000
# 6 0.0000 0.0000 0.0000 -3.8123 0.0000 35.5785
#
#
#
# Elastic Compliance Matrix: (Units=1/GPa)
#
#
# Indices 1 2 3 4 5 6 
#
# 1 0.004033 -0.000616 -0.001297 0.000000 0.002292 0.000000
# 2 -0.000616 0.007614 -0.000314 0.000000 0.003275 0.000000
# 3 -0.001297 -0.000314 0.015219 0.000000 0.003408 0.000000
# 4 0.000000 0.000000 0.000000 -0.505016 0.000000 -0.054113
# 5 0.002292 0.003275 0.003408 0.000000 0.030012 0.000000
# 6 0.000000 0.000000 0.000000 -0.054113 0.000000 0.022309
#
#
# Mechanical properties :
#
#
# Convention : Reuss Voigt Hill
#
# Bulk Modulus (GPa) = 44.61839 72.21058 58.41448
# Shear Modulus (GPa) = -12.08003 42.35615 15.13806
#
# Velocity S-wave (km/s) = -2.27413 4.25832 2.54575
# Velocity P-wave (km/s) = 3.49375 7.42241 5.80080
#
# Compressibility (1/GPa) = 0.02241229
#
# Stress axis : x y z
#
# Youngs Moduli (GPa) = 247.97969 131.33805 65.70797
#
# Poissons Ratio (x) = 0.08084 0.08524
# Poissons Ratio (y) = 0.15264 0.02061
# Poissons Ratio (z) = 0.32171 0.04120
#
# Static dielectric constant tensor:
#      x y z
#    x 2.036980 0.000000 0.035260 
#    y 0.000000 1.774370 0.000000 
#    z 0.035260 0.000000 1.974040 
# 
# From -- ./inp_files/115810.got.cif
#   From: 2010.05.17/outbox.cif.g08.bks.cpg/sg12_58_cif.got.tgz:115810.got - 2010.06.03 13:09:07.
