data_PCOD9189881
_publ_section_title
;
Structure prediction by ZEFSAII (Michael W. Deem and Ramdas Pophale) SiO2 
 PCOD9189881
Probable space group: C 2/M
;
_chemical_formula_sum "Si O2"
_cell_formula_units_Z 56
_cell_length_a 23.665992
_cell_length_b 15.192471
_cell_length_c 9.256010
_cell_angle_alpha 90.000000
_cell_angle_beta 123.282048
_cell_angle_gamma 90.000000
_cell_volume 2782.098420
_symmetry_space_group_name_H-M "C 2/M"
_symmetry_group_IT_number 12
_symmetry_cell_setting 'monoclinic'
loop_
_space_group_symop_operation_xyz
x,y,z
-x,y,-z
-x,-y,-z
x,-y,z
1/2+x,1/2+y,z
1/2-x,1/2+y,-z
1/2-x,1/2-y,-z
1/2+x,1/2-y,z
loop_
_atom_site_type_symbol
_atom_site_label
_atom_site_fract_x
_atom_site_fract_y
_atom_site_fract_z
Si Si1 0.762357 0.403522 0.416047
Si Si2 0.310137 0.260535 0.313211
Si Si3 0.482061 0.500000 0.810085
Si Si4 0.568626 0.299664 0.690831
Si Si5 0.119881 0.849554 0.317070
Si Si6 0.564521 0.218096 0.999073
Si Si7 0.306358 0.895702 0.806669
Si Si8 0.570574 0.500000 0.686039
O O1 0.783621 0.500000 0.396050
O O2 0.775227 0.328620 0.317581
O O3 0.683660 0.402807 0.346777
O O4 0.798078 0.384063 0.620482
O O5 0.365877 0.245326 0.269052
O O6 0.353168 0.293541 0.511768
O O7 0.252470 0.334503 0.207005
O O8 0.437725 0.415445 0.710874
O O9 0.551852 0.500000 0.826908
O O10 0.500000 0.500000 0.000000
O O11 0.500000 0.289335 0.500000
O O12 0.596297 0.400525 0.702125
O O13 0.551026 0.268798 0.828967
O O14 0.094521 0.789857 0.151524
O O15 0.620582 0.143189 0.051961
O O16 0.500000 0.183828 0.000000
O O17 0.298040 0.000000 0.825327
O O18 0.500000 0.500000 0.500000
#
# Coordination Sequence:
#
# PCOD9189881 Si02
#       8
#     8   8   4   8   8   8   8   4
#     4  10  19  38  65  95 125 159 206 260 311 375
#     4  11  21  40  66  91 128 161 206 259 311 376
#     4  12  22  32  56  90 132 156 197 249 304 370
#     4  11  25  40  62  92 126 168 206 250 324 379
#     4  11  19  36  60  93 122 163 202 252 310 369
#     4  12  23  40  64  88 126 165 211 265 307 365
#     4  10  22  39  66  96 121 167 219 255 307 366
#     4  10  20  38  52  86 122 160 198 233 296 389
#
# _framework density 20.128689999999999
#
# number of rings (size 3 to 8) (size 9 to 14) (size 15 to 20)
#    0.000    1.143    3.571    5.571    2.000    0.857 
#    0.000    0.714    0.000    0.857    0.000    0.000 
#    0.000    0.000    0.000    0.000    0.000    0.000 
#
# Total GULP energy -156262.875994 kJ/mol
# GULP energy per Si atom -5580.817000 kJ/mol
# Density = 2.008288 g / cm^3
# Si number density = 20.128690 Si / 1000 Ang^3
#
#
#
# Elastic Constant Matrix: (Units=GPa)
#
#
# Indices 1 2 3 4 5 6 
#
# 1 104.4663 31.9504 26.2691 0.0000 -0.6491 0.0000
# 2 31.9504 78.0360 5.4389 0.0000 6.0261 0.0000
# 3 26.2691 5.4389 63.9211 0.0000 3.8003 0.0000
# 4 0.0000 0.0000 0.0000 9.7406 0.0000 2.6522
# 5 -0.6491 6.0261 3.8003 0.0000 26.6560 0.0000
# 6 0.0000 0.0000 0.0000 2.6522 0.0000 18.8339
#
#
#
# Elastic Compliance Matrix: (Units=1/GPa)
#
#
# Indices 1 2 3 4 5 6 
#
# 1 0.012263 -0.004850 -0.004750 0.000000 0.002072 0.000000
# 2 -0.004850 0.015017 0.000932 0.000000 -0.003646 0.000000
# 3 -0.004750 0.000932 0.017686 0.000000 -0.002848 0.000000
# 4 0.000000 0.000000 0.000000 0.106756 0.000000 -0.015034
# 5 0.002072 -0.003646 -0.002848 0.000000 0.038796 0.000000
# 6 0.000000 0.000000 0.000000 -0.015034 0.000000 0.055213
#
#
# Mechanical properties :
#
#
# Convention : Reuss Voigt Hill
#
# Bulk Modulus (GPa) = 36.19186 41.52668 38.85927
# Shear Modulus (GPa) = 18.36363 23.23045 20.79704
#
# Velocity S-wave (km/s) = 3.02373 3.40088 3.21784
# Velocity P-wave (km/s) = 5.49635 6.00806 5.75789
#
# Compressibility (1/GPa) = 0.02763053
#
# Stress axis : x y z
#
# Youngs Moduli (GPa) = 81.54529 66.59180 56.54051
#
# Poissons Ratio (x) = 0.32296 0.26858
# Poissons Ratio (y) = 0.39548 -0.05270
# Poissons Ratio (z) = 0.38736 -0.06207
#
# Static dielectric constant tensor:
#      x y z
#    x 1.780230 0.000000 -0.020910 
#    y 0.000000 1.732740 0.000000 
#    z -0.020910 0.000000 1.732040 
# 
# From -- ./inp_files/97008.got.cif
#   From: 2010.05.17/outbox.cif.g08.bks.cpg/sg12_49_cif.got.tgz:97008.got - 2010.06.03 13:09:07.
