data_PCOD9189802
_publ_section_title
;
Structure prediction by ZEFSAII (Michael W. Deem and Ramdas Pophale) SiO2 
 PCOD9189802
Probable space group: C 2/M
;
_chemical_formula_sum "Si O2"
_cell_formula_units_Z 52
_cell_length_a 15.375911
_cell_length_b 28.921847
_cell_length_c 10.609942
_cell_angle_alpha 90.000000
_cell_angle_beta 142.385693
_cell_angle_gamma 90.000000
_cell_volume 2879.743764
_symmetry_space_group_name_H-M "C 2/M"
_symmetry_group_IT_number 12
_symmetry_cell_setting 'monoclinic'
loop_
_space_group_symop_operation_xyz
x,y,z
-x,y,-z
-x,-y,-z
x,-y,z
1/2+x,1/2+y,z
1/2-x,1/2+y,-z
1/2-x,1/2-y,-z
1/2+x,1/2-y,z
loop_
_atom_site_type_symbol
_atom_site_label
_atom_site_fract_x
_atom_site_fract_y
_atom_site_fract_z
Si Si1 0.764042 0.500000 0.285674
Si Si2 0.306932 0.131082 0.087211
Si Si3 0.431051 0.684824 0.551074
Si Si4 0.147358 0.698784 0.097215
Si Si5 0.454063 0.419039 0.310665
Si Si6 0.500000 0.922190 0.500000
Si Si7 0.526098 0.500000 0.213714
Si Si8 0.092586 0.198468 0.981705
O O1 0.867740 0.455727 0.386890
O O2 0.675869 0.500000 0.313515
O O3 0.625770 0.500000 0.035045
O O4 0.437913 0.109335 0.315025
O O5 0.203149 0.158816 0.065589
O O6 0.343190 0.167294 0.017046
O O7 0.211881 0.090725 0.911863
O O8 0.500000 0.703509 0.500000
O O9 0.266171 0.685099 0.334258
O O10 0.480131 0.631982 0.620261
O O11 0.486931 0.707713 0.742149
O O12 0.169924 0.752790 0.092017
O O13 0.000000 0.694210 0.000000
O O14 0.500000 0.437063 0.500000
O O15 0.517951 0.453605 0.284265
O O16 0.000000 0.186605 0.000000
#
# Coordination Sequence:
#
# PCOD9189802 Si02
#       8
#     4   8   8   8   8   4   4   8
#     4  10  24  42  59  92 127 158 182 255 311 366
#     4  11  22  39  62  91 121 170 199 254 307 371
#     4  10  20  39  63  82 125 166 200 265 300 359
#     4  11  23  39  60  90 126 163 209 258 315 357
#     4  10  19  38  63  89 113 154 208 245 291 359
#     4  11  24  42  62  88 134 152 194 252 316 371
#     4  11  21  38  69  90 115 156 209 234 303 379
#     4  10  23  38  61  93 123 160 221 257 301 364
#
# _framework density 18.057162000000002
#
# number of rings (size 3 to 8) (size 9 to 14) (size 15 to 20)
#    0.000    1.538    6.154    0.692    0.000    8.615 
#    0.000    0.000    0.000    0.923    0.000    0.000 
#    0.000    0.000    0.000    0.000    0.000    0.000 
#
# Total GULP energy -144875.080421 kJ/mol
# GULP energy per Si atom -5572.118478 kJ/mol
# Density = 1.801606 g / cm^3
# Si number density = 18.057162 Si / 1000 Ang^3
#
#
#
# Elastic Constant Matrix: (Units=GPa)
#
#
# Indices 1 2 3 4 5 6 
#
# 1 86.7240 21.3918 17.1475 0.0000 -2.9451 0.0000
# 2 21.3918 32.7526 13.7294 0.0000 -7.0032 0.0000
# 3 17.1475 13.7294 112.1682 0.0000 5.5302 0.0000
# 4 0.0000 0.0000 0.0000 31.9273 0.0000 15.0812
# 5 -2.9451 -7.0032 5.5302 0.0000 32.1699 0.0000
# 6 0.0000 0.0000 0.0000 15.0812 0.0000 22.3874
#
#
#
# Elastic Compliance Matrix: (Units=1/GPa)
#
#
# Indices 1 2 3 4 5 6 
#
# 1 0.013871 -0.008725 -0.001030 0.000000 -0.000452 0.000000
# 2 -0.008725 0.039707 -0.003947 0.000000 0.008524 0.000000
# 3 -0.001030 -0.003947 0.009685 0.000000 -0.002618 0.000000
# 4 0.000000 0.000000 0.000000 0.045939 0.000000 -0.030947
# 5 -0.000452 0.008524 -0.002618 0.000000 0.033349 0.000000
# 6 0.000000 0.000000 0.000000 -0.030947 0.000000 0.065515
#
#
# Mechanical properties :
#
#
# Convention : Reuss Voigt Hill
#
# Bulk Modulus (GPa) = 27.88612 37.35356 32.61984
# Shear Modulus (GPa) = 20.20827 29.25532 24.73179
#
# Velocity S-wave (km/s) = 3.34897 4.02948 3.70488
# Velocity P-wave (km/s) = 5.51642 6.51000 6.03370
#
# Compressibility (1/GPa) = 0.03586013
#
# Stress axis : x y z
#
# Youngs Moduli (GPa) = 72.09155 25.18437 103.25390
#
# Poissons Ratio (x) = 0.21972 0.10639
# Poissons Ratio (y) = 0.62897 0.40751
# Poissons Ratio (z) = 0.07428 0.09939
#
# Static dielectric constant tensor:
#      x y z
#    x 1.638740 0.000000 0.005330 
#    y 0.000000 1.610240 0.000000 
#    z 0.005330 0.000000 1.694960 
# 
# From -- ./inp_files/68707.got.cif
#   From: 2010.05.17/outbox.cif.g08.bks.cpg/sg12_35_cif.got.tgz:68707.got - 2010.06.03 13:09:07.
