data_PCOD9189705
_publ_section_title
;
Structure prediction by ZEFSAII (Michael W. Deem and Ramdas Pophale) SiO2 
 PCOD9189705
Probable space group: C 2/M
;
_chemical_formula_sum "Si O2"
_cell_formula_units_Z 48
_cell_length_a 18.003722
_cell_length_b 14.433405
_cell_length_c 11.191133
_cell_angle_alpha 90.000000
_cell_angle_beta 67.941603
_cell_angle_gamma 90.000000
_cell_volume 2695.205676
_symmetry_space_group_name_H-M "C 2/M"
_symmetry_group_IT_number 12
_symmetry_cell_setting 'monoclinic'
loop_
_space_group_symop_operation_xyz
x,y,z
-x,y,-z
-x,-y,-z
x,-y,z
1/2+x,1/2+y,z
1/2-x,1/2+y,-z
1/2-x,1/2-y,-z
1/2+x,1/2-y,z
loop_
_atom_site_type_symbol
_atom_site_label
_atom_site_fract_x
_atom_site_fract_y
_atom_site_fract_z
Si Si1 0.603445 0.500000 0.248062
Si Si2 0.429398 0.697636 0.633858
Si Si3 0.309310 0.681764 0.121517
Si Si4 0.913875 0.500000 0.991784
Si Si5 0.405554 0.500000 0.032212
Si Si6 0.365950 0.819165 0.879822
Si Si7 0.775889 0.500000 0.275711
Si Si8 0.746898 0.700041 0.375140
O O1 0.561633 0.593937 0.318312
O O2 0.693099 0.500000 0.249139
O O3 0.608252 0.500000 0.102421
O O4 0.500000 0.718867 0.500000
O O5 0.420481 0.770168 0.747279
O O6 0.344483 0.699368 0.616636
O O7 0.362492 0.591319 0.108548
O O8 0.220267 0.657002 0.127300
O O9 0.297544 0.742613 0.246911
O O10 0.348326 0.744423 0.994259
O O11 0.902177 0.409581 0.917700
O O12 0.846729 0.500000 0.136227
O O13 0.000000 0.500000 0.000000
O O14 0.500000 0.500000 0.000000
O O15 0.776203 0.593683 0.353045
O O16 0.750000 0.750000 0.500000
#
# Coordination Sequence:
#
# PCOD9189705 Si02
#       8
#     4   8   8   4   4   8   4   8
#     4  10  19  38  61  85 116 160 205 226 290 382
#     4  10  21  37  61  88 118 156 193 246 297 353
#     4  10  20  39  63  84 116 158 200 236 294 360
#     4  12  24  36  58  90 118 153 202 255 296 333
#     4  12  24  34  56  98 130 149 180 261 320 343
#     4  10  20  39  64  84 110 158 208 242 279 352
#     4  10  20  40  62  81 114 162 214 238 280 370
#     4  10  22  38  61  88 117 159 198 247 298 351
#
# _framework density 17.809401999999999
#
# number of rings (size 3 to 8) (size 9 to 14) (size 15 to 20)
#    0.000    1.667    3.333    1.750    0.000    4.000 
#    0.000    1.250    0.000    0.000    0.000    0.000 
#    0.000    0.000    0.000    0.000    0.000    0.000 
#
# Total GULP energy -134060.926456 kJ/mol
# GULP energy per Si atom -5585.871936 kJ/mol
# Density = 1.776887 g / cm^3
# Si number density = 17.809402 Si / 1000 Ang^3
#
#
#
# Elastic Constant Matrix: (Units=GPa)
#
#
# Indices 1 2 3 4 5 6 
#
# 1 44.4544 71.5566 41.0301 0.0000 -6.6799 0.0000
# 2 71.5566 173.7466 82.5215 0.0000 -5.4320 0.0000
# 3 41.0301 82.5215 157.3078 0.0000 -13.3141 0.0000
# 4 0.0000 0.0000 0.0000 21.3128 0.0000 2.6310
# 5 -6.6799 -5.4320 -13.3141 0.0000 32.0767 0.0000
# 6 0.0000 0.0000 0.0000 2.6310 0.0000 6.8262
#
#
#
# Elastic Compliance Matrix: (Units=1/GPa)
#
#
# Indices 1 2 3 4 5 6 
#
# 1 0.070939 -0.027310 -0.003438 0.000000 0.008721 0.000000
# 2 -0.027310 0.018184 -0.002732 0.000000 -0.003742 0.000000
# 3 -0.003438 -0.002732 0.008900 0.000000 0.002515 0.000000
# 4 0.000000 0.000000 0.000000 0.049264 0.000000 -0.018988
# 5 0.008721 -0.003742 0.002515 0.000000 0.033402 0.000000
# 6 0.000000 0.000000 0.000000 -0.018988 0.000000 0.153813
#
#
# Mechanical properties :
#
#
# Convention : Reuss Voigt Hill
#
# Bulk Modulus (GPa) = 32.19447 85.08058 58.63752
# Shear Modulus (GPa) = 12.14129 24.06984 18.10557
#
# Velocity S-wave (km/s) = 2.61384 3.68030 3.19192
# Velocity P-wave (km/s) = 5.21785 8.12010 6.82503
#
# Compressibility (1/GPa) = 0.03106124
#
# Stress axis : x y z
#
# Youngs Moduli (GPa) = 14.09661 54.99367 112.35893
#
# Poissons Ratio (x) = 1.50189 0.38630
# Poissons Ratio (y) = 0.38498 0.30702
# Poissons Ratio (z) = 0.04847 0.15027
#
# Static dielectric constant tensor:
#      x y z
#    x 1.594340 0.000000 -0.001600 
#    y 0.000000 1.607660 0.000000 
#    z -0.001600 0.000000 1.579330 
# 
# From -- ./inp_files/164748.got.cif
#   From: 2010.05.17/outbox.cif.g08.bks.cpg/sg12_83_cif.got.tgz:164748.got - 2010.06.03 13:09:07.
