data_PCOD9189389
_publ_section_title
;
Structure prediction by ZEFSAII (Michael W. Deem and Ramdas Pophale) SiO2 
 PCOD9189389
Probable space group: C 2/M
;
_chemical_formula_sum "Si O2"
_cell_formula_units_Z 64
_cell_length_a 20.654645
_cell_length_b 8.541605
_cell_length_c 23.618657
_cell_angle_alpha 90.000000
_cell_angle_beta 44.926748
_cell_angle_gamma 90.000000
_cell_volume 2942.669374
_symmetry_space_group_name_H-M "C 2/M"
_symmetry_group_IT_number 12
_symmetry_cell_setting 'monoclinic'
loop_
_space_group_symop_operation_xyz
x,y,z
-x,y,-z
-x,-y,-z
x,-y,z
1/2+x,1/2+y,z
1/2-x,1/2+y,-z
1/2-x,1/2-y,-z
1/2+x,1/2-y,z
loop_
_atom_site_type_symbol
_atom_site_label
_atom_site_fract_x
_atom_site_fract_y
_atom_site_fract_z
Si Si1 0.071301 0.186352 0.732330
Si Si2 0.116671 0.187295 0.093088
Si Si3 0.567763 0.678455 0.510848
Si Si4 0.989589 0.687262 0.939462
Si Si5 0.027930 0.813271 0.317711
Si Si6 0.807514 0.686686 0.187473
Si Si7 0.792119 0.684428 0.855714
Si Si8 0.236527 0.686614 0.341140
O O1 0.053869 0.204272 0.676701
O O2 0.168059 0.249949 0.692160
O O3 0.979357 0.246662 0.819262
O O4 0.071663 0.000000 0.743915
O O5 0.193063 0.253995 0.089068
O O6 0.094556 0.234829 0.042122
O O7 0.124160 0.000000 0.091739
O O8 0.500000 0.671613 0.500000
O O9 0.594186 0.500000 0.510219
O O10 0.510069 0.744594 0.599074
O O11 0.655836 0.767440 0.433293
O O12 0.981139 0.500000 0.936455
O O13 0.091003 0.743349 0.856538
O O14 0.000000 0.715375 0.000000
O O15 0.114731 0.728136 0.236432
O O16 0.051531 0.000000 0.306952
O O17 0.809434 0.500000 0.185998
O O18 0.783327 0.741762 0.139306
O O19 0.733882 0.743781 0.279349
O O20 0.778977 0.500000 0.866680
O O21 0.239130 0.500000 0.334209
#
# Coordination Sequence:
#
# PCOD9189389 Si02
#       8
#     8   8   8   8   8   8   8   8
#     4   8  16  31  52  78 107 142 182 231 282 333
#     4  10  19  37  62  87 120 157 195 232 283 349
#     4  10  21  35  50  71 104 147 193 240 293 348
#     4  10  22  40  63  92 123 152 188 239 290 340
#     4   9  18  35  55  76 110 153 195 236 289 347
#     4  11  22  38  60  86 117 152 193 235 289 351
#     4  11  22  36  59  89 119 152 197 245 288 335
#     4  11  21  34  54  80 110 143 189 242 291 338
#
# _framework density 21.748961000000001
#
# number of rings (size 3 to 8) (size 9 to 14) (size 15 to 20)
#    0.000    2.000    1.250    3.750    0.000    3.000 
#    0.000    1.250    0.000    0.000    0.000    0.000 
#    0.000    0.000    0.000    0.000    0.000    0.000 
#
# Total GULP energy -178639.465500 kJ/mol
# GULP energy per Si atom -5582.483297 kJ/mol
# Density = 2.169946 g / cm^3
# Si number density = 21.748961 Si / 1000 Ang^3
#
#
#
# Elastic Constant Matrix: (Units=GPa)
#
#
# Indices 1 2 3 4 5 6 
#
# 1 108.4706 16.6108 10.2874 0.0001 0.2611 0.0000
# 2 16.6108 55.0008 2.5023 0.0001 1.1200 -0.0001
# 3 10.2874 2.5023 78.0940 0.0000 13.6139 -0.0001
# 4 0.0001 0.0001 0.0000 8.7865 -0.0001 21.9628
# 5 0.2611 1.1200 13.6139 -0.0001 30.6657 0.0001
# 6 0.0000 -0.0001 -0.0001 21.9628 0.0001 8.3581
#
#
#
# Elastic Compliance Matrix: (Units=1/GPa)
#
#
# Indices 1 2 3 4 5 6 
#
# 1 0.009786 -0.002909 -0.001301 0.000000 0.000600 0.000000
# 2 -0.002909 0.019078 -0.000120 0.000000 -0.000619 0.000000
# 3 -0.001301 -0.000120 0.014066 0.000000 -0.006229 0.000000
# 4 0.000000 0.000000 0.000000 -0.020439 0.000000 0.053708
# 5 0.000600 -0.000619 -0.006229 0.000000 0.035393 0.000000
# 6 0.000000 0.000000 0.000000 0.053708 0.000000 -0.021487
#
#
# Mechanical properties :
#
#
# Convention : Reuss Voigt Hill
#
# Bulk Modulus (GPa) = 29.17875 33.37404 31.27640
# Shear Modulus (GPa) = 88.52629 23.70639 56.11634
#
# Velocity S-wave (km/s) = 6.38687 3.30510 5.08506
# Velocity P-wave (km/s) = 8.23618 5.47205 6.99207
#
# Compressibility (1/GPa) = 0.03427152
#
# Stress axis : x y z
#
# Youngs Moduli (GPa) = 102.18241 52.41621 71.09253
#
# Poissons Ratio (x) = 0.15246 0.09247
# Poissons Ratio (y) = 0.29721 0.00855
# Poissons Ratio (z) = 0.13290 0.00631
#
# Static dielectric constant tensor:
#      x y z
#    x 1.811990 0.000000 0.002680 
#    y 0.000000 1.747570 0.000000 
#    z 0.002680 0.000000 1.852870 
# 
# From -- ./inp_files/346011.got.cif
#   From: 2010.05.17/outbox.cif.g08.bks.cpg/sg12_174_cif.got.tgz:346011.got - 2010.06.03 13:09:07.
