data_PCOD9189506
_publ_section_title
;
Structure prediction by ZEFSAII (Michael W. Deem and Ramdas Pophale) SiO2 
 PCOD9189506
Probable space group: C 2/M
;
_chemical_formula_sum "Si O2"
_cell_formula_units_Z 40
_cell_length_a 18.485696
_cell_length_b 14.639673
_cell_length_c 16.202797
_cell_angle_alpha 90.000000
_cell_angle_beta 25.851019
_cell_angle_gamma 90.000000
_cell_volume 1911.948321
_symmetry_space_group_name_H-M "C 2/M"
_symmetry_group_IT_number 12
_symmetry_cell_setting 'monoclinic'
loop_
_space_group_symop_operation_xyz
x,y,z
-x,y,-z
-x,-y,-z
x,-y,z
1/2+x,1/2+y,z
1/2-x,1/2+y,-z
1/2-x,1/2-y,-z
1/2+x,1/2-y,z
loop_
_atom_site_type_symbol
_atom_site_label
_atom_site_fract_x
_atom_site_fract_y
_atom_site_fract_z
Si Si1 0.191404 0.298655 0.800240
Si Si2 0.698934 0.900686 0.277233
Si Si3 0.180325 0.108715 0.165734
Si Si4 0.131281 0.777766 0.547304
Si Si5 0.576415 0.102055 0.230629
O O1 0.209377 0.188935 0.786920
O O2 0.288718 0.342831 0.777762
O O3 0.270600 0.320273 0.630527
O O4 0.000000 0.326477 0.000000
O O5 0.500000 0.895678 0.500000
O O6 0.711569 0.900237 0.164755
O O7 0.755563 0.000000 0.250562
O O8 0.023008 0.154109 0.281932
O O9 0.159452 0.000000 0.197497
O O10 0.338357 0.124039 0.943872
O O11 0.250000 0.750000 0.500000
O O12 0.047891 0.680188 0.614273
O O13 0.502755 0.000000 0.302115
#
# Coordination Sequence:
#
# PCOD9189506 Si02
#       5
#     8   8   8   8   8
#     4  12  25  41  65  98 131 176 218 268 326 385
#     4  10  19  37  64  93 127 168 212 261 325 388
#     4  11  25  46  70  95 130 176 223 269 323 389
#     4  12  25  41  66  97 131 169 216 271 327 388
#     4  10  21  40  68  95 126 167 211 267 327 383
#
# _framework density 20.921067000000001
#
# number of rings (size 3 to 8) (size 9 to 14) (size 15 to 20)
#    0.000    1.000    4.000    2.400    2.800    3.200 
#    0.000    0.000    0.000    0.000    0.000    0.000 
#    0.000    0.000    0.000    0.000    0.000    0.000 
#
# Total GULP energy -111631.346843 kJ/mol
# GULP energy per Si atom -5581.567342 kJ/mol
# Density = 2.087345 g / cm^3
# Si number density = 20.921067 Si / 1000 Ang^3
#
#
#
# Elastic Constant Matrix: (Units=GPa)
#
#
# Indices 1 2 3 4 5 6 
#
# 1 79.2239 14.7785 20.4817 0.0024 6.5726 -0.0002
# 2 14.7785 80.1050 21.8519 0.0060 -5.9007 -0.0008
# 3 20.4817 21.8519 83.5753 0.0097 13.3282 -0.0010
# 4 0.0024 0.0060 0.0097 -79.8117 -0.0057 5.0066
# 5 6.5726 -5.9007 13.3282 -0.0057 36.7173 0.0003
# 6 -0.0002 -0.0008 -0.0010 5.0066 0.0003 7.3677
#
#
#
# Elastic Compliance Matrix: (Units=1/GPa)
#
#
# Indices 1 2 3 4 5 6 
#
# 1 0.013811 -0.001984 -0.002570 0.000000 -0.001858 0.000000
# 2 -0.001984 0.014204 -0.003872 0.000000 0.004043 0.000001
# 3 -0.002570 -0.003872 0.014471 0.000002 -0.005415 0.000001
# 4 0.000000 0.000000 0.000002 -0.012017 -0.000003 0.008166
# 5 -0.001858 0.004043 -0.005415 -0.000003 0.030183 0.000000
# 6 0.000000 0.000001 0.000001 0.008166 0.000000 0.130178
#
#
# Mechanical properties :
#
#
# Convention : Reuss Voigt Hill
#
# Bulk Modulus (GPa) = 39.01048 39.68091 39.34569
# Shear Modulus (GPa) = 23.12385 5.24080 14.18232
#
# Velocity S-wave (km/s) = 3.32820 1.58445 2.60647
# Velocity P-wave (km/s) = 5.78413 4.72815 5.28259
#
# Compressibility (1/GPa) = 0.02563414
#
# Stress axis : x y z
#
# Youngs Moduli (GPa) = 72.40597 70.40352 69.10330
#
# Poissons Ratio (x) = 0.13967 0.17757
# Poissons Ratio (y) = 0.14365 0.26760
# Poissons Ratio (z) = 0.18605 0.27263
#
# Static dielectric constant tensor:
#      x y z
#    x 1.800420 0.000000 0.032040 
#    y 0.000000 1.761180 0.000000 
#    z 0.032040 0.000000 1.783960 
# 
# From -- ./inp_files/73338.got.cif
#   From: 2010.05.17/outbox.cif.g08.bks.cpg/sg12_37_cif.got.tgz:73338.got - 2010.06.03 13:09:07.
