data_PCOD9189113
_publ_section_title
;
Structure prediction by ZEFSAII (Michael W. Deem and Ramdas Pophale) SiO2 
 PCOD9189113
Probable space group: C 2/M
;
_chemical_formula_sum "Si O2"
_cell_formula_units_Z 64
_cell_length_a 27.923992
_cell_length_b 19.233971
_cell_length_c 18.039406
_cell_angle_alpha 90.000000
_cell_angle_beta 160.752195
_cell_angle_gamma 90.000000
_cell_volume 3193.946763
_symmetry_space_group_name_H-M "C 2/M"
_symmetry_group_IT_number 12
_symmetry_cell_setting 'monoclinic'
loop_
_space_group_symop_operation_xyz
x,y,z
-x,y,-z
-x,-y,-z
x,-y,z
1/2+x,1/2+y,z
1/2-x,1/2+y,-z
1/2-x,1/2-y,-z
1/2+x,1/2-y,z
loop_
_atom_site_type_symbol
_atom_site_label
_atom_site_fract_x
_atom_site_fract_y
_atom_site_fract_z
Si Si1 0.036620 0.919700 0.321824
Si Si2 0.653292 0.300045 0.026280
Si Si3 0.340960 0.291657 0.789847
Si Si4 0.159015 0.686529 0.830877
Si Si5 0.342032 0.129022 0.791330
Si Si6 0.026772 0.328255 0.307814
Si Si7 0.694457 0.917253 0.095774
Si Si8 0.133870 0.082863 0.789624
O O1 0.206170 0.908873 0.555746
O O2 0.939168 0.867937 0.131820
O O3 0.006233 0.901296 0.364860
O O4 0.996146 0.000000 0.252363
O O5 0.556980 0.235086 0.855910
O O6 0.670657 0.295632 0.138665
O O7 0.806196 0.303691 0.204684
O O8 0.334610 0.210127 0.759379
O O9 0.198423 0.326813 0.547017
O O10 0.500000 0.318838 0.000000
O O11 0.009764 0.683720 0.658139
O O12 0.250000 0.750000 0.000000
O O13 0.240591 0.616616 0.976607
O O14 0.500000 0.101672 0.000000
O O15 0.322987 0.120010 0.851577
O O16 0.946419 0.396282 0.158901
O O17 0.705725 0.000000 0.124926
O O18 0.829773 0.893504 0.240936
O O19 0.143470 0.000000 0.799600
#
# Coordination Sequence:
#
# PCOD9189113 Si02
#       8
#     8   8   8   8   8   8   8   8
#     4  10  20  36  58  83 112 144 177 222 275 325
#     4  10  19  37  57  81 110 143 180 221 272 323
#     4  11  24  38  56  81 108 145 192 228 263 322
#     4   8  16  29  53  81 107 134 173 222 268 317
#     4  11  23  37  53  79 112 146 187 229 267 320
#     4  10  19  37  57  81 110 143 180 221 272 323
#     4  10  20  36  58  83 112 144 177 222 275 325
#     4   8  16  31  52  79 111 142 172 209 267 336
#
# _framework density 20.037904000000001
#
# number of rings (size 3 to 8) (size 9 to 14) (size 15 to 20)
#    0.000    2.250    2.500    0.375    0.000    3.500 
#    0.000    3.750    0.000    0.750    0.000    8.750 
#    0.000    0.000    0.000    0.000    0.000    0.000 
#
# Total GULP energy -178347.742922 kJ/mol
# GULP energy per Si atom -5573.366966 kJ/mol
# Density = 1.999230 g / cm^3
# Si number density = 20.037904 Si / 1000 Ang^3
#
#
#
# Elastic Constant Matrix: (Units=GPa)
#
#
# Indices 1 2 3 4 5 6 
#
# 1 34.2983 -8.2994 5.8370 0.0000 6.3932 0.0000
# 2 -8.2994 23.0018 7.7753 0.0000 5.2132 0.0000
# 3 5.8370 7.7753 74.6590 0.0000 25.2147 0.0000
# 4 0.0000 0.0000 0.0000 -16.3765 0.0000 0.2420
# 5 6.3932 5.2132 25.2147 0.0000 31.3748 0.0000
# 6 0.0000 0.0000 0.0000 0.2420 0.0000 19.6753
#
#
#
# Elastic Compliance Matrix: (Units=1/GPa)
#
#
# Indices 1 2 3 4 5 6 
#
# 1 0.034548 0.014842 -0.001422 0.000000 -0.008363 0.000000
# 2 0.014842 0.052040 -0.003621 0.000000 -0.008761 0.000000
# 3 -0.001422 -0.003621 0.018641 0.000000 -0.014090 0.000000
# 4 0.000000 0.000000 0.000000 -0.061052 0.000000 0.000751
# 5 -0.008363 -0.008761 -0.014090 0.000000 0.046356 0.000000
# 6 0.000000 0.000000 0.000000 0.000751 0.000000 0.050816
#
#
# Mechanical properties :
#
#
# Convention : Reuss Voigt Hill
#
# Bulk Modulus (GPa) = 8.01118 15.84277 11.92697
# Shear Modulus (GPa) = 30.60717 15.37781 22.99249
#
# Velocity S-wave (km/s) = 3.91252 2.77327 3.39108
# Velocity P-wave (km/s) = 4.94137 4.26360 4.61494
#
# Compressibility (1/GPa) = 0.12482562
#
# Stress axis : x y z
#
# Youngs Moduli (GPa) = 28.94502 19.21611 53.64508
#
# Poissons Ratio (x) = -0.28520 0.07630
# Poissons Ratio (y) = -0.42959 0.19425
# Poissons Ratio (z) = 0.04117 0.06958
#
# Static dielectric constant tensor:
#      x y z
#    x 1.756940 0.000000 0.029610 
#    y 0.000000 1.674910 0.000000 
#    z 0.029610 0.000000 1.720720 
# 
# From -- ./inp_files/294195.got.cif
#   From: 2010.05.17/outbox.cif.g08.bks.cpg/sg12_148_cif.got.tgz:294195.got - 2010.06.03 13:09:07.
