data_PCOD9189564
_publ_section_title
;
Structure prediction by ZEFSAII (Michael W. Deem and Ramdas Pophale) SiO2 
 PCOD9189564
Probable space group: C 2/M
;
_chemical_formula_sum "Si O2"
_cell_formula_units_Z 52
_cell_length_a 12.424167
_cell_length_b 21.302793
_cell_length_c 11.896846
_cell_angle_alpha 90.000000
_cell_angle_beta 130.869348
_cell_angle_gamma 90.000000
_cell_volume 2381.082412
_symmetry_space_group_name_H-M "C 2/M"
_symmetry_group_IT_number 12
_symmetry_cell_setting 'monoclinic'
loop_
_space_group_symop_operation_xyz
x,y,z
-x,y,-z
-x,-y,-z
x,-y,z
1/2+x,1/2+y,z
1/2-x,1/2+y,-z
1/2-x,1/2-y,-z
1/2+x,1/2-y,z
loop_
_atom_site_type_symbol
_atom_site_label
_atom_site_fract_x
_atom_site_fract_y
_atom_site_fract_z
Si Si1 0.198490 0.000000 0.824135
Si Si2 0.304047 0.366381 0.144832
Si Si3 0.643238 0.819981 0.664652
Si Si4 0.095331 0.500000 0.233694
Si Si5 0.776004 0.817081 0.355415
Si Si6 0.610350 0.639490 0.327326
Si Si7 0.537866 0.139452 0.833180
Si Si8 0.885892 0.000000 0.578503
O O1 0.198004 0.937911 0.897258
O O2 0.340890 0.000000 0.848113
O O3 0.051833 0.000000 0.651642
O O4 0.315397 0.368870 0.288447
O O5 0.448764 0.337976 0.196288
O O6 0.150279 0.341607 0.006387
O O7 0.500000 0.837711 0.500000
O O8 0.666837 0.745628 0.663941
O O9 0.780947 0.847076 0.697156
O O10 0.617767 0.843330 0.772646
O O11 0.240793 0.500000 0.407306
O O12 0.011598 0.565786 0.196412
O O13 0.841313 0.828080 0.522488
O O14 0.607050 0.820928 0.256602
O O15 0.617113 0.565227 0.355736
#
# Coordination Sequence:
#
# PCOD9189564 Si02
#       8
#     4   8   8   4   8   8   8   4
#     4  10  20  36  68  99 138 171 212 287 341 391
#     4  11  24  42  65 104 136 169 220 277 347 391
#     4  12  26  46  68  94 135 184 231 270 328 408
#     4  12  20  41  69 101 139 170 225 276 342 398
#     4  12  24  43  70  94 132 173 227 279 324 394
#     4  11  23  44  71  98 131 179 222 279 334 398
#     4  12  27  43  67 104 136 179 219 279 341 399
#     4  10  19  37  67 105 131 162 229 282 331 394
#
# _framework density 21.838806000000002
#
# number of rings (size 3 to 8) (size 9 to 14) (size 15 to 20)
#    0.000    0.615    4.615    3.000    2.154    4.923 
#    2.769    1.538    0.000    3.692    0.000    0.000 
#    0.000    0.000    0.000    0.000    0.000    0.000 
#
# Total GULP energy -145230.000297 kJ/mol
# GULP energy per Si atom -5585.769242 kJ/mol
# Density = 2.178910 g / cm^3
# Si number density = 21.838806 Si / 1000 Ang^3
#
#
#
# Elastic Constant Matrix: (Units=GPa)
#
#
# Indices 1 2 3 4 5 6 
#
# 1 166.0506 40.2255 35.7005 0.0000 17.7552 0.0000
# 2 40.2255 68.3672 -3.9881 0.0000 1.8135 0.0000
# 3 35.7005 -3.9881 75.6897 0.0000 31.6542 0.0000
# 4 0.0000 0.0000 0.0000 6.8952 0.0000 4.2188
# 5 17.7552 1.8135 31.6542 0.0000 43.0645 0.0000
# 6 0.0000 0.0000 0.0000 4.2188 0.0000 49.4212
#
#
#
# Elastic Compliance Matrix: (Units=1/GPa)
#
#
# Indices 1 2 3 4 5 6 
#
# 1 0.008118 -0.005006 -0.004016 0.000000 -0.000185 0.000000
# 2 -0.005006 0.017847 0.003974 0.000000 -0.001609 0.000000
# 3 -0.004016 0.003974 0.021214 0.000000 -0.014105 0.000000
# 4 0.000000 0.000000 0.000000 0.153020 0.000000 -0.013062
# 5 -0.000185 -0.001609 -0.014105 0.000000 0.033733 0.000000
# 6 0.000000 0.000000 0.000000 -0.013062 0.000000 0.021349
#
#
# Mechanical properties :
#
#
# Convention : Reuss Voigt Hill
#
# Bulk Modulus (GPa) = 26.96526 50.44262 38.70394
# Shear Modulus (GPa) = 18.00269 35.75416 26.87842
#
# Velocity S-wave (km/s) = 2.87425 4.05060 3.51203
# Velocity P-wave (km/s) = 4.83625 6.71002 5.84866
#
# Compressibility (1/GPa) = 0.03708475
#
# Stress axis : x y z
#
# Youngs Moduli (GPa) = 123.18354 56.03289 47.13832
#
# Poissons Ratio (x) = 0.28049 0.18929
# Poissons Ratio (y) = 0.61663 -0.18734
# Poissons Ratio (z) = 0.49465 -0.22269
#
# Static dielectric constant tensor:
#      x y z
#    x 1.766660 0.000000 0.026590 
#    y 0.000000 1.852310 0.000000 
#    z 0.026590 0.000000 1.853070 
# 
# From -- ./inp_files/136064.got.cif
#   From: 2010.05.17/outbox.cif.g08.bks.cpg/sg12_69_cif.got.tgz:136064.got - 2010.06.03 13:09:07.
