data_PCOD9189779
_publ_section_title
;
Structure prediction by ZEFSAII (Michael W. Deem and Ramdas Pophale) SiO2 
 PCOD9189779
Probable space group: C 2/M
;
_chemical_formula_sum "Si O2"
_cell_formula_units_Z 64
_cell_length_a 29.264352
_cell_length_b 7.577393
_cell_length_c 18.183271
_cell_angle_alpha 90.000000
_cell_angle_beta 136.167249
_cell_angle_gamma 90.000000
_cell_volume 2792.449956
_symmetry_space_group_name_H-M "C 2/M"
_symmetry_group_IT_number 12
_symmetry_cell_setting 'monoclinic'
loop_
_space_group_symop_operation_xyz
x,y,z
-x,y,-z
-x,-y,-z
x,-y,z
1/2+x,1/2+y,z
1/2-x,1/2+y,-z
1/2-x,1/2-y,-z
1/2+x,1/2-y,z
loop_
_atom_site_type_symbol
_atom_site_label
_atom_site_fract_x
_atom_site_fract_y
_atom_site_fract_z
Si Si1 0.888331 0.217221 0.476516
Si Si2 0.666460 0.715884 0.743253
Si Si3 0.183449 0.203586 0.241643
Si Si4 0.966660 0.205012 0.337710
Si Si5 0.447430 0.785154 0.147942
Si Si6 0.038543 0.713647 0.118370
Si Si7 0.311280 0.790878 0.923139
Si Si8 0.791476 0.192977 0.477800
O O1 0.845699 0.265075 0.355750
O O2 0.854279 0.283953 0.512212
O O3 0.963432 0.278653 0.554154
O O4 0.888914 0.000000 0.479827
O O5 0.668410 0.500000 0.748807
O O6 0.602308 0.779399 0.712826
O O7 0.737847 0.779766 0.853265
O O8 0.113271 0.222932 0.200079
O O9 0.176053 0.265271 0.149157
O O10 0.238435 0.308397 0.350185
O O11 0.203544 0.000000 0.265493
O O12 0.966765 0.217949 0.250084
O O13 0.966506 0.000000 0.360912
O O14 0.498373 0.730260 0.143567
O O15 0.447298 0.000000 0.149349
O O16 0.374046 0.721764 0.040448
O O17 0.040105 0.500000 0.119582
O O18 0.000000 0.770726 0.000000
O O19 0.309679 0.000000 0.935273
O O20 0.750000 0.250000 0.500000
O O21 0.815658 0.000000 0.526391
#
# Coordination Sequence:
#
# PCOD9189779 Si02
#       8
#     8   8   8   8   8   8   8   8
#     4   9  18  35  61  87 113 147 193 241 288 342
#     4   9  17  34  63  89 109 146 199 247 292 345
#     4  12  24  37  57  88 120 152 192 245 301 351
#     4  10  21  36  58  89 119 148 190 246 300 348
#     4  10  22  38  57  83 117 157 197 235 289 353
#     4  10  20  38  61  82 109 155 201 233 278 348
#     4  10  19  38  63  84 112 157 205 242 282 350
#     4  11  23  40  60  86 120 158 194 240 292 352
#
# _framework density 22.918942999999999
#
# number of rings (size 3 to 8) (size 9 to 14) (size 15 to 20)
#    0.000    1.875    2.500    1.875    1.750    3.250 
#    0.000    1.250    0.000    0.750    0.000    0.000 
#    0.000    0.000    0.000    0.000    0.000    0.000 
#
# Total GULP energy -178791.733299 kJ/mol
# GULP energy per Si atom -5587.241666 kJ/mol
# Density = 2.286678 g / cm^3
# Si number density = 22.918943 Si / 1000 Ang^3
#
#
#
# Elastic Constant Matrix: (Units=GPa)
#
#
# Indices 1 2 3 4 5 6 
#
# 1 104.8304 -9.8769 -9.5006 0.0000 29.3901 0.0000
# 2 -9.8769 41.7753 -9.3152 0.0000 5.6163 0.0000
# 3 -9.5006 -9.3152 41.5773 0.0000 22.8281 0.0000
# 4 0.0000 0.0000 0.0000 -1.8310 0.0000 -6.4484
# 5 29.3901 5.6163 22.8281 0.0000 45.0059 0.0000
# 6 0.0000 0.0000 0.0000 -6.4484 0.0000 1.6953
#
#
#
# Elastic Compliance Matrix: (Units=1/GPa)
#
#
# Indices 1 2 3 4 5 6 
#
# 1 0.019773 0.012824 0.021288 0.000000 -0.025310 0.000000
# 2 0.012824 0.035986 0.025026 0.000000 -0.025560 0.000000
# 3 0.021288 0.025026 0.060804 0.000000 -0.047866 0.000000
# 4 0.000000 0.000000 0.000000 -0.037938 0.000000 -0.144304
# 5 -0.025310 -0.025560 -0.047866 0.000000 0.066216 0.000000
# 6 0.000000 0.000000 0.000000 -0.144304 0.000000 0.040974
#
#
# Mechanical properties :
#
#
# Convention : Reuss Voigt Hill
#
# Bulk Modulus (GPa) = 4.25819 14.53308 9.39564
# Shear Modulus (GPa) = 34.28937 23.43242 28.86090
#
# Velocity S-wave (km/s) = 3.87216 3.20097 3.55245
# Velocity P-wave (km/s) = 4.67477 4.47398 4.57548
#
# Compressibility (1/GPa) = 0.23484132
#
# Stress axis : x y z
#
# Youngs Moduli (GPa) = 50.57451 27.78832 16.44629
#
# Poissons Ratio (x) = -0.35637 -0.35011
# Poissons Ratio (y) = -0.64859 -0.41159
# Poissons Ratio (z) = -1.07664 -0.69544
#
# Static dielectric constant tensor:
#      x y z
#    x 1.869280 0.000000 0.035240 
#    y 0.000000 1.876090 0.000000 
#    z 0.035240 0.000000 1.828370 
# 
# From -- ./inp_files/295694.got.cif
#   From: 2010.05.17/outbox.cif.g08.bks.cpg/sg12_148_cif.got.tgz:295694.got - 2010.06.03 13:09:07.
