data_PCOD9189801
_publ_section_title
;
Structure prediction by ZEFSAII (Michael W. Deem and Ramdas Pophale) SiO2 
 PCOD9189801
Probable space group: C 2/M
;
_chemical_formula_sum "Si O2"
_cell_formula_units_Z 64
_cell_length_a 23.969047
_cell_length_b 26.657737
_cell_length_c 10.756562
_cell_angle_alpha 90.000000
_cell_angle_beta 28.589824
_cell_angle_gamma 90.000000
_cell_volume 3288.986342
_symmetry_space_group_name_H-M "C 2/M"
_symmetry_group_IT_number 12
_symmetry_cell_setting 'monoclinic'
loop_
_space_group_symop_operation_xyz
x,y,z
-x,y,-z
-x,-y,-z
x,-y,z
1/2+x,1/2+y,z
1/2-x,1/2+y,-z
1/2-x,1/2-y,-z
1/2+x,1/2-y,z
loop_
_atom_site_type_symbol
_atom_site_label
_atom_site_fract_x
_atom_site_fract_y
_atom_site_fract_z
Si Si1 0.319698 0.820135 0.106755
Si Si2 0.647871 0.943962 0.622528
Si Si3 0.858725 0.362609 0.773591
Si Si4 0.681056 0.382533 0.570200
Si Si5 0.721384 0.444069 0.897180
Si Si6 0.436775 0.629536 0.926850
Si Si7 0.444738 0.833302 0.234426
Si Si8 0.257812 0.293765 0.206505
O O1 0.265242 0.842207 0.340063
O O2 0.269176 0.765481 0.179187
O O3 0.304516 0.854574 0.015840
O O4 0.458565 0.819857 0.853805
O O5 0.735990 0.930194 0.563122
O O6 0.717588 0.946596 0.357027
O O7 0.570709 0.893637 0.752824
O O8 0.598919 0.000000 0.734415
O O9 0.809136 0.413953 0.813307
O O10 0.806088 0.319433 0.786028
O O11 0.000000 0.361941 0.500000
O O12 0.626269 0.373268 0.814073
O O13 0.570558 0.381912 0.694767
O O14 0.695693 0.500000 0.991106
O O15 0.609554 0.410744 0.082093
O O16 0.386558 0.681960 0.972366
O O17 0.323301 0.810601 0.518404
O O18 0.500000 0.812271 0.000000
#
# Coordination Sequence:
#
# PCOD9189801 Si02
#       8
#     8   8   8   8   8   8   8   8
#     4  12  25  38  61  88 123 160 204 250 306 355
#     4  10  19  38  63  88 123 163 199 249 313 364
#     4  11  21  41  63  84 121 158 208 259 289 363
#     4  10  20  37  55  92 121 153 203 249 294 366
#     4   9  18  36  62  88 116 158 204 251 306 357
#     4   9  19  37  61  82 126 156 197 250 296 369
#     4  12  22  41  62  91 126 155 200 250 308 373
#     4  11  23  42  58  88 117 165 204 244 309 355
#
# _framework density 19.458883
#
# number of rings (size 3 to 8) (size 9 to 14) (size 15 to 20)
#    0.000    1.500    6.250    0.375    1.750    3.000 
#    0.000    6.250    0.000    0.750    0.000    0.000 
#    0.000    0.000    0.000    0.000    0.000    0.000 
#
# Total GULP energy -178172.137148 kJ/mol
# GULP energy per Si atom -5567.879286 kJ/mol
# Density = 1.941459 g / cm^3
# Si number density = 19.458883 Si / 1000 Ang^3
#
#
#
# Elastic Constant Matrix: (Units=GPa)
#
#
# Indices 1 2 3 4 5 6 
#
# 1 84.7047 24.5058 10.5541 0.0011 -15.0379 0.0000
# 2 24.5058 92.4867 18.6728 0.0012 -9.0377 -0.0001
# 3 10.5541 18.6728 38.7904 -0.0019 -9.9828 0.0012
# 4 0.0011 0.0012 -0.0019 -13.3731 0.0004 5.7747
# 5 -15.0379 -9.0377 -9.9828 0.0004 28.2214 -0.0006
# 6 0.0000 -0.0001 0.0012 5.7747 -0.0006 11.4219
#
#
#
# Elastic Compliance Matrix: (Units=1/GPa)
#
#
# Indices 1 2 3 4 5 6 
#
# 1 0.013839 -0.002907 -0.000779 0.000001 0.006168 0.000000
# 2 -0.002907 0.012688 -0.005137 0.000002 0.000697 0.000000
# 3 -0.000779 -0.005137 0.030732 -0.000005 0.008811 0.000000
# 4 0.000001 0.000002 -0.000005 -0.061377 0.000001 0.031031
# 5 0.006168 0.000697 0.008811 0.000001 0.042060 0.000001
# 6 0.000000 0.000000 0.000000 0.031031 0.000001 0.071862
#
#
# Mechanical properties :
#
#
# Convention : Reuss Voigt Hill
#
# Bulk Modulus (GPa) = 25.24443 35.93858 30.59150
# Shear Modulus (GPa) = 35.54832 16.07068 25.80950
#
# Velocity S-wave (km/s) = 4.27880 2.87693 3.64587
# Velocity P-wave (km/s) = 6.11655 5.43550 5.78606
#
# Compressibility (1/GPa) = 0.03961270
#
# Stress axis : x y z
#
# Youngs Moduli (GPa) = 72.26120 78.81514 32.53943
#
# Poissons Ratio (x) = 0.22910 0.02534
# Poissons Ratio (y) = 0.21005 0.16717
# Poissons Ratio (z) = 0.05627 0.40490
#
# Static dielectric constant tensor:
#      x y z
#    x 1.723320 0.000000 -0.022960 
#    y 0.000000 1.678160 0.000000 
#    z -0.022960 0.000000 1.708010 
# 
# From -- ./inp_files/178544.got.cif
#   From: 2010.05.17/outbox.cif.g08.bks.cpg/sg12_90_cif.got.tgz:178544.got - 2010.06.03 13:09:07.
