data_PCOD9189424
_publ_section_title
;
Structure prediction by ZEFSAII (Michael W. Deem and Ramdas Pophale) SiO2 
 PCOD9189424
Probable space group: C 2/M
;
_chemical_formula_sum "Si O2"
_cell_formula_units_Z 56
_cell_length_a 20.629920
_cell_length_b 7.680555
_cell_length_c 16.636143
_cell_angle_alpha 90.000000
_cell_angle_beta 92.607344
_cell_angle_gamma 90.000000
_cell_volume 2633.255225
_symmetry_space_group_name_H-M "C 2/M"
_symmetry_group_IT_number 12
_symmetry_cell_setting 'monoclinic'
loop_
_space_group_symop_operation_xyz
x,y,z
-x,y,-z
-x,-y,-z
x,-y,z
1/2+x,1/2+y,z
1/2-x,1/2+y,-z
1/2-x,1/2-y,-z
1/2+x,1/2-y,z
loop_
_atom_site_type_symbol
_atom_site_label
_atom_site_fract_x
_atom_site_fract_y
_atom_site_fract_z
Si Si1 0.124599 0.700604 0.702227
Si Si2 0.571329 0.296770 0.528700
Si Si3 0.767955 0.297212 0.751530
Si Si4 0.945015 0.287126 0.935345
Si Si5 0.491048 0.212539 0.761807
Si Si6 0.200766 0.709361 0.068483
Si Si7 0.377178 0.788770 0.636288
O O1 0.133397 0.500000 0.726339
O O2 0.101697 0.709497 0.608604
O O3 0.193586 0.786883 0.720923
O O4 0.063931 0.773918 0.749229
O O5 0.500000 0.226542 0.500000
O O6 0.563271 0.500000 0.548348
O O7 0.616938 0.278306 0.453667
O O8 0.786887 0.500000 0.758535
O O9 0.777988 0.224137 0.841938
O O10 0.816176 0.225894 0.685808
O O11 0.945267 0.500000 0.936381
O O12 0.963030 0.233895 0.845964
O O13 0.872497 0.229458 0.952576
O O14 0.000000 0.228279 0.000000
O O15 0.441939 0.264502 0.688511
O O16 0.492577 0.000000 0.760790
O O17 0.198532 0.500000 0.072905
O O18 0.250000 0.750000 0.000000
O O19 0.376037 0.000000 0.631431
#
# Coordination Sequence:
#
# PCOD9189424 Si02
#       7
#     8   8   8   8   8   8   8
#     4  11  23  37  60  89 116 148 193 244 286 337
#     4  11  23  38  58  87 121 151 185 233 294 350
#     4  10  22  40  59  82 118 158 192 234 292 347
#     4   9  17  31  55  86 115 144 188 239 282 328
#     4   9  17  32  55  84 111 144 192 239 281 327
#     4  10  21  37  58  84 117 155 189 232 289 343
#     4  10  19  37  63  83 109 152 199 240 281 336
#
# _framework density 21.266452000000001
#
# number of rings (size 3 to 8) (size 9 to 14) (size 15 to 20)
#    0.000    2.000    2.857    0.857    2.000    2.286 
#    0.000    0.000    0.000    2.143    0.000    0.000 
#    0.000    0.000    0.000    0.000    0.000    0.000 
#
# Total GULP energy -156420.905989 kJ/mol
# GULP energy per Si atom -5586.460928 kJ/mol
# Density = 2.121805 g / cm^3
# Si number density = 21.266452 Si / 1000 Ang^3
#
#
#
# Elastic Constant Matrix: (Units=GPa)
#
#
# Indices 1 2 3 4 5 6 
#
# 1 157.7173 -4.9566 64.1926 0.0000 -19.6200 0.0000
# 2 -4.9566 37.7770 -8.8205 0.0000 -0.7050 0.0000
# 3 64.1926 -8.8205 107.0421 0.0000 -19.2258 0.0000
# 4 0.0000 0.0000 0.0000 6.9367 0.0000 -10.6292
# 5 -19.6200 -0.7050 -19.2258 0.0000 42.0917 0.0000
# 6 0.0000 0.0000 0.0000 -10.6292 0.0000 6.0724
#
#
#
# Elastic Compliance Matrix: (Units=1/GPa)
#
#
# Indices 1 2 3 4 5 6 
#
# 1 0.008509 0.000034 -0.004779 0.000000 0.001784 0.000000
# 2 0.000034 0.027090 0.002502 0.000000 0.001612 0.000000
# 3 -0.004779 0.002502 0.013096 0.000000 0.003796 0.000000
# 4 0.000000 0.000000 0.000000 -0.085700 0.000000 -0.150009
# 5 0.001784 0.001612 0.003796 0.000000 0.026350 0.000000
# 6 0.000000 0.000000 0.000000 -0.150009 0.000000 -0.097897
#
#
# Mechanical properties :
#
#
# Convention : Reuss Voigt Hill
#
# Bulk Modulus (GPa) = 22.62122 44.81860 33.71991
# Shear Modulus (GPa) = -55.97325 27.82822 -14.07252
#
# Velocity S-wave (km/s) = -5.13587 3.62131 -2.57519
# Velocity P-wave (km/s) = 4.95069 6.21335 2.65485
#
# Compressibility (1/GPa) = 0.04420628
#
# Stress axis : x y z
#
# Youngs Moduli (GPa) = 117.52678 36.91440 76.35761
#
# Poissons Ratio (x) = -0.00125 0.36495
# Poissons Ratio (y) = -0.00396 -0.19101
# Poissons Ratio (z) = 0.56172 -0.09234
#
# Static dielectric constant tensor:
#      x y z
#    x 1.745590 0.000000 -0.013430 
#    y 0.000000 1.813530 0.000000 
#    z -0.013430 0.000000 1.736630 
# 
# From -- ./inp_files/230982.got.cif
#   From: 2010.05.17/outbox.cif.g08.bks.cpg/sg12_116_cif.got.tgz:230982.got - 2010.06.03 13:09:07.
