data_PCOD9189810
_publ_section_title
;
Structure prediction by ZEFSAII (Michael W. Deem and Ramdas Pophale) SiO2 
 PCOD9189810
Probable space group: C 2/M
;
_chemical_formula_sum "Si O2"
_cell_formula_units_Z 58
_cell_length_a 22.687853
_cell_length_b 15.912045
_cell_length_c 8.187535
_cell_angle_alpha 90.000000
_cell_angle_beta 61.230660
_cell_angle_gamma 90.000000
_cell_volume 2590.934125
_symmetry_space_group_name_H-M "C 2/M"
_symmetry_group_IT_number 12
_symmetry_cell_setting 'monoclinic'
loop_
_space_group_symop_operation_xyz
x,y,z
-x,y,-z
-x,-y,-z
x,-y,z
1/2+x,1/2+y,z
1/2-x,1/2+y,-z
1/2-x,1/2-y,-z
1/2+x,1/2-y,z
loop_
_atom_site_type_symbol
_atom_site_label
_atom_site_fract_x
_atom_site_fract_y
_atom_site_fract_z
Si Si1 0.038699 0.185482 0.271468
Si Si2 0.155185 0.854007 0.322631
Si Si3 0.423801 0.403577 0.248809
Si Si4 0.090460 0.643285 0.056167
Si Si5 0.799685 0.684642 0.840034
Si Si6 0.787855 0.598573 0.289210
Si Si7 0.500000 0.000000 0.000000
Si Si8 0.293651 0.600395 0.283274
O O1 0.107582 0.137584 0.228544
O O2 0.053363 0.274532 0.169631
O O3 0.000000 0.193797 0.500000
O O4 0.993380 0.138013 0.201330
O O5 0.117218 0.896197 0.524770
O O6 0.161778 0.752326 0.328153
O O7 0.229863 0.891831 0.229501
O O8 0.435394 0.500000 0.193094
O O9 0.369470 0.365399 0.196061
O O10 0.144603 0.632152 0.133827
O O11 0.038494 0.573496 0.062244
O O12 0.145568 0.650792 0.837633
O O13 0.749280 0.625875 0.812406
O O14 0.750000 0.750000 0.000000
O O15 0.806919 0.500000 0.276895
O O16 0.750608 0.628086 0.501751
O O17 0.298859 0.500000 0.289546
#
# Coordination Sequence:
#
# PCOD9189810 Si02
#       8
#     8   8   8   8   8   8   2   8
#     4   9  20  38  61  94 136 176 217 273 331 404
#     4   9  18  34  58  95 127 163 213 262 323 381
#     4   9  18  36  62  97 135 173 214 258 322 404
#     4  11  24  44  63  90 128 171 228 273 332 399
#     4  11  22  39  63  97 133 164 210 273 338 392
#     4  10  19  38  63  92 127 164 220 276 320 387
#     4  12  28  48  62  88 126 180 238 280 326 398
#     4   9  21  38  63  97 129 163 208 271 335 384
#
# _framework density 22.385748
#
# number of rings (size 3 to 8) (size 9 to 14) (size 15 to 20)
#    0.000    2.207    2.069    1.241    0.966    6.345 
#    7.448    0.345    0.000    0.000    0.000    8.207 
#    0.000    0.000    0.000    0.000    0.000    0.000 
#
# Total GULP energy -161438.343418 kJ/mol
# GULP energy per Si atom -5566.839428 kJ/mol
# Density = 2.233480 g / cm^3
# Si number density = 22.385748 Si / 1000 Ang^3
#
#
#
# Elastic Constant Matrix: (Units=GPa)
#
#
# Indices 1 2 3 4 5 6 
#
# 1 174.9147 56.2625 27.8120 0.0000 24.2478 0.0000
# 2 56.2625 47.3194 22.2921 0.0000 7.2064 0.0000
# 3 27.8120 22.2921 59.3922 0.0000 2.5338 0.0000
# 4 0.0000 0.0000 0.0000 16.3635 0.0000 10.9853
# 5 24.2478 7.2064 2.5338 0.0000 32.2417 0.0000
# 6 0.0000 0.0000 0.0000 10.9853 0.0000 62.8872
#
#
#
# Elastic Compliance Matrix: (Units=1/GPa)
#
#
# Indices 1 2 3 4 5 6 
#
# 1 0.009994 -0.010947 -0.000356 0.000000 -0.005041 0.000000
# 2 -0.010947 0.038492 -0.009337 0.000000 0.000363 0.000000
# 3 -0.000356 -0.009337 0.020477 0.000000 0.000745 0.000000
# 4 0.000000 0.000000 0.000000 0.069230 0.000000 -0.012093
# 5 -0.005041 0.000363 0.000745 0.000000 0.034667 0.000000
# 6 0.000000 0.000000 0.000000 -0.012093 0.000000 0.018014
#
#
# Mechanical properties :
#
#
# Convention : Reuss Voigt Hill
#
# Bulk Modulus (GPa) = 36.12336 54.92883 45.52609
# Shear Modulus (GPa) = 20.71416 33.98246 27.34831
#
# Velocity S-wave (km/s) = 3.04522 3.90043 3.49905
# Velocity P-wave (km/s) = 5.34194 6.69889 6.05852
#
# Compressibility (1/GPa) = 0.02768292
#
# Stress axis : x y z
#
# Youngs Moduli (GPa) = 100.06329 25.97937 48.83635
#
# Poissons Ratio (x) = 0.28440 0.01738
# Poissons Ratio (y) = 1.09539 0.45597
# Poissons Ratio (z) = 0.03562 0.24256
#
# Static dielectric constant tensor:
#      x y z
#    x 1.878550 0.000000 -0.023440 
#    y 0.000000 1.806400 0.000000 
#    z -0.023440 0.000000 1.915870 
# 
# From -- ./inp_files/87880.got.cif
#   From: 2010.05.17/outbox.cif.g08.bks.cpg/sg12_44_cif.got.tgz:87880.got - 2010.06.03 13:09:07.
