data_PCOD9189532
_publ_section_title
;
Structure prediction by ZEFSAII (Michael W. Deem and Ramdas Pophale) SiO2 
 PCOD9189532
Probable space group: C 2/M
;
_chemical_formula_sum "Si O2"
_cell_formula_units_Z 56
_cell_length_a 14.040628
_cell_length_b 24.922931
_cell_length_c 7.231454
_cell_angle_alpha 90.000000
_cell_angle_beta 65.705213
_cell_angle_gamma 90.000000
_cell_volume 2306.426933
_symmetry_space_group_name_H-M "C 2/M"
_symmetry_group_IT_number 12
_symmetry_cell_setting 'monoclinic'
loop_
_space_group_symop_operation_xyz
x,y,z
-x,y,-z
-x,-y,-z
x,-y,z
1/2+x,1/2+y,z
1/2-x,1/2+y,-z
1/2-x,1/2-y,-z
1/2+x,1/2-y,z
loop_
_atom_site_type_symbol
_atom_site_label
_atom_site_fract_x
_atom_site_fract_y
_atom_site_fract_z
Si Si1 0.642697 0.763850 0.183654
Si Si2 0.481471 0.679555 0.226871
Si Si3 0.749370 0.667769 0.582961
Si Si4 0.760841 0.939133 0.155753
Si Si5 0.527924 0.058206 0.193790
Si Si6 0.031754 0.940890 0.256606
Si Si7 0.961998 0.329101 0.325494
O O1 0.573098 0.709660 0.263464
O O2 0.694690 0.797039 0.307243
O O3 0.558955 0.802333 0.142115
O O4 0.750000 0.750000 0.000000
O O5 0.362674 0.691486 0.378410
O O6 0.486168 0.615361 0.229311
O O7 0.500000 0.695169 0.000000
O O8 0.735794 0.608667 0.692724
O O9 0.841714 0.675070 0.358554
O O10 0.650249 0.935485 0.138866
O O11 0.767005 0.000000 0.231026
O O12 0.851069 0.936056 0.924683
O O13 0.471731 0.107448 0.330477
O O14 0.492906 0.000000 0.289530
O O15 0.500000 0.060969 0.000000
O O16 0.000000 0.941109 0.500000
O O17 0.994860 0.000000 0.219975
O O18 0.000000 0.308225 0.500000
#
# Coordination Sequence:
#
# PCOD9189532 Si02
#       7
#     8   8   8   8   8   8   8
#     4  11  22  41  63  93 132 165 208 277 332 383
#     4  12  24  41  71  99 126 176 229 268 329 402
#     4  11  23  44  65 101 134 166 225 280 325 395
#     4  10  19  37  65  94 131 177 212 269 338 387
#     4  10  21  37  61  95 132 170 216 263 326 402
#     4  10  23  42  65  97 138 175 217 274 335 393
#     4  10  22  40  65  92 128 167 216 270 325 382
#
# _framework density 24.279979999999998
#
# number of rings (size 3 to 8) (size 9 to 14) (size 15 to 20)
#    0.000    1.429    5.714    0.000    0.000    5.714 
#    0.000    1.429    0.000    0.000    0.000    0.000 
#    0.000    0.000    0.000    0.000    0.000    0.000 
#
# Total GULP energy -155899.307425 kJ/mol
# GULP energy per Si atom -5567.832408 kJ/mol
# Density = 2.422472 g / cm^3
# Si number density = 24.279980 Si / 1000 Ang^3
#
#
#
# Elastic Constant Matrix: (Units=GPa)
#
#
# Indices 1 2 3 4 5 6 
#
# 1 143.1998 47.0109 34.4393 0.0000 -48.4144 0.0000
# 2 47.0109 141.7646 19.2857 0.0000 -9.2761 0.0000
# 3 34.4393 19.2857 75.2913 0.0000 -21.0762 0.0000
# 4 0.0000 0.0000 0.0000 23.9352 0.0000 -15.9403
# 5 -48.4144 -9.2761 -21.0762 0.0000 62.1638 0.0000
# 6 0.0000 0.0000 0.0000 -15.9403 0.0000 28.1558
#
#
#
# Elastic Compliance Matrix: (Units=1/GPa)
#
#
# Indices 1 2 3 4 5 6 
#
# 1 0.010930 -0.002843 -0.002218 0.000000 0.007337 0.000000
# 2 -0.002843 0.008062 -0.001158 0.000000 -0.001404 0.000000
# 3 -0.002218 -0.001158 0.015535 0.000000 0.003367 0.000000
# 4 0.000000 0.000000 0.000000 0.067066 0.000000 0.037969
# 5 0.007337 -0.001404 0.003367 0.000000 0.022733 0.000000
# 6 0.000000 0.000000 0.000000 0.037969 0.000000 0.057013
#
#
# Mechanical properties :
#
#
# Convention : Reuss Voigt Hill
#
# Bulk Modulus (GPa) = 45.26659 62.41417 53.84038
# Shear Modulus (GPa) = 24.85838 40.15228 32.50533
#
# Velocity S-wave (km/s) = 3.20319 4.07101 3.66289
# Velocity P-wave (km/s) = 5.68899 6.91804 6.33340
#
# Compressibility (1/GPa) = 0.02209135
#
# Stress axis : x y z
#
# Youngs Moduli (GPa) = 91.48834 124.03352 64.36962
#
# Poissons Ratio (x) = 0.35261 0.14276
# Poissons Ratio (y) = 0.26009 0.07452
# Poissons Ratio (z) = 0.20290 0.14359
#
# Static dielectric constant tensor:
#      x y z
#    x 1.872030 0.000000 0.048010 
#    y 0.000000 1.964600 0.000000 
#    z 0.048010 0.000000 1.929660 
# 
# From -- ./inp_files/65738.got.cif
#   From: 2010.05.17/outbox.cif.g08.bks.cpg/sg12_33_cif.got.tgz:65738.got - 2010.06.03 13:09:07.
