data_PCOD9189974
_publ_section_title
;
Structure prediction by ZEFSAII (Michael W. Deem and Ramdas Pophale) SiO2 
 PCOD9189974
Probable space group: C 2/M
;
_chemical_formula_sum "Si O2"
_cell_formula_units_Z 44
_cell_length_a 16.926453
_cell_length_b 17.580566
_cell_length_c 13.526244
_cell_angle_alpha 90.000000
_cell_angle_beta 141.834764
_cell_angle_gamma 90.000000
_cell_volume 2487.232252
_symmetry_space_group_name_H-M "C 2/M"
_symmetry_group_IT_number 12
_symmetry_cell_setting 'monoclinic'
loop_
_space_group_symop_operation_xyz
x,y,z
-x,y,-z
-x,-y,-z
x,-y,z
1/2+x,1/2+y,z
1/2-x,1/2+y,-z
1/2-x,1/2-y,-z
1/2+x,1/2-y,z
loop_
_atom_site_type_symbol
_atom_site_label
_atom_site_fract_x
_atom_site_fract_y
_atom_site_fract_z
Si Si1 0.997433 0.087110 0.186868
Si Si2 0.368597 0.792569 0.171503
Si Si3 0.133668 0.205391 0.434516
Si Si4 0.262306 0.282988 0.247842
Si Si5 0.762840 0.412766 0.940851
Si Si6 0.000000 0.805066 0.000000
O O1 0.111622 0.123979 0.362363
O O2 0.872141 0.089043 0.133345
O O3 0.020571 0.000000 0.180728
O O4 0.979148 0.140891 0.074072
O O5 0.502512 0.751419 0.285517
O O6 0.335014 0.780462 0.253050
O O7 0.250000 0.750000 0.000000
O O8 0.362914 0.875152 0.116393
O O9 0.250000 0.250000 0.500000
O O10 0.160973 0.199569 0.577531
O O11 0.247422 0.357724 0.164314
O O12 0.123866 0.247850 0.135829
O O13 0.791972 0.500000 0.944623
#
# Coordination Sequence:
#
# PCOD9189974 Si02
#       6
#     8   8   8   8   8   4
#     4  11  22  39  62  91 122 156 202 257 306 350
#     4  10  19  39  61  85 117 158 205 238 292 366
#     4  12  23  38  61  93 121 158 202 253 302 357
#     4  11  22  35  65  88 122 154 211 242 302 361
#     4  10  21  39  64  90 119 160 204 251 304 357
#     4  12  21  40  63  92 114 168 206 250 289 364
#
# _framework density 17.690346999999999
#
# number of rings (size 3 to 8) (size 9 to 14) (size 15 to 20)
#    0.000    1.091    7.273    1.909    0.000    0.727 
#    0.000    3.182    0.000    1.091    0.000    0.000 
#    0.000    0.000    0.000    0.000    0.000    0.000 
#
# Total GULP energy -122754.002449 kJ/mol
# GULP energy per Si atom -5579.727384 kJ/mol
# Density = 1.765008 g / cm^3
# Si number density = 17.690347 Si / 1000 Ang^3
#
#
#
# Elastic Constant Matrix: (Units=GPa)
#
#
# Indices 1 2 3 4 5 6 
#
# 1 56.6168 31.3958 29.0228 0.0000 -6.2314 0.0000
# 2 31.3958 131.5248 47.1437 0.0000 -10.5525 0.0000
# 3 29.0228 47.1437 91.2049 0.0000 -7.6992 0.0000
# 4 0.0000 0.0000 0.0000 17.9109 0.0000 0.2716
# 5 -6.2314 -10.5525 -7.6992 0.0000 46.8129 0.0000
# 6 0.0000 0.0000 0.0000 0.2716 0.0000 27.9127
#
#
#
# Elastic Compliance Matrix: (Units=1/GPa)
#
#
# Indices 1 2 3 4 5 6 
#
# 1 0.022369 -0.003339 -0.005278 0.000000 0.001357 0.000000
# 2 -0.003339 0.009913 -0.003965 0.000000 0.001138 0.000000
# 3 -0.005278 -0.003965 0.014764 0.000000 0.000832 0.000000
# 4 0.000000 0.000000 0.000000 0.055840 0.000000 -0.000543
# 5 0.001357 0.001138 0.000832 0.000000 0.021936 0.000000
# 6 0.000000 0.000000 0.000000 -0.000543 0.000000 0.035831
#
#
# Mechanical properties :
#
#
# Convention : Reuss Voigt Hill
#
# Bulk Modulus (GPa) = 45.70097 54.94124 50.32111
# Shear Modulus (GPa) = 25.89194 29.97957 27.93575
#
# Velocity S-wave (km/s) = 3.82988 4.12112 3.97817
# Velocity P-wave (km/s) = 6.74146 7.33277 7.04332
#
# Compressibility (1/GPa) = 0.02188137
#
# Stress axis : x y z
#
# Youngs Moduli (GPa) = 44.70481 100.87964 67.73397
#
# Poissons Ratio (x) = 0.33684 0.35748
# Poissons Ratio (y) = 0.14927 0.26859
# Poissons Ratio (z) = 0.23594 0.40002
#
# Static dielectric constant tensor:
#      x y z
#    x 1.631310 0.000000 -0.010950 
#    y 0.000000 1.628270 0.000000 
#    z -0.010950 0.000000 1.600530 
# 
# From -- ./inp_files/226646.got.cif
#   From: 2010.05.17/outbox.cif.g08.bks.cpg/sg12_114_cif.got.tgz:226646.got - 2010.06.03 13:09:07.
