data_PCOD9189981
_publ_section_title
;
Structure prediction by ZEFSAII (Michael W. Deem and Ramdas Pophale) SiO2 
 PCOD9189981
Probable space group: C 2/M
;
_chemical_formula_sum "Si O2"
_cell_formula_units_Z 64
_cell_length_a 19.701961
_cell_length_b 15.895327
_cell_length_c 27.695597
_cell_angle_alpha 90.000000
_cell_angle_beta 22.716791
_cell_angle_gamma 90.000000
_cell_volume 3349.464380
_symmetry_space_group_name_H-M "C 2/M"
_symmetry_group_IT_number 12
_symmetry_cell_setting 'monoclinic'
loop_
_space_group_symop_operation_xyz
x,y,z
-x,y,-z
-x,-y,-z
x,-y,z
1/2+x,1/2+y,z
1/2-x,1/2+y,-z
1/2-x,1/2-y,-z
1/2+x,1/2-y,z
loop_
_atom_site_type_symbol
_atom_site_label
_atom_site_fract_x
_atom_site_fract_y
_atom_site_fract_z
Si Si1 0.837914 0.759329 0.994995
Si Si2 0.889748 0.820576 0.688246
Si Si3 0.922508 0.909351 0.196466
Si Si4 0.528615 0.223650 0.269040
Si Si5 0.764306 0.906773 0.514740
Si Si6 0.061465 0.661841 0.408646
Si Si7 0.020701 0.401188 0.928248
Si Si8 0.679661 0.626049 0.630087
O O1 0.984257 0.830219 0.889383
O O2 0.912623 0.671228 0.969214
O O3 0.750000 0.750000 0.000000
O O4 0.689586 0.795620 0.128371
O O5 0.893328 0.782656 0.740080
O O6 0.876935 0.738281 0.664170
O O7 0.727088 0.881449 0.784885
O O8 0.078516 0.864628 0.558275
O O9 0.719255 0.901498 0.314650
O O10 0.920808 0.904985 0.256318
O O11 0.996260 0.000000 0.133511
O O12 0.411493 0.149436 0.368427
O O13 0.386376 0.278579 0.332838
O O14 0.841689 0.910752 0.409352
O O15 0.725024 0.000000 0.557608
O O16 0.000000 0.698720 0.500000
O O17 0.886851 0.619341 0.502909
O O18 0.977745 0.500000 0.945043
O O19 0.000000 0.390356 0.000000
#
# Coordination Sequence:
#
# PCOD9189981 Si02
#       8
#     8   8   8   8   8   8   8   8
#     4  12  25  43  66  90 133 177 215 269 329 387
#     4  11  19  40  64  91 121 164 213 263 320 386
#     4  11  24  39  62  92 122 163 213 256 309 383
#     4  11  21  38  64  89 123 173 213 252 325 390
#     4  11  22  35  61  96 126 158 208 266 320 384
#     4  10  20  35  64  87 119 161 201 254 320 378
#     4  11  24  43  70  99 124 165 224 280 327 381
#     4  10  19  39  61  88 122 158 202 260 314 369
#
# _framework density 19.107533
#
# number of rings (size 3 to 8) (size 9 to 14) (size 15 to 20)
#    0.000    1.125    6.250    1.500    0.000    3.750 
#    0.000    0.000    0.000    1.875    0.000    0.000 
#    0.000    0.000    0.000    0.000    0.000    0.000 
#
# Total GULP energy -178310.546828 kJ/mol
# GULP energy per Si atom -5572.204588 kJ/mol
# Density = 1.906404 g / cm^3
# Si number density = 19.107533 Si / 1000 Ang^3
#
#
#
# Elastic Constant Matrix: (Units=GPa)
#
#
# Indices 1 2 3 4 5 6 
#
# 1 74.5433 38.3927 18.7090 -0.0041 -1.0019 -0.0059
# 2 38.3927 124.2715 39.2661 -0.0045 4.8595 -0.0128
# 3 18.7090 39.2661 90.3677 0.0332 2.5685 -0.0287
# 4 -0.0041 -0.0045 0.0332 -12.5569 -0.0278 8.9269
# 5 -1.0019 4.8595 2.5685 -0.0278 24.9498 -0.0012
# 6 -0.0059 -0.0128 -0.0287 8.9269 -0.0012 6.2737
#
#
#
# Elastic Compliance Matrix: (Units=1/GPa)
#
#
# Indices 1 2 3 4 5 6 
#
# 1 0.016167 -0.004623 -0.001386 -0.000006 0.001692 0.000008
# 2 -0.004623 0.010699 -0.003638 -0.000004 -0.001895 0.000006
# 3 -0.001386 -0.003638 0.012953 0.000036 -0.000681 -0.000002
# 4 -0.000006 -0.000004 0.000036 -0.039590 -0.000045 0.056332
# 5 0.001692 -0.001895 -0.000681 -0.000045 0.040588 0.000066
# 6 0.000008 0.000006 -0.000002 0.056332 0.000066 0.079240
#
#
# Mechanical properties :
#
#
# Convention : Reuss Voigt Hill
#
# Bulk Modulus (GPa) = 48.72279 53.54646 51.13462
# Shear Modulus (GPa) = 34.20178 16.58762 25.39470
#
# Velocity S-wave (km/s) = 4.23539 2.94958 3.64956
# Velocity P-wave (km/s) = 7.03368 6.29957 6.67672
#
# Compressibility (1/GPa) = 0.02052428
#
# Stress axis : x y z
#
# Youngs Moduli (GPa) = 61.85601 93.47063 77.20247
#
# Poissons Ratio (x) = 0.43208 0.10704
# Poissons Ratio (y) = 0.28594 0.28085
# Poissons Ratio (z) = 0.08576 0.34003
#
# Static dielectric constant tensor:
#      x y z
#    x 1.732550 0.000000 -0.004850 
#    y 0.000000 1.680000 -0.000010 
#    z -0.004850 -0.000010 1.673820 
# 
# From -- ./inp_files/381442.got.cif
#   From: 2010.05.17/outbox.cif.g08.bks.cpg/sg12_191_cif.got.tgz:381442.got - 2010.06.03 13:09:07.
