data_PCOD9189182
_publ_section_title
;
Structure prediction by ZEFSAII (Michael W. Deem and Ramdas Pophale) SiO2 
 PCOD9189182
Probable space group: C 2/M
;
_chemical_formula_sum "Si O2"
_cell_formula_units_Z 64
_cell_length_a 22.861203
_cell_length_b 19.699041
_cell_length_c 8.436237
_cell_angle_alpha 90.000000
_cell_angle_beta 127.638139
_cell_angle_gamma 90.000000
_cell_volume 3008.528525
_symmetry_space_group_name_H-M "C 2/M"
_symmetry_group_IT_number 12
_symmetry_cell_setting 'monoclinic'
loop_
_space_group_symop_operation_xyz
x,y,z
-x,y,-z
-x,-y,-z
x,-y,z
1/2+x,1/2+y,z
1/2-x,1/2+y,-z
1/2-x,1/2-y,-z
1/2+x,1/2-y,z
loop_
_atom_site_type_symbol
_atom_site_label
_atom_site_fract_x
_atom_site_fract_y
_atom_site_fract_z
Si Si1 0.048198 0.076239 0.419097
Si Si2 0.671147 0.664747 0.789062
Si Si3 0.495424 0.207525 0.678547
Si Si4 0.947920 0.578936 0.066740
Si Si5 0.926654 0.160527 0.062904
Si Si6 0.199494 0.848379 0.384507
Si Si7 0.824914 0.721351 0.422408
Si Si8 0.775938 0.577199 0.781527
O O1 0.111897 0.129490 0.569667
O O2 0.000000 0.071990 0.500000
O O3 0.991856 0.107056 0.199271
O O4 0.074552 0.000000 0.425596
O O5 0.633609 0.655402 0.895434
O O6 0.680466 0.743180 0.757864
O O7 0.746122 0.625679 0.871391
O O8 0.500000 0.228036 0.500000
O O9 0.531778 0.134724 0.769202
O O10 0.536080 0.265277 0.850857
O O11 0.409635 0.201044 0.583475
O O12 0.957543 0.500000 0.131524
O O13 0.861660 0.589223 0.884701
O O14 0.000000 0.590351 0.000000
O O15 0.879494 0.146253 0.829022
O O16 0.193140 0.782829 0.487407
O O17 0.263489 0.833844 0.360928
O O18 0.229035 0.907578 0.545906
O O19 0.766287 0.500000 0.816468
#
# Coordination Sequence:
#
# PCOD9189182 Si02
#       8
#     8   8   8   8   8   8   8   8
#     4   9  17  33  55  80 118 162 198 234 286 358
#     4  10  19  37  59  85 125 160 203 242 307 382
#     4  12  23  39  64  93 128 163 199 264 318 367
#     4  10  24  44  68  91 117 163 216 260 315 380
#     4  11  22  36  58  98 125 161 206 253 305 367
#     4  10  24  37  59  89 120 162 204 262 303 359
#     4  10  21  40  56  84 124 159 200 249 314 367
#     4  10  22  43  63  86 121 167 210 255 313 373
#
# _framework density 21.272857999999999
#
# number of rings (size 3 to 8) (size 9 to 14) (size 15 to 20)
#    0.000    1.750    2.500    1.500    7.000    2.750 
#    0.000    0.000    0.000    5.250    0.000    0.000 
#    0.000    0.000    0.000    0.000    0.000    0.000 
#
# Total GULP energy -178747.990403 kJ/mol
# GULP energy per Si atom -5585.874700 kJ/mol
# Density = 2.122444 g / cm^3
# Si number density = 21.272858 Si / 1000 Ang^3
#
#
#
# Elastic Constant Matrix: (Units=GPa)
#
#
# Indices 1 2 3 4 5 6 
#
# 1 104.7572 14.2029 10.0751 0.0000 18.1707 0.0000
# 2 14.2029 56.1474 19.6384 0.0000 7.7609 0.0000
# 3 10.0751 19.6384 59.8987 0.0000 16.1918 0.0000
# 4 0.0000 0.0000 0.0000 20.1122 0.0000 9.7007
# 5 18.1707 7.7609 16.1918 0.0000 23.3062 0.0000
# 6 0.0000 0.0000 0.0000 9.7007 0.0000 22.8426
#
#
#
# Elastic Compliance Matrix: (Units=1/GPa)
#
#
# Indices 1 2 3 4 5 6 
#
# 1 0.011254 -0.002028 0.001183 0.000000 -0.008921 0.000000
# 2 -0.002028 0.020612 -0.006142 0.000000 -0.001016 0.000000
# 3 0.001183 -0.006142 0.022416 0.000000 -0.014450 0.000000
# 4 0.000000 0.000000 0.000000 0.062529 0.000000 -0.026555
# 5 -0.008921 -0.001016 -0.014450 0.000000 0.060240 0.000000
# 6 0.000000 0.000000 0.000000 -0.026555 0.000000 0.055055
#
#
# Mechanical properties :
#
#
# Convention : Reuss Voigt Hill
#
# Bulk Modulus (GPa) = 24.80819 34.29289 29.55054
# Shear Modulus (GPa) = 19.26663 25.04464 22.15564
#
# Velocity S-wave (km/s) = 3.01273 3.43491 3.23073
# Velocity P-wave (km/s) = 4.87743 5.64685 5.27619
#
# Compressibility (1/GPa) = 0.04030927
#
# Stress axis : x y z
#
# Youngs Moduli (GPa) = 88.85377 48.51570 44.61131
#
# Poissons Ratio (x) = 0.09837 -0.05279
# Poissons Ratio (y) = 0.18016 0.27401
# Poissons Ratio (z) = -0.10515 0.29799
#
# Static dielectric constant tensor:
#      x y z
#    x 1.799650 0.000000 -0.006930 
#    y 0.000000 1.748520 0.000000 
#    z -0.006930 0.000000 1.778520 
# 
# From -- ./inp_files/99105.got.cif
#   From: 2010.05.17/outbox.cif.g08.bks.cpg/sg12_50_cif.got.tgz:99105.got - 2010.06.03 13:09:07.
