data_PCOD9189580
_publ_section_title
;
Structure prediction by ZEFSAII (Michael W. Deem and Ramdas Pophale) SiO2 
 PCOD9189580
Probable space group: C 2/M
;
_chemical_formula_sum "Si O2"
_cell_formula_units_Z 56
_cell_length_a 21.826895
_cell_length_b 30.114829
_cell_length_c 9.265583
_cell_angle_alpha 90.000000
_cell_angle_beta 27.469767
_cell_angle_gamma 90.000000
_cell_volume 2809.378219
_symmetry_space_group_name_H-M "C 2/M"
_symmetry_group_IT_number 12
_symmetry_cell_setting 'monoclinic'
loop_
_space_group_symop_operation_xyz
x,y,z
-x,y,-z
-x,-y,-z
x,-y,z
1/2+x,1/2+y,z
1/2-x,1/2+y,-z
1/2-x,1/2-y,-z
1/2+x,1/2-y,z
loop_
_atom_site_type_symbol
_atom_site_label
_atom_site_fract_x
_atom_site_fract_y
_atom_site_fract_z
Si Si1 0.451804 0.894898 0.939650
Si Si2 0.180331 0.334187 0.354687
Si Si3 0.645158 0.626312 0.256920
Si Si4 0.249589 0.181867 0.283138
Si Si5 0.878747 0.193514 0.171701
Si Si6 0.138056 0.448637 0.125065
Si Si7 0.974695 0.257552 0.714789
O O1 0.573412 0.873066 0.597127
O O2 0.396810 0.936644 0.967375
O O3 0.500000 0.903637 0.000000
O O4 0.340409 0.856519 0.163998
O O5 0.269535 0.332620 0.310652
O O6 0.098663 0.288938 0.498505
O O7 0.278714 0.344232 0.019698
O O8 0.500000 0.615019 0.500000
O O9 0.643839 0.656226 0.404542
O O10 0.742388 0.584245 0.080026
O O11 0.195929 0.211049 0.528065
O O12 0.345795 0.210480 0.980272
O O13 0.940439 0.226092 0.921987
O O14 0.000000 0.168657 0.000000
O O15 0.173725 0.500000 0.070309
O O16 0.000000 0.440328 0.500000
O O17 0.000000 0.239031 0.500000
#
# Coordination Sequence:
#
# PCOD9189580 Si02
#       7
#     8   8   8   8   8   8   8
#     4  10  19  37  68  91 120 169 206 253 307 370
#     4  11  23  42  62  88 119 163 222 260 314 382
#     4  11  22  41  69  93 128 171 207 253 315 379
#     4  10  22  40  60  89 118 158 223 262 311 379
#     4  12  27  39  58  84 119 159 211 277 330 374
#     4  10  21  38  67 104 134 160 202 253 303 373
#     4  11  25  41  62  81 118 165 211 279 328 376
#
# _framework density 19.933236999999998
#
# number of rings (size 3 to 8) (size 9 to 14) (size 15 to 20)
#    0.000    1.286    4.286    1.286    4.000    2.857 
#    0.000    0.000    0.000    0.000    0.000    1.000 
#    0.000    0.000    0.000    0.000    0.000    0.571 
#
# Total GULP energy -156274.944143 kJ/mol
# GULP energy per Si atom -5581.248005 kJ/mol
# Density = 1.988787 g / cm^3
# Si number density = 19.933237 Si / 1000 Ang^3
#
#
#
# Elastic Constant Matrix: (Units=GPa)
#
#
# Indices 1 2 3 4 5 6 
#
# 1 147.8194 45.4256 60.8237 -0.0026 -3.2802 0.0044
# 2 45.4256 72.6388 46.4291 0.0001 -2.4378 -0.0001
# 3 60.8237 46.4291 106.9834 -0.0034 11.5381 0.0059
# 4 -0.0026 0.0001 -0.0034 70.4938 0.0022 -85.1448
# 5 -3.2802 -2.4378 11.5381 0.0022 49.7575 -0.0038
# 6 0.0044 -0.0001 0.0059 -85.1448 -0.0038 170.6601
#
#
#
# Elastic Compliance Matrix: (Units=1/GPa)
#
#
# Indices 1 2 3 4 5 6 
#
# 1 0.009500 -0.003241 -0.004148 0.000000 0.001429 0.000000
# 2 -0.003241 0.020581 -0.007359 0.000000 0.002501 0.000000
# 3 -0.004148 -0.007359 0.015352 0.000000 -0.004194 0.000000
# 4 0.000000 0.000000 0.000000 0.035697 0.000000 0.017810
# 5 0.001429 0.002501 -0.004194 0.000000 0.021287 0.000000
# 6 0.000000 0.000000 0.000000 0.017810 0.000000 0.014745
#
#
# Mechanical properties :
#
#
# Convention : Reuss Voigt Hill
#
# Bulk Modulus (GPa) = 62.75278 70.31092 66.53185
# Shear Modulus (GPa) = 32.90115 69.83317 51.36716
#
# Velocity S-wave (km/s) = 4.06713 5.92533 5.08188
# Velocity P-wave (km/s) = 7.32155 9.06436 8.23917
#
# Compressibility (1/GPa) = 0.01593555
#
# Stress axis : x y z
#
# Youngs Moduli (GPa) = 105.26600 48.58777 65.13906
#
# Poissons Ratio (x) = 0.15748 0.27023
# Poissons Ratio (y) = 0.34119 0.47936
# Poissons Ratio (z) = 0.43669 0.35756
#
# Static dielectric constant tensor:
#      x y z
#    x 1.720520 0.000000 -0.011710 
#    y 0.000000 1.674790 0.000000 
#    z -0.011710 0.000000 1.775370 
# 
# From -- ./inp_files/91561.got.cif
#   From: 2010.05.17/outbox.cif.g08.bks.cpg/sg12_46_cif.got.tgz:91561.got - 2010.06.03 13:09:07.
