data_PCOD9189818
_publ_section_title
;
Structure prediction by ZEFSAII (Michael W. Deem and Ramdas Pophale) SiO2 
 PCOD9189818
Probable space group: C 2/M
;
_chemical_formula_sum "Si O2"
_cell_formula_units_Z 36
_cell_length_a 5.379650
_cell_length_b 25.607052
_cell_length_c 10.150563
_cell_angle_alpha 90.000000
_cell_angle_beta 90.392945
_cell_angle_gamma 90.000000
_cell_volume 1398.277992
_symmetry_space_group_name_H-M "C 2/M"
_symmetry_group_IT_number 12
_symmetry_cell_setting 'monoclinic'
loop_
_space_group_symop_operation_xyz
x,y,z
-x,y,-z
-x,-y,-z
x,-y,z
1/2+x,1/2+y,z
1/2-x,1/2+y,-z
1/2-x,1/2-y,-z
1/2+x,1/2-y,z
loop_
_atom_site_type_symbol
_atom_site_label
_atom_site_fract_x
_atom_site_fract_y
_atom_site_fract_z
Si Si1 0.675868 0.500000 0.127503
Si Si2 0.829467 0.114464 0.870848
Si Si3 0.187570 0.109999 0.622054
Si Si4 0.651179 0.778592 0.781005
Si Si5 0.312173 0.500000 0.376519
Si Si6 0.500000 0.799809 0.500000
O O1 0.801589 0.557198 0.126179
O O2 0.493753 0.500000 0.251926
O O3 0.500000 0.500000 0.000000
O O4 0.651316 0.162806 0.838464
O O5 0.023994 0.115190 0.750931
O O6 0.000000 0.121165 0.000000
O O7 0.332584 0.054683 0.626360
O O8 0.341153 0.160833 0.590547
O O9 0.000000 0.106006 0.500000
O O10 0.407507 0.748146 0.825345
O O11 0.661170 0.774650 0.618816
O O12 0.500000 0.500000 0.500000
#
# Coordination Sequence:
#
# PCOD9189818 Si02
#       6
#     4   8   8   8   4   4
#     4   8  16  34  66 100 137 182 227 277 347 424
#     4  10  21  42  71 105 142 184 232 290 353 423
#     4  10  19  38  63  96 136 177 229 280 347 413
#     4  12  27  46  72 103 142 191 239 298 356 424
#     4   8  16  29  56  93 133 173 216 280 340 410
#     4  12  24  41  68  98 134 181 240 294 354 416
#
# _framework density 25.745951999999999
#
# number of rings (size 3 to 8) (size 9 to 14) (size 15 to 20)
#    0.000    1.778    2.222    2.000    0.000    1.333 
#    0.000    4.444    0.000    1.333    0.000   23.333 
#    0.000    0.000    0.000    0.000    0.000    0.000 
#
# Total GULP energy -100726.418656 kJ/mol
# GULP energy per Si atom -5595.912148 kJ/mol
# Density = 2.568735 g / cm^3
# Si number density = 25.745952 Si / 1000 Ang^3
#
#
#
# Elastic Constant Matrix: (Units=GPa)
#
#
# Indices 1 2 3 4 5 6 
#
# 1 69.5403 37.8727 23.4788 0.0000 3.6415 0.0000
# 2 37.8727 203.4709 14.3877 0.0000 20.9030 0.0000
# 3 23.4788 14.3877 177.9026 0.0000 3.4887 0.0000
# 4 0.0000 0.0000 0.0000 28.8334 0.0000 -7.7575
# 5 3.6415 20.9030 3.4887 0.0000 37.8685 0.0000
# 6 0.0000 0.0000 0.0000 -7.7575 0.0000 -23.2462
#
#
#
# Elastic Compliance Matrix: (Units=1/GPa)
#
#
# Indices 1 2 3 4 5 6 
#
# 1 0.016656 -0.002985 -0.001961 0.000000 0.000227 0.000000
# 2 -0.002985 0.005769 -0.000016 0.000000 -0.002896 0.000000
# 3 -0.001961 -0.000016 0.005888 0.000000 -0.000345 0.000000
# 4 0.000000 0.000000 0.000000 0.031825 0.000000 -0.010620
# 5 0.000227 -0.002896 -0.000345 0.000000 0.028016 0.000000
# 6 0.000000 0.000000 0.000000 -0.010620 0.000000 -0.039474
#
#
# Mechanical properties :
#
#
# Convention : Reuss Voigt Hill
#
# Bulk Modulus (GPa) = 54.38019 66.93247 60.65633
# Shear Modulus (GPa) = 77.24026 33.70279 55.47152
#
# Velocity S-wave (km/s) = 5.48325 3.62201 4.64677
# Velocity P-wave (km/s) = 7.82661 6.59891 7.23883
#
# Compressibility (1/GPa) = 0.01838905
#
# Stress axis : x y z
#
# Youngs Moduli (GPa) = 60.03825 173.34300 169.83882
#
# Poissons Ratio (x) = 0.51740 0.33309
# Poissons Ratio (y) = 0.17920 0.00269
# Poissons Ratio (z) = 0.11775 0.00275
#
# Static dielectric constant tensor:
#      x y z
#    x 2.022240 0.000000 0.057380 
#    y 0.000000 2.177890 0.000000 
#    z 0.057380 0.000000 1.993560 
# 
# From -- ./inp_files/115594.got.cif
#   From: 2010.05.17/outbox.cif.g08.bks.cpg/sg12_58_cif.got.tgz:115594.got - 2010.06.03 13:09:07.
