data_PCOD9189803
_publ_section_title
;
Structure prediction by ZEFSAII (Michael W. Deem and Ramdas Pophale) SiO2 
 PCOD9189803
Probable space group: C 2/M
;
_chemical_formula_sum "Si O2"
_cell_formula_units_Z 56
_cell_length_a 11.018620
_cell_length_b 15.442291
_cell_length_c 16.767680
_cell_angle_alpha 90.000000
_cell_angle_beta 74.363831
_cell_angle_gamma 90.000000
_cell_volume 2747.482099
_symmetry_space_group_name_H-M "C 2/M"
_symmetry_group_IT_number 12
_symmetry_cell_setting 'monoclinic'
loop_
_space_group_symop_operation_xyz
x,y,z
-x,y,-z
-x,-y,-z
x,-y,z
1/2+x,1/2+y,z
1/2-x,1/2+y,-z
1/2-x,1/2-y,-z
1/2+x,1/2-y,z
loop_
_atom_site_type_symbol
_atom_site_label
_atom_site_fract_x
_atom_site_fract_y
_atom_site_fract_z
Si Si1 0.547157 0.405018 0.178100
Si Si2 0.160912 0.906859 0.669616
Si Si3 0.663813 0.226384 0.589691
Si Si4 0.718469 0.674482 0.269428
Si Si5 0.417969 0.853435 0.681305
Si Si6 0.396094 0.753666 0.948649
Si Si7 0.522996 0.099451 0.830194
O O1 0.574071 0.500000 0.138952
O O2 0.402479 0.401115 0.231844
O O3 0.622914 0.393772 0.248053
O O4 0.582136 0.325535 0.116366
O O5 0.123046 0.819821 0.631724
O O6 0.310594 0.902357 0.652714
O O7 0.124264 0.000000 0.641139
O O8 0.750000 0.250000 0.500000
O O9 0.743790 0.176175 0.643931
O O10 0.534262 0.174124 0.604590
O O11 0.651895 0.767400 0.272059
O O12 0.848104 0.655635 0.199235
O O13 0.470628 0.901247 0.749279
O O14 0.428848 0.845550 0.901555
O O15 0.500000 0.743222 0.000000
O O16 0.250000 0.750000 0.000000
O O17 0.544740 0.000000 0.852231
#
# Coordination Sequence:
#
# PCOD9189803 Si02
#       7
#     8   8   8   8   8   8   8
#     4  11  22  42  67  91 123 167 220 269 315 384
#     4  10  21  37  61  90 119 159 213 262 302 363
#     4  10  21  37  61  90 130 170 203 256 325 384
#     4  10  19  38  65  91 122 164 219 256 311 370
#     4  10  19  38  63  89 119 166 215 250 308 371
#     4  12  27  43  65  95 137 172 209 270 339 403
#     4  11  23  40  66  94 124 165 213 263 315 386
#
# _framework density 20.382297999999999
#
# number of rings (size 3 to 8) (size 9 to 14) (size 15 to 20)
#    0.000    1.429    2.857    3.429    2.000    3.429 
#    0.000    5.000    0.000    1.714    0.000    0.000 
#    0.000    0.000    0.000    0.000    0.000    0.000 
#
# Total GULP energy -156145.896246 kJ/mol
# GULP energy per Si atom -5576.639152 kJ/mol
# Density = 2.033591 g / cm^3
# Si number density = 20.382298 Si / 1000 Ang^3
#
#
#
# Elastic Constant Matrix: (Units=GPa)
#
#
# Indices 1 2 3 4 5 6 
#
# 1 92.5983 12.3549 40.6737 0.0000 -23.8632 0.0000
# 2 12.3549 111.6513 45.3542 0.0000 -14.7709 0.0000
# 3 40.6737 45.3542 105.1545 0.0000 -26.1305 0.0000
# 4 0.0000 0.0000 0.0000 9.8681 0.0000 -3.4544
# 5 -23.8632 -14.7709 -26.1305 0.0000 27.2272 0.0000
# 6 0.0000 0.0000 0.0000 -3.4544 0.0000 12.2098
#
#
#
# Elastic Compliance Matrix: (Units=1/GPa)
#
#
# Indices 1 2 3 4 5 6 
#
# 1 0.014898 0.001223 -0.003783 0.000000 0.010091 0.000000
# 2 0.001223 0.011030 -0.004566 0.000000 0.002673 0.000000
# 3 -0.003783 -0.004566 0.015105 0.000000 0.008705 0.000000
# 4 0.000000 0.000000 0.000000 0.112477 0.000000 0.031822
# 5 0.010091 0.002673 0.008705 0.000000 0.055376 0.000000
# 6 0.000000 0.000000 0.000000 0.031822 0.000000 0.090905
#
#
# Mechanical properties :
#
#
# Convention : Reuss Voigt Hill
#
# Bulk Modulus (GPa) = 37.33868 56.24110 46.78989
# Shear Modulus (GPa) = 15.48138 23.92910 19.70524
#
# Velocity S-wave (km/s) = 2.75898 3.43011 3.11269
# Velocity P-wave (km/s) = 5.33931 6.58335 5.99370
#
# Compressibility (1/GPa) = 0.02678188
#
# Stress axis : x y z
#
# Youngs Moduli (GPa) = 67.12288 90.66577 66.20218
#
# Poissons Ratio (x) = -0.11087 0.25041
# Poissons Ratio (y) = -0.08208 0.30227
# Poissons Ratio (z) = 0.25390 0.41396
#
# Static dielectric constant tensor:
#      x y z
#    x 1.782490 0.000000 -0.008670 
#    y 0.000000 1.758570 0.000000 
#    z -0.008670 0.000000 1.728630 
# 
# From -- ./inp_files/263225.got.cif
#   From: 2010.05.17/outbox.cif.g08.bks.cpg/sg12_132_cif.got.tgz:263225.got - 2010.06.03 13:09:07.
