data_PCOD9189665
_publ_section_title
;
Structure prediction by ZEFSAII (Michael W. Deem and Ramdas Pophale) SiO2 
 PCOD9189665
Probable space group: C 2/M
;
_chemical_formula_sum "Si O2"
_cell_formula_units_Z 52
_cell_length_a 9.175456
_cell_length_b 24.523703
_cell_length_c 21.609060
_cell_angle_alpha 90.000000
_cell_angle_beta 148.626606
_cell_angle_gamma 90.000000
_cell_volume 2531.423289
_symmetry_space_group_name_H-M "C 2/M"
_symmetry_group_IT_number 12
_symmetry_cell_setting 'monoclinic'
loop_
_space_group_symop_operation_xyz
x,y,z
-x,y,-z
-x,-y,-z
x,-y,z
1/2+x,1/2+y,z
1/2-x,1/2+y,-z
1/2-x,1/2-y,-z
1/2+x,1/2-y,z
loop_
_atom_site_type_symbol
_atom_site_label
_atom_site_fract_x
_atom_site_fract_y
_atom_site_fract_z
Si Si1 0.012547 0.121154 0.669103
Si Si2 0.779491 0.305664 0.254892
Si Si3 0.667553 0.000000 0.364588
Si Si4 0.671477 0.500000 0.391699
Si Si5 0.400479 0.500000 0.775321
Si Si6 0.728014 0.273486 0.376325
Si Si7 0.220329 0.383820 0.356787
Si Si8 0.330476 0.385774 0.127604
O O1 0.225385 0.138620 0.692122
O O2 0.108029 0.118884 0.775713
O O3 0.906766 0.060288 0.610669
O O4 0.793393 0.170715 0.592035
O O5 0.797411 0.286436 0.331462
O O6 0.476488 0.335251 0.144051
O O7 0.925713 0.256094 0.270464
O O8 0.991429 0.353437 0.313922
O O9 0.615831 0.054772 0.309244
O O10 0.000000 0.000000 0.500000
O O11 0.435890 0.000000 0.335129
O O12 0.537853 0.500000 0.275262
O O13 0.000000 0.500000 0.500000
O O14 0.534967 0.443189 0.846596
O O15 0.000000 0.240949 0.500000
O O16 0.500000 0.384861 0.500000
O O17 0.000000 0.386300 0.000000
#
# Coordination Sequence:
#
# PCOD9189665 Si02
#       8
#     8   8   4   4   4   8   8   8
#     4  10  22  37  56  87 118 157 198 237 284 353
#     4  11  22  37  58  84 114 153 198 239 294 350
#     4  10  21  31  55  87 130 156 183 224 297 357
#     4  10  21  31  57  84 124 154 190 229 291 354
#     4  10  19  38  59  90 116 157 195 241 288 357
#     4  11  21  36  57  86 122 153 190 235 297 364
#     4  11  21  34  56  85 125 157 183 227 293 361
#     4  10  22  42  64  83 111 155 207 255 292 326
#
# _framework density 20.541803000000002
#
# number of rings (size 3 to 8) (size 9 to 14) (size 15 to 20)
#    0.000    1.538    1.538    3.923    4.308    0.000 
#    0.000    3.846    0.000    0.923    0.000    0.000 
#    0.000    0.000    0.000    0.000    0.000    0.000 
#
# Total GULP energy -144738.032926 kJ/mol
# GULP energy per Si atom -5566.847420 kJ/mol
# Density = 2.049505 g / cm^3
# Si number density = 20.541803 Si / 1000 Ang^3
#
#
#
# Elastic Constant Matrix: (Units=GPa)
#
#
# Indices 1 2 3 4 5 6 
#
# 1 124.5781 32.2147 17.6721 -0.0007 27.4254 -0.0007
# 2 32.2147 106.8790 26.9358 0.0014 15.7609 0.0013
# 3 17.6721 26.9358 72.4444 0.0007 29.7078 0.0025
# 4 -0.0007 0.0014 0.0007 13.1218 -0.0016 10.2941
# 5 27.4254 15.7609 29.7078 -0.0016 26.7075 -0.0008
# 6 -0.0007 0.0013 0.0025 10.2941 -0.0008 28.3996
#
#
#
# Elastic Compliance Matrix: (Units=1/GPa)
#
#
# Indices 1 2 3 4 5 6 
#
# 1 0.011311 -0.002265 0.004225 -0.000001 -0.014978 0.000000
# 2 -0.002265 0.010943 -0.003350 -0.000001 -0.000405 0.000000
# 3 0.004225 -0.003350 0.027557 -0.000003 -0.033015 -0.000002
# 4 -0.000001 -0.000001 -0.000003 0.106491 0.000011 -0.038600
# 5 -0.014978 -0.000405 -0.033015 0.000011 0.089787 0.000001
# 6 0.000000 0.000000 -0.000002 -0.038600 0.000001 0.049203
#
#
# Mechanical properties :
#
#
# Convention : Reuss Voigt Hill
#
# Bulk Modulus (GPa) = 21.26250 50.83852 36.05051
# Shear Modulus (GPa) = 15.93628 28.78436 22.36032
#
# Velocity S-wave (km/s) = 2.78834 3.74740 3.30286
# Velocity P-wave (km/s) = 4.55409 6.59746 5.66861
#
# Compressibility (1/GPa) = 0.04703116
#
# Stress axis : x y z
#
# Youngs Moduli (GPa) = 88.41057 91.38070 36.28802
#
# Poissons Ratio (x) = 0.20701 -0.15333
# Poissons Ratio (y) = 0.20028 0.12157
# Poissons Ratio (z) = -0.37356 0.30613
#
# Static dielectric constant tensor:
#      x y z
#    x 1.759430 0.000000 0.023820 
#    y 0.000000 1.850050 0.000000 
#    z 0.023820 0.000000 1.706360 
# 
# From -- ./inp_files/123678.got.cif
#   From: 2010.05.17/outbox.cif.g08.bks.cpg/sg12_62_cif.got.tgz:123678.got - 2010.06.03 13:09:07.
