data_PCOD9189907
_publ_section_title
;
Structure prediction by ZEFSAII (Michael W. Deem and Ramdas Pophale) SiO2 
 PCOD9189907
Probable space group: C 2/M
;
_chemical_formula_sum "Si O2"
_cell_formula_units_Z 48
_cell_length_a 24.985858
_cell_length_b 14.493632
_cell_length_c 9.964509
_cell_angle_alpha 90.000000
_cell_angle_beta 29.321361
_cell_angle_gamma 90.000000
_cell_volume 1767.112482
_symmetry_space_group_name_H-M "C 2/M"
_symmetry_group_IT_number 12
_symmetry_cell_setting 'monoclinic'
loop_
_space_group_symop_operation_xyz
x,y,z
-x,y,-z
-x,-y,-z
x,-y,z
1/2+x,1/2+y,z
1/2-x,1/2+y,-z
1/2-x,1/2-y,-z
1/2+x,1/2-y,z
loop_
_atom_site_type_symbol
_atom_site_label
_atom_site_fract_x
_atom_site_fract_y
_atom_site_fract_z
Si Si1 0.438220 0.393596 0.432345
Si Si2 0.953769 0.717816 0.923687
Si Si3 0.114241 0.393865 0.171059
Si Si4 0.284429 0.388259 0.005465
Si Si5 0.677058 0.107344 0.508791
Si Si6 0.631069 0.364013 0.701396
O O1 0.480350 0.500000 0.334254
O O2 0.515714 0.309229 0.227202
O O3 0.391200 0.377724 0.682636
O O4 0.353973 0.381564 0.490001
O O5 0.061104 0.659195 0.731863
O O6 0.891227 0.653636 0.958942
O O7 0.885196 0.762313 0.196158
O O8 0.146398 0.500000 0.081569
O O9 0.000000 0.392601 0.500000
O O10 0.194764 0.348269 0.100650
O O11 0.271944 0.500000 0.042685
O O12 0.255233 0.356508 0.217306
O O13 0.763254 0.103664 0.446267
O O14 0.645504 0.000000 0.560785
O O15 0.500000 0.397995 0.000000
#
# Coordination Sequence:
#
# PCOD9189907 Si02
#       6
#     8   8   8   8   8   8
#     4  10  23  45  68  94 135 189 240 288 352 423
#     4  11  24  39  68 105 137 180 239 293 349 422
#     4  10  19  38  67 101 146 186 223 282 365 434
#     4   9  20  40  69 101 134 180 234 288 352 424
#     4  11  23  44  74 107 142 181 234 301 363 425
#     4  10  25  46  69  98 137 192 238 288 352 424
#
# _framework density 27.162953999999999
#
# number of rings (size 3 to 8) (size 9 to 14) (size 15 to 20)
#    0.000    1.833    1.667    1.000    2.333   10.667 
#    3.000    2.500    0.000   21.500    0.000    0.000 
#    0.000    0.000    0.000    0.000    0.000    0.000 
#
# Total GULP energy -133904.960154 kJ/mol
# GULP energy per Si atom -5579.373340 kJ/mol
# Density = 2.710113 g / cm^3
# Si number density = 27.162954 Si / 1000 Ang^3
#
#
#
# Elastic Constant Matrix: (Units=GPa)
#
#
# Indices 1 2 3 4 5 6 
#
# 1 140.8182 31.9088 44.8714 0.0000 -11.9741 0.0000
# 2 31.9088 112.4035 33.0231 0.0000 -15.0697 0.0000
# 3 44.8714 33.0231 87.8337 0.0000 -24.9688 0.0000
# 4 0.0000 0.0000 0.0000 -31.9591 0.0000 36.9027
# 5 -11.9741 -15.0697 -24.9688 0.0000 43.0390 0.0000
# 6 0.0000 0.0000 0.0000 36.9027 0.0000 -12.1595
#
#
#
# Elastic Compliance Matrix: (Units=1/GPa)
#
#
# Indices 1 2 3 4 5 6 
#
# 1 0.008654 -0.001324 -0.004036 0.000000 -0.000398 0.000000
# 2 -0.001324 0.010295 -0.002723 0.000000 0.001656 0.000000
# 3 -0.004036 -0.002723 0.016622 0.000000 0.007567 0.000000
# 4 0.000000 0.000000 0.000000 0.012494 0.000000 0.037919
# 5 -0.000398 0.001656 0.007567 0.000000 0.028094 0.000000
# 6 0.000000 0.000000 0.000000 0.037919 0.000000 0.032839
#
#
# Mechanical properties :
#
#
# Convention : Reuss Voigt Hill
#
# Bulk Modulus (GPa) = 51.53738 62.29577 56.91657
# Shear Modulus (GPa) = 37.98474 15.20090 26.59282
#
# Velocity S-wave (km/s) = 3.74358 2.36819 3.13231
# Velocity P-wave (km/s) = 6.14007 5.51921 5.83790
#
# Compressibility (1/GPa) = 0.01940339
#
# Stress axis : x y z
#
# Youngs Moduli (GPa) = 115.55785 97.13925 60.16165
#
# Poissons Ratio (x) = 0.12862 0.24282
# Poissons Ratio (y) = 0.15301 0.16383
# Poissons Ratio (z) = 0.46640 0.26453
#
# Static dielectric constant tensor:
#      x y z
#    x 2.139550 0.000000 0.018560 
#    y 0.000000 2.148800 0.000000 
#    z 0.018560 0.000000 2.227140 
# 
# From -- ./inp_files/183678.got.cif
#   From: 2010.05.17/outbox.cif.g08.bks.cpg/sg12_92_cif.got.tgz:183678.got - 2010.06.03 13:09:07.
