data_PCOD9189714
_publ_section_title
;
Structure prediction by ZEFSAII (Michael W. Deem and Ramdas Pophale) SiO2 
 PCOD9189714
Probable space group: C 2/M
;
_chemical_formula_sum "Si O2"
_cell_formula_units_Z 56
_cell_length_a 9.023161
_cell_length_b 30.760694
_cell_length_c 10.672001
_cell_angle_alpha 90.000000
_cell_angle_beta 110.060356
_cell_angle_gamma 90.000000
_cell_volume 2782.401020
_symmetry_space_group_name_H-M "C 2/M"
_symmetry_group_IT_number 12
_symmetry_cell_setting 'monoclinic'
loop_
_space_group_symop_operation_xyz
x,y,z
-x,y,-z
-x,-y,-z
x,-y,z
1/2+x,1/2+y,z
1/2-x,1/2+y,-z
1/2-x,1/2-y,-z
1/2+x,1/2-y,z
loop_
_atom_site_type_symbol
_atom_site_label
_atom_site_fract_x
_atom_site_fract_y
_atom_site_fract_z
Si Si1 0.426517 0.808594 0.357402
Si Si2 0.829816 0.548157 0.002641
Si Si3 0.163904 0.126325 0.352874
Si Si4 0.850440 0.293009 0.048796
Si Si5 0.613802 0.049343 0.687439
Si Si6 0.682914 0.371764 0.858601
Si Si7 0.664084 0.886305 0.363383
O O1 0.500000 0.783251 0.500000
O O2 0.261211 0.830197 0.347527
O O3 0.404027 0.791298 0.210043
O O4 0.547706 0.848322 0.374121
O O5 0.800267 0.500000 0.941616
O O6 0.846814 0.546147 0.155064
O O7 0.697333 0.582176 0.930695
O O8 0.000000 0.563014 0.000000
O O9 0.262572 0.084783 0.328937
O O10 0.181033 0.118182 0.506416
O O11 0.992989 0.132701 0.244571
O O12 0.750000 0.250000 0.000000
O O13 0.746909 0.334765 0.972270
O O14 0.000000 0.293071 0.000000
O O15 0.437050 0.070236 0.634904
O O16 0.623180 0.000000 0.638925
O O17 0.794698 0.377320 0.768576
#
# Coordination Sequence:
#
# PCOD9189714 Si02
#       7
#     8   8   8   8   8   8   8
#     4   9  20  43  67  90 125 165 208 257 312 379
#     4  10  20  35  59  87 114 155 213 263 312 380
#     4  10  23  35  58  93 126 162 210 263 325 383
#     4  12  27  45  70 100 129 167 217 266 318 396
#     4  10  20  36  58  85 122 169 219 270 320 380
#     4  12  22  39  65  91 129 165 209 269 332 369
#     4  10  19  38  61  87 119 170 219 255 312 392
#
# _framework density 20.126504000000001
#
# number of rings (size 3 to 8) (size 9 to 14) (size 15 to 20)
#    0.000    1.571    2.857    3.857    2.000    3.429 
#    0.000    3.571    0.000    2.571    0.000    0.000 
#    0.000    0.000    0.000    0.000    0.000    0.000 
#
# Total GULP energy -156090.767374 kJ/mol
# GULP energy per Si atom -5574.670263 kJ/mol
# Density = 2.008070 g / cm^3
# Si number density = 20.126504 Si / 1000 Ang^3
#
#
#
# Elastic Constant Matrix: (Units=GPa)
#
#
# Indices 1 2 3 4 5 6 
#
# 1 51.1014 22.0795 29.8890 0.0000 15.8955 0.0000
# 2 22.0795 45.7247 46.1395 0.0000 11.2446 0.0000
# 3 29.8890 46.1395 150.9530 0.0000 3.7265 0.0000
# 4 0.0000 0.0000 0.0000 6.5925 0.0000 -4.0018
# 5 15.8955 11.2446 3.7265 0.0000 40.4514 0.0000
# 6 0.0000 0.0000 0.0000 -4.0018 0.0000 9.4871
#
#
#
# Elastic Compliance Matrix: (Units=1/GPa)
#
#
# Indices 1 2 3 4 5 6 
#
# 1 0.027312 -0.008589 -0.002583 0.000000 -0.008107 0.000000
# 2 -0.008589 0.037075 -0.009482 0.000000 -0.006058 0.000000
# 3 -0.002583 -0.009482 0.009967 0.000000 0.002732 0.000000
# 4 0.000000 0.000000 0.000000 0.203894 0.000000 0.086005
# 5 -0.008107 -0.006058 0.002732 0.000000 0.029339 0.000000
# 6 0.000000 0.000000 0.000000 0.086005 0.000000 0.141684
#
#
# Mechanical properties :
#
#
# Convention : Reuss Voigt Hill
#
# Bulk Modulus (GPa) = 30.25978 49.33278 39.79628
# Shear Modulus (GPa) = 9.96824 21.28431 15.62628
#
# Velocity S-wave (km/s) = 2.22790 3.25549 2.78942
# Velocity P-wave (km/s) = 4.65677 6.22057 5.49459
#
# Compressibility (1/GPa) = 0.03304717
#
# Stress axis : x y z
#
# Youngs Moduli (GPa) = 36.61373 26.97235 100.33433
#
# Poissons Ratio (x) = 0.23166 0.25911
# Poissons Ratio (y) = 0.31447 0.95137
# Poissons Ratio (z) = 0.09456 0.25575
#
# Static dielectric constant tensor:
#      x y z
#    x 1.724580 0.000000 -0.022100 
#    y 0.000000 1.717320 0.000000 
#    z -0.022100 0.000000 1.786780 
# 
# From -- ./inp_files/125808.got.cif
#   From: 2010.05.17/outbox.cif.g08.bks.cpg/sg12_63_cif.got.tgz:125808.got - 2010.06.03 13:09:07.
