data_PCOD9189770
_publ_section_title
;
Structure prediction by ZEFSAII (Michael W. Deem and Ramdas Pophale) SiO2 
 PCOD9189770
Probable space group: C 2/M
;
_chemical_formula_sum "Si O2"
_cell_formula_units_Z 52
_cell_length_a 17.575641
_cell_length_b 13.940936
_cell_length_c 18.673695
_cell_angle_alpha 90.000000
_cell_angle_beta 143.741265
_cell_angle_gamma 90.000000
_cell_volume 2706.067453
_symmetry_space_group_name_H-M "C 2/M"
_symmetry_group_IT_number 12
_symmetry_cell_setting 'monoclinic'
loop_
_space_group_symop_operation_xyz
x,y,z
-x,y,-z
-x,-y,-z
x,-y,z
1/2+x,1/2+y,z
1/2-x,1/2+y,-z
1/2-x,1/2-y,-z
1/2+x,1/2-y,z
loop_
_atom_site_type_symbol
_atom_site_label
_atom_site_fract_x
_atom_site_fract_y
_atom_site_fract_z
Si Si1 0.500000 0.181373 0.000000
Si Si2 0.221687 0.639616 0.960446
Si Si3 0.654213 0.112469 0.619765
Si Si4 0.182810 0.784874 0.376574
Si Si5 0.735000 0.779998 0.824009
Si Si6 0.425873 0.606906 0.230276
Si Si7 0.436200 0.105763 0.799506
O O1 0.618024 0.244708 0.061258
O O2 0.556143 0.122231 0.109333
O O3 0.217850 0.638996 0.872017
O O4 0.083933 0.609204 0.885224
O O5 0.250000 0.750000 0.000000
O O6 0.336449 0.594888 0.092320
O O7 0.500000 0.120860 0.500000
O O8 0.720393 0.153955 0.598806
O O9 0.703774 0.174987 0.724020
O O10 0.686709 0.000000 0.652995
O O11 0.250000 0.750000 0.500000
O O12 0.135547 0.692775 0.294527
O O13 0.059914 0.848339 0.305957
O O14 0.645336 0.687471 0.774721
O O15 0.439504 0.500000 0.273220
O O16 0.382267 0.000000 0.742629
#
# Coordination Sequence:
#
# PCOD9189770 Si02
#       7
#     4   8   8   8   8   8   8
#     4  12  21  40  65  96 142 168 207 262 339 386
#     4  10  19  38  62  95 130 166 206 260 319 382
#     4  11  26  46  67  92 123 169 218 266 327 384
#     4  12  25  47  68  90 129 169 220 275 319 383
#     4  11  22  40  64  95 134 169 208 264 318 389
#     4  11  22  40  66  95 126 169 215 261 321 379
#     4  12  24  40  68 100 131 171 216 267 329 394
#
# _framework density 19.216076999999999
#
# number of rings (size 3 to 8) (size 9 to 14) (size 15 to 20)
#    0.000    0.769    7.692    2.077    0.000    3.077 
#    0.000    0.385    0.000    1.846    0.000    0.000 
#    0.000    0.000    0.000    0.000    0.000    0.000 
#
# Total GULP energy -145133.212685 kJ/mol
# GULP energy per Si atom -5582.046642 kJ/mol
# Density = 1.917234 g / cm^3
# Si number density = 19.216077 Si / 1000 Ang^3
#
#
#
# Elastic Constant Matrix: (Units=GPa)
#
#
# Indices 1 2 3 4 5 6 
#
# 1 123.3758 42.7814 36.8469 0.0000 0.5623 0.0000
# 2 42.7814 142.0534 47.0314 0.0000 1.1571 0.0000
# 3 36.8469 47.0314 77.6356 0.0000 -3.9948 0.0000
# 4 0.0000 0.0000 0.0000 -7.9798 0.0000 -21.0125
# 5 0.5623 1.1571 -3.9948 0.0000 40.8853 0.0000
# 6 0.0000 0.0000 0.0000 -21.0125 0.0000 2.9275
#
#
#
# Elastic Compliance Matrix: (Units=1/GPa)
#
#
# Indices 1 2 3 4 5 6 
#
# 1 0.009792 -0.001750 -0.003610 0.000000 -0.000438 0.000000
# 2 -0.001750 0.009143 -0.004744 0.000000 -0.000698 0.000000
# 3 -0.003610 -0.004744 0.017566 0.000000 0.001900 0.000000
# 4 0.000000 0.000000 0.000000 -0.006297 0.000000 -0.045199
# 5 -0.000438 -0.000698 0.001900 0.000000 0.024670 0.000000
# 6 0.000000 0.000000 0.000000 -0.045199 0.000000 0.017165
#
#
# Mechanical properties :
#
#
# Convention : Reuss Voigt Hill
#
# Bulk Modulus (GPa) = 61.37700 66.26491 63.82096
# Shear Modulus (GPa) = 51.18850 21.59361 36.39105
#
# Velocity S-wave (km/s) = 5.16684 3.35584 4.35648
# Velocity P-wave (km/s) = 8.22221 7.04092 7.65439
#
# Compressibility (1/GPa) = 0.01629275
#
# Stress axis : x y z
#
# Youngs Moduli (GPa) = 102.12058 109.37178 56.92948
#
# Poissons Ratio (x) = 0.19145 0.20550
# Poissons Ratio (y) = 0.17875 0.27008
# Poissons Ratio (z) = 0.36862 0.51886
#
# Static dielectric constant tensor:
#      x y z
#    x 1.681140 0.000000 -0.025050 
#    y 0.000000 1.705570 0.000000 
#    z -0.025050 0.000000 1.651660 
# 
# From -- ./inp_files/270741.got.cif
#   From: 2010.05.17/outbox.cif.g08.bks.cpg/sg12_136_cif.got.tgz:270741.got - 2010.06.03 13:09:07.
