data_PCOD9189827
_publ_section_title
;
Structure prediction by ZEFSAII (Michael W. Deem and Ramdas Pophale) SiO2 
 PCOD9189827
Probable space group: C 2/M
;
_chemical_formula_sum "Si O2"
_cell_formula_units_Z 42
_cell_length_a 30.515074
_cell_length_b 7.725166
_cell_length_c 9.094957
_cell_angle_alpha 90.000000
_cell_angle_beta 67.218513
_cell_angle_gamma 90.000000
_cell_volume 1976.734376
_symmetry_space_group_name_H-M "C 2/M"
_symmetry_group_IT_number 12
_symmetry_cell_setting 'monoclinic'
loop_
_space_group_symop_operation_xyz
x,y,z
-x,y,-z
-x,-y,-z
x,-y,z
1/2+x,1/2+y,z
1/2-x,1/2+y,-z
1/2-x,1/2-y,-z
1/2+x,1/2-y,z
loop_
_atom_site_type_symbol
_atom_site_label
_atom_site_fract_x
_atom_site_fract_y
_atom_site_fract_z
Si Si1 0.238806 0.793871 0.847746
Si Si2 0.500000 0.500000 0.500000
Si Si3 0.333406 0.296799 0.556803
Si Si4 0.065999 0.298235 0.492135
Si Si5 0.545248 0.794870 0.855483
Si Si6 0.351820 0.291105 0.201947
O O1 0.281911 0.728172 0.691994
O O2 0.187361 0.727759 0.861965
O O3 0.238079 0.000000 0.832442
O O4 0.250000 0.750000 0.000000
O O5 0.540369 0.656165 0.425994
O O6 0.344439 0.500000 0.540443
O O7 0.376778 0.210370 0.587877
O O8 0.335289 0.233382 0.386207
O O9 0.052233 0.500000 0.489118
O O10 0.052571 0.235062 0.677331
O O11 0.593747 0.765301 0.881581
O O12 0.538335 0.000000 0.849976
O O13 0.500000 0.720445 0.000000
O O14 0.352106 0.500000 0.198539
#
# Coordination Sequence:
#
# PCOD9189827 Si02
#       6
#     8   2   8   8   8   8
#     4  11  23  39  56  86 123 158 195 247 309 367
#     4  12  22  40  58  90 124 160 214 242 302 358
#     4  10  19  38  64  87 114 153 203 251 304 361
#     4  10  21  39  61  88 121 161 203 253 299 360
#     4   9  19  37  60  87 117 150 197 252 303 355
#     4   9  20  37  60  87 113 151 202 246 299 364
#
# _framework density 21.247164999999999
#
# number of rings (size 3 to 8) (size 9 to 14) (size 15 to 20)
#    0.000    2.095    0.952    2.000    1.333    2.667 
#    3.429    0.000    0.000    0.000    0.000    0.000 
#    0.000    0.000    0.000    0.000    0.000    0.000 
#
# Total GULP energy -116978.867613 kJ/mol
# GULP energy per Si atom -5570.422267 kJ/mol
# Density = 2.119881 g / cm^3
# Si number density = 21.247165 Si / 1000 Ang^3
#
#
#
# Elastic Constant Matrix: (Units=GPa)
#
#
# Indices 1 2 3 4 5 6 
#
# 1 115.8674 1.2961 37.6803 0.0000 -15.0630 0.0000
# 2 1.2961 89.9240 -7.1507 0.0000 3.5199 0.0000
# 3 37.6803 -7.1507 47.7470 0.0000 -23.0036 0.0000
# 4 0.0000 0.0000 0.0000 17.2900 0.0000 -7.6849
# 5 -15.0630 3.5199 -23.0036 0.0000 29.3008 0.0000
# 6 0.0000 0.0000 0.0000 -7.6849 0.0000 26.5420
#
#
#
# Elastic Compliance Matrix: (Units=1/GPa)
#
#
# Indices 1 2 3 4 5 6 
#
# 1 0.011755 -0.000916 -0.010373 0.000000 -0.001991 0.000000
# 2 -0.000916 0.011326 0.002472 0.000000 0.000109 0.000000
# 3 -0.010373 0.002472 0.043084 0.000000 0.028195 0.000000
# 4 0.000000 0.000000 0.000000 0.066379 0.000000 0.019219
# 5 -0.001991 0.000109 0.028195 0.000000 0.055228 0.000000
# 6 0.000000 0.000000 0.000000 0.019219 0.000000 0.043241
#
#
# Mechanical properties :
#
#
# Convention : Reuss Voigt Hill
#
# Bulk Modulus (GPa) = 20.60586 35.24332 27.92459
# Shear Modulus (GPa) = 18.88035 29.40740 24.14388
#
# Velocity S-wave (km/s) = 2.98418 3.72434 3.37461
# Velocity P-wave (km/s) = 4.64683 5.92601 5.32497
#
# Compressibility (1/GPa) = 0.04852988
#
# Stress axis : x y z
#
# Youngs Moduli (GPa) = 85.06712 88.29234 23.21050
#
# Poissons Ratio (x) = 0.08091 0.24077
# Poissons Ratio (y) = 0.07795 -0.05737
# Poissons Ratio (z) = 0.88242 -0.21825
#
# Static dielectric constant tensor:
#      x y z
#    x 1.796190 0.000000 0.014560 
#    y 0.000000 1.772300 0.000000 
#    z 0.014560 0.000000 1.776640 
# 
# From -- ./inp_files/107849.got.cif
#   From: 2010.05.17/outbox.cif.g08.bks.cpg/sg12_54_cif.got.tgz:107849.got - 2010.06.03 13:09:07.
