data_PCOD9189883
_publ_section_title
;
Structure prediction by ZEFSAII (Michael W. Deem and Ramdas Pophale) SiO2 
 PCOD9189883
Probable space group: C 2/M
;
_chemical_formula_sum "Si O2"
_cell_formula_units_Z 48
_cell_length_a 11.874664
_cell_length_b 27.375737
_cell_length_c 14.706725
_cell_angle_alpha 90.000000
_cell_angle_beta 29.529846
_cell_angle_gamma 90.000000
_cell_volume 2356.359557
_symmetry_space_group_name_H-M "C 2/M"
_symmetry_group_IT_number 12
_symmetry_cell_setting 'monoclinic'
loop_
_space_group_symop_operation_xyz
x,y,z
-x,y,-z
-x,-y,-z
x,-y,z
1/2+x,1/2+y,z
1/2-x,1/2+y,-z
1/2-x,1/2-y,-z
1/2+x,1/2-y,z
loop_
_atom_site_type_symbol
_atom_site_label
_atom_site_fract_x
_atom_site_fract_y
_atom_site_fract_z
Si Si1 0.279849 0.054740 0.220748
Si Si2 0.250418 0.443031 0.365852
Si Si3 0.444381 0.944021 0.313696
Si Si4 0.615188 0.378448 0.008640
Si Si5 0.191010 0.167624 0.290275
Si Si6 0.791313 0.300320 0.024213
O O1 0.352940 0.056529 0.275377
O O2 0.175911 0.108972 0.280106
O O3 0.167162 0.000000 0.286334
O O4 0.500000 0.054054 0.000000
O O5 0.302460 0.500000 0.322107
O O6 0.238416 0.430224 0.480931
O O7 0.435371 0.414739 0.179563
O O8 0.000000 0.434320 0.500000
O O9 0.514713 0.000000 0.284988
O O10 0.657955 0.908637 0.173627
O O11 0.676174 0.339771 0.041008
O O12 0.500000 0.356391 0.000000
O O13 0.177846 0.196361 0.203934
O O14 0.000000 0.179016 0.500000
O O15 0.443509 0.182713 0.149852
O O16 0.750000 0.250000 0.000000
#
# Coordination Sequence:
#
# PCOD9189883 Si02
#       6
#     8   8   8   8   8   8
#     4  10  19  38  66 100 139 178 219 264 324 401
#     4  10  21  36  55  90 136 177 214 256 315 387
#     4  10  20  36  58  90 135 174 211 261 317 386
#     4  12  23  37  65  95 124 177 221 270 327 393
#     4  11  24  47  76 102 134 178 222 277 342 403
#     4  11  27  49  70  96 133 168 221 290 342 396
#
# _framework density 20.370405999999999
#
# number of rings (size 3 to 8) (size 9 to 14) (size 15 to 20)
#    0.000    1.333    5.000    0.500    4.667    1.667 
#    0.000    1.667    0.000    0.000    0.000    0.000 
#    0.000    0.000    0.000    0.000    0.000    0.000 
#
# Total GULP energy -134063.533308 kJ/mol
# GULP energy per Si atom -5585.980555 kJ/mol
# Density = 2.032404 g / cm^3
# Si number density = 20.370406 Si / 1000 Ang^3
#
#
#
# Elastic Constant Matrix: (Units=GPa)
#
#
# Indices 1 2 3 4 5 6 
#
# 1 129.5498 44.0303 49.0908 -0.0001 28.3057 0.0000
# 2 44.0303 86.1186 37.0755 0.0000 -2.9823 0.0000
# 3 49.0908 37.0755 113.2502 -0.0002 28.6061 0.0001
# 4 -0.0001 0.0000 -0.0002 11.2796 0.0001 9.8826
# 5 28.3057 -2.9823 28.6061 0.0001 34.2900 0.0000
# 6 0.0000 0.0000 0.0001 9.8826 0.0000 34.2508
#
#
#
# Elastic Compliance Matrix: (Units=1/GPa)
#
#
# Indices 1 2 3 4 5 6 
#
# 1 0.012380 -0.006378 -0.000705 0.000000 -0.010186 0.000000
# 2 -0.006378 0.017917 -0.006113 0.000000 0.011923 0.000000
# 3 -0.000705 -0.006113 0.014094 0.000001 -0.011707 0.000000
# 4 0.000000 0.000000 0.000001 0.118651 -0.000001 -0.034235
# 5 -0.010186 0.011923 -0.011707 -0.000001 0.048375 0.000000
# 6 0.000000 0.000000 0.000000 -0.034235 0.000000 0.039075
#
#
# Mechanical properties :
#
#
# Convention : Reuss Voigt Hill
#
# Bulk Modulus (GPa) = 55.56009 65.47908 60.51959
# Shear Modulus (GPa) = 17.67511 29.21219 23.44365
#
# Velocity S-wave (km/s) = 2.94885 3.79099 3.39613
# Velocity P-wave (km/s) = 6.23926 7.16772 6.71954
#
# Compressibility (1/GPa) = 0.01799853
#
# Stress axis : x y z
#
# Youngs Moduli (GPa) = 80.77785 55.81141 70.95241
#
# Poissons Ratio (x) = 0.35599 0.05004
# Poissons Ratio (y) = 0.51524 0.43370
# Poissons Ratio (z) = 0.05697 0.34115
#
# Static dielectric constant tensor:
#      x y z
#    x 1.728000 0.000000 0.009490 
#    y 0.000000 1.675680 0.000000 
#    z 0.009490 0.000000 1.702930 
# 
# From -- ./inp_files/209321.got.cif
#   From: 2010.05.17/outbox.cif.g08.bks.cpg/sg12_105_cif.got.tgz:209321.got - 2010.06.03 13:09:07.
