data_PCOD9189343
_publ_section_title
;
Structure prediction by ZEFSAII (Michael W. Deem and Ramdas Pophale) SiO2 
 PCOD9189343
Probable space group: C 2/M
;
_chemical_formula_sum "Si O2"
_cell_formula_units_Z 52
_cell_length_a 15.416341
_cell_length_b 11.388205
_cell_length_c 21.983795
_cell_angle_alpha 90.000000
_cell_angle_beta 37.616584
_cell_angle_gamma 90.000000
_cell_volume 2355.784745
_symmetry_space_group_name_H-M "C 2/M"
_symmetry_group_IT_number 12
_symmetry_cell_setting 'monoclinic'
loop_
_space_group_symop_operation_xyz
x,y,z
-x,y,-z
-x,-y,-z
x,-y,z
1/2+x,1/2+y,z
1/2-x,1/2+y,-z
1/2-x,1/2-y,-z
1/2+x,1/2-y,z
loop_
_atom_site_type_symbol
_atom_site_label
_atom_site_fract_x
_atom_site_fract_y
_atom_site_fract_z
Si Si1 0.242010 0.324366 0.707514
Si Si2 0.417624 0.130498 0.887924
Si Si3 0.353850 0.364915 0.514571
Si Si4 0.780112 0.706361 0.082592
Si Si5 0.307461 0.500000 0.781234
Si Si6 0.061249 0.631818 0.602416
Si Si7 0.261177 0.632402 0.198794
O O1 0.336244 0.345082 0.596055
O O2 0.297006 0.398982 0.733650
O O3 0.227518 0.192895 0.741539
O O4 0.082878 0.365137 0.780938
O O5 0.330284 0.223714 0.898100
O O6 0.360958 0.000000 0.907373
O O7 0.398272 0.157227 0.970597
O O8 0.406165 0.500000 0.472961
O O9 0.195728 0.361790 0.572549
O O10 0.429446 0.249706 0.443921
O O11 0.703435 0.601734 0.160163
O O12 0.833295 0.793311 0.105675
O O13 0.069437 0.500000 0.567893
O O14 0.908990 0.633781 0.719753
O O15 0.312305 0.500000 0.171666
#
# Coordination Sequence:
#
# PCOD9189343 Si02
#       7
#     8   8   8   8   4   8   8
#     4  11  22  37  63  88 122 161 209 250 312 364
#     4  11  21  39  62  91 116 165 209 257 298 376
#     4  10  19  37  61  94 117 157 206 265 301 378
#     4  10  22  37  62  88 121 156 208 253 307 359
#     4  10  20  39  56  91 124 159 194 260 300 368
#     4   9  20  39  65  85 122 161 209 250 321 369
#     4  10  22  41  58  85 119 166 201 251 311 379
#
# _framework density 22.073324
#
# number of rings (size 3 to 8) (size 9 to 14) (size 15 to 20)
#    0.000    1.846    2.308    1.385    0.000    5.538 
#    6.923    3.077    6.769    0.000    0.000    0.000 
#    0.000    0.000    0.000    0.000    0.000    0.000 
#
# Total GULP energy -144753.154490 kJ/mol
# GULP energy per Si atom -5567.429019 kJ/mol
# Density = 2.202308 g / cm^3
# Si number density = 22.073324 Si / 1000 Ang^3
#
#
#
# Elastic Constant Matrix: (Units=GPa)
#
#
# Indices 1 2 3 4 5 6 
#
# 1 42.6070 38.6957 33.6540 0.0000 12.5823 0.0000
# 2 38.6957 198.1695 40.5912 0.0000 28.3622 0.0000
# 3 33.6540 40.5912 81.1925 0.0000 12.6571 0.0000
# 4 0.0000 0.0000 0.0000 26.5875 0.0000 3.8127
# 5 12.5823 28.3622 12.6571 0.0000 33.8895 0.0000
# 6 0.0000 0.0000 0.0000 3.8127 0.0000 13.9201
#
#
#
# Elastic Compliance Matrix: (Units=1/GPa)
#
#
# Indices 1 2 3 4 5 6 
#
# 1 0.039628 -0.004094 -0.013399 0.000000 -0.006282 0.000000
# 2 -0.004094 0.006571 -0.001027 0.000000 -0.003595 0.000000
# 3 -0.013399 -0.001027 0.018555 0.000000 -0.001095 0.000000
# 4 0.000000 0.000000 0.000000 0.039149 0.000000 -0.010723
# 5 -0.006282 -0.003595 -0.001095 0.000000 0.035258 0.000000
# 6 0.000000 0.000000 0.000000 -0.010723 0.000000 0.074776
#
#
# Mechanical properties :
#
#
# Convention : Reuss Voigt Hill
#
# Bulk Modulus (GPa) = 36.08685 60.87233 48.47959
# Shear Modulus (GPa) = 19.21490 28.81463 24.01477
#
# Velocity S-wave (km/s) = 2.95363 3.61696 3.30199
# Velocity P-wave (km/s) = 5.29302 6.71419 6.04551
#
# Compressibility (1/GPa) = 0.02771093
#
# Stress axis : x y z
#
# Youngs Moduli (GPa) = 25.23496 152.19209 53.89454
#
# Poissons Ratio (x) = 0.62311 0.72215
# Poissons Ratio (y) = 0.10332 0.05537
# Poissons Ratio (z) = 0.33813 0.15636
#
# Static dielectric constant tensor:
#      x y z
#    x 1.811930 0.000000 -0.025230 
#    y 0.000000 1.825010 0.000000 
#    z -0.025230 0.000000 1.816760 
# 
# From -- ./inp_files/309766.got.cif
#   From: 2010.05.17/outbox.cif.g08.bks.cpg/sg12_155_cif.got.tgz:309766.got - 2010.06.03 13:09:07.
