data_PCOD9189660
_publ_section_title
;
Structure prediction by ZEFSAII (Michael W. Deem and Ramdas Pophale) SiO2 
 PCOD9189660
Probable space group: C 2/M
;
_chemical_formula_sum "Si O2"
_cell_formula_units_Z 64
_cell_length_a 18.380785
_cell_length_b 21.828506
_cell_length_c 19.077378
_cell_angle_alpha 90.000000
_cell_angle_beta 155.127622
_cell_angle_gamma 90.000000
_cell_volume 3219.396405
_symmetry_space_group_name_H-M "C 2/M"
_symmetry_group_IT_number 12
_symmetry_cell_setting 'monoclinic'
loop_
_space_group_symop_operation_xyz
x,y,z
-x,y,-z
-x,-y,-z
x,-y,z
1/2+x,1/2+y,z
1/2-x,1/2+y,-z
1/2-x,1/2-y,-z
1/2+x,1/2-y,z
loop_
_atom_site_type_symbol
_atom_site_label
_atom_site_fract_x
_atom_site_fract_y
_atom_site_fract_z
Si Si1 0.605777 0.427559 0.020787
Si Si2 0.623923 0.431706 0.676447
Si Si3 0.072020 0.848490 0.397067
Si Si4 0.653311 0.744114 0.580667
Si Si5 0.508091 0.071623 0.653962
Si Si6 0.414564 0.072102 0.730932
Si Si7 0.099392 0.638732 0.149659
Si Si8 0.153337 0.857990 0.307216
O O1 0.619218 0.500000 0.014927
O O2 0.803349 0.404993 0.204672
O O3 0.500000 0.421548 0.000000
O O4 0.493359 0.394360 0.863184
O O5 0.500000 0.424086 0.500000
O O6 0.600329 0.500000 0.683198
O O7 0.585987 0.382711 0.703433
O O8 0.810918 0.419560 0.808282
O O9 0.087927 0.782800 0.448904
O O10 0.230590 0.894472 0.556493
O O11 0.080678 0.843512 0.321306
O O12 0.500000 0.761457 0.500000
O O13 0.752076 0.685817 0.698732
O O14 0.788039 0.797650 0.683060
O O15 0.510615 0.075850 0.740835
O O16 0.335192 0.105125 0.476073
O O17 0.491768 0.000000 0.620060
O O18 0.494019 0.111928 0.863540
O O19 0.393689 0.000000 0.729903
O O20 0.000000 0.670532 0.000000
#
# Coordination Sequence:
#
# PCOD9189660 Si02
#       8
#     8   8   8   8   8   8   8   8
#     4  10  23  42  62  91 127 153 190 255 314 367
#     4  11  19  33  60  88 119 161 199 238 297 366
#     4  10  19  38  59  87 120 157 202 255 299 352
#     4  11  22  42  61  82 117 160 208 261 299 341
#     4   9  20  40  63  92 126 153 188 252 314 369
#     4   9  17  32  57  86 122 158 192 239 302 366
#     4  11  22  36  54  83 126 164 201 248 300 353
#     4  11  24  38  68  92 115 163 213 242 306 377
#
# _framework density 19.879503
#
# number of rings (size 3 to 8) (size 9 to 14) (size 15 to 20)
#    0.000    1.750    3.750    1.500    1.750    4.000 
#    0.000    3.125    0.000    3.750    0.000    0.000 
#    0.000    0.000    0.000    0.000    0.000    0.000 
#
# Total GULP energy -178441.477419 kJ/mol
# GULP energy per Si atom -5576.296169 kJ/mol
# Density = 1.983426 g / cm^3
# Si number density = 19.879503 Si / 1000 Ang^3
#
#
#
# Elastic Constant Matrix: (Units=GPa)
#
#
# Indices 1 2 3 4 5 6 
#
# 1 49.8725 1.2223 -0.5879 0.0161 3.8615 0.0022
# 2 1.2223 24.5930 -12.3115 0.0218 1.4057 0.0076
# 3 -0.5879 -12.3115 42.6521 0.0273 -1.3138 0.0087
# 4 0.0161 0.0218 0.0273 6.9155 0.0109 9.4397
# 5 3.8615 1.4057 -1.3138 0.0109 26.0064 0.0044
# 6 0.0022 0.0076 0.0087 9.4397 0.0044 19.1339
#
#
#
# Elastic Compliance Matrix: (Units=1/GPa)
#
#
# Indices 1 2 3 4 5 6 
#
# 1 0.020302 -0.000871 -0.000063 -0.000116 -0.002971 0.000056
# 2 -0.000871 0.047660 0.013691 -0.000507 -0.001755 0.000226
# 3 -0.000063 0.013691 0.027417 -0.000390 0.000655 0.000174
# 4 -0.000116 -0.000507 -0.000390 0.442781 -0.000123 -0.218444
# 5 -0.002971 -0.001755 0.000655 -0.000123 0.039021 0.000052
# 6 0.000056 0.000226 0.000174 -0.218444 0.000052 0.160032
#
#
# Mechanical properties :
#
#
# Convention : Reuss Voigt Hill
#
# Bulk Modulus (GPa) = 8.27174 10.41817 9.34496
# Shear Modulus (GPa) = 6.64897 18.99748 12.82323
#
# Velocity S-wave (km/s) = 1.83082 3.09468 2.54253
# Velocity P-wave (km/s) = 2.93925 4.24517 3.65107
#
# Compressibility (1/GPa) = 0.12089355
#
# Stress axis : x y z
#
# Youngs Moduli (GPa) = 49.25677 20.98206 36.47384
#
# Poissons Ratio (x) = 0.01827 0.00229
# Poissons Ratio (y) = 0.04289 -0.49937
# Poissons Ratio (z) = 0.00310 -0.28727
#
# Static dielectric constant tensor:
#      x y z
#    x 1.722830 0.000000 -0.030110 
#    y 0.000000 1.681940 0.000000 
#    z -0.030110 0.000000 1.798410 
# 
# From -- ./inp_files/279141.got.cif
#   From: 2010.05.17/outbox.cif.g08.bks.cpg/sg12_140_cif.got.tgz:279141.got - 2010.06.03 13:09:07.
