data_PCOD9189523
_publ_section_title
;
Structure prediction by ZEFSAII (Michael W. Deem and Ramdas Pophale) SiO2 
 PCOD9189523
Probable space group: C 2/M
;
_chemical_formula_sum "Si O2"
_cell_formula_units_Z 48
_cell_length_a 20.383709
_cell_length_b 17.204863
_cell_length_c 16.724501
_cell_angle_alpha 90.000000
_cell_angle_beta 158.013338
_cell_angle_gamma 90.000000
_cell_volume 2195.900712
_symmetry_space_group_name_H-M "C 2/M"
_symmetry_group_IT_number 12
_symmetry_cell_setting 'monoclinic'
loop_
_space_group_symop_operation_xyz
x,y,z
-x,y,-z
-x,-y,-z
x,-y,z
1/2+x,1/2+y,z
1/2-x,1/2+y,-z
1/2-x,1/2-y,-z
1/2+x,1/2-y,z
loop_
_atom_site_type_symbol
_atom_site_label
_atom_site_fract_x
_atom_site_fract_y
_atom_site_fract_z
Si Si1 0.286793 0.315112 0.972530
Si Si2 0.399495 0.810613 0.534933
Si Si3 0.392920 0.086693 0.679083
Si Si4 0.555356 0.626152 0.386640
Si Si5 0.230906 0.086741 0.808608
Si Si6 0.323424 0.756338 0.845915
O O1 0.357953 0.274674 0.973722
O O2 0.091712 0.343967 0.732876
O O3 0.250000 0.250000 0.000000
O O4 0.423176 0.376328 0.161212
O O5 0.346533 0.852228 0.557164
O O6 0.414243 0.718168 0.566932
O O7 0.275658 0.809037 0.317898
O O8 0.243434 0.091686 0.577877
O O9 0.390885 0.000000 0.642253
O O10 0.587345 0.098262 0.935757
O O11 0.436578 0.591307 0.322628
O O12 0.222408 0.161966 0.742554
O O13 0.240279 0.000000 0.783340
O O14 0.500000 0.775208 0.000000
#
# Coordination Sequence:
#
# PCOD9189523 Si02
#       6
#     8   8   8   8   8   8
#     4  10  19  37  65  90 120 164 227 265 305 370
#     4  11  21  38  65  91 130 168 221 267 319 379
#     4  11  23  40  65 100 132 168 218 271 323 384
#     4  11  20  40  66  94 125 172 224 266 314 380
#     4  11  23  41  62  94 136 176 213 260 323 392
#     4  12  23  38  61  97 131 173 215 268 324 380
#
# _framework density 21.858910000000002
#
# number of rings (size 3 to 8) (size 9 to 14) (size 15 to 20)
#    0.000    1.000    5.000    4.500    0.000    0.333 
#    0.000    2.500    0.000    7.500    0.000    0.000 
#    0.000    0.000    0.000    0.000    0.000    0.000 
#
# Total GULP energy -134108.161503 kJ/mol
# GULP energy per Si atom -5587.840063 kJ/mol
# Density = 2.180916 g / cm^3
# Si number density = 21.858910 Si / 1000 Ang^3
#
#
#
# Elastic Constant Matrix: (Units=GPa)
#
#
# Indices 1 2 3 4 5 6 
#
# 1 121.1723 10.6865 47.8992 0.0000 18.3810 0.0000
# 2 10.6865 32.7374 32.2518 0.0000 -1.3751 0.0000
# 3 47.8992 32.2518 83.8189 0.0001 2.6485 0.0001
# 4 0.0000 0.0000 0.0001 9.6688 0.0000 -4.6267
# 5 18.3810 -1.3751 2.6485 0.0000 40.6352 0.0000
# 6 0.0000 0.0000 0.0001 -4.6267 0.0000 15.6117
#
#
#
# Elastic Compliance Matrix: (Units=1/GPa)
#
#
# Indices 1 2 3 4 5 6 
#
# 1 0.011830 0.003955 -0.008134 0.000000 -0.004687 0.000000
# 2 0.003955 0.050861 -0.021873 0.000000 0.001358 0.000000
# 3 -0.008134 -0.021873 0.024954 0.000000 0.001313 0.000000
# 4 0.000000 0.000000 0.000000 0.120515 0.000000 0.035716
# 5 -0.004687 0.001358 0.001313 0.000000 0.026690 0.000000
# 6 0.000000 0.000000 0.000000 0.035716 0.000000 0.074639
#
#
# Mechanical properties :
#
#
# Convention : Reuss Voigt Hill
#
# Bulk Modulus (GPa) = 28.13736 46.60042 37.36889
# Shear Modulus (GPa) = 13.38899 22.97590 18.18244
#
# Velocity S-wave (km/s) = 2.47760 3.24558 2.88724
# Velocity P-wave (km/s) = 4.59182 5.95064 5.31484
#
# Compressibility (1/GPa) = 0.03553994
#
# Stress axis : x y z
#
# Youngs Moduli (GPa) = 84.52777 19.66148 40.07409
#
# Poissons Ratio (x) = -0.07776 0.32597
# Poissons Ratio (y) = -0.33430 0.87655
# Poissons Ratio (z) = 0.68757 0.43006
#
# Static dielectric constant tensor:
#      x y z
#    x 1.832010 0.000000 -0.059250 
#    y 0.000000 1.789640 0.000000 
#    z -0.059250 0.000000 1.941240 
# 
# From -- ./inp_files/285459.got.cif
#   From: 2010.05.17/outbox.cif.g08.bks.cpg/sg12_143_cif.got.tgz:285459.got - 2010.06.03 13:09:07.
