data_PCOD9189726
_publ_section_title
;
Structure prediction by ZEFSAII (Michael W. Deem and Ramdas Pophale) SiO2 
 PCOD9189726
Probable space group: C 2/M
;
_chemical_formula_sum "Si O2"
_cell_formula_units_Z 52
_cell_length_a 27.612441
_cell_length_b 18.787533
_cell_length_c 15.005030
_cell_angle_alpha 90.000000
_cell_angle_beta 19.976206
_cell_angle_gamma 90.000000
_cell_volume 2659.299594
_symmetry_space_group_name_H-M "C 2/M"
_symmetry_group_IT_number 12
_symmetry_cell_setting 'monoclinic'
loop_
_space_group_symop_operation_xyz
x,y,z
-x,y,-z
-x,-y,-z
x,-y,z
1/2+x,1/2+y,z
1/2-x,1/2+y,-z
1/2-x,1/2-y,-z
1/2+x,1/2-y,z
loop_
_atom_site_type_symbol
_atom_site_label
_atom_site_fract_x
_atom_site_fract_y
_atom_site_fract_z
Si Si1 0.888360 0.614665 0.565030
Si Si2 0.843099 0.198464 0.776342
Si Si3 0.783666 0.581582 0.553049
Si Si4 0.756951 0.262191 0.228907
Si Si5 0.689404 0.079167 0.104487
Si Si6 0.413011 0.767891 0.301232
Si Si7 0.500000 0.339295 0.000000
O O1 0.845697 0.579131 0.545934
O O2 0.804246 0.688624 0.705252
O O3 0.841299 0.577605 0.737290
O O4 0.057812 0.619615 0.284342
O O5 0.792947 0.185318 0.761900
O O6 0.000000 0.228197 0.500000
O O7 0.750000 0.250000 0.000000
O O8 0.831587 0.122616 0.843488
O O9 0.791545 0.500000 0.503064
O O10 0.868134 0.649305 0.362974
O O11 0.621134 0.610759 0.833994
O O12 0.687542 0.263695 0.446907
O O13 0.925169 0.266244 0.944507
O O14 0.691901 0.000000 0.064333
O O15 0.419028 0.714199 0.207630
#
# Coordination Sequence:
#
# PCOD9189726 Si02
#       7
#     8   8   8   8   8   8   4
#     4  10  19  38  61  91 126 163 213 256 306 373
#     4  12  23  37  60  88 128 161 210 262 309 367
#     4  11  23  40  67  96 130 167 212 266 323 385
#     4  11  22  38  63  95 123 167 216 261 313 376
#     4  11  22  36  60  91 127 169 210 254 311 378
#     4  11  23  42  68  93 128 163 217 266 325 381
#     4  12  23  44  67  98 128 168 216 268 323 388
#
# _framework density 19.554020000000001
#
# number of rings (size 3 to 8) (size 9 to 14) (size 15 to 20)
#    0.000    0.923    4.615    6.231    0.000    0.308 
#    0.000    0.385    0.000    1.846    0.000    0.000 
#    0.000    0.000    0.000    0.000    0.000    0.000 
#
# Total GULP energy -144908.612900 kJ/mol
# GULP energy per Si atom -5573.408188 kJ/mol
# Density = 1.950951 g / cm^3
# Si number density = 19.554020 Si / 1000 Ang^3
#
#
#
# Elastic Constant Matrix: (Units=GPa)
#
#
# Indices 1 2 3 4 5 6 
#
# 1 84.7793 16.4520 19.8519 0.0006 -6.4985 -0.0005
# 2 16.4520 114.0024 36.1815 -0.0003 -0.0037 0.0002
# 3 19.8519 36.1815 101.1940 0.0009 -4.5692 -0.0008
# 4 0.0006 -0.0003 0.0009 10.0345 -0.0003 -0.3173
# 5 -6.4985 -0.0037 -4.5692 -0.0003 30.8596 0.0002
# 6 -0.0005 0.0002 -0.0008 -0.3173 0.0002 11.3248
#
#
#
# Elastic Compliance Matrix: (Units=1/GPa)
#
#
# Indices 1 2 3 4 5 6 
#
# 1 0.012668 -0.001211 -0.001945 0.000000 0.002380 0.000000
# 2 -0.001211 0.010019 -0.003379 0.000001 -0.000754 0.000000
# 3 -0.001945 -0.003379 0.011530 -0.000001 0.001297 0.000001
# 4 0.000000 0.000001 -0.000001 0.099744 0.000001 0.002795
# 5 0.002380 -0.000754 0.001297 0.000001 0.033098 0.000000
# 6 0.000000 0.000000 0.000001 0.002795 0.000000 0.088380
#
#
# Mechanical properties :
#
#
# Convention : Reuss Voigt Hill
#
# Bulk Modulus (GPa) = 47.28505 49.43850 48.36178
# Shear Modulus (GPa) = 18.14506 25.60982 21.87744
#
# Velocity S-wave (km/s) = 3.04952 3.62290 3.34851
# Velocity P-wave (km/s) = 6.05258 6.54511 6.30366
#
# Compressibility (1/GPa) = 0.02114833
#
# Stress axis : x y z
#
# Youngs Moduli (GPa) = 78.93847 99.81272 86.72929
#
# Poissons Ratio (x) = 0.12086 0.16867
# Poissons Ratio (y) = 0.09558 0.29303
# Poissons Ratio (z) = 0.15352 0.33723
#
# Static dielectric constant tensor:
#      x y z
#    x 1.733490 0.000000 -0.014390 
#    y 0.000000 1.771320 0.000000 
#    z -0.014390 0.000000 1.702540 
# 
# From -- ./inp_files/247181.got.cif
#   From: 2010.05.17/outbox.cif.g08.bks.cpg/sg12_124_cif.got.tgz:247181.got - 2010.06.03 13:09:07.
