data_PCOD9189001
_publ_section_title
;
Structure prediction by ZEFSAII (Michael W. Deem and Ramdas Pophale) SiO2 
 PCOD9189001
Probable space group: C 2/M
;
_chemical_formula_sum "Si O2"
_cell_formula_units_Z 50
_cell_length_a 18.321761
_cell_length_b 13.646005
_cell_length_c 9.103172
_cell_angle_alpha 90.000000
_cell_angle_beta 57.386092
_cell_angle_gamma 90.000000
_cell_volume 1917.094058
_symmetry_space_group_name_H-M "C 2/M"
_symmetry_group_IT_number 12
_symmetry_cell_setting 'monoclinic'
loop_
_space_group_symop_operation_xyz
x,y,z
-x,y,-z
-x,-y,-z
x,-y,z
1/2+x,1/2+y,z
1/2-x,1/2+y,-z
1/2-x,1/2-y,-z
1/2+x,1/2-y,z
loop_
_atom_site_type_symbol
_atom_site_label
_atom_site_fract_x
_atom_site_fract_y
_atom_site_fract_z
Si Si1 0.752741 0.113761 0.459620
Si Si2 0.769889 0.884415 0.099471
Si Si3 0.500000 0.500000 0.500000
Si Si4 0.547000 0.310785 0.086046
Si Si5 0.098498 0.815828 0.505238
Si Si6 0.891807 0.388892 0.927050
Si Si7 0.927587 0.391978 0.440745
O O1 0.766428 0.146509 0.275104
O O2 0.809544 0.170266 0.515675
O O3 0.649383 0.115895 0.595113
O O4 0.781129 0.000000 0.436340
O O5 0.694112 0.854563 0.068793
O O6 0.758211 0.000000 0.117553
O O7 0.867557 0.862316 0.946199
O O8 0.573259 0.412009 0.443517
O O9 0.473565 0.309976 0.288229
O O10 0.581119 0.202854 0.001945
O O11 0.500000 0.361248 0.000000
O O12 0.088734 0.706982 0.448134
O O13 0.878254 0.500000 0.000847
O O14 0.977861 0.395495 0.731564
O O15 0.911778 0.500000 0.528100
#
# Coordination Sequence:
#
# PCOD9189001 Si02
#       7
#     8   8   2   8   8   8   8
#     4  10  19  36  64  94 125 166 216 273 320 385
#     4  10  21  35  61  93 123 164 215 267 314 375
#     4  12  28  44  64  92 136 172 208 262 346 384
#     4  11  22  38  66  92 125 172 216 259 316 382
#     4  11  23  42  63  92 136 172 210 270 324 391
#     4   9  20  39  59  89 132 166 213 265 315 373
#     4   9  20  38  65  91 123 168 218 265 316 375
#
# _framework density 26.081140999999999
#
# number of rings (size 3 to 8) (size 9 to 14) (size 15 to 20)
#    0.000    1.920    2.400    0.960    1.120    3.840 
#    0.000    5.200    0.000    0.000    0.000    0.000 
#    0.000    0.000    0.000    0.000    0.000    0.000 
#
# Total GULP energy -139420.443004 kJ/mol
# GULP energy per Si atom -5576.817720 kJ/mol
# Density = 2.602178 g / cm^3
# Si number density = 26.081141 Si / 1000 Ang^3
#
#
#
# Elastic Constant Matrix: (Units=GPa)
#
#
# Indices 1 2 3 4 5 6 
#
# 1 208.9663 10.2320 16.8729 0.0000 -37.3061 0.0000
# 2 10.2320 113.5570 -0.9057 0.0000 7.6379 0.0000
# 3 16.8729 -0.9057 49.8241 0.0000 -17.3743 0.0000
# 4 0.0000 0.0000 0.0000 12.7919 0.0000 -6.3804
# 5 -37.3061 7.6379 -17.3743 0.0000 35.5728 0.0000
# 6 0.0000 0.0000 0.0000 -6.3804 0.0000 40.0770
#
#
#
# Elastic Compliance Matrix: (Units=1/GPa)
#
#
# Indices 1 2 3 4 5 6 
#
# 1 0.005996 -0.000984 0.000263 0.000000 0.006627 0.000000
# 2 -0.000984 0.009112 -0.000655 0.000000 -0.003308 0.000000
# 3 0.000263 -0.000655 0.024244 0.000000 0.012257 0.000000
# 4 0.000000 0.000000 0.000000 0.084918 0.000000 0.013519
# 5 0.006627 -0.003308 0.012257 0.000000 0.041759 0.000000
# 6 0.000000 0.000000 0.000000 0.013519 0.000000 0.027104
#
#
# Mechanical properties :
#
#
# Convention : Reuss Voigt Hill
#
# Bulk Modulus (GPa) = 27.32249 47.19400 37.25824
# Shear Modulus (GPa) = 24.02874 40.76488 32.39681
#
# Velocity S-wave (km/s) = 3.03860 3.95777 3.52825
# Velocity P-wave (km/s) = 4.77593 6.24657 5.56008
#
# Compressibility (1/GPa) = 0.03659988
#
# Stress axis : x y z
#
# Youngs Moduli (GPa) = 166.78989 109.74440 41.24730
#
# Poissons Ratio (x) = 0.10798 -0.01084
# Poissons Ratio (y) = 0.16410 0.02701
# Poissons Ratio (z) = -0.04382 0.07185
#
# Static dielectric constant tensor:
#      x y z
#    x 2.046210 0.000000 -0.031080 
#    y 0.000000 2.148400 0.000000 
#    z -0.031080 0.000000 2.022600 
# 
# From -- ./inp_files/155928.got.cif
#   From: 2010.05.17/outbox.cif.g08.bks.cpg/sg12_78_cif.got.tgz:155928.got - 2010.06.03 13:09:07.
