data_PCOD9189073
_publ_section_title
;
Structure prediction by ZEFSAII (Michael W. Deem and Ramdas Pophale) SiO2 
 PCOD9189073
Probable space group: C 2/M
;
_chemical_formula_sum "Si O2"
_cell_formula_units_Z 56
_cell_length_a 14.205468
_cell_length_b 17.748017
_cell_length_c 12.454275
_cell_angle_alpha 90.000000
_cell_angle_beta 60.511578
_cell_angle_gamma 90.000000
_cell_volume 2733.192683
_symmetry_space_group_name_H-M "C 2/M"
_symmetry_group_IT_number 12
_symmetry_cell_setting 'monoclinic'
loop_
_space_group_symop_operation_xyz
x,y,z
-x,y,-z
-x,-y,-z
x,-y,z
1/2+x,1/2+y,z
1/2-x,1/2+y,-z
1/2-x,1/2-y,-z
1/2+x,1/2-y,z
loop_
_atom_site_type_symbol
_atom_site_label
_atom_site_fract_x
_atom_site_fract_y
_atom_site_fract_z
Si Si1 0.270963 0.142031 0.874030
Si Si2 0.001868 0.585189 0.768510
Si Si3 0.408226 0.813851 0.468273
Si Si4 0.480229 0.359105 0.391256
Si Si5 0.326008 0.656709 0.299939
Si Si6 0.418737 0.794433 0.128034
Si Si7 0.691409 0.317625 0.145938
O O1 0.374264 0.088451 0.816082
O O2 0.202757 0.127923 0.804179
O O3 0.324261 0.226694 0.845967
O O4 0.201014 0.145945 0.022449
O O5 0.039270 0.500000 0.754400
O O6 0.071112 0.632447 0.643916
O O7 0.018750 0.633105 0.865722
O O8 0.500000 0.839474 0.500000
O O9 0.431924 0.725233 0.438268
O O10 0.289052 0.824001 0.582242
O O11 0.500000 0.392246 0.500000
O O12 0.397235 0.389476 0.346469
O O13 0.596324 0.352105 0.269396
O O14 0.389057 0.734115 0.235689
O O15 0.308334 0.821734 0.135846
O O16 0.500000 0.754578 0.000000
#
# Coordination Sequence:
#
# PCOD9189073 Si02
#       7
#     8   8   8   8   8   8   8
#     4  10  19  37  54  85 115 154 203 245 302 357
#     4  12  24  39  58  87 130 169 200 242 299 371
#     4  11  20  37  55  84 126 153 200 248 304 367
#     4  11  21  33  54  89 122 150 188 244 313 372
#     4  11  22  33  60  86 123 157 196 260 312 357
#     4  11  21  36  58  88 124 159 198 252 312 368
#     4  10  20  34  59  82 125 156 189 260 311 353
#
# _framework density 20.488859999999999
#
# number of rings (size 3 to 8) (size 9 to 14) (size 15 to 20)
#    0.000    1.143    5.714    3.000    6.000    0.571 
#    0.000    0.000    0.000    0.000    0.000    6.000 
#    0.000    0.000    0.000    0.000    0.000    0.000 
#
# Total GULP energy -156208.523019 kJ/mol
# GULP energy per Si atom -5578.875822 kJ/mol
# Density = 2.044223 g / cm^3
# Si number density = 20.488860 Si / 1000 Ang^3
#
#
#
# Elastic Constant Matrix: (Units=GPa)
#
#
# Indices 1 2 3 4 5 6 
#
# 1 114.2919 -7.5853 39.8681 0.0000 10.8900 0.0000
# 2 -7.5853 27.9340 -11.9564 0.0000 6.0968 0.0000
# 3 39.8681 -11.9564 131.6338 0.0000 1.6189 0.0000
# 4 0.0000 0.0000 0.0000 4.9106 0.0000 -3.9326
# 5 10.8900 6.0968 1.6189 0.0000 42.2962 0.0000
# 6 0.0000 0.0000 0.0000 -3.9326 0.0000 7.5998
#
#
#
# Elastic Compliance Matrix: (Units=1/GPa)
#
#
# Indices 1 2 3 4 5 6 
#
# 1 0.010153 0.002154 -0.002845 0.000000 -0.002816 0.000000
# 2 0.002154 0.039028 0.002970 0.000000 -0.006294 0.000000
# 3 -0.002845 0.002970 0.008729 0.000000 -0.000030 0.000000
# 4 0.000000 0.000000 0.000000 0.347754 0.000000 0.179949
# 5 -0.002816 -0.006294 -0.000030 0.000000 0.025276 0.000000
# 6 0.000000 0.000000 0.000000 0.179949 0.000000 0.224698
#
#
# Mechanical properties :
#
#
# Convention : Reuss Voigt Hill
#
# Bulk Modulus (GPa) = 16.00808 34.94584 25.47696
# Shear Modulus (GPa) = 7.44155 27.86354 17.65254
#
# Velocity S-wave (km/s) = 1.90785 3.69173 2.93843
# Velocity P-wave (km/s) = 3.56135 5.93842 4.89633
#
# Compressibility (1/GPa) = 0.06246844
#
# Stress axis : x y z
#
# Youngs Moduli (GPa) = 98.49199 25.62232 114.56615
#
# Poissons Ratio (x) = -0.05519 0.32592
# Poissons Ratio (y) = -0.21214 -0.34027
# Poissons Ratio (z) = 0.28019 -0.07610
#
# Static dielectric constant tensor:
#      x y z
#    x 1.770250 0.000000 0.031380 
#    y 0.000000 1.703980 0.000000 
#    z 0.031380 0.000000 1.726300 
# 
# From -- ./inp_files/146022.got.cif
#   From: 2010.05.17/outbox.cif.g08.bks.cpg/sg12_74_cif.got.tgz:146022.got - 2010.06.03 13:09:07.
