data_PCOD9189976
_publ_section_title
;
Structure prediction by ZEFSAII (Michael W. Deem and Ramdas Pophale) SiO2 
 PCOD9189976
Probable space group: C 2/M
;
_chemical_formula_sum "Si O2"
_cell_formula_units_Z 64
_cell_length_a 8.749297
_cell_length_b 26.229094
_cell_length_c 17.289133
_cell_angle_alpha 90.000000
_cell_angle_beta 138.561154
_cell_angle_gamma 90.000000
_cell_volume 2625.848925
_symmetry_space_group_name_H-M "C 2/M"
_symmetry_group_IT_number 12
_symmetry_cell_setting 'monoclinic'
loop_
_space_group_symop_operation_xyz
x,y,z
-x,y,-z
-x,-y,-z
x,-y,z
1/2+x,1/2+y,z
1/2-x,1/2+y,-z
1/2-x,1/2-y,-z
1/2+x,1/2-y,z
loop_
_atom_site_type_symbol
_atom_site_label
_atom_site_fract_x
_atom_site_fract_y
_atom_site_fract_z
Si Si1 0.293054 0.160133 0.220716
Si Si2 0.221523 0.586999 0.212867
Si Si3 0.634304 0.442989 0.468408
Si Si4 0.246464 0.421922 0.916351
Si Si5 0.858808 0.247206 0.151135
Si Si6 0.154917 0.666200 0.480974
Si Si7 0.185859 0.146961 0.907621
Si Si8 0.669960 0.695982 0.699340
O O1 0.314857 0.106702 0.186143
O O2 0.231216 0.202654 0.133248
O O3 0.508300 0.180824 0.350204
O O4 0.089423 0.151910 0.203996
O O5 0.448851 0.558669 0.327932
O O6 0.224134 0.610340 0.126992
O O7 0.229778 0.638920 0.268181
O O8 0.994349 0.554984 0.146618
O O9 0.500000 0.435304 0.500000
O O10 0.739567 0.500000 0.511827
O O11 0.796041 0.394515 0.511510
O O12 0.500000 0.445770 0.000000
O O13 0.280345 0.381234 0.998276
O O14 0.737320 0.206367 0.047491
O O15 0.859745 0.207801 0.222335
O O16 0.123434 0.265697 0.242834
O O17 0.406127 0.693599 0.569650
O O18 0.000000 0.675465 0.500000
#
# Coordination Sequence:
#
# PCOD9189976 Si02
#       8
#     8   8   8   8   8   8   8   8
#     4  11  21  37  54  81 117 158 207 256 298 357
#     4  10  19  39  61  85 121 157 194 247 311 367
#     4  10  22  40  68 101 126 153 193 242 305 382
#     4  10  21  36  60  85 109 159 206 254 310 356
#     4  11  20  36  53  79 116 158 214 260 298 345
#     4  11  24  41  61  89 125 164 202 248 308 372
#     4  10  22  38  55  81 119 158 214 257 303 348
#     4  10  22  36  55  82 117 163 207 257 300 354
#
# _framework density 24.373072000000001
#
# number of rings (size 3 to 8) (size 9 to 14) (size 15 to 20)
#    0.000    1.625    2.500    3.375    1.750    1.250 
#    2.250    1.250    0.000    1.875    0.000    1.750 
#    0.000    0.000    0.000    0.000    0.000    0.000 
#
# Total GULP energy -178366.142333 kJ/mol
# GULP energy per Si atom -5573.941948 kJ/mol
# Density = 2.431760 g / cm^3
# Si number density = 24.373072 Si / 1000 Ang^3
#
#
#
# Elastic Constant Matrix: (Units=GPa)
#
#
# Indices 1 2 3 4 5 6 
#
# 1 145.9674 29.1575 21.9623 0.0000 18.0987 0.0000
# 2 29.1575 106.3803 2.1115 0.0000 -0.4920 0.0000
# 3 21.9623 2.1115 80.9802 0.0007 13.2240 -0.0002
# 4 0.0000 0.0000 0.0007 -17.5230 0.0002 4.1764
# 5 18.0987 -0.4920 13.2240 0.0002 39.9762 -0.0001
# 6 0.0000 0.0000 -0.0002 4.1764 -0.0001 -32.1605
#
#
#
# Elastic Compliance Matrix: (Units=1/GPa)
#
#
# Indices 1 2 3 4 5 6 
#
# 1 0.007900 -0.002148 -0.001584 0.000000 -0.003079 0.000000
# 2 -0.002148 0.009991 0.000151 0.000000 0.001045 0.000000
# 3 -0.001584 0.000151 0.013380 0.000000 -0.003707 0.000000
# 4 0.000000 0.000000 0.000000 -0.058891 0.000000 -0.007648
# 5 -0.003079 0.001045 -0.003707 0.000000 0.027648 0.000000
# 6 0.000000 0.000000 0.000000 -0.007648 0.000000 -0.032087
#
#
# Mechanical properties :
#
#
# Convention : Reuss Voigt Hill
#
# Bulk Modulus (GPa) = 41.47726 48.86562 45.17144
# Shear Modulus (GPa) = -296.52523 16.73166 -139.89679
#
# Velocity S-wave (km/s) = -11.04197 2.62292 -7.58437
# Velocity P-wave (km/s) = 12.06284 5.40976 7.62387
#
# Compressibility (1/GPa) = 0.02410960
#
# Stress axis : x y z
#
# Youngs Moduli (GPa) = 126.58214 100.09176 74.74051
#
# Poissons Ratio (x) = 0.21501 0.11837
# Poissons Ratio (y) = 0.27191 -0.01131
# Poissons Ratio (z) = 0.20047 -0.01515
#
# Static dielectric constant tensor:
#      x y z
#    x 2.049990 0.000000 -0.026750 
#    y 0.000000 2.083940 0.000000 
#    z -0.026750 0.000000 2.076040 
# 
# From -- ./inp_files/260399.got.cif
#   From: 2010.05.17/outbox.cif.g08.bks.cpg/sg12_131_cif.got.tgz:260399.got - 2010.06.03 13:09:07.
