data_PCOD9189862
_publ_section_title
;
Structure prediction by ZEFSAII (Michael W. Deem and Ramdas Pophale) SiO2 
 PCOD9189862
Probable space group: C 2/M
;
_chemical_formula_sum "Si O2"
_cell_formula_units_Z 64
_cell_length_a 18.288404
_cell_length_b 9.508240
_cell_length_c 17.208176
_cell_angle_alpha 90.000000
_cell_angle_beta 94.412722
_cell_angle_gamma 90.000000
_cell_volume 2983.468710
_symmetry_space_group_name_H-M "C 2/M"
_symmetry_group_IT_number 12
_symmetry_cell_setting 'monoclinic'
loop_
_space_group_symop_operation_xyz
x,y,z
-x,y,-z
-x,-y,-z
x,-y,z
1/2+x,1/2+y,z
1/2-x,1/2+y,-z
1/2-x,1/2-y,-z
1/2+x,1/2-y,z
loop_
_atom_site_type_symbol
_atom_site_label
_atom_site_fract_x
_atom_site_fract_y
_atom_site_fract_z
Si Si1 0.784770 0.161788 0.571515
Si Si2 0.532876 0.840900 0.756789
Si Si3 0.652080 0.740538 0.651350
Si Si4 0.256060 0.842138 0.790048
Si Si5 0.080062 0.334406 0.043964
Si Si6 0.076844 0.160674 0.486318
Si Si7 0.602189 0.668803 0.204205
Si Si8 0.338561 0.162640 0.106287
O O1 0.750000 0.250000 0.500000
O O2 0.722418 0.168334 0.631189
O O3 0.869184 0.215988 0.577375
O O4 0.792031 0.000000 0.549848
O O5 0.585595 0.820955 0.687099
O O6 0.468357 0.727589 0.755632
O O7 0.587318 0.824293 0.835450
O O8 0.503148 0.000000 0.756590
O O9 0.690501 0.650443 0.721824
O O10 0.620726 0.666455 0.571854
O O11 0.323148 0.747361 0.764898
O O12 0.221179 0.765615 0.861942
O O13 0.281118 0.000000 0.809084
O O14 0.083083 0.500000 0.067725
O O15 0.090942 0.228868 0.115875
O O16 0.139052 0.311230 0.980462
O O17 0.000000 0.313311 0.000000
O O18 0.000000 0.234147 0.500000
O O19 0.059270 0.000000 0.461918
O O20 0.608076 0.500000 0.209102
O O21 0.314262 0.000000 0.112906
#
# Coordination Sequence:
#
# PCOD9189862 Si02
#       8
#     8   8   8   8   8   8   8   8
#     4   9  18  34  58  87 120 158 197 236 285 346
#     4  10  20  38  61  86 119 159 202 248 304 363
#     4  10  21  37  61  89 116 158 205 246 294 360
#     4  11  24  41  60  84 121 162 204 253 304 361
#     4  10  19  38  65  90 119 159 199 245 309 366
#     4   9  18  34  58  90 125 155 188 237 295 351
#     4  12  26  40  58  88 121 156 204 258 305 363
#     4   9  19  37  63  90 118 156 200 245 300 369
#
# _framework density 21.451539
#
# number of rings (size 3 to 8) (size 9 to 14) (size 15 to 20)
#    0.000    2.000    1.250    2.250    0.000    6.750 
#    0.000    1.250    0.000    9.375    0.000    0.000 
#    0.000    0.000    0.000    0.000    0.000    0.000 
#
# Total GULP energy -178405.130954 kJ/mol
# GULP energy per Si atom -5575.160342 kJ/mol
# Density = 2.140271 g / cm^3
# Si number density = 21.451539 Si / 1000 Ang^3
#
#
#
# Elastic Constant Matrix: (Units=GPa)
#
#
# Indices 1 2 3 4 5 6 
#
# 1 137.3416 53.9760 33.4512 0.0000 -31.2859 0.0000
# 2 53.9760 118.6216 18.9997 0.0000 -18.0401 0.0000
# 3 33.4512 18.9997 62.6772 0.0000 -17.1542 0.0000
# 4 0.0000 0.0000 0.0000 8.2248 0.0000 -1.1094
# 5 -31.2859 -18.0401 -17.1542 0.0000 47.6561 0.0000
# 6 0.0000 0.0000 0.0000 -1.1094 0.0000 27.2752
#
#
#
# Elastic Compliance Matrix: (Units=1/GPa)
#
#
# Indices 1 2 3 4 5 6 
#
# 1 0.010484 -0.003579 -0.003325 0.000000 0.004331 0.000000
# 2 -0.003579 0.010394 -0.000895 0.000000 0.001263 0.000000
# 3 -0.003325 -0.000895 0.019202 0.000000 0.004390 0.000000
# 4 0.000000 0.000000 0.000000 0.122254 0.000000 0.004973
# 5 0.004331 0.001263 0.004390 0.000000 0.025885 0.000000
# 6 0.000000 0.000000 0.000000 0.004973 0.000000 0.036866
#
#
# Mechanical properties :
#
#
# Convention : Reuss Voigt Hill
#
# Bulk Modulus (GPa) = 40.84641 59.05489 49.95065
# Shear Modulus (GPa) = 20.09281 30.77879 25.43580
#
# Velocity S-wave (km/s) = 3.06381 3.79199 3.44718
# Velocity P-wave (km/s) = 5.62125 6.83824 6.25939
#
# Compressibility (1/GPa) = 0.02448196
#
# Stress axis : x y z
#
# Youngs Moduli (GPa) = 95.38081 96.20689 52.07713
#
# Poissons Ratio (x) = 0.34436 0.17316
# Poissons Ratio (y) = 0.34140 0.04661
# Poissons Ratio (z) = 0.31715 0.08610
#
# Static dielectric constant tensor:
#      x y z
#    x 1.834660 0.000000 -0.028060 
#    y 0.000000 1.739200 0.000000 
#    z -0.028060 0.000000 1.847140 
# 
# From -- ./inp_files/314026.got.cif
#   From: 2010.05.17/outbox.cif.g08.bks.cpg/sg12_158_cif.got.tgz:314026.got - 2010.06.03 13:09:07.
