data_PCOD9189958
_publ_section_title
;
Structure prediction by ZEFSAII (Michael W. Deem and Ramdas Pophale) SiO2 
 PCOD9189958
Probable space group: C 2/M
;
_chemical_formula_sum "Si O2"
_cell_formula_units_Z 48
_cell_length_a 16.668265
_cell_length_b 24.983716
_cell_length_c 7.421115
_cell_angle_alpha 90.000000
_cell_angle_beta 54.009100
_cell_angle_gamma 90.000000
_cell_volume 2500.485516
_symmetry_space_group_name_H-M "C 2/M"
_symmetry_group_IT_number 12
_symmetry_cell_setting 'monoclinic'
loop_
_space_group_symop_operation_xyz
x,y,z
-x,y,-z
-x,-y,-z
x,-y,z
1/2+x,1/2+y,z
1/2-x,1/2+y,-z
1/2-x,1/2-y,-z
1/2+x,1/2-y,z
loop_
_atom_site_type_symbol
_atom_site_label
_atom_site_fract_x
_atom_site_fract_y
_atom_site_fract_z
Si Si1 0.704860 0.143788 0.451425
Si Si2 0.816715 0.438038 0.189082
Si Si3 0.405206 0.874239 0.745359
Si Si4 0.019117 0.720026 0.760394
Si Si5 0.423502 0.333117 0.262457
Si Si6 0.093243 0.057302 0.506583
O O1 0.687653 0.096152 0.619685
O O2 0.686979 0.124670 0.270274
O O3 0.618013 0.186109 0.599063
O O4 0.810595 0.171588 0.342038
O O5 0.845889 0.500000 0.178748
O O6 0.701915 0.437786 0.273673
O O7 0.884303 0.409128 0.950357
O O8 0.500000 0.892578 0.500000
O O9 0.433414 0.813962 0.774143
O O10 0.040936 0.780914 0.674787
O O11 0.000000 0.720701 0.000000
O O12 0.423092 0.389385 0.361599
O O13 0.500000 0.337445 0.000000
O O14 0.000000 0.054318 0.500000
O O15 0.097581 0.000000 0.603528
#
# Coordination Sequence:
#
# PCOD9189958 Si02
#       6
#     8   8   8   8   8   8
#     4  10  21  39  61  84 121 160 196 243 297 345
#     4  10  21  39  61  87 121 158 195 246 296 350
#     4  10  22  37  62  87 119 158 198 241 299 349
#     4  10  19  39  59  82 121 158 191 244 295 350
#     4  10  22  36  59  90 117 150 201 243 293 351
#     4   9  20  38  59  83 117 158 195 239 297 347
#
# _framework density 19.196272
#
# number of rings (size 3 to 8) (size 9 to 14) (size 15 to 20)
#    0.000    2.167    1.667    0.500    2.333    3.333 
#    0.000    9.167    0.000    0.000    0.000    0.000 
#    0.000    0.000    0.000    0.000    0.000    0.000 
#
# Total GULP energy -133703.260673 kJ/mol
# GULP energy per Si atom -5570.969195 kJ/mol
# Density = 1.915258 g / cm^3
# Si number density = 19.196272 Si / 1000 Ang^3
#
#
#
# Elastic Constant Matrix: (Units=GPa)
#
#
# Indices 1 2 3 4 5 6 
#
# 1 75.8936 31.0725 20.8533 0.0000 4.6039 0.0000
# 2 31.0725 151.8483 51.8504 0.0000 -0.4679 0.0000
# 3 20.8533 51.8504 71.8864 0.0000 5.5058 0.0000
# 4 0.0000 0.0000 0.0000 17.4592 0.0000 -20.0714
# 5 4.6039 -0.4679 5.5058 0.0000 19.6863 0.0000
# 6 0.0000 0.0000 0.0000 -20.0714 0.0000 0.1643
#
#
#
# Elastic Compliance Matrix: (Units=1/GPa)
#
#
# Indices 1 2 3 4 5 6 
#
# 1 0.014946 -0.002204 -0.002529 0.000000 -0.002840 0.000000
# 2 -0.002204 0.009141 -0.006142 0.000000 0.002450 0.000000
# 3 -0.002529 -0.006142 0.019457 0.000000 -0.004996 0.000000
# 4 0.000000 0.000000 0.000000 -0.000411 0.000000 -0.050180
# 5 -0.002840 0.002450 -0.004996 0.000000 0.052917 0.000000
# 6 0.000000 0.000000 0.000000 -0.050180 0.000000 -0.043649
#
#
# Mechanical properties :
#
#
# Convention : Reuss Voigt Hill
#
# Bulk Modulus (GPa) = 45.88030 56.35340 51.11685
# Shear Modulus (GPa) = 61.41471 20.51877 40.96674
#
# Velocity S-wave (km/s) = 5.66238 3.27294 4.62464
# Velocity P-wave (km/s) = 8.16716 6.61083 7.42986
#
# Compressibility (1/GPa) = 0.02179585
#
# Stress axis : x y z
#
# Youngs Moduli (GPa) = 66.90913 109.39480 51.39538
#
# Poissons Ratio (x) = 0.24107 0.12995
# Poissons Ratio (y) = 0.14745 0.31566
# Poissons Ratio (z) = 0.16918 0.67188
#
# Static dielectric constant tensor:
#      x y z
#    x 1.725730 0.000000 0.009560 
#    y 0.000000 1.714240 0.000000 
#    z 0.009560 0.000000 1.662850 
# 
# From -- ./inp_files/77260.got.cif
#   From: 2010.05.17/outbox.cif.g08.bks.cpg/sg12_39_cif.got.tgz:77260.got - 2010.06.03 13:09:07.
