data_PCOD9189074
_publ_section_title
;
Structure prediction by ZEFSAII (Michael W. Deem and Ramdas Pophale) SiO2 
 PCOD9189074
Probable space group: C 2/M
;
_chemical_formula_sum "Si O2"
_cell_formula_units_Z 64
_cell_length_a 18.777348
_cell_length_b 20.884791
_cell_length_c 8.435374
_cell_angle_alpha 90.000000
_cell_angle_beta 81.977769
_cell_angle_gamma 90.000000
_cell_volume 3275.652259
_symmetry_space_group_name_H-M "C 2/M"
_symmetry_group_IT_number 12
_symmetry_cell_setting 'monoclinic'
loop_
_space_group_symop_operation_xyz
x,y,z
-x,y,-z
-x,-y,-z
x,-y,z
1/2+x,1/2+y,z
1/2-x,1/2+y,-z
1/2-x,1/2-y,-z
1/2+x,1/2-y,z
loop_
_atom_site_type_symbol
_atom_site_label
_atom_site_fract_x
_atom_site_fract_y
_atom_site_fract_z
Si Si1 0.644261 0.071198 0.159644
Si Si2 0.340270 0.700416 0.907712
Si Si3 0.145487 0.832639 0.734249
Si Si4 0.987584 0.193467 0.688331
Si Si5 0.751256 0.426077 0.566348
Si Si6 0.834600 0.694171 0.405204
Si Si7 0.182021 0.670467 0.917704
Si Si8 0.947212 0.333225 0.639514
O O1 0.697815 0.072351 0.293450
O O2 0.579392 0.117415 0.224845
O O3 0.620202 0.000000 0.138067
O O4 0.681944 0.102007 0.997107
O O5 0.410524 0.676831 0.791196
O O6 0.264210 0.688411 0.846642
O O7 0.333727 0.671552 0.087158
O O8 0.342536 0.776453 0.945770
O O9 0.175484 0.897104 0.647324
O O10 0.179458 0.770288 0.629622
O O11 0.059349 0.828746 0.753590
O O12 0.986400 0.270673 0.691420
O O13 0.000000 0.174885 0.500000
O O14 0.748407 0.500000 0.507042
O O15 0.783309 0.367992 0.450317
O O16 0.866468 0.675663 0.222656
O O17 0.882438 0.693616 0.548845
O O18 0.000000 0.367581 0.500000
#
# Coordination Sequence:
#
# PCOD9189074 Si02
#       8
#     8   8   8   8   8   8   8   8
#     4  10  20  37  59  81 117 159 192 232 288 361
#     4  10  21  35  54  87 119 144 188 244 301 335
#     4  11  20  36  60  88 116 155 193 244 290 347
#     4  11  21  34  58  86 118 149 188 242 293 344
#     4  10  22  38  58  86 122 156 196 241 292 349
#     4  10  21  33  60  89 114 153 192 246 293 340
#     4  10  20  34  56  85 117 147 187 249 289 341
#     4  10  19  37  54  85 118 150 192 235 292 350
#
# _framework density 19.538093
#
# number of rings (size 3 to 8) (size 9 to 14) (size 15 to 20)
#    0.000    1.750    5.000    0.750    1.750    0.750 
#    0.000    0.625    0.000    3.375    0.000    0.000 
#    0.000    0.000    0.000    0.000    0.000    0.000 
#
# Total GULP energy -178152.602016 kJ/mol
# GULP energy per Si atom -5567.268813 kJ/mol
# Density = 1.949362 g / cm^3
# Si number density = 19.538093 Si / 1000 Ang^3
#
#
#
# Elastic Constant Matrix: (Units=GPa)
#
#
# Indices 1 2 3 4 5 6 
#
# 1 51.0871 -1.1473 0.8222 0.0000 -13.4427 0.0000
# 2 -1.1473 66.6745 16.8665 0.0000 -12.6996 0.0000
# 3 0.8222 16.8665 40.7386 0.0000 -2.1911 0.0000
# 4 0.0000 0.0000 0.0000 20.0775 0.0000 -1.7876
# 5 -13.4427 -12.6996 -2.1911 0.0000 33.1109 0.0000
# 6 0.0000 0.0000 0.0000 -1.7876 0.0000 16.5345
#
#
#
# Elastic Compliance Matrix: (Units=1/GPa)
#
#
# Indices 1 2 3 4 5 6 
#
# 1 0.022262 0.002519 -0.000957 0.000000 0.009941 0.000000
# 2 0.002519 0.018311 -0.007225 0.000000 0.007567 0.000000
# 3 -0.000957 -0.007225 0.027485 0.000000 -0.001341 0.000000
# 4 0.000000 0.000000 0.000000 0.050291 0.000000 0.005437
# 5 0.009941 0.007567 -0.001341 0.000000 0.037051 0.000000
# 6 0.000000 0.000000 0.000000 0.005437 0.000000 0.061067
#
#
# Mechanical properties :
#
#
# Convention : Reuss Voigt Hill
#
# Bulk Modulus (GPa) = 17.62704 21.28699 19.45701
# Shear Modulus (GPa) = 20.26714 23.40851 21.83782
#
# Velocity S-wave (km/s) = 3.22423 3.46511 3.34684
# Velocity P-wave (km/s) = 4.78564 5.18923 4.99151
#
# Compressibility (1/GPa) = 0.05673103
#
# Stress axis : x y z
#
# Youngs Moduli (GPa) = 44.91923 54.61317 36.38330
#
# Poissons Ratio (x) = -0.13756 0.03484
# Poissons Ratio (y) = -0.11314 0.26286
# Poissons Ratio (z) = 0.04301 0.39457
#
# Static dielectric constant tensor:
#      x y z
#    x 1.756400 0.000000 -0.012110 
#    y 0.000000 1.669600 0.000000 
#    z -0.012110 0.000000 1.737580 
# 
# From -- ./inp_files/89153.got.cif
#   From: 2010.05.17/outbox.cif.g08.bks.cpg/sg12_45_cif.got.tgz:89153.got - 2010.06.03 13:09:07.
