data_PCOD9189030
_publ_section_title
;
Structure prediction by ZEFSAII (Michael W. Deem and Ramdas Pophale) SiO2 
 PCOD9189030
Probable space group: C 2/M
;
_chemical_formula_sum "Si O2"
_cell_formula_units_Z 56
_cell_length_a 16.718266
_cell_length_b 30.027410
_cell_length_c 7.611535
_cell_angle_alpha 90.000000
_cell_angle_beta 143.213445
_cell_angle_gamma 90.000000
_cell_volume 2288.173883
_symmetry_space_group_name_H-M "C 2/M"
_symmetry_group_IT_number 12
_symmetry_cell_setting 'monoclinic'
loop_
_space_group_symop_operation_xyz
x,y,z
-x,y,-z
-x,-y,-z
x,-y,z
1/2+x,1/2+y,z
1/2-x,1/2+y,-z
1/2-x,1/2-y,-z
1/2+x,1/2-y,z
loop_
_atom_site_type_symbol
_atom_site_label
_atom_site_fract_x
_atom_site_fract_y
_atom_site_fract_z
Si Si1 0.221351 0.798064 0.867242
Si Si2 0.388258 0.577528 0.187478
Si Si3 0.474775 0.858613 0.247857
Si Si4 0.625867 0.717993 0.325040
Si Si5 0.663899 0.052319 0.069890
Si Si6 0.096638 0.950464 0.298438
Si Si7 0.726947 0.349548 0.241379
O O1 0.121731 0.790320 0.527349
O O2 0.250000 0.750000 0.000000
O O3 0.348743 0.825203 0.007903
O O4 0.191534 0.824485 0.994896
O O5 0.500000 0.605651 0.500000
O O6 0.268748 0.557368 0.092674
O O7 0.498799 0.546035 0.294080
O O8 0.308542 0.601733 0.890769
O O9 0.500000 0.860777 0.500000
O O10 0.618184 0.843201 0.432646
O O11 0.443799 0.909062 0.134874
O O12 0.750000 0.750000 0.500000
O O13 0.648555 0.671477 0.264053
O O14 0.500000 0.738159 0.000000
O O15 0.760111 0.067047 0.399152
O O16 0.624506 0.000000 0.015009
O O17 0.124057 0.000000 0.276806
O O18 0.000000 0.924725 0.000000
#
# Coordination Sequence:
#
# PCOD9189030 Si02
#       7
#     8   8   8   8   8   8   8
#     4  11  24  46  75  98 139 187 231 288 351 416
#     4  10  20  36  60  91 134 175 230 287 355 416
#     4  10  22  42  68  97 135 187 230 284 366 419
#     4  12  30  46  73 109 138 183 243 289 355 428
#     4  10  19  36  65  99 132 175 235 295 350 431
#     4   9  19  35  58  88 131 178 224 285 354 414
#     4  11  25  45  68 100 142 179 231 288 348 424
#
# _framework density 24.473663999999999
#
# number of rings (size 3 to 8) (size 9 to 14) (size 15 to 20)
#    0.000    1.571    4.286    0.429    4.000    4.857 
#    0.000    0.000    0.000    0.000    0.000    5.000 
#    0.000    0.000    0.000    0.000    0.000    0.000 
#
# Total GULP energy -156020.578280 kJ/mol
# GULP energy per Si atom -5572.163510 kJ/mol
# Density = 2.441796 g / cm^3
# Si number density = 24.473664 Si / 1000 Ang^3
#
#
#
# Elastic Constant Matrix: (Units=GPa)
#
#
# Indices 1 2 3 4 5 6 
#
# 1 48.2657 8.8793 26.2711 0.0000 -15.1485 0.0000
# 2 8.8793 89.0648 34.0096 0.0000 3.7454 0.0000
# 3 26.2711 34.0096 136.1472 0.0000 -3.1519 0.0000
# 4 0.0000 0.0000 0.0000 4.8874 0.0000 1.4325
# 5 -15.1485 3.7454 -3.1519 0.0000 32.3818 0.0000
# 6 0.0000 0.0000 0.0000 1.4325 0.0000 17.7363
#
#
#
# Elastic Compliance Matrix: (Units=1/GPa)
#
#
# Indices 1 2 3 4 5 6 
#
# 1 0.027461 -0.001497 -0.004634 0.000000 0.012569 0.000000
# 2 -0.001497 0.012592 -0.002913 0.000000 -0.002440 0.000000
# 3 -0.004634 -0.002913 0.008945 0.000000 -0.000960 0.000000
# 4 0.000000 0.000000 0.000000 0.209569 0.000000 -0.016926
# 5 0.012569 -0.002440 -0.000960 0.000000 0.036950 0.000000
# 6 0.000000 0.000000 0.000000 -0.016926 0.000000 0.057749
#
#
# Mechanical properties :
#
#
# Convention : Reuss Voigt Hill
#
# Bulk Modulus (GPa) = 32.35218 45.75530 39.05374
# Shear Modulus (GPa) = 13.10080 24.62229 18.86154
#
# Velocity S-wave (km/s) = 2.31617 3.17531 2.77914
# Velocity P-wave (km/s) = 4.51672 5.67272 5.12740
#
# Compressibility (1/GPa) = 0.03090982
#
# Stress axis : x y z
#
# Youngs Moduli (GPa) = 36.41517 79.41546 111.79847
#
# Poissons Ratio (x) = 0.11886 0.51808
# Poissons Ratio (y) = 0.05450 0.32569
# Poissons Ratio (z) = 0.16875 0.23135
#
# Static dielectric constant tensor:
#      x y z
#    x 2.084390 0.000000 -0.001130 
#    y 0.000000 2.035970 0.000000 
#    z -0.001130 0.000000 2.056030 
# 
# From -- ./inp_files/91630.got.cif
#   From: 2010.05.17/outbox.cif.g08.bks.cpg/sg12_46_cif.got.tgz:91630.got - 2010.06.03 13:09:07.
