data_PCOD9189783
_publ_section_title
;
Structure prediction by ZEFSAII (Michael W. Deem and Ramdas Pophale) SiO2 
 PCOD9189783
Probable space group: C 2/M
;
_chemical_formula_sum "Si O2"
_cell_formula_units_Z 64
_cell_length_a 24.644402
_cell_length_b 7.754904
_cell_length_c 15.854289
_cell_angle_alpha 90.000000
_cell_angle_beta 91.002784
_cell_angle_gamma 90.000000
_cell_volume 3029.527937
_symmetry_space_group_name_H-M "C 2/M"
_symmetry_group_IT_number 12
_symmetry_cell_setting 'monoclinic'
loop_
_space_group_symop_operation_xyz
x,y,z
-x,y,-z
-x,-y,-z
x,-y,z
1/2+x,1/2+y,z
1/2-x,1/2+y,-z
1/2-x,1/2-y,-z
1/2+x,1/2-y,z
loop_
_atom_site_type_symbol
_atom_site_label
_atom_site_fract_x
_atom_site_fract_y
_atom_site_fract_z
Si Si1 0.887167 0.800623 0.857068
Si Si2 0.998009 0.710501 0.596663
Si Si3 0.118585 0.709210 0.332571
Si Si4 0.768789 0.293165 0.593690
Si Si5 0.197461 0.796195 0.748428
Si Si6 0.504428 0.198469 0.906964
Si Si7 0.227397 0.205668 0.090804
Si Si8 0.572111 0.795830 0.751545
O O1 0.873101 0.788769 0.758569
O O2 0.943194 0.702130 0.871273
O O3 0.834352 0.728161 0.902557
O O4 0.896207 0.000000 0.881881
O O5 0.001013 0.500000 0.593547
O O6 0.939656 0.758274 0.632856
O O7 0.000000 0.771068 0.500000
O O8 0.044075 0.770236 0.664301
O O9 0.118926 0.500000 0.324474
O O10 0.169370 0.763607 0.390364
O O11 0.768852 0.500000 0.602141
O O12 0.750000 0.250000 0.500000
O O13 0.729839 0.226090 0.667520
O O14 0.233884 0.768350 0.832707
O O15 0.136665 0.724959 0.754833
O O16 0.190957 0.000000 0.736949
O O17 0.543200 0.276111 0.835548
O O18 0.523025 0.000000 0.920013
O O19 0.500000 0.279385 0.000000
O O20 0.224261 0.000000 0.099825
O O21 0.250000 0.250000 0.000000
O O22 0.559685 0.000000 0.752215
#
# Coordination Sequence:
#
# PCOD9189783 Si02
#       8
#     8   8   8   8   8   8   8   8
#     4  11  23  39  62  91 120 152 194 251 306 349
#     4   9  18  33  58  88 114 147 196 245 290 346
#     4  10  19  38  63  85 114 155 201 247 294 354
#     4  10  23  39  61  89 120 161 204 249 303 358
#     4  11  24  42  61  87 125 164 202 250 306 362
#     4  10  22  40  62  88 118 158 201 241 290 355
#     4  11  25  43  64  92 122 159 204 250 304 363
#     4  10  21  38  60  87 119 158 201 245 295 355
#
# _framework density 21.125402999999999
#
# number of rings (size 3 to 8) (size 9 to 14) (size 15 to 20)
#    0.000    1.750    2.500    1.125    3.500    3.750 
#    0.000    0.000    0.000    0.750    0.000    0.000 
#    0.000    0.000    0.000    0.000    0.000    0.000 
#
# Total GULP energy -178705.026986 kJ/mol
# GULP energy per Si atom -5584.532093 kJ/mol
# Density = 2.107732 g / cm^3
# Si number density = 21.125403 Si / 1000 Ang^3
#
#
#
# Elastic Constant Matrix: (Units=GPa)
#
#
# Indices 1 2 3 4 5 6 
#
# 1 105.0483 -5.8782 21.5293 0.0000 -8.3448 0.0000
# 2 -5.8782 28.0627 -4.4426 0.0000 -4.0222 0.0000
# 3 21.5293 -4.4426 105.2056 0.0000 -6.6954 0.0000
# 4 0.0000 0.0000 0.0000 16.2299 0.0000 6.9616
# 5 -8.3448 -4.0222 -6.6954 0.0000 40.0671 0.0000
# 6 0.0000 0.0000 0.0000 6.9616 0.0000 9.8023
#
#
#
# Elastic Compliance Matrix: (Units=1/GPa)
#
#
# Indices 1 2 3 4 5 6 
#
# 1 0.010181 0.002127 -0.001865 0.000000 0.002022 0.000000
# 2 0.002127 0.036931 0.001403 0.000000 0.004385 0.000000
# 3 -0.001865 0.001403 0.010037 0.000000 0.001430 0.000000
# 4 0.000000 0.000000 0.000000 0.088608 0.000000 -0.062929
# 5 0.002022 0.004385 0.001430 0.000000 0.026058 0.000000
# 6 0.000000 0.000000 0.000000 -0.062929 0.000000 0.146709
#
#
# Mechanical properties :
#
#
# Convention : Reuss Voigt Hill
#
# Bulk Modulus (GPa) = 16.53436 28.97040 22.75238
# Shear Modulus (GPa) = 14.90966 28.36040 21.63503
#
# Velocity S-wave (km/s) = 2.65951 3.66796 3.20367
# Velocity P-wave (km/s) = 4.15625 5.62867 4.94754
#
# Compressibility (1/GPa) = 0.06048010
#
# Stress axis : x y z
#
# Youngs Moduli (GPa) = 98.21888 27.07778 99.63052
#
# Poissons Ratio (x) = -0.05760 0.18581
# Poissons Ratio (y) = -0.20894 -0.13980
# Poissons Ratio (z) = 0.18318 -0.03800
#
# Static dielectric constant tensor:
#      x y z
#    x 1.750710 0.000000 -0.011290 
#    y 0.000000 1.773720 0.000000 
#    z -0.011290 0.000000 1.763090 
# 
# From -- ./inp_files/238634.got.cif
#   From: 2010.05.17/outbox.cif.g08.bks.cpg/sg12_120_cif.got.tgz:238634.got - 2010.06.03 13:09:07.
