data_PCOD9189897
_publ_section_title
;
Structure prediction by ZEFSAII (Michael W. Deem and Ramdas Pophale) SiO2 
 PCOD9189897
Probable space group: C 2/M
;
_chemical_formula_sum "Si O2"
_cell_formula_units_Z 42
_cell_length_a 19.536469
_cell_length_b 9.914471
_cell_length_c 11.603434
_cell_angle_alpha 90.000000
_cell_angle_beta 69.696487
_cell_angle_gamma 90.000000
_cell_volume 2107.869485
_symmetry_space_group_name_H-M "C 2/M"
_symmetry_group_IT_number 12
_symmetry_cell_setting 'monoclinic'
loop_
_space_group_symop_operation_xyz
x,y,z
-x,y,-z
-x,-y,-z
x,-y,z
1/2+x,1/2+y,z
1/2-x,1/2+y,-z
1/2-x,1/2-y,-z
1/2+x,1/2-y,z
loop_
_atom_site_type_symbol
_atom_site_label
_atom_site_fract_x
_atom_site_fract_y
_atom_site_fract_z
Si Si1 0.136874 0.659599 0.101597
Si Si2 0.500000 0.500000 0.000000
Si Si3 0.324598 0.845111 0.167407
Si Si4 0.797164 0.339241 0.691764
Si Si5 0.029713 0.252584 0.815191
Si Si6 0.433724 0.841205 0.448523
O O1 0.148791 0.500000 0.091336
O O2 0.166696 0.705688 0.207335
O O3 0.051008 0.685500 0.142358
O O4 0.174922 0.713548 0.963532
O O5 0.522745 0.617239 0.892355
O O6 0.275167 0.749797 0.275398
O O7 0.408217 0.840224 0.158832
O O8 0.298776 0.000000 0.184444
O O9 0.781387 0.500000 0.706095
O O10 0.857599 0.318770 0.558365
O O11 0.055000 0.246794 0.667730
O O12 0.500000 0.824027 0.500000
O O13 0.436263 0.000000 0.409935
#
# Coordination Sequence:
#
# PCOD9189897 Si02
#       6
#     8   2   8   8   8   8
#     4  10  19  38  66  94 121 168 220 276 320 376
#     4  12  28  44  60 104 128 176 216 272 342 388
#     4  11  23  38  61  95 133 176 220 267 329 391
#     4  10  22  39  64  96 132 171 217 271 330 387
#     4  12  23  42  65  92 129 166 221 273 326 388
#     4  10  20  40  70  98 124 165 221 273 325 391
#
# _framework density 19.925332000000001
#
# number of rings (size 3 to 8) (size 9 to 14) (size 15 to 20)
#    0.000    1.333    3.810    2.286    1.333    2.286 
#    3.429    0.476    0.000    0.000    0.000    0.000 
#    0.000    0.000    0.000    0.000    0.000    0.000 
#
# Total GULP energy -116950.494332 kJ/mol
# GULP energy per Si atom -5569.071159 kJ/mol
# Density = 1.987998 g / cm^3
# Si number density = 19.925332 Si / 1000 Ang^3
#
#
#
# Elastic Constant Matrix: (Units=GPa)
#
#
# Indices 1 2 3 4 5 6 
#
# 1 58.3209 14.3170 23.5510 0.0000 -12.5570 0.0000
# 2 14.3170 48.3084 59.5489 0.0000 -4.7034 0.0000
# 3 23.5510 59.5489 139.6990 0.0000 -9.6477 0.0000
# 4 0.0000 0.0000 0.0000 0.1501 0.0000 -1.2350
# 5 -12.5570 -4.7034 -9.6477 0.0000 31.8998 0.0000
# 6 0.0000 0.0000 0.0000 -1.2350 0.0000 -16.5973
#
#
#
# Elastic Compliance Matrix: (Units=1/GPa)
#
#
# Indices 1 2 3 4 5 6 
#
# 1 0.020080 -0.003568 -0.001384 0.000000 0.006960 0.000000
# 2 -0.003568 0.044276 -0.018300 0.000000 -0.000411 0.000000
# 3 -0.001384 -0.018300 0.015288 0.000000 0.001381 0.000000
# 4 0.000000 0.000000 0.000000 4.132748 0.000000 -0.307511
# 5 0.006960 -0.000411 0.001381 0.000000 0.034445 0.000000
# 6 0.000000 0.000000 0.000000 -0.307511 0.000000 -0.037369
#
#
# Mechanical properties :
#
#
# Convention : Reuss Voigt Hill
#
# Bulk Modulus (GPa) = 30.17499 49.01799 39.59649
# Shear Modulus (GPa) = 1.17178 13.01793 7.09485
#
# Velocity S-wave (km/s) = 0.76770 2.55882 1.88903
# Velocity P-wave (km/s) = 3.99534 5.77792 4.96724
#
# Compressibility (1/GPa) = 0.03314003
#
# Stress axis : x y z
#
# Youngs Moduli (GPa) = 49.80194 22.58551 65.41220
#
# Poissons Ratio (x) = 0.08058 0.09051
# Poissons Ratio (y) = 0.17768 1.19707
# Poissons Ratio (z) = 0.06891 0.41332
#
# Static dielectric constant tensor:
#      x y z
#    x 1.718270 0.000000 0.031160 
#    y 0.000000 1.662550 0.000000 
#    z 0.031160 0.000000 1.738110 
# 
# From -- ./inp_files/162983.got.cif
#   From: 2010.05.17/outbox.cif.g08.bks.cpg/sg12_82_cif.got.tgz:162983.got - 2010.06.03 13:09:07.
