data_PCOD9189768
_publ_section_title
;
Structure prediction by ZEFSAII (Michael W. Deem and Ramdas Pophale) SiO2 
 PCOD9189768
Probable space group: C 2/M
;
_chemical_formula_sum "Si O2"
_cell_formula_units_Z 60
_cell_length_a 18.657839
_cell_length_b 9.224066
_cell_length_c 19.183724
_cell_angle_alpha 90.000000
_cell_angle_beta 129.371085
_cell_angle_gamma 90.000000
_cell_volume 2552.268612
_symmetry_space_group_name_H-M "C 2/M"
_symmetry_group_IT_number 12
_symmetry_cell_setting 'monoclinic'
loop_
_space_group_symop_operation_xyz
x,y,z
-x,y,-z
-x,-y,-z
x,-y,z
1/2+x,1/2+y,z
1/2-x,1/2+y,-z
1/2-x,1/2-y,-z
1/2+x,1/2-y,z
loop_
_atom_site_type_symbol
_atom_site_label
_atom_site_fract_x
_atom_site_fract_y
_atom_site_fract_z
Si Si1 0.798332 0.333813 0.322437
Si Si2 0.594800 0.670466 0.128818
Si Si3 0.527670 0.674660 0.229744
Si Si4 0.587402 0.332374 0.502493
Si Si5 0.345616 0.173762 0.582734
Si Si6 0.321672 0.730765 0.960194
Si Si7 0.219741 0.000000 0.964549
Si Si8 0.621179 0.160993 0.776317
O O1 0.809670 0.500000 0.355508
O O2 0.695909 0.320299 0.228187
O O3 0.825613 0.218320 0.397138
O O4 0.865738 0.313165 0.297514
O O5 0.575835 0.500000 0.105124
O O6 0.529697 0.727110 0.150604
O O7 0.607567 0.739449 0.060549
O O8 0.538990 0.500000 0.238022
O O9 0.612815 0.752219 0.322681
O O10 0.439123 0.721908 0.220636
O O11 0.500000 0.320887 0.500000
O O12 0.595389 0.500000 0.484190
O O13 0.584389 0.223598 0.435808
O O14 0.250000 0.250000 0.500000
O O15 0.337279 0.000000 0.582514
O O16 0.226198 0.659916 0.870132
O O17 0.286471 0.877414 0.970675
O O18 0.344029 0.623649 0.036260
O O19 0.581098 0.000000 0.763644
#
# Coordination Sequence:
#
# PCOD9189768 Si02
#       8
#     8   8   8   8   8   8   4   8
#     4   9  18  34  57  78 103 147 196 242 290 344
#     4   9  18  37  58  81 112 148 190 231 282 335
#     4  11  23  37  59  85 118 159 195 241 291 349
#     4  11  23  37  54  81 115 148 191 248 300 348
#     4  12  25  42  61  83 114 156 203 250 303 356
#     4  10  19  38  62  94 116 153 190 239 277 342
#     4  10  20  34  66  94 120 146 190 234 288 332
#     4  10  20  37  58  85 121 157 196 239 294 343
#
# _framework density 23.508496000000001
#
# number of rings (size 3 to 8) (size 9 to 14) (size 15 to 20)
#    0.000    1.733    1.333    4.400    0.933    4.800 
#    6.000    0.000    0.000    4.800    0.000    0.000 
#    0.000    0.000    0.000    0.000    0.000    0.000 
#
# Total GULP energy -167292.892308 kJ/mol
# GULP energy per Si atom -5576.429744 kJ/mol
# Density = 2.345499 g / cm^3
# Si number density = 23.508496 Si / 1000 Ang^3
#
#
#
# Elastic Constant Matrix: (Units=GPa)
#
#
# Indices 1 2 3 4 5 6 
#
# 1 124.5447 40.9511 18.1624 0.0000 -17.3839 0.0000
# 2 40.9511 141.6371 36.8135 0.0000 -25.2503 0.0000
# 3 18.1624 36.8135 80.2741 0.0000 -14.6494 0.0000
# 4 0.0000 0.0000 0.0000 -3.3823 0.0000 -15.3447
# 5 -17.3839 -25.2503 -14.6494 0.0000 43.4703 0.0000
# 6 0.0000 0.0000 0.0000 -15.3447 0.0000 6.8512
#
#
#
# Elastic Compliance Matrix: (Units=1/GPa)
#
#
# Indices 1 2 3 4 5 6 
#
# 1 0.009118 -0.002056 -0.000717 0.000000 0.002211 0.000000
# 2 -0.002056 0.009059 -0.003068 0.000000 0.003406 0.000000
# 3 -0.000717 -0.003068 0.014543 0.000000 0.002832 0.000000
# 4 0.000000 0.000000 0.000000 -0.026490 0.000000 -0.059330
# 5 0.002211 0.003406 0.002832 0.000000 0.026821 0.000000
# 6 0.000000 0.000000 0.000000 -0.059330 0.000000 0.013078
#
#
# Mechanical properties :
#
#
# Convention : Reuss Voigt Hill
#
# Bulk Modulus (GPa) = 47.52882 59.81220 53.67051
# Shear Modulus (GPa) = 77.13165 26.08977 51.61071
#
# Velocity S-wave (km/s) = 5.73423 3.33498 4.69060
# Velocity P-wave (km/s) = 8.00646 6.35039 7.22603
#
# Compressibility (1/GPa) = 0.02103987
#
# Stress axis : x y z
#
# Youngs Moduli (GPa) = 109.66900 110.38341 68.76029
#
# Poissons Ratio (x) = 0.22694 0.04929
# Poissons Ratio (y) = 0.22547 0.21094
# Poissons Ratio (z) = 0.07861 0.33864
#
# Static dielectric constant tensor:
#      x y z
#    x 1.954050 0.000000 0.037250 
#    y 0.000000 1.789910 0.000000 
#    z 0.037250 0.000000 1.983990 
# 
# From -- ./inp_files/314268.got.cif
#   From: 2010.05.17/outbox.cif.g08.bks.cpg/sg12_158_cif.got.tgz:314268.got - 2010.06.03 13:09:07.
