data_PCOD9189507
_publ_section_title
;
Structure prediction by ZEFSAII (Michael W. Deem and Ramdas Pophale) SiO2 
 PCOD9189507
Probable space group: C 2/M
;
_chemical_formula_sum "Si O2"
_cell_formula_units_Z 50
_cell_length_a 14.648405
_cell_length_b 7.597146
_cell_length_c 19.337064
_cell_angle_alpha 90.000000
_cell_angle_beta 118.147506
_cell_angle_gamma 90.000000
_cell_volume 1897.448222
_symmetry_space_group_name_H-M "C 2/M"
_symmetry_group_IT_number 12
_symmetry_cell_setting 'monoclinic'
loop_
_space_group_symop_operation_xyz
x,y,z
-x,y,-z
-x,-y,-z
x,-y,z
1/2+x,1/2+y,z
1/2-x,1/2+y,-z
1/2-x,1/2-y,-z
1/2+x,1/2-y,z
loop_
_atom_site_type_symbol
_atom_site_label
_atom_site_fract_x
_atom_site_fract_y
_atom_site_fract_z
Si Si1 0.600751 0.706552 0.350010
Si Si2 0.055956 0.289124 0.174917
Si Si3 0.611896 0.702203 0.050629
Si Si4 0.874182 0.703156 0.297977
Si Si5 0.669448 0.784848 0.874129
Si Si6 0.169636 0.191994 0.569341
Si Si7 0.500000 0.000000 0.500000
O O1 0.594381 0.500000 0.360066
O O2 0.589284 0.737889 0.263456
O O3 0.499442 0.794363 0.347067
O O4 0.712380 0.776118 0.411809
O O5 0.062189 0.500000 0.171403
O O6 0.121157 0.203850 0.137368
O O7 0.934858 0.234265 0.123615
O O8 0.605926 0.500000 0.024849
O O9 0.718776 0.782717 0.062090
O O10 0.500000 0.789505 0.000000
O O11 0.841133 0.500000 0.292590
O O12 0.848666 0.769640 0.212204
O O13 0.828035 0.805580 0.345569
O O14 0.672469 0.000000 0.875146
O O15 0.090388 0.346197 0.524565
O O16 0.134389 0.000000 0.532849
#
# Coordination Sequence:
#
# PCOD9189507 Si02
#       7
#     8   8   8   8   8   8   2
#     4  11  21  38  64  95 125 156 202 262 317 369
#     4  10  20  35  55  82 112 149 198 253 311 365
#     4  10  20  34  52  76 112 158 203 243 303 379
#     4  10  19  37  64  94 124 158 206 263 316 368
#     4   8  17  33  54  80 114 151 191 247 308 360
#     4  12  24  43  69  93 129 169 210 253 307 371
#     4  12  26  48  64  94 132 174 208 252 300 366
#
# _framework density 26.351178999999998
#
# number of rings (size 3 to 8) (size 9 to 14) (size 15 to 20)
#    0.000    1.760    1.600    4.560    0.000    2.240 
#    0.000    4.800    0.000    0.000    0.000    0.000 
#    0.000    0.000    0.000    0.000    0.000    0.000 
#
# Total GULP energy -139837.548732 kJ/mol
# GULP energy per Si atom -5593.501949 kJ/mol
# Density = 2.629120 g / cm^3
# Si number density = 26.351179 Si / 1000 Ang^3
#
#
#
# Elastic Constant Matrix: (Units=GPa)
#
#
# Indices 1 2 3 4 5 6 
#
# 1 149.9928 1.0380 49.6780 0.0000 44.8842 0.0000
# 2 1.0380 157.2599 13.4592 0.0000 17.8478 0.0000
# 3 49.6780 13.4592 75.0467 0.0000 7.1301 0.0000
# 4 0.0000 0.0000 0.0000 19.2771 0.0000 4.1371
# 5 44.8842 17.8478 7.1301 0.0000 65.1231 0.0000
# 6 0.0000 0.0000 0.0000 4.1371 0.0000 -9.7572
#
#
#
# Elastic Compliance Matrix: (Units=1/GPa)
#
#
# Indices 1 2 3 4 5 6 
#
# 1 0.011126 0.001345 -0.006915 0.000000 -0.007280 0.000000
# 2 0.001345 0.006803 -0.001864 0.000000 -0.002587 0.000000
# 3 -0.006915 -0.001864 0.017922 0.000000 0.003315 0.000000
# 4 0.000000 0.000000 0.000000 0.047548 0.000000 0.020161
# 5 -0.007280 -0.002587 0.003315 0.000000 0.020719 0.000000
# 6 0.000000 0.000000 0.000000 0.020161 0.000000 -0.093940
#
#
# Mechanical properties :
#
#
# Convention : Reuss Voigt Hill
#
# Bulk Modulus (GPa) = 47.65920 56.73887 52.19904
# Shear Modulus (GPa) = 156.04621 36.13686 96.09153
#
# Velocity S-wave (km/s) = 7.70367 3.70720 6.04524
# Velocity P-wave (km/s) = 9.86175 6.31688 8.28122
#
# Compressibility (1/GPa) = 0.02098231
#
# Stress axis : x y z
#
# Youngs Moduli (GPa) = 89.87712 146.98954 55.79813
#
# Poissons Ratio (x) = -0.19764 0.38583
# Poissons Ratio (y) = -0.12085 0.10403
# Poissons Ratio (z) = 0.62147 0.27404
#
# Static dielectric constant tensor:
#      x y z
#    x 2.010680 0.000000 0.008350 
#    y 0.000000 1.935520 0.000000 
#    z 0.008350 0.000000 2.157860 
# 
# From -- ./inp_files/338244.got.cif
#   From: 2010.05.17/outbox.cif.g08.bks.cpg/sg12_170_cif.got.tgz:338244.got - 2010.06.03 13:09:07.
