data_PCOD9189431
_publ_section_title
;
Structure prediction by ZEFSAII (Michael W. Deem and Ramdas Pophale) SiO2 
 PCOD9189431
Probable space group: C 2/M
;
_chemical_formula_sum "Si O2"
_cell_formula_units_Z 56
_cell_length_a 21.660713
_cell_length_b 17.880298
_cell_length_c 22.694934
_cell_angle_alpha 90.000000
_cell_angle_beta 160.757787
_cell_angle_gamma 90.000000
_cell_volume 2896.769855
_symmetry_space_group_name_H-M "C 2/M"
_symmetry_group_IT_number 12
_symmetry_cell_setting 'monoclinic'
loop_
_space_group_symop_operation_xyz
x,y,z
-x,y,-z
-x,-y,-z
x,-y,z
1/2+x,1/2+y,z
1/2-x,1/2+y,-z
1/2-x,1/2-y,-z
1/2+x,1/2-y,z
loop_
_atom_site_type_symbol
_atom_site_label
_atom_site_fract_x
_atom_site_fract_y
_atom_site_fract_z
Si Si1 0.553235 0.777887 0.418347
Si Si2 0.031269 0.236432 0.184189
Si Si3 0.350569 0.582357 0.313253
Si Si4 0.831901 0.265324 0.885586
Si Si5 0.444226 0.610643 0.622451
Si Si6 0.374260 0.581119 0.089264
Si Si7 0.461981 0.134821 0.713060
O O1 0.746764 0.771330 0.628412
O O2 0.363395 0.779536 0.285076
O O3 0.539944 0.700273 0.370062
O O4 0.568217 0.841149 0.382068
O O5 0.013427 0.290404 0.224790
O O6 0.952520 0.154129 0.126774
O O7 0.914350 0.272152 0.025759
O O8 0.500000 0.594971 0.500000
O O9 0.263000 0.500000 0.243541
O O10 0.216825 0.653922 0.186408
O O11 0.465192 0.580783 0.355394
O O12 0.000000 0.229395 0.000000
O O13 0.550887 0.585849 0.776664
O O14 0.224398 0.594913 0.431541
O O15 0.429430 0.500000 0.114087
O O16 0.150867 0.588823 0.888369
#
# Coordination Sequence:
#
# PCOD9189431 Si02
#       7
#     8   8   8   8   8   8   8
#     4  10  19  37  63  85 114 151 193 255 307 346
#     4  11  21  39  61  86 120 155 199 253 304 355
#     4  10  23  42  58  82 130 175 204 244 293 342
#     4  11  25  37  63  91 112 155 213 256 286 356
#     4  10  20  36  59  85 116 157 206 246 283 352
#     4  12  23  34  56  92 126 154 193 242 308 372
#     4  11  19  36  63  88 114 159 196 245 309 355
#
# _framework density 19.331878
#
# number of rings (size 3 to 8) (size 9 to 14) (size 15 to 20)
#    0.000    1.286    4.286    3.429    6.000    1.429 
#    0.000    0.000    0.000    0.429    0.000    1.000 
#    0.000    0.000    0.000    0.000    0.000    0.000 
#
# Total GULP energy -156333.308970 kJ/mol
# GULP energy per Si atom -5583.332463 kJ/mol
# Density = 1.928788 g / cm^3
# Si number density = 19.331878 Si / 1000 Ang^3
#
#
#
# Elastic Constant Matrix: (Units=GPa)
#
#
# Indices 1 2 3 4 5 6 
#
# 1 35.8490 -3.1394 9.2640 0.0037 10.9316 0.0046
# 2 -3.1394 58.0990 7.8850 -0.0077 -6.2657 0.0014
# 3 9.2640 7.8850 103.1876 0.0064 7.6731 -0.0122
# 4 0.0037 -0.0077 0.0064 -45.6441 -0.0003 -7.8358
# 5 10.9316 -6.2657 7.6731 -0.0003 40.7519 -0.0053
# 6 0.0046 0.0014 -0.0122 -7.8358 -0.0053 -8.0600
#
#
#
# Elastic Compliance Matrix: (Units=1/GPa)
#
#
# Indices 1 2 3 4 5 6 
#
# 1 0.030933 0.001154 -0.002294 -0.000003 -0.007688 0.000029
# 2 0.001154 0.017796 -0.001667 -0.000005 0.002741 0.000009
# 3 -0.002294 -0.001667 0.010140 0.000005 -0.001550 -0.000021
# 4 -0.000003 -0.000005 0.000005 -0.026298 0.000002 0.025566
# 5 -0.007688 0.002741 -0.001550 0.000002 0.027314 -0.000022
# 6 0.000029 0.000009 -0.000021 0.025566 -0.000022 -0.148923
#
#
# Mechanical properties :
#
#
# Convention : Reuss Voigt Hill
#
# Bulk Modulus (GPa) = 18.77777 25.01718 21.89747
# Shear Modulus (GPa) = -76.13606 9.61795 -33.25906
#
# Velocity S-wave (km/s) = -6.28245 2.23293 -4.15230
# Velocity P-wave (km/s) = 6.54913 4.42910 3.41132
#
# Compressibility (1/GPa) = 0.05325447
#
# Stress axis : x y z
#
# Youngs Moduli (GPa) = 32.32797 56.19189 98.62250
#
# Poissons Ratio (x) = -0.06482 0.22619
# Poissons Ratio (y) = -0.03729 0.16443
# Poissons Ratio (z) = 0.07415 0.09369
#
# Static dielectric constant tensor:
#      x y z
#    x 1.682590 -0.000030 0.024770 
#    y -0.000030 1.654290 -0.000010 
#    z 0.024770 -0.000010 1.681830 
# 
# From -- ./inp_files/322722.got.cif
#   From: 2010.05.17/outbox.cif.g08.bks.cpg/sg12_162_cif.got.tgz:322722.got - 2010.06.03 13:09:07.
