data_PCOD9189985
_publ_section_title
;
Structure prediction by ZEFSAII (Michael W. Deem and Ramdas Pophale) SiO2 
 PCOD9189985
Probable space group: C 2/M
;
_chemical_formula_sum "Si O2"
_cell_formula_units_Z 52
_cell_length_a 9.242508
_cell_length_b 33.551978
_cell_length_c 15.066903
_cell_angle_alpha 90.000000
_cell_angle_beta 35.503362
_cell_angle_gamma 90.000000
_cell_volume 2713.449334
_symmetry_space_group_name_H-M "C 2/M"
_symmetry_group_IT_number 12
_symmetry_cell_setting 'monoclinic'
loop_
_space_group_symop_operation_xyz
x,y,z
-x,y,-z
-x,-y,-z
x,-y,z
1/2+x,1/2+y,z
1/2-x,1/2+y,-z
1/2-x,1/2-y,-z
1/2+x,1/2-y,z
loop_
_atom_site_type_symbol
_atom_site_label
_atom_site_fract_x
_atom_site_fract_y
_atom_site_fract_z
Si Si1 0.816329 0.412845 0.745195
Si Si2 0.768803 0.500000 0.047945
Si Si3 0.241341 0.087781 0.989654
Si Si4 0.500000 0.859022 0.000000
Si Si5 0.409573 0.839517 0.444752
Si Si6 0.202755 0.500000 0.322871
Si Si7 0.559415 0.702303 0.251262
Si Si8 0.820126 0.783775 0.174933
O O1 0.544174 0.400588 0.841709
O O2 0.833564 0.459666 0.715303
O O3 0.046047 0.386312 0.596226
O O4 0.785928 0.405681 0.864332
O O5 0.779334 0.540869 0.987979
O O6 0.481801 0.500000 0.225342
O O7 0.000000 0.500000 0.000000
O O8 0.430559 0.112924 0.952951
O O9 0.268207 0.830849 0.134394
O O10 0.500000 0.833785 0.500000
O O11 0.603986 0.816942 0.284435
O O12 0.146200 0.817284 0.580730
O O13 0.000000 0.500000 0.500000
O O14 0.684913 0.741346 0.230595
O O15 0.455838 0.713167 0.203592
O O16 0.000000 0.789369 0.000000
#
# Coordination Sequence:
#
# PCOD9189985 Si02
#       8
#     8   4   8   4   8   4   8   8
#     4  10  21  39  65  95 125 163 214 264 305 374
#     4  10  19  39  61  93 124 171 206 265 313 377
#     4  10  21  37  64  92 125 163 216 256 313 375
#     4  12  24  39  60  90 126 168 206 259 324 384
#     4  10  22  39  62  91 127 160 205 261 320 368
#     4  10  21  37  67  96 127 171 218 263 317 380
#     4  11  25  42  62  90 125 161 211 261 320 386
#     4  11  23  41  66  89 118 162 208 261 317 382
#
# _framework density 19.163799000000001
#
# number of rings (size 3 to 8) (size 9 to 14) (size 15 to 20)
#    0.000    1.538    1.538    3.692    4.308    3.077 
#    0.000    2.308    0.000    0.923    0.000    0.000 
#    0.000    0.000    0.000    0.000    0.000    0.000 
#
# Total GULP energy -145064.844127 kJ/mol
# GULP energy per Si atom -5579.417082 kJ/mol
# Density = 1.912018 g / cm^3
# Si number density = 19.163799 Si / 1000 Ang^3
#
#
#
# Elastic Constant Matrix: (Units=GPa)
#
#
# Indices 1 2 3 4 5 6 
#
# 1 96.7555 51.4862 38.5205 0.0000 -9.7641 0.0000
# 2 51.4862 129.4748 59.1488 0.0000 -11.9339 0.0000
# 3 38.5205 59.1488 121.1964 0.0000 -12.6963 0.0000
# 4 0.0000 0.0000 0.0000 25.8304 0.0000 5.8700
# 5 -9.7641 -11.9339 -12.6963 0.0000 13.2834 0.0000
# 6 0.0000 0.0000 0.0000 5.8700 0.0000 52.4183
#
#
#
# Elastic Compliance Matrix: (Units=1/GPa)
#
#
# Indices 1 2 3 4 5 6 
#
# 1 0.013773 -0.004214 -0.001841 0.000000 0.004578 0.000000
# 2 -0.004214 0.011508 -0.003910 0.000000 0.003505 0.000000
# 3 -0.001841 -0.003910 0.011374 0.000000 0.006005 0.000000
# 4 0.000000 0.000000 0.000000 0.039725 0.000000 -0.004449
# 5 0.004578 0.003505 0.006005 0.000000 0.087535 0.000000
# 6 0.000000 0.000000 0.000000 -0.004449 0.000000 0.019575
#
#
# Mechanical properties :
#
#
# Convention : Reuss Voigt Hill
#
# Bulk Modulus (GPa) = 59.79312 71.74862 65.77087
# Shear Modulus (GPa) = 23.92397 31.52448 27.72422
#
# Velocity S-wave (km/s) = 3.53710 4.06026 3.80767
# Velocity P-wave (km/s) = 6.92461 7.71375 7.32981
#
# Compressibility (1/GPa) = 0.01672433
#
# Stress axis : x y z
#
# Youngs Moduli (GPa) = 72.60811 86.89310 87.92193
#
# Poissons Ratio (x) = 0.36612 0.16190
# Poissons Ratio (y) = 0.30593 0.34379
# Poissons Ratio (z) = 0.13370 0.33977
#
# Static dielectric constant tensor:
#      x y z
#    x 1.655850 0.000000 -0.028150 
#    y 0.000000 1.698240 0.000000 
#    z -0.028150 0.000000 1.682290 
# 
# From -- ./inp_files/201217.got.cif
#   From: 2010.05.17/outbox.cif.g08.bks.cpg/sg12_101_cif.got.tgz:201217.got - 2010.06.03 13:09:07.
