data_PCOD9189879
_publ_section_title
;
Structure prediction by ZEFSAII (Michael W. Deem and Ramdas Pophale) SiO2 
 PCOD9189879
Probable space group: C 2/M
;
_chemical_formula_sum "Si O2"
_cell_formula_units_Z 44
_cell_length_a 19.324087
_cell_length_b 12.626646
_cell_length_c 8.535288
_cell_angle_alpha 90.000000
_cell_angle_beta 91.118584
_cell_angle_gamma 90.000000
_cell_volume 2082.199791
_symmetry_space_group_name_H-M "C 2/M"
_symmetry_group_IT_number 12
_symmetry_cell_setting 'monoclinic'
loop_
_space_group_symop_operation_xyz
x,y,z
-x,y,-z
-x,-y,-z
x,-y,z
1/2+x,1/2+y,z
1/2-x,1/2+y,-z
1/2-x,1/2-y,-z
1/2+x,1/2-y,z
loop_
_atom_site_type_symbol
_atom_site_label
_atom_site_fract_x
_atom_site_fract_y
_atom_site_fract_z
Si Si1 0.639000 0.000000 0.995544
Si Si2 0.746699 0.685570 0.343366
Si Si3 0.890882 0.123458 0.814862
Si Si4 0.161349 0.735720 0.907992
Si Si5 0.555491 0.000000 0.318838
Si Si6 0.990576 0.705166 0.185734
Si Si7 0.359283 0.000000 0.355445
O O1 0.671580 0.118330 0.986339
O O2 0.605149 0.000000 0.817117
O O3 0.601258 0.000000 0.160756
O O4 0.750000 0.750000 0.500000
O O5 0.670469 0.639559 0.312898
O O6 0.772821 0.755340 0.197570
O O7 0.805896 0.597190 0.354390
O O8 0.958368 0.195355 0.786644
O O9 0.907544 0.000000 0.832895
O O10 0.856322 0.173809 0.968606
O O11 0.090060 0.731561 0.803415
O O12 0.514469 0.889908 0.297659
O O13 0.595408 0.000000 0.485736
O O14 0.000000 0.674030 0.000000
#
# Coordination Sequence:
#
# PCOD9189879 Si02
#       7
#     4   8   8   8   4   8   4
#     4  10  19  38  65  94 136 150 216 276 320 385
#     4  11  23  44  60  85 128 164 220 268 315 384
#     4  11  22  40  62  94 129 170 209 262 323 387
#     4  10  22  40  65  92 123 167 211 275 322 382
#     4  12  18  38  68  98 128 170 213 262 344 383
#     4  10  20  35  66  96 127 166 212 269 324 388
#     4  10  24  39  61  96 126 168 206 271 335 375
#
# _framework density 21.131497
#
# number of rings (size 3 to 8) (size 9 to 14) (size 15 to 20)
#    0.000    1.455    4.545    2.455    0.000    3.273 
#    1.636   11.818    0.000    1.091    0.000    0.000 
#    0.000    0.000    0.000    0.000    0.000    0.000 
#
# Total GULP energy -122730.950936 kJ/mol
# GULP energy per Si atom -5578.679588 kJ/mol
# Density = 2.108340 g / cm^3
# Si number density = 21.131497 Si / 1000 Ang^3
#
#
#
# Elastic Constant Matrix: (Units=GPa)
#
#
# Indices 1 2 3 4 5 6 
#
# 1 102.4001 42.1782 36.2282 0.0000 17.7159 0.0000
# 2 42.1782 147.0772 54.7947 0.0000 15.7472 0.0000
# 3 36.2282 54.7947 101.1413 0.0000 15.6591 0.0000
# 4 0.0000 0.0000 0.0000 27.7747 0.0000 9.2971
# 5 17.7159 15.7472 15.6591 0.0000 46.6464 0.0000
# 6 0.0000 0.0000 0.0000 9.2971 0.0000 31.1077
#
#
#
# Elastic Compliance Matrix: (Units=1/GPa)
#
#
# Indices 1 2 3 4 5 6 
#
# 1 0.012126 -0.002146 -0.002721 0.000000 -0.002967 0.000000
# 2 -0.002146 0.008986 -0.003962 0.000000 -0.000888 0.000000
# 3 -0.002721 -0.003962 0.013334 0.000000 -0.002105 0.000000
# 4 0.000000 0.000000 0.000000 0.040006 0.000000 -0.011957
# 5 -0.002967 -0.000888 -0.002105 0.000000 0.023571 0.000000
# 6 0.000000 0.000000 0.000000 -0.011957 0.000000 0.035720
#
#
# Mechanical properties :
#
#
# Convention : Reuss Voigt Hill
#
# Bulk Modulus (GPa) = 59.56862 68.55785 64.06324
# Shear Modulus (GPa) = 31.84768 35.60026 33.72397
#
# Velocity S-wave (km/s) = 3.88637 4.10896 3.99922
# Velocity P-wave (km/s) = 6.95624 7.41791 7.19078
#
# Compressibility (1/GPa) = 0.01678736
#
# Stress axis : x y z
#
# Youngs Moduli (GPa) = 82.47002 111.28801 74.99426
#
# Poissons Ratio (x) = 0.23880 0.20409
# Poissons Ratio (y) = 0.17696 0.29713
# Poissons Ratio (z) = 0.22444 0.44092
#
# Static dielectric constant tensor:
#      x y z
#    x 1.823580 0.000000 0.018770 
#    y 0.000000 2.495400 0.000000 
#    z 0.018770 0.000000 1.781870 
# 
# From -- ./inp_files/84192.got.cif
#   From: 2010.05.17/outbox.cif.g08.bks.cpg/sg12_43_cif.got.tgz:84192.got - 2010.06.03 13:09:07.
