data_PCOD9189272
_publ_section_title
;
Structure prediction by ZEFSAII (Michael W. Deem and Ramdas Pophale) SiO2 
 PCOD9189272
Probable space group: C 2/M
;
_chemical_formula_sum "Si O2"
_cell_formula_units_Z 48
_cell_length_a 14.736015
_cell_length_b 18.906558
_cell_length_c 14.415137
_cell_angle_alpha 90.000000
_cell_angle_beta 139.638840
_cell_angle_gamma 90.000000
_cell_volume 2600.881099
_symmetry_space_group_name_H-M "C 2/M"
_symmetry_group_IT_number 12
_symmetry_cell_setting 'monoclinic'
loop_
_space_group_symop_operation_xyz
x,y,z
-x,y,-z
-x,-y,-z
x,-y,z
1/2+x,1/2+y,z
1/2-x,1/2+y,-z
1/2-x,1/2-y,-z
1/2+x,1/2-y,z
loop_
_atom_site_type_symbol
_atom_site_label
_atom_site_fract_x
_atom_site_fract_y
_atom_site_fract_z
Si Si1 0.348433 0.081446 0.842098
Si Si2 0.868465 0.419779 0.463509
Si Si3 0.691861 0.281784 0.356454
Si Si4 0.992452 0.423283 0.765504
Si Si5 0.359568 0.700352 0.331898
Si Si6 0.609318 0.228987 0.839011
O O1 0.372459 0.082933 0.749926
O O2 0.219575 0.130972 0.767644
O O3 0.327559 0.000000 0.854224
O O4 0.500000 0.105057 0.000000
O O5 0.824689 0.500000 0.401378
O O6 0.749262 0.360195 0.378493
O O7 0.000000 0.398803 0.500000
O O8 0.927390 0.423993 0.613245
O O9 0.750000 0.250000 0.500000
O O10 0.753807 0.235036 0.322238
O O11 0.525536 0.272122 0.229730
O O12 0.062342 0.500000 0.836660
O O13 0.085296 0.353674 0.840605
O O14 0.500000 0.685161 0.500000
O O15 0.386031 0.753012 0.266864
O O16 0.750000 0.250000 0.000000
#
# Coordination Sequence:
#
# PCOD9189272 Si02
#       6
#     8   8   8   8   8   8
#     4  10  21  38  59  84 118 158 195 242 303 361
#     4  10  20  36  61  92 120 157 205 251 302 361
#     4  12  21  39  61  88 124 155 204 255 302 360
#     4  10  19  37  61  82 114 157 199 241 294 357
#     4  12  23  37  62  89 120 158 202 253 301 357
#     4  12  25  39  60  94 123 159 206 251 312 368
#
# _framework density 18.455285
#
# number of rings (size 3 to 8) (size 9 to 14) (size 15 to 20)
#    0.000    1.000    5.000    2.500    0.000    0.333 
#    0.000    1.667    0.000    0.000    0.000    5.833 
#    0.000    0.000    0.000    0.000    0.000    0.000 
#
# Total GULP energy -133919.942245 kJ/mol
# GULP energy per Si atom -5579.997594 kJ/mol
# Density = 1.841328 g / cm^3
# Si number density = 18.455285 Si / 1000 Ang^3
#
#
#
# Elastic Constant Matrix: (Units=GPa)
#
#
# Indices 1 2 3 4 5 6 
#
# 1 101.8973 32.7637 24.4899 0.0005 6.4241 0.0009
# 2 32.7637 155.1494 41.9206 0.0002 26.7912 0.0004
# 3 24.4899 41.9206 78.9020 0.0008 25.5648 0.0013
# 4 0.0005 0.0002 0.0008 -398.3561 0.0004 -722.0590
# 5 6.4241 26.7912 25.5648 0.0004 30.8845 0.0008
# 6 0.0009 0.0004 0.0013 -722.0590 0.0008-1234.1647
#
#
#
# Elastic Compliance Matrix: (Units=1/GPa)
#
#
# Indices 1 2 3 4 5 6 
#
# 1 0.011014 -0.001816 -0.003036 0.000000 0.001798 0.000000
# 2 -0.001816 0.008289 -0.002232 0.000000 -0.004966 0.000000
# 3 -0.003036 -0.002232 0.019090 0.000000 -0.013235 0.000000
# 4 0.000000 0.000000 0.000000 0.041510 0.000000 -0.024286
# 5 0.001798 -0.004966 -0.013235 0.000000 0.047267 0.000000
# 6 0.000000 0.000000 0.000000 -0.024286 0.000000 0.013398
#
#
# Mechanical properties :
#
#
# Convention : Reuss Voigt Hill
#
# Bulk Modulus (GPa) = 41.27773 59.36635 50.32204
# Shear Modulus (GPa) = 30.71041 -304.54230 -136.91594
#
# Velocity S-wave (km/s) = 4.08370 -12.85980 -8.62259
# Velocity P-wave (km/s) = 6.68209 13.72086 8.47383
#
# Compressibility (1/GPa) = 0.02422614
#
# Stress axis : x y z
#
# Youngs Moduli (GPa) = 90.79289 120.63710 52.38332
#
# Poissons Ratio (x) = 0.21907 0.15905
# Poissons Ratio (y) = 0.16487 0.11689
# Poissons Ratio (z) = 0.27566 0.26921
#
# Static dielectric constant tensor:
#      x y z
#    x 1.630250 0.000000 -0.018350 
#    y 0.000000 1.715690 0.000000 
#    z -0.018350 0.000000 1.628030 
# 
# From -- ./inp_files/63601.got.cif
#   From: 2010.05.17/outbox.cif.g08.bks.cpg/sg12_32_cif.got.tgz:63601.got - 2010.06.03 13:09:07.
