data_PCOD9189875
_publ_section_title
;
Structure prediction by ZEFSAII (Michael W. Deem and Ramdas Pophale) SiO2 
 PCOD9189875
Probable space group: C 2/M
;
_chemical_formula_sum "Si O2"
_cell_formula_units_Z 58
_cell_length_a 22.068353
_cell_length_b 7.890922
_cell_length_c 23.802226
_cell_angle_alpha 90.000000
_cell_angle_beta 143.050325
_cell_angle_gamma 90.000000
_cell_volume 2491.561427
_symmetry_space_group_name_H-M "C 2/M"
_symmetry_group_IT_number 12
_symmetry_cell_setting 'monoclinic'
loop_
_space_group_symop_operation_xyz
x,y,z
-x,y,-z
-x,-y,-z
x,-y,z
1/2+x,1/2+y,z
1/2-x,1/2+y,-z
1/2-x,1/2-y,-z
1/2+x,1/2-y,z
loop_
_atom_site_type_symbol
_atom_site_label
_atom_site_fract_x
_atom_site_fract_y
_atom_site_fract_z
Si Si1 0.677739 0.202993 0.809950
Si Si2 0.113007 0.304833 0.521409
Si Si3 0.294116 0.206238 0.298210
Si Si4 0.072167 0.198259 0.174435
Si Si5 0.500000 0.500000 0.000000
Si Si6 0.610719 0.187767 0.030243
Si Si7 0.958347 0.192049 0.645963
Si Si8 0.169099 0.695636 0.353443
O O1 0.685011 0.256534 0.749658
O O2 0.777927 0.279908 0.911348
O O3 0.569340 0.263830 0.749875
O O4 0.680581 0.000000 0.815286
O O5 0.080351 0.500000 0.500563
O O6 0.127868 0.236059 0.595654
O O7 0.046127 0.219412 0.424305
O O8 0.226464 0.291019 0.580211
O O9 0.180678 0.256624 0.231570
O O10 0.295663 0.000000 0.302345
O O11 0.087087 0.217914 0.251765
O O12 0.055149 0.000000 0.143370
O O13 0.977334 0.298409 0.081112
O O14 0.584516 0.347021 0.050772
O O15 0.607905 0.000000 0.054098
O O16 0.874396 0.298551 0.616341
O O17 0.932261 0.000000 0.638696
O O18 0.184075 0.500000 0.348242
#
# Coordination Sequence:
#
# PCOD9189875 Si02
#       8
#     8   8   8   8   2   8   8   8
#     4  11  22  41  63  87 126 170 210 257 313 384
#     4  10  20  39  63  91 119 157 202 260 320 379
#     4   8  18  34  60  88 120 159 201 244 311 378
#     4  10  19  38  65  93 127 163 202 260 320 375
#     4  12  22  40  60  94 128 170 210 264 316 358
#     4  12  24  39  62  95 130 172 217 260 315 380
#     4  12  25  41  59  86 120 166 212 261 315 382
#     4  11  22  39  63  94 121 156 205 267 321 375
#
# _framework density 23.278575
#
# number of rings (size 3 to 8) (size 9 to 14) (size 15 to 20)
#    0.000    1.379    1.379    6.000    1.931    0.552 
#    0.000   11.034    0.000    0.000    0.000    0.000 
#    0.000    0.000    0.000    0.000    0.000    0.000 
#
# Total GULP energy -161969.962268 kJ/mol
# GULP energy per Si atom -5585.171113 kJ/mol
# Density = 2.322559 g / cm^3
# Si number density = 23.278575 Si / 1000 Ang^3
#
#
#
# Elastic Constant Matrix: (Units=GPa)
#
#
# Indices 1 2 3 4 5 6 
#
# 1 38.2951 -3.8125 -2.1096 0.0001 -0.3445 0.0001
# 2 -3.8125 121.5908 7.7894 0.0001 -0.6126 0.0004
# 3 -2.1096 7.7894 103.4301 0.0000 6.7367 0.0001
# 4 0.0001 0.0001 0.0000 24.5202 0.0000 4.6843
# 5 -0.3445 -0.6126 6.7367 0.0000 24.9670 0.0000
# 6 0.0001 0.0004 0.0001 4.6843 0.0000 15.2212
#
#
#
# Elastic Compliance Matrix: (Units=1/GPa)
#
#
# Indices 1 2 3 4 5 6 
#
# 1 0.026220 0.000794 0.000458 0.000000 0.000258 0.000000
# 2 0.000794 0.008292 -0.000633 0.000000 0.000385 0.000000
# 3 0.000458 -0.000633 0.009900 0.000000 -0.002680 0.000000
# 4 0.000000 0.000000 0.000000 0.043330 0.000000 -0.013335
# 5 0.000258 0.000385 -0.002680 0.000000 0.040789 0.000000
# 6 0.000000 0.000000 0.000000 -0.013335 0.000000 0.069802
#
#
# Mechanical properties :
#
#
# Convention : Reuss Voigt Hill
#
# Bulk Modulus (GPa) = 21.90622 29.67228 25.78925
# Shear Modulus (GPa) = 23.55039 30.37160 26.96100
#
# Velocity S-wave (km/s) = 3.18414 3.61598 3.40691
# Velocity P-wave (km/s) = 4.79053 5.49619 5.15545
#
# Compressibility (1/GPa) = 0.04564913
#
# Stress axis : x y z
#
# Youngs Moduli (GPa) = 38.13942 120.60222 101.01014
#
# Poissons Ratio (x) = -0.09577 -0.04628
# Poissons Ratio (y) = -0.03029 0.06398
# Poissons Ratio (z) = -0.01748 0.07638
#
# Static dielectric constant tensor:
#      x y z
#    x 1.809970 0.000000 0.058940 
#    y 0.000000 1.848390 0.000000 
#    z 0.058940 0.000000 1.817980 
# 
# From -- ./inp_files/367638.got.cif
#   From: 2010.05.17/outbox.cif.g08.bks.cpg/sg12_184_cif.got.tgz:367638.got - 2010.06.03 13:09:07.
