data_PCOD9189767
_publ_section_title
;
Structure prediction by ZEFSAII (Michael W. Deem and Ramdas Pophale) SiO2 
 PCOD9189767
Probable space group: C 2/M
;
_chemical_formula_sum "Si O2"
_cell_formula_units_Z 36
_cell_length_a 16.247000
_cell_length_b 18.020340
_cell_length_c 7.633016
_cell_angle_alpha 90.000000
_cell_angle_beta 54.566262
_cell_angle_gamma 90.000000
_cell_volume 1820.858450
_symmetry_space_group_name_H-M "C 2/M"
_symmetry_group_IT_number 12
_symmetry_cell_setting 'monoclinic'
loop_
_space_group_symop_operation_xyz
x,y,z
-x,y,-z
-x,-y,-z
x,-y,z
1/2+x,1/2+y,z
1/2-x,1/2+y,-z
1/2-x,1/2-y,-z
1/2+x,1/2-y,z
loop_
_atom_site_type_symbol
_atom_site_label
_atom_site_fract_x
_atom_site_fract_y
_atom_site_fract_z
Si Si1 0.391378 0.127529 0.176692
Si Si2 0.814004 0.673152 0.911855
Si Si3 0.000000 0.743707 0.500000
Si Si4 0.763547 0.914412 0.327921
Si Si5 0.135255 0.217835 0.641294
O O1 0.327937 0.093885 0.416668
O O2 0.413294 0.213264 0.199574
O O3 0.500000 0.092021 0.000000
O O4 0.322485 0.132730 0.087901
O O5 0.926890 0.694804 0.711422
O O6 0.770556 0.621021 0.813729
O O7 0.750000 0.750000 0.000000
O O8 0.922479 0.787757 0.471384
O O9 0.853856 0.861490 0.283300
O O10 0.790117 0.000000 0.279166
O O11 0.250000 0.250000 0.500000
#
# Coordination Sequence:
#
# PCOD9189767 Si02
#       5
#     8   8   4   8   8
#     4  11  20  36  64  92 120 167 224 261 317 383
#     4  12  21  37  68  95 122 171 226 263 315 384
#     4  12  20  38  70 100 122 160 234 278 304 368
#     4  11  24  42  59  93 141 167 201 271 334 384
#     4  10  19  38  62  92 121 167 215 265 306 371
#
# _framework density 19.770894999999999
#
# number of rings (size 3 to 8) (size 9 to 14) (size 15 to 20)
#    0.000    0.889    8.889    1.333    0.000    1.333 
#    0.000    4.444    0.000    6.000    0.000    0.000 
#    0.000    0.000    0.000    0.000    0.000    0.000 
#
# Total GULP energy -100379.732138 kJ/mol
# GULP energy per Si atom -5576.651785 kJ/mol
# Density = 1.972590 g / cm^3
# Si number density = 19.770895 Si / 1000 Ang^3
#
#
#
# Elastic Constant Matrix: (Units=GPa)
#
#
# Indices 1 2 3 4 5 6 
#
# 1 169.2999 48.9249 12.1167 0.0000 37.1215 0.0000
# 2 48.9249 130.3964 6.6351 0.0000 16.9886 0.0000
# 3 12.1167 6.6351 47.5193 0.0000 12.7431 0.0000
# 4 0.0000 0.0000 0.0000 4.9855 0.0000 5.5764
# 5 37.1215 16.9886 12.7431 0.0000 42.3975 0.0000
# 6 0.0000 0.0000 0.0000 5.5764 0.0000 15.6374
#
#
#
# Elastic Compliance Matrix: (Units=1/GPa)
#
#
# Indices 1 2 3 4 5 6 
#
# 1 0.007849 -0.002161 -0.000097 0.000000 -0.005977 0.000000
# 2 -0.002161 0.008690 -0.000257 0.000000 -0.001513 0.000000
# 3 -0.000097 -0.000257 0.022900 0.000000 -0.006695 0.000000
# 4 0.000000 0.000000 0.000000 0.333671 0.000000 -0.118989
# 5 -0.005977 -0.001513 -0.006695 0.000000 0.031438 0.000000
# 6 0.000000 0.000000 0.000000 -0.118989 0.000000 0.106382
#
#
# Mechanical properties :
#
#
# Convention : Reuss Voigt Hill
#
# Bulk Modulus (GPa) = 29.06172 53.61875 41.34024
# Shear Modulus (GPa) = 9.47996 31.24003 20.35999
#
# Velocity S-wave (km/s) = 2.19210 3.97936 3.21253
# Velocity P-wave (km/s) = 4.59763 6.94929 5.89198
#
# Compressibility (1/GPa) = 0.03440952
#
# Stress axis : x y z
#
# Youngs Moduli (GPa) = 127.40988 115.07551 43.66804
#
# Poissons Ratio (x) = 0.24870 0.00422
# Poissons Ratio (y) = 0.27536 0.01121
# Poissons Ratio (z) = 0.01232 0.02953
#
# Static dielectric constant tensor:
#      x y z
#    x 1.800260 0.000000 -0.034220 
#    y 0.000000 1.688510 0.000000 
#    z -0.034220 0.000000 1.804700 
# 
# From -- ./inp_files/60720.got.cif
#   From: 2010.05.17/outbox.cif.g08.bks.cpg/sg12_31_cif.got.tgz:60720.got - 2010.06.03 13:09:07.
