data_PCOD9189299
_publ_section_title
;
Structure prediction by ZEFSAII (Michael W. Deem and Ramdas Pophale) SiO2 
 PCOD9189299
Probable space group: C 2/M
;
_chemical_formula_sum "Si O2"
_cell_formula_units_Z 48
_cell_length_a 25.690213
_cell_length_b 8.677274
_cell_length_c 12.688310
_cell_angle_alpha 90.000000
_cell_angle_beta 71.040962
_cell_angle_gamma 90.000000
_cell_volume 2675.048420
_symmetry_space_group_name_H-M "C 2/M"
_symmetry_group_IT_number 12
_symmetry_cell_setting 'monoclinic'
loop_
_space_group_symop_operation_xyz
x,y,z
-x,y,-z
-x,-y,-z
x,-y,z
1/2+x,1/2+y,z
1/2-x,1/2+y,-z
1/2-x,1/2-y,-z
1/2+x,1/2-y,z
loop_
_atom_site_type_symbol
_atom_site_label
_atom_site_fract_x
_atom_site_fract_y
_atom_site_fract_z
Si Si1 0.868547 0.187301 0.222157
Si Si2 0.440563 0.182823 0.748211
Si Si3 0.941775 0.814460 0.981549
Si Si4 0.941185 0.813881 0.376371
Si Si5 0.636408 0.684431 0.375050
Si Si6 0.750026 0.685224 0.618564
O O1 0.908334 0.233588 0.292413
O O2 0.806451 0.236208 0.287507
O O3 0.869105 0.000000 0.221794
O O4 0.894367 0.235824 0.094216
O O5 0.438547 0.236163 0.870662
O O6 0.498761 0.240686 0.663213
O O7 0.391835 0.258058 0.712764
O O8 0.437293 0.000000 0.742986
O O9 0.938912 0.000000 0.968804
O O10 0.000000 0.782242 0.000000
O O11 0.904306 0.772881 0.501410
O O12 0.947354 0.000000 0.370475
O O13 0.641235 0.500000 0.371817
O O14 0.695734 0.756656 0.358341
O O15 0.750014 0.500000 0.613598
O O16 0.750000 0.750000 0.500000
#
# Coordination Sequence:
#
# PCOD9189299 Si02
#       6
#     8   8   8   8   8   8
#     4   9  18  35  60  89 116 148 195 239 281 339
#     4  12  25  38  55  87 125 154 189 242 300 350
#     4  10  19  37  64  85 110 154 201 237 279 345
#     4  10  19  37  61  86 116 154 195 236 285 349
#     4  11  23  40  61  85 116 158 202 240 287 349
#     4  11  21  37  60  89 122 155 193 240 290 343
#
# _framework density 17.9436
#
# number of rings (size 3 to 8) (size 9 to 14) (size 15 to 20)
#    0.000    1.500    3.333    3.000    0.000    3.667 
#    0.000    2.500    0.000    0.000    0.000    0.000 
#    0.000    0.000    0.000    0.000    0.000    0.000 
#
# Total GULP energy -134112.015426 kJ/mol
# GULP energy per Si atom -5588.000643 kJ/mol
# Density = 1.790276 g / cm^3
# Si number density = 17.943600 Si / 1000 Ang^3
#
#
#
# Elastic Constant Matrix: (Units=GPa)
#
#
# Indices 1 2 3 4 5 6 
#
# 1 141.9852 33.5588 40.3517 0.0000 -8.3708 0.0000
# 2 33.5588 39.6761 22.9899 0.0000 -4.1124 0.0000
# 3 40.3517 22.9899 66.6726 0.0000 -14.8255 0.0000
# 4 0.0000 0.0000 0.0000 16.4733 0.0000 -1.9461
# 5 -8.3708 -4.1124 -14.8255 0.0000 33.4167 0.0000
# 6 0.0000 0.0000 0.0000 -1.9461 0.0000 30.3174
#
#
#
# Elastic Compliance Matrix: (Units=1/GPa)
#
#
# Indices 1 2 3 4 5 6 
#
# 1 0.009487 -0.005870 -0.003716 0.000000 0.000005 0.000000
# 2 -0.005870 0.035163 -0.008805 0.000000 -0.001050 0.000000
# 3 -0.003716 -0.008805 0.022007 0.000000 0.007749 0.000000
# 4 0.000000 0.000000 0.000000 0.061168 0.000000 0.003926
# 5 0.000005 -0.001050 0.007749 0.000000 0.033235 0.000000
# 6 0.000000 0.000000 0.000000 0.003926 0.000000 0.033236
#
#
# Mechanical properties :
#
#
# Convention : Reuss Voigt Hill
#
# Bulk Modulus (GPa) = 33.47515 49.12608 41.30062
# Shear Modulus (GPa) = 20.74360 26.13704 23.44032
#
# Velocity S-wave (km/s) = 3.40375 3.82071 3.61824
# Velocity P-wave (km/s) = 5.84326 6.84845 6.36573
#
# Compressibility (1/GPa) = 0.02987291
#
# Stress axis : x y z
#
# Youngs Moduli (GPa) = 105.40813 28.43926 45.43958
#
# Poissons Ratio (x) = 0.16695 0.16887
# Poissons Ratio (y) = 0.61878 0.40011
# Poissons Ratio (z) = 0.39173 0.25042
#
# Static dielectric constant tensor:
#      x y z
#    x 1.588600 0.000000 -0.009400 
#    y 0.000000 1.606690 0.000000 
#    z -0.009400 0.000000 1.603620 
# 
# From -- ./inp_files/172414.got.cif
#   From: 2010.05.17/outbox.cif.g08.bks.cpg/sg12_87_cif.got.tgz:172414.got - 2010.06.03 13:09:07.
