data_PCOD9189071
_publ_section_title
;
Structure prediction by ZEFSAII (Michael W. Deem and Ramdas Pophale) SiO2 
 PCOD9189071
Probable space group: C 2/M
;
_chemical_formula_sum "Si O2"
_cell_formula_units_Z 56
_cell_length_a 9.089146
_cell_length_b 27.688709
_cell_length_c 13.180288
_cell_angle_alpha 90.000000
_cell_angle_beta 107.429778
_cell_angle_gamma 90.000000
_cell_volume 3164.737221
_symmetry_space_group_name_H-M "C 2/M"
_symmetry_group_IT_number 12
_symmetry_cell_setting 'monoclinic'
loop_
_space_group_symop_operation_xyz
x,y,z
-x,y,-z
-x,-y,-z
x,-y,z
1/2+x,1/2+y,z
1/2-x,1/2+y,-z
1/2-x,1/2-y,-z
1/2+x,1/2-y,z
loop_
_atom_site_type_symbol
_atom_site_label
_atom_site_fract_x
_atom_site_fract_y
_atom_site_fract_z
Si Si1 0.281576 0.904731 0.178208
Si Si2 0.446152 0.612546 0.196397
Si Si3 0.184117 0.553628 0.026082
Si Si4 0.890381 0.316273 0.063640
Si Si5 0.972701 0.557783 0.611327
Si Si6 0.375366 0.443423 0.384823
Si Si7 0.925193 0.211145 0.094730
O O1 0.329835 0.854293 0.132964
O O2 0.406023 0.916844 0.289554
O O3 0.109239 0.905363 0.185999
O O4 0.288358 0.942526 0.087940
O O5 0.299911 0.591804 0.102235
O O6 0.419110 0.592023 0.302574
O O7 0.460722 0.670330 0.184385
O O8 0.222272 0.500000 0.073423
O O9 0.000000 0.559879 0.000000
O O10 0.959778 0.267035 0.126381
O O11 0.753231 0.296265 0.965911
O O12 0.000000 0.338156 0.000000
O O13 0.998059 0.500000 0.623231
O O14 0.797094 0.566842 0.610311
O O15 0.000000 0.571973 0.500000
O O16 0.500000 0.438587 0.500000
O O17 0.378877 0.500000 0.352338
O O18 0.000000 0.199771 0.000000
#
# Coordination Sequence:
#
# PCOD9189071 Si02
#       7
#     8   8   8   8   8   8   8
#     4  12  22  35  54  84 114 147 184 228 281 335
#     4  12  22  35  56  82 115 146 183 230 278 336
#     4  11  23  36  50  76 112 148 184 225 276 333
#     4  10  21  34  57  81 114 152 189 229 276 330
#     4  10  22  40  60  82 110 146 190 234 276 330
#     4  10  22  40  60  82 108 146 193 234 277 329
#     4  10  19  37  54  82 116 150 188 229 274 333
#
# _framework density 17.694991999999999
#
# number of rings (size 3 to 8) (size 9 to 14) (size 15 to 20)
#    0.000    1.286    2.857    3.429    2.000    6.286 
#    0.000    0.000    0.000    0.857    0.000    4.000 
#    0.000    0.000    0.000    0.000    0.000    0.000 
#
# Total GULP energy -156143.821940 kJ/mol
# GULP energy per Si atom -5576.565069 kJ/mol
# Density = 1.765472 g / cm^3
# Si number density = 17.694992 Si / 1000 Ang^3
#
#
#
# Elastic Constant Matrix: (Units=GPa)
#
#
# Indices 1 2 3 4 5 6 
#
# 1 127.8307 34.4330 44.0177 0.0000 -8.3571 0.0000
# 2 34.4330 103.9459 36.5321 0.0000 -12.8749 0.0000
# 3 44.0177 36.5321 99.1756 0.0000 -6.0656 0.0000
# 4 0.0000 0.0000 0.0000 18.4294 0.0000 -9.8452
# 5 -8.3571 -12.8749 -6.0656 0.0000 34.3701 0.0000
# 6 0.0000 0.0000 0.0000 -9.8452 0.0000 13.1468
#
#
#
# Elastic Compliance Matrix: (Units=1/GPa)
#
#
# Indices 1 2 3 4 5 6 
#
# 1 0.009593 -0.001810 -0.003528 0.000000 0.001032 0.000000
# 2 -0.001810 0.011815 -0.003341 0.000000 0.003396 0.000000
# 3 -0.003528 -0.003341 0.012890 0.000000 0.000165 0.000000
# 4 0.000000 0.000000 0.000000 0.090443 0.000000 0.067730
# 5 0.001032 0.003396 0.000165 0.000000 0.030647 0.000000
# 6 0.000000 0.000000 0.000000 0.067730 0.000000 0.126785
#
#
# Mechanical properties :
#
#
# Convention : Reuss Voigt Hill
#
# Bulk Modulus (GPa) = 59.03328 62.32421 60.67874
# Shear Modulus (GPa) = 16.38396 27.58721 21.98559
#
# Velocity S-wave (km/s) = 3.04618 3.95275 3.52870
# Velocity P-wave (km/s) = 6.76803 7.49201 7.13920
#
# Compressibility (1/GPa) = 0.01693960
#
# Stress axis : x y z
#
# Youngs Moduli (GPa) = 104.24702 84.63943 77.58153
#
# Poissons Ratio (x) = 0.15320 0.27368
# Poissons Ratio (y) = 0.18869 0.25920
# Poissons Ratio (z) = 0.36775 0.28278
#
# Static dielectric constant tensor:
#      x y z
#    x 1.664500 0.000000 0.012890 
#    y 0.000000 1.688540 0.000000 
#    z 0.012890 0.000000 1.580250 
# 
# From -- ./inp_files/125337.got.cif
#   From: 2010.05.17/outbox.cif.g08.bks.cpg/sg12_63_cif.got.tgz:125337.got - 2010.06.03 13:09:07.
