data_PCOD9189552
_publ_section_title
;
Structure prediction by ZEFSAII (Michael W. Deem and Ramdas Pophale) SiO2 
 PCOD9189552
Probable space group: C 2/M
;
_chemical_formula_sum "Si O2"
_cell_formula_units_Z 64
_cell_length_a 29.778945
_cell_length_b 20.690623
_cell_length_c 13.729735
_cell_angle_alpha 90.000000
_cell_angle_beta 19.050423
_cell_angle_gamma 90.000000
_cell_volume 2761.184027
_symmetry_space_group_name_H-M "C 2/M"
_symmetry_group_IT_number 12
_symmetry_cell_setting 'monoclinic'
loop_
_space_group_symop_operation_xyz
x,y,z
-x,y,-z
-x,-y,-z
x,-y,z
1/2+x,1/2+y,z
1/2-x,1/2+y,-z
1/2-x,1/2-y,-z
1/2+x,1/2-y,z
loop_
_atom_site_type_symbol
_atom_site_label
_atom_site_fract_x
_atom_site_fract_y
_atom_site_fract_z
Si Si1 0.386387 0.327026 0.155034
Si Si2 0.842205 0.425605 0.723202
Si Si3 0.304465 0.427801 0.172219
Si Si4 0.832595 0.805649 0.630482
Si Si5 0.020893 0.299174 0.345371
Si Si6 0.187087 0.686318 0.734777
Si Si7 0.384115 0.574958 0.655370
Si Si8 0.497769 0.930194 0.887429
O O1 0.382950 0.373285 0.069987
O O2 0.246146 0.329673 0.506827
O O3 0.395048 0.252788 0.105661
O O4 0.500000 0.346170 0.000000
O O5 0.891924 0.500000 0.611957
O O6 0.725408 0.416352 0.879707
O O7 0.957107 0.371514 0.472664
O O8 0.762417 0.418610 0.988496
O O9 0.362012 0.500000 0.067975
O O10 0.151037 0.427562 0.532553
O O11 0.929938 0.747740 0.464916
O O12 0.808373 0.805891 0.564405
O O13 0.887170 0.872876 0.563558
O O14 0.679343 0.795422 0.989410
O O15 0.000000 0.277108 0.500000
O O16 0.091327 0.628838 0.966923
O O17 0.500000 0.587560 0.500000
O O18 0.399489 0.500000 0.593016
O O19 0.437551 0.000000 0.982678
O O20 0.500000 0.927313 0.000000
#
# Coordination Sequence:
#
# PCOD9189552 Si02
#       8
#     8   8   8   8   8   8   8   8
#     4  11  25  40  60  90 127 167 208 255 312 373
#     4  10  22  41  67  95 126 165 211 264 321 379
#     4  10  21  40  65  92 122 161 206 257 313 372
#     4  12  27  42  67  96 132 169 218 261 322 377
#     4  12  25  43  66  97 129 172 210 269 316 381
#     4  11  25  41  63  91 126 166 209 260 309 373
#     4  10  23  44  68  95 130 171 212 261 322 385
#     4  10  19  37  66  91 119 158 206 261 313 363
#
# _framework density 23.178463000000001
#
# number of rings (size 3 to 8) (size 9 to 14) (size 15 to 20)
#    0.000    1.250    2.500    2.625    5.250    2.500 
#    0.000    0.000    0.000    0.000    0.000    0.000 
#    0.000    0.000    0.000    0.000    0.000    0.000 
#
# Total GULP energy -179269.211439 kJ/mol
# GULP energy per Si atom -5602.162857 kJ/mol
# Density = 2.312571 g / cm^3
# Si number density = 23.178463 Si / 1000 Ang^3
#
#
#
# Elastic Constant Matrix: (Units=GPa)
#
#
# Indices 1 2 3 4 5 6 
#
# 1 96.3086 36.1891 11.2365 -0.0001 5.7762 0.0001
# 2 36.1891 121.7514 40.5056 -0.0001 -16.9562 0.0004
# 3 11.2365 40.5056 85.6915 -0.0015 5.9558 0.0008
# 4 -0.0001 -0.0001 -0.0015 11.1264 -0.0003 -23.9130
# 5 5.7762 -16.9562 5.9558 -0.0003 42.4875 -0.0005
# 6 0.0001 0.0004 0.0008 -23.9130 -0.0005 36.1206
#
#
#
# Elastic Compliance Matrix: (Units=1/GPa)
#
#
# Indices 1 2 3 4 5 6 
#
# 1 0.012134 -0.004320 0.000692 0.000000 -0.003471 0.000000
# 2 -0.004320 0.012255 -0.005662 0.000001 0.006272 0.000001
# 3 0.000692 -0.005662 0.014561 -0.000003 -0.004395 -0.000002
# 4 0.000000 0.000001 -0.000003 -0.212548 -0.000002 -0.140714
# 5 -0.003471 0.006272 -0.004395 -0.000002 0.027127 -0.000001
# 6 0.000000 0.000001 -0.000002 -0.140714 -0.000001 -0.065472
#
#
# Mechanical properties :
#
#
# Convention : Reuss Voigt Hill
#
# Bulk Modulus (GPa) = 49.09321 53.29045 51.19183
# Shear Modulus (GPa) = -26.79930 32.33490 2.76780
#
# Velocity S-wave (km/s) = -3.40401 3.73908 1.09395
# Velocity P-wave (km/s) = 2.40350 6.45618 4.87130
#
# Compressibility (1/GPa) = 0.02036941
#
# Stress axis : x y z
#
# Youngs Moduli (GPa) = 82.41207 81.60007 68.67707
#
# Poissons Ratio (x) = 0.35255 -0.04755
# Poissons Ratio (y) = 0.35606 0.38886
# Poissons Ratio (z) = -0.05706 0.46203
#
# Static dielectric constant tensor:
#      x y z
#    x 1.855180 0.000000 0.022500 
#    y 0.000000 1.834460 0.000000 
#    z 0.022500 0.000000 1.882820 
# 
# From -- ./inp_files/251895.got.cif
#   From: 2010.05.17/outbox.cif.g08.bks.cpg/sg12_126_cif.got.tgz:251895.got - 2010.06.03 13:09:07.
