data_PCOD9189439
_publ_section_title
;
Structure prediction by ZEFSAII (Michael W. Deem and Ramdas Pophale) SiO2 
 PCOD9189439
Probable space group: C 2/M
;
_chemical_formula_sum "Si O2"
_cell_formula_units_Z 56
_cell_length_a 19.493880
_cell_length_b 9.012132
_cell_length_c 17.586460
_cell_angle_alpha 90.000000
_cell_angle_beta 97.063491
_cell_angle_gamma 90.000000
_cell_volume 3066.165620
_symmetry_space_group_name_H-M "C 2/M"
_symmetry_group_IT_number 12
_symmetry_cell_setting 'monoclinic'
loop_
_space_group_symop_operation_xyz
x,y,z
-x,y,-z
-x,-y,-z
x,-y,z
1/2+x,1/2+y,z
1/2-x,1/2+y,-z
1/2-x,1/2-y,-z
1/2+x,1/2-y,z
loop_
_atom_site_type_symbol
_atom_site_label
_atom_site_fract_x
_atom_site_fract_y
_atom_site_fract_z
Si Si1 0.416202 0.822455 0.372391
Si Si2 0.186098 0.826077 0.949916
Si Si3 0.063118 0.822997 0.364926
Si Si4 0.078808 0.330230 0.038590
Si Si5 0.325818 0.821990 0.509630
Si Si6 0.042017 0.324553 0.203028
Si Si7 0.879961 0.675193 0.197851
O O1 0.489533 0.738898 0.386078
O O2 0.366010 0.792168 0.435787
O O3 0.380427 0.784167 0.286965
O O4 0.430881 0.000000 0.372453
O O5 0.170563 0.762756 0.864083
O O6 0.196120 0.000000 0.947383
O O7 0.250000 0.750000 0.000000
O O8 0.121361 0.781791 0.993565
O O9 0.125542 0.748217 0.419150
O O10 0.066046 0.771884 0.277412
O O11 0.065309 0.000000 0.371923
O O12 0.105044 0.500000 0.031441
O O13 0.078756 0.294603 0.128101
O O14 0.000000 0.330483 0.000000
O O15 0.250000 0.750000 0.500000
O O16 0.320916 0.000000 0.518062
O O17 0.050439 0.500000 0.222123
O O18 0.959510 0.300674 0.182598
O O19 0.865647 0.500000 0.188926
#
# Coordination Sequence:
#
# PCOD9189439 Si02
#       7
#     8   8   8   8   8   8   8
#     4   9  20  39  64  88 113 151 193 236 288 344
#     4  12  25  39  56  82 117 157 198 241 288 343
#     4  11  22  36  59  90 122 153 192 238 282 337
#     4  10  19  37  63  87 114 151 192 238 291 344
#     4  11  23  41  62  86 118 155 193 236 292 349
#     4   9  18  35  61  88 116 151 190 236 290 341
#     4   9  17  36  61  85 113 148 190 238 291 342
#
# _framework density 18.263853000000001
#
# number of rings (size 3 to 8) (size 9 to 14) (size 15 to 20)
#    0.000    1.857    1.429    4.286    0.000    6.000 
#    2.571    0.000    0.000    0.000    0.000    0.000 
#    0.000    0.000    0.000    0.000    0.000    0.000 
#
# Total GULP energy -156377.836920 kJ/mol
# GULP energy per Si atom -5584.922747 kJ/mol
# Density = 1.822228 g / cm^3
# Si number density = 18.263853 Si / 1000 Ang^3
#
#
#
# Elastic Constant Matrix: (Units=GPa)
#
#
# Indices 1 2 3 4 5 6 
#
# 1 71.7706 52.8393 63.1848 0.0000 19.0246 0.0000
# 2 52.8393 101.2851 78.3276 0.0000 21.4886 0.0000
# 3 63.1848 78.3276 129.1723 0.0000 21.1068 0.0000
# 4 0.0000 0.0000 0.0000 28.7342 0.0000 4.4016
# 5 19.0246 21.4886 21.1068 0.0000 27.1314 0.0000
# 6 0.0000 0.0000 0.0000 4.4016 0.0000 28.2265
#
#
#
# Elastic Compliance Matrix: (Units=1/GPa)
#
#
# Indices 1 2 3 4 5 6 
#
# 1 0.028466 -0.006376 -0.008732 0.000000 -0.008118 0.000000
# 2 -0.006376 0.021191 -0.008843 0.000000 -0.005433 0.000000
# 3 -0.008732 -0.008843 0.017448 0.000000 -0.000447 0.000000
# 4 0.000000 0.000000 0.000000 0.035653 0.000000 -0.005560
# 5 -0.008118 -0.005433 -0.000447 0.000000 0.047201 0.000000
# 6 0.000000 0.000000 0.000000 -0.005560 0.000000 0.036295
#
#
# Mechanical properties :
#
#
# Convention : Reuss Voigt Hill
#
# Bulk Modulus (GPa) = 52.07242 76.77015 64.42129
# Shear Modulus (GPa) = 20.78510 24.01018 22.39764
#
# Velocity S-wave (km/s) = 3.37715 3.62971 3.50571
# Velocity P-wave (km/s) = 6.61664 7.72603 7.19276
#
# Compressibility (1/GPa) = 0.01920402
#
# Stress axis : x y z
#
# Youngs Moduli (GPa) = 35.12923 47.19044 57.31268
#
# Poissons Ratio (x) = 0.30087 0.50044
# Poissons Ratio (y) = 0.22397 0.50683
# Poissons Ratio (z) = 0.30674 0.41732
#
# Static dielectric constant tensor:
#      x y z
#    x 1.632170 0.000000 -0.011270 
#    y 0.000000 1.612370 0.000000 
#    z -0.011270 0.000000 1.632130 
# 
# From -- ./inp_files/275603.got.cif
#   From: 2010.05.17/outbox.cif.g08.bks.cpg/sg12_138_cif.got.tgz:275603.got - 2010.06.03 13:09:07.
