data_PCOD9189695
_publ_section_title
;
Structure prediction by ZEFSAII (Michael W. Deem and Ramdas Pophale) SiO2 
 PCOD9189695
Probable space group: C 2/M
;
_chemical_formula_sum "Si O2"
_cell_formula_units_Z 38
_cell_length_a 8.151589
_cell_length_b 32.423930
_cell_length_c 11.180581
_cell_angle_alpha 90.000000
_cell_angle_beta 39.534449
_cell_angle_gamma 90.000000
_cell_volume 1881.045904
_symmetry_space_group_name_H-M "C 2/M"
_symmetry_group_IT_number 12
_symmetry_cell_setting 'monoclinic'
loop_
_space_group_symop_operation_xyz
x,y,z
-x,y,-z
-x,-y,-z
x,-y,z
1/2+x,1/2+y,z
1/2-x,1/2+y,-z
1/2-x,1/2-y,-z
1/2+x,1/2-y,z
loop_
_atom_site_type_symbol
_atom_site_label
_atom_site_fract_x
_atom_site_fract_y
_atom_site_fract_z
Si Si1 0.000000 0.292060 0.000000
Si Si2 0.596076 0.860919 0.279203
Si Si3 0.891041 0.860488 0.872330
Si Si4 0.786650 0.718495 0.370363
Si Si5 0.500000 0.500000 0.500000
Si Si6 0.889369 0.914839 0.441133
O O1 0.238666 0.322459 0.898619
O O2 0.078127 0.268429 0.832996
O O3 0.445819 0.819444 0.332454
O O4 0.393962 0.896763 0.423198
O O5 0.818076 0.850401 0.249628
O O6 0.737363 0.872993 0.076892
O O7 0.920780 0.898999 0.767952
O O8 0.500000 0.704960 0.500000
O O9 0.750000 0.750000 0.500000
O O10 0.403131 0.463029 0.462085
O O11 0.000000 0.894275 0.500000
#
# Coordination Sequence:
#
# PCOD9189695 Si02
#       6
#     4   8   8   8   2   8
#     4  10  22  42  66  93 122 170 222 263 322 388
#     4  10  21  39  66  93 121 164 212 260 317 379
#     4  10  20  37  67  96 117 161 215 262 308 378
#     4  11  25  42  62  93 130 168 215 268 326 377
#     4   8  24  36  60 100 128 168 202 258 310 382
#     4  10  19  38  60  89 125 164 204 246 313 375
#
# _framework density 20.201526999999999
#
# number of rings (size 3 to 8) (size 9 to 14) (size 15 to 20)
#    0.632    1.263    0.000    5.053    0.000    4.211 
#    0.000    6.316    0.000    2.526    0.000    0.000 
#    0.000    0.000    0.000    0.000    0.000    0.000 
#
# Total GULP energy -105768.932825 kJ/mol
# GULP energy per Si atom -5566.785938 kJ/mol
# Density = 2.015555 g / cm^3
# Si number density = 20.201527 Si / 1000 Ang^3
#
#
#
# Elastic Constant Matrix: (Units=GPa)
#
#
# Indices 1 2 3 4 5 6 
#
# 1 127.7836 52.4138 56.5140 0.0000 -3.4987 0.0000
# 2 52.4138 106.6085 68.4826 0.0000 9.0772 0.0000
# 3 56.5140 68.4826 129.9560 0.0000 16.5670 0.0000
# 4 0.0000 0.0000 0.0000 7.4959 0.0000 7.6971
# 5 -3.4987 9.0772 16.5670 0.0000 40.5415 0.0000
# 6 0.0000 0.0000 0.0000 7.6971 0.0000 22.3936
#
#
#
# Elastic Compliance Matrix: (Units=1/GPa)
#
#
# Indices 1 2 3 4 5 6 
#
# 1 0.010764 -0.003470 -0.003239 0.000000 0.003029 0.000000
# 2 -0.003470 0.015299 -0.006413 0.000000 -0.001104 0.000000
# 3 -0.003239 -0.006413 0.013013 0.000000 -0.004161 0.000000
# 4 0.000000 0.000000 0.000000 0.206173 0.000000 -0.070865
# 5 0.003029 -0.001104 -0.004161 0.000000 0.026875 0.000000
# 6 0.000000 0.000000 0.000000 -0.070865 0.000000 0.069013
#
#
# Mechanical properties :
#
#
# Convention : Reuss Voigt Hill
#
# Bulk Modulus (GPa) = 77.91477 79.90767 78.91122
# Shear Modulus (GPa) = 13.45322 26.54872 20.00097
#
# Velocity S-wave (km/s) = 2.58340 3.62911 3.14996
# Velocity P-wave (km/s) = 6.89573 7.56318 7.23716
#
# Compressibility (1/GPa) = 0.01283454
#
# Stress axis : x y z
#
# Youngs Moduli (GPa) = 92.90007 65.36270 76.84539
#
# Poissons Ratio (x) = 0.22678 0.24889
# Poissons Ratio (y) = 0.32232 0.49278
# Poissons Ratio (z) = 0.30089 0.41914
#
# Static dielectric constant tensor:
#      x y z
#    x 1.779340 0.000000 0.041060 
#    y 0.000000 1.655170 0.000000 
#    z 0.041060 0.000000 1.848650 
# 
# From -- ./inp_files/125044.got.cif
#   From: 2010.05.17/outbox.cif.g08.bks.cpg/sg12_63_cif.got.tgz:125044.got - 2010.06.03 13:09:07.
