data_PCOD9189300
_publ_section_title
;
Structure prediction by ZEFSAII (Michael W. Deem and Ramdas Pophale) SiO2 
 PCOD9189300
Probable space group: C 2/M
;
_chemical_formula_sum "Si O2"
_cell_formula_units_Z 48
_cell_length_a 31.914732
_cell_length_b 7.847953
_cell_length_c 9.611358
_cell_angle_alpha 90.000000
_cell_angle_beta 88.212969
_cell_angle_gamma 90.000000
_cell_volume 2406.141017
_symmetry_space_group_name_H-M "C 2/M"
_symmetry_group_IT_number 12
_symmetry_cell_setting 'monoclinic'
loop_
_space_group_symop_operation_xyz
x,y,z
-x,y,-z
-x,-y,-z
x,-y,z
1/2+x,1/2+y,z
1/2-x,1/2+y,-z
1/2-x,1/2-y,-z
1/2+x,1/2-y,z
loop_
_atom_site_type_symbol
_atom_site_label
_atom_site_fract_x
_atom_site_fract_y
_atom_site_fract_z
Si Si1 0.656081 0.201568 0.306807
Si Si2 0.622200 0.293139 0.889439
Si Si3 0.492631 0.500000 0.836889
Si Si4 0.955560 0.000000 0.427078
Si Si5 0.203506 0.803550 0.043592
Si Si6 0.608691 0.200750 0.572528
Si Si7 0.430150 0.802722 0.848792
O O1 0.691686 0.281322 0.206992
O O2 0.647702 0.247680 0.467516
O O3 0.611605 0.237303 0.235737
O O4 0.663182 0.000000 0.299107
O O5 0.621294 0.500000 0.892841
O O6 0.619008 0.229751 0.732679
O O7 0.665155 0.225900 0.957839
O O8 0.584353 0.227253 0.990330
O O9 0.533635 0.500000 0.738297
O O10 0.465774 0.668836 0.807069
O O11 0.500000 0.500000 0.000000
O O12 0.928682 0.830897 0.460434
O O13 0.000000 0.000000 0.500000
O O14 0.201433 0.000000 0.010113
O O15 0.250000 0.750000 0.000000
O O16 0.598809 0.000000 0.548631
O O17 0.441699 0.000000 0.826160
#
# Coordination Sequence:
#
# PCOD9189300 Si02
#       7
#     8   8   4   4   8   8   8
#     4   9  20  37  60  85 110 147 198 240 278 356
#     4  10  19  37  61  86 116 156 201 246 288 357
#     4  12  24  36  54  82 116 146 196 252 296 352
#     4  12  26  40  60  86 124 158 196 262 306 348
#     4  10  21  35  60  91 123 154 189 240 297 349
#     4  11  23  40  62  87 116 158 206 242 296 360
#     4  10  20  37  59  80 109 151 196 241 297 350
#
# _framework density 19.948955999999999
#
# number of rings (size 3 to 8) (size 9 to 14) (size 15 to 20)
#    0.000    1.667    1.667    3.000    2.333    3.333 
#    0.000    0.833    0.000    0.000    0.000    0.000 
#    0.000    0.000    0.000    0.000    0.000    0.000 
#
# Total GULP energy -134013.961352 kJ/mol
# GULP energy per Si atom -5583.915056 kJ/mol
# Density = 1.990355 g / cm^3
# Si number density = 19.948956 Si / 1000 Ang^3
#
#
#
# Elastic Constant Matrix: (Units=GPa)
#
#
# Indices 1 2 3 4 5 6 
#
# 1 80.8199 38.2389 15.3742 0.0000 -23.3522 0.0000
# 2 38.2389 80.0592 10.3232 0.0000 -17.8370 0.0000
# 3 15.3742 10.3232 92.3708 0.0000 -12.9704 0.0000
# 4 0.0000 0.0000 0.0000 22.7876 0.0000 -5.7418
# 5 -23.3522 -17.8370 -12.9704 0.0000 24.3181 0.0000
# 6 0.0000 0.0000 0.0000 -5.7418 0.0000 32.2697
#
#
#
# Elastic Compliance Matrix: (Units=1/GPa)
#
#
# Indices 1 2 3 4 5 6 
#
# 1 0.019358 -0.006094 -0.000604 0.000000 0.013797 0.000000
# 2 -0.006094 0.016851 0.000049 0.000000 0.006534 0.000000
# 3 -0.000604 0.000049 0.011723 0.000000 0.005708 0.000000
# 4 0.000000 0.000000 0.000000 0.045943 0.000000 0.008175
# 5 0.013797 0.006534 0.005708 0.000000 0.062208 0.000000
# 6 0.000000 0.000000 0.000000 0.008175 0.000000 0.032443
#
#
# Mechanical properties :
#
#
# Convention : Reuss Voigt Hill
#
# Bulk Modulus (GPa) = 28.87412 42.34694 35.61053
# Shear Modulus (GPa) = 23.43359 28.49597 25.96478
#
# Velocity S-wave (km/s) = 3.43108 3.78358 3.61163
# Velocity P-wave (km/s) = 5.49562 6.35303 5.93981
#
# Compressibility (1/GPa) = 0.03463309
#
# Stress axis : x y z
#
# Youngs Moduli (GPa) = 51.65837 59.34372 85.30589
#
# Poissons Ratio (x) = 0.36165 0.05148
# Poissons Ratio (y) = 0.31482 -0.00414
# Poissons Ratio (z) = 0.03118 -0.00288
#
# Static dielectric constant tensor:
#      x y z
#    x 1.757410 0.000000 0.047280 
#    y 0.000000 1.675330 0.000000 
#    z 0.047280 0.000000 1.761790 
# 
# From -- ./inp_files/108830.got.cif
#   From: 2010.05.17/outbox.cif.g08.bks.cpg/sg12_55_cif.got.tgz:108830.got - 2010.06.03 13:09:07.
