data_PCOD9189191
_publ_section_title
;
Structure prediction by ZEFSAII (Michael W. Deem and Ramdas Pophale) SiO2 
 PCOD9189191
Probable space group: C 2/M
;
_chemical_formula_sum "Si O2"
_cell_formula_units_Z 50
_cell_length_a 21.956033
_cell_length_b 14.063765
_cell_length_c 8.214898
_cell_angle_alpha 90.000000
_cell_angle_beta 68.111934
_cell_angle_gamma 90.000000
_cell_volume 2353.777148
_symmetry_space_group_name_H-M "C 2/M"
_symmetry_group_IT_number 12
_symmetry_cell_setting 'monoclinic'
loop_
_space_group_symop_operation_xyz
x,y,z
-x,y,-z
-x,-y,-z
x,-y,z
1/2+x,1/2+y,z
1/2-x,1/2+y,-z
1/2-x,1/2-y,-z
1/2+x,1/2-y,z
loop_
_atom_site_type_symbol
_atom_site_label
_atom_site_fract_x
_atom_site_fract_y
_atom_site_fract_z
Si Si1 0.803184 0.611351 0.994119
Si Si2 0.246860 0.891785 0.541338
Si Si3 0.902722 0.699991 0.672591
Si Si4 0.000000 0.500000 0.000000
Si Si5 0.032444 0.327721 0.729164
Si Si6 0.656176 0.762323 0.743748
Si Si7 0.332022 0.605446 0.722874
O O1 0.817298 0.500000 0.013150
O O2 0.838632 0.643021 0.794857
O O3 0.834296 0.676635 0.103564
O O4 0.725027 0.623918 0.086662
O O5 0.308900 0.826335 0.432985
O O6 0.198380 0.833788 0.707179
O O7 0.207165 0.896016 0.409127
O O8 0.262073 0.000000 0.574641
O O9 0.934163 0.655966 0.479957
O O10 0.882245 0.808860 0.666685
O O11 0.958195 0.698541 0.757044
O O12 0.970759 0.417581 0.151215
O O13 0.080440 0.252383 0.770035
O O14 0.359884 0.500000 0.721504
#
# Coordination Sequence:
#
# PCOD9189191 Si02
#       7
#     8   8   8   2   8   8   8
#     4  10  22  37  64  92 126 166 211 260 323 374
#     4   9  18  34  62  92 122 163 215 264 311 366
#     4  11  23  41  59  93 132 164 207 266 311 380
#     4  12  28  46  64  88 118 182 208 256 308 390
#     4  11  26  39  63  88 128 164 214 250 318 372
#     4  10  19  37  59  89 124 166 212 262 308 374
#     4   9  18  39  64  92 125 166 209 260 320 375
#
# _framework density 21.242452
#
# number of rings (size 3 to 8) (size 9 to 14) (size 15 to 20)
#    0.000    1.920    1.600    2.880    6.720    0.640 
#    0.000    3.200    0.000    0.000    0.000    5.040 
#    0.000    0.000    0.000    0.000    0.000    0.000 
#
# Total GULP energy -139409.271027 kJ/mol
# GULP energy per Si atom -5576.370841 kJ/mol
# Density = 2.119410 g / cm^3
# Si number density = 21.242452 Si / 1000 Ang^3
#
#
#
# Elastic Constant Matrix: (Units=GPa)
#
#
# Indices 1 2 3 4 5 6 
#
# 1 45.3001 20.3586 2.7435 0.0000 -6.4414 0.0000
# 2 20.3586 104.9041 46.5549 0.0000 -16.2436 0.0000
# 3 2.7435 46.5549 119.0796 0.0000 -13.9395 0.0000
# 4 0.0000 0.0000 0.0000 19.1334 0.0000 3.5385
# 5 -6.4414 -16.2436 -13.9395 0.0000 16.7532 0.0000
# 6 0.0000 0.0000 0.0000 3.5385 0.0000 -8.3963
#
#
#
# Elastic Compliance Matrix: (Units=1/GPa)
#
#
# Indices 1 2 3 4 5 6 
#
# 1 0.025036 -0.004728 0.002063 0.000000 0.006758 0.000000
# 2 -0.004728 0.013551 -0.004281 0.000000 0.007760 0.000000
# 3 0.002063 -0.004281 0.010670 0.000000 0.005521 0.000000
# 4 0.000000 0.000000 0.000000 0.048486 0.000000 0.020434
# 5 0.006758 0.007760 0.005521 0.000000 0.074406 0.000000
# 6 0.000000 0.000000 0.000000 0.020434 0.000000 -0.110489
#
#
# Mechanical properties :
#
#
# Convention : Reuss Voigt Hill
#
# Bulk Modulus (GPa) = 28.27597 45.39976 36.83787
# Shear Modulus (GPa) = 57.24815 18.80651 38.02733
#
# Velocity S-wave (km/s) = 5.19696 2.97867 4.23562
# Velocity P-wave (km/s) = 7.02504 5.76616 6.42650
#
# Compressibility (1/GPa) = 0.03536572
#
# Stress axis : x y z
#
# Youngs Moduli (GPa) = 39.94301 73.79428 93.72056
#
# Poissons Ratio (x) = 0.34886 -0.19331
# Poissons Ratio (y) = 0.18883 0.40118
# Poissons Ratio (z) = -0.08239 0.31589
#
# Static dielectric constant tensor:
#      x y z
#    x 1.799310 0.000000 0.020910 
#    y 0.000000 1.730910 0.000000 
#    z 0.020910 0.000000 1.816110 
# 
# From -- ./inp_files/96212.got.cif
#   From: 2010.05.17/outbox.cif.g08.bks.cpg/sg12_49_cif.got.tgz:96212.got - 2010.06.03 13:09:07.
