data_PCOD9189112
_publ_section_title
;
Structure prediction by ZEFSAII (Michael W. Deem and Ramdas Pophale) SiO2 
 PCOD9189112
Probable space group: C 2/M
;
_chemical_formula_sum "Si O2"
_cell_formula_units_Z 48
_cell_length_a 8.588139
_cell_length_b 11.793813
_cell_length_c 23.267329
_cell_angle_alpha 90.000000
_cell_angle_beta 73.860180
_cell_angle_gamma 90.000000
_cell_volume 2263.790184
_symmetry_space_group_name_H-M "C 2/M"
_symmetry_group_IT_number 12
_symmetry_cell_setting 'monoclinic'
loop_
_space_group_symop_operation_xyz
x,y,z
-x,y,-z
-x,-y,-z
x,-y,z
1/2+x,1/2+y,z
1/2-x,1/2+y,-z
1/2-x,1/2-y,-z
1/2+x,1/2-y,z
loop_
_atom_site_type_symbol
_atom_site_label
_atom_site_fract_x
_atom_site_fract_y
_atom_site_fract_z
Si Si1 0.655810 0.375783 0.664664
Si Si2 0.805616 0.370363 0.522443
Si Si3 0.487741 0.373056 0.094827
Si Si4 0.086010 0.319663 0.818714
Si Si5 0.613798 0.790402 0.263946
Si Si6 0.863294 0.658891 0.058649
O O1 0.576922 0.500000 0.675876
O O2 0.740214 0.365258 0.594307
O O3 0.529667 0.275778 0.689426
O O4 0.789409 0.365024 0.700831
O O5 0.756245 0.500000 0.505615
O O6 0.750000 0.250000 0.500000
O O7 0.000000 0.369703 0.500000
O O8 0.430234 0.500000 0.101459
O O9 0.467643 0.308615 0.157466
O O10 0.679748 0.369279 0.061944
O O11 0.382676 0.295221 0.063182
O O12 0.261159 0.303713 0.773173
O O13 0.096002 0.377518 0.879938
O O14 0.959934 0.356161 0.783373
O O15 0.000000 0.622499 0.000000
#
# Coordination Sequence:
#
# PCOD9189112 Si02
#       6
#     8   8   8   8   8   8
#     4  10  22  39  62  89 120 161 198 243 299 346
#     4  10  21  39  64  96 131 169 211 256 308 363
#     4  10  21  37  57  79 109 146 185 233 300 359
#     4   9  18  35  56  81 109 150 190 242 295 355
#     4  10  19  37  57  80 118 149 199 243 287 352
#     4  10  20  38  60  82 114 145 189 250 302 357
#
# _framework density 21.203378000000001
#
# number of rings (size 3 to 8) (size 9 to 14) (size 15 to 20)
#    1.000    1.167    1.667    1.500    0.000    3.667 
#    0.000    5.833    0.000    0.000    0.000    0.000 
#    0.000    0.000    0.000    0.000    0.000    0.000 
#
# Total GULP energy -133721.252235 kJ/mol
# GULP energy per Si atom -5571.718843 kJ/mol
# Density = 2.115512 g / cm^3
# Si number density = 21.203378 Si / 1000 Ang^3
#
#
#
# Elastic Constant Matrix: (Units=GPa)
#
#
# Indices 1 2 3 4 5 6 
#
# 1 47.5963 11.0328 13.9242 0.0000 -7.0697 0.0000
# 2 11.0328 140.8586 23.3651 0.0000 3.1694 0.0000
# 3 13.9242 23.3651 101.1277 0.0000 -6.1117 0.0000
# 4 0.0000 0.0000 0.0000 -65.0851 0.0000 47.2907
# 5 -7.0697 3.1694 -6.1117 0.0000 36.5399 0.0000
# 6 0.0000 0.0000 0.0000 47.2907 0.0000 -22.0162
#
#
#
# Elastic Compliance Matrix: (Units=1/GPa)
#
#
# Indices 1 2 3 4 5 6 
#
# 1 0.022697 -0.001448 -0.002543 0.000000 0.004092 0.000000
# 2 -0.001448 0.007506 -0.001607 0.000000 -0.001200 0.000000
# 3 -0.002543 -0.001607 0.010697 0.000000 0.001437 0.000000
# 4 0.000000 0.000000 0.000000 0.027401 0.000000 0.058857
# 5 0.004092 -0.001200 0.001437 0.000000 0.028503 0.000000
# 6 0.000000 0.000000 0.000000 0.058857 0.000000 0.081004
#
#
# Mechanical properties :
#
#
# Convention : Reuss Voigt Hill
#
# Bulk Modulus (GPa) = 33.66649 42.91409 38.29029
# Shear Modulus (GPa) = 25.13727 5.97174 15.55451
#
# Velocity S-wave (km/s) = 3.44689 1.68004 2.71142
# Velocity P-wave (km/s) = 5.63505 4.90373 5.28206
#
# Compressibility (1/GPa) = 0.02970313
#
# Stress axis : x y z
#
# Youngs Moduli (GPa) = 44.05774 133.22009 93.48505
#
# Poissons Ratio (x) = 0.19290 0.23777
# Poissons Ratio (y) = 0.06379 0.15027
# Poissons Ratio (z) = 0.11206 0.21415
#
# Static dielectric constant tensor:
#      x y z
#    x 1.747160 0.000000 0.014480 
#    y 0.000000 1.828680 0.000000 
#    z 0.014480 0.000000 1.764940 
# 
# From -- ./inp_files/332216.got.cif
#   From: 2010.05.17/outbox.cif.g08.bks.cpg/sg12_167_cif.got.tgz:332216.got - 2010.06.03 13:09:07.
