data_PCOD9189676
_publ_section_title
;
Structure prediction by ZEFSAII (Michael W. Deem and Ramdas Pophale) SiO2 
 PCOD9189676
Probable space group: C 2/M
;
_chemical_formula_sum "Si O2"
_cell_formula_units_Z 64
_cell_length_a 24.560358
_cell_length_b 22.687779
_cell_length_c 12.147439
_cell_angle_alpha 90.000000
_cell_angle_beta 28.338688
_cell_angle_gamma 90.000000
_cell_volume 3213.029709
_symmetry_space_group_name_H-M "C 2/M"
_symmetry_group_IT_number 12
_symmetry_cell_setting 'monoclinic'
loop_
_space_group_symop_operation_xyz
x,y,z
-x,y,-z
-x,-y,-z
x,-y,z
1/2+x,1/2+y,z
1/2-x,1/2+y,-z
1/2-x,1/2-y,-z
1/2+x,1/2-y,z
loop_
_atom_site_type_symbol
_atom_site_label
_atom_site_fract_x
_atom_site_fract_y
_atom_site_fract_z
Si Si1 0.953257 0.273585 0.790855
Si Si2 0.633450 0.818351 0.652982
Si Si3 0.655762 0.933088 0.499108
Si Si4 0.815902 0.932575 0.808966
Si Si5 0.949004 0.599141 0.708537
Si Si6 0.784104 0.275090 0.277202
Si Si7 0.427525 0.654597 0.433953
Si Si8 0.120640 0.068913 0.046961
O O1 0.943925 0.329633 0.728401
O O2 0.037353 0.294519 0.740242
O O3 0.003899 0.213588 0.651565
O O4 0.835175 0.263226 0.066067
O O5 0.647819 0.887347 0.611566
O O6 0.743873 0.785041 0.405616
O O7 0.629134 0.802489 0.788351
O O8 0.539788 0.924559 0.635289
O O9 0.667194 0.000000 0.514632
O O10 0.764673 0.918647 0.227138
O O11 0.877571 0.885276 0.621235
O O12 0.850190 0.923987 0.875333
O O13 0.847162 0.000000 0.722324
O O14 0.678671 0.924650 0.045962
O O15 0.000000 0.582242 0.500000
O O16 0.678208 0.320047 0.449293
O O17 0.516766 0.613512 0.208974
O O18 0.090406 0.000000 0.082793
#
# Coordination Sequence:
#
# PCOD9189676 Si02
#       8
#     8   8   8   8   8   8   8   8
#     4  10  21  37  58  83 119 150 186 243 298 345
#     4   9  20  35  60  85 109 148 193 239 289 352
#     4  10  20  36  58  86 119 152 191 243 293 343
#     4  11  22  38  60  85 120 160 201 238 280 347
#     4  11  21  37  59  90 116 153 199 240 285 343
#     4  10  19  38  60  83 110 149 196 240 289 347
#     4  11  22  37  58  87 117 153 196 243 291 347
#     4  10  21  37  58  82 118 163 198 232 284 350
#
# _framework density 19.918894000000002
#
# number of rings (size 3 to 8) (size 9 to 14) (size 15 to 20)
#    0.000    1.750    2.500    2.250    0.000    2.500 
#    0.000    4.375    0.000    3.000    0.000    0.000 
#    0.000    0.000    0.000    0.000    0.000    0.000 
#
# Total GULP energy -178621.552648 kJ/mol
# GULP energy per Si atom -5581.923520 kJ/mol
# Density = 1.987356 g / cm^3
# Si number density = 19.918894 Si / 1000 Ang^3
#
#
#
# Elastic Constant Matrix: (Units=GPa)
#
#
# Indices 1 2 3 4 5 6 
#
# 1 30.6410 11.4259 4.0785 0.0001 -6.0712 0.0000
# 2 11.4259 107.6120 29.4023 0.0000 2.1715 0.0000
# 3 4.0785 29.4023 81.4801 0.0001 -8.8316 0.0000
# 4 0.0001 0.0000 0.0001 30.1295 -0.0001 -5.1873
# 5 -6.0712 2.1715 -8.8316 -0.0001 28.0484 0.0000
# 6 0.0000 0.0000 0.0000 -5.1873 0.0000 19.8644
#
#
#
# Elastic Compliance Matrix: (Units=1/GPa)
#
#
# Indices 1 2 3 4 5 6 
#
# 1 0.035726 -0.004121 0.000592 0.000000 0.008238 0.000000
# 2 -0.004121 0.010898 -0.004053 0.000000 -0.003012 0.000000
# 3 0.000592 -0.004053 0.014240 0.000000 0.004926 0.000000
# 4 0.000000 0.000000 0.000000 0.034753 0.000000 0.009075
# 5 0.008238 -0.003012 0.004926 0.000000 0.039220 0.000000
# 6 0.000000 0.000000 0.000000 0.009075 0.000000 0.052711
#
#
# Mechanical properties :
#
#
# Convention : Reuss Voigt Hill
#
# Bulk Modulus (GPa) = 21.88194 34.39406 28.13800
# Shear Modulus (GPa) = 22.94147 27.26355 25.10251
#
# Velocity S-wave (km/s) = 3.39742 3.70365 3.55383
# Velocity P-wave (km/s) = 5.13802 5.96606 5.56746
#
# Compressibility (1/GPa) = 0.04569980
#
# Stress axis : x y z
#
# Youngs Moduli (GPa) = 27.99053 91.75702 70.22631
#
# Poissons Ratio (x) = 0.37815 -0.04156
# Poissons Ratio (y) = 0.11536 0.28462
# Poissons Ratio (z) = -0.01657 0.37188
#
# Static dielectric constant tensor:
#      x y z
#    x 1.674850 0.000000 -0.034820 
#    y 0.000000 1.699570 0.000000 
#    z -0.034820 0.000000 1.727660 
# 
# From -- ./inp_files/178403.got.cif
#   From: 2010.05.17/outbox.cif.g08.bks.cpg/sg12_90_cif.got.tgz:178403.got - 2010.06.03 13:09:07.
