data_PCOD9189153
_publ_section_title
;
Structure prediction by ZEFSAII (Michael W. Deem and Ramdas Pophale) SiO2 
 PCOD9189153
Probable space group: C 2/M
;
_chemical_formula_sum "Si O2"
_cell_formula_units_Z 52
_cell_length_a 19.288893
_cell_length_b 18.059173
_cell_length_c 15.321228
_cell_angle_alpha 90.000000
_cell_angle_beta 146.212548
_cell_angle_gamma 90.000000
_cell_volume 2967.988845
_symmetry_space_group_name_H-M "C 2/M"
_symmetry_group_IT_number 12
_symmetry_cell_setting 'monoclinic'
loop_
_space_group_symop_operation_xyz
x,y,z
-x,y,-z
-x,-y,-z
x,-y,z
1/2+x,1/2+y,z
1/2-x,1/2+y,-z
1/2-x,1/2-y,-z
1/2+x,1/2-y,z
loop_
_atom_site_type_symbol
_atom_site_label
_atom_site_fract_x
_atom_site_fract_y
_atom_site_fract_z
Si Si1 0.000000 0.781441 0.500000
Si Si2 0.935233 0.586354 0.026120
Si Si3 0.649664 0.586296 0.147697
Si Si4 0.421478 0.211529 0.728266
Si Si5 0.294670 0.792410 0.406608
Si Si6 0.304125 0.332409 0.168722
Si Si7 0.341510 0.680852 0.014215
O O1 0.106550 0.734331 0.562260
O O2 0.068201 0.829228 0.645230
O O3 0.934998 0.500000 0.047826
O O4 0.011429 0.636694 0.172985
O O5 0.796701 0.619765 0.884982
O O6 0.000000 0.595671 0.000000
O O7 0.683951 0.500000 0.188304
O O8 0.723670 0.635039 0.296496
O O9 0.500000 0.592367 0.000000
O O10 0.673244 0.622924 0.078446
O O11 0.365721 0.201034 0.573433
O O12 0.313467 0.232865 0.684040
O O13 0.524224 0.277530 0.839676
O O14 0.317284 0.356364 0.082257
O O15 0.253786 0.248030 0.105626
#
# Coordination Sequence:
#
# PCOD9189153 Si02
#       7
#     4   8   8   8   8   8   8
#     4  12  20  34  56  90 116 146 190 246 286 336
#     4  10  22  39  59  84 112 151 196 239 294 344
#     4  11  23  38  59  86 121 157 191 237 293 355
#     4  10  21  37  61  85 113 153 194 252 283 340
#     4  11  22  36  58  89 118 150 199 237 293 341
#     4  10  21  34  60  85 115 147 191 245 284 339
#     4  10  19  37  58  86 111 150 201 237 282 338
#
# _framework density 17.520282000000002
#
# number of rings (size 3 to 8) (size 9 to 14) (size 15 to 20)
#    0.000    1.538    4.615    0.923    2.154    1.231 
#    0.000    0.769    0.000    0.923    0.000    0.000 
#    0.000    0.000    0.000    0.000    0.000    0.000 
#
# Total GULP energy -145045.015373 kJ/mol
# GULP energy per Si atom -5578.654437 kJ/mol
# Density = 1.748041 g / cm^3
# Si number density = 17.520282 Si / 1000 Ang^3
#
#
#
# Elastic Constant Matrix: (Units=GPa)
#
#
# Indices 1 2 3 4 5 6 
#
# 1 78.9413 20.7398 12.0776 0.0000 -5.1945 0.0000
# 2 20.7398 61.1909 27.1090 0.0000 -17.8994 0.0000
# 3 12.0776 27.1090 95.4130 0.0000 -11.9152 0.0000
# 4 0.0000 0.0000 0.0000 15.5790 0.0000 1.4667
# 5 -5.1945 -17.8994 -11.9152 0.0000 22.3359 0.0000
# 6 0.0000 0.0000 0.0000 1.4667 0.0000 2.0936
#
#
#
# Elastic Compliance Matrix: (Units=1/GPa)
#
#
# Indices 1 2 3 4 5 6 
#
# 1 0.013937 -0.004736 -0.000523 0.000000 -0.000833 0.000000
# 2 -0.004736 0.024659 -0.004367 0.000000 0.016330 0.000000
# 3 -0.000523 -0.004367 0.012145 0.000000 0.002857 0.000000
# 4 0.000000 0.000000 0.000000 0.068721 0.000000 -0.048144
# 5 -0.000833 0.016330 0.002857 0.000000 0.059188 0.000000
# 6 0.000000 0.000000 0.000000 -0.048144 0.000000 0.511384
#
#
# Mechanical properties :
#
#
# Convention : Reuss Voigt Hill
#
# Bulk Modulus (GPa) = 31.75710 39.48865 35.62287
# Shear Modulus (GPa) = 6.94654 19.70961 13.32808
#
# Velocity S-wave (km/s) = 1.99336 3.35768 2.76111
# Velocity P-wave (km/s) = 4.84388 6.13350 5.52644
#
# Compressibility (1/GPa) = 0.03148903
#
# Stress axis : x y z
#
# Youngs Moduli (GPa) = 71.75143 40.55289 82.34112
#
# Poissons Ratio (x) = 0.19205 0.04303
# Poissons Ratio (y) = 0.33980 0.35962
# Poissons Ratio (z) = 0.03750 0.17711
#
# Static dielectric constant tensor:
#      x y z
#    x 1.624790 0.000000 0.014220 
#    y 0.000000 1.557230 0.000000 
#    z 0.014220 0.000000 1.600310 
# 
# From -- ./inp_files/227430.got.cif
#   From: 2010.05.17/outbox.cif.g08.bks.cpg/sg12_114_cif.got.tgz:227430.got - 2010.06.03 13:09:07.
