data_PCOD9189410
_publ_section_title
;
Structure prediction by ZEFSAII (Michael W. Deem and Ramdas Pophale) SiO2 
 PCOD9189410
Probable space group: C 2/M
;
_chemical_formula_sum "Si O2"
_cell_formula_units_Z 58
_cell_length_a 28.325834
_cell_length_b 11.951286
_cell_length_c 8.671814
_cell_angle_alpha 90.000000
_cell_angle_beta 98.902274
_cell_angle_gamma 90.000000
_cell_volume 2900.306542
_symmetry_space_group_name_H-M "C 2/M"
_symmetry_group_IT_number 12
_symmetry_cell_setting 'monoclinic'
loop_
_space_group_symop_operation_xyz
x,y,z
-x,y,-z
-x,-y,-z
x,-y,z
1/2+x,1/2+y,z
1/2-x,1/2+y,-z
1/2-x,1/2-y,-z
1/2+x,1/2-y,z
loop_
_atom_site_type_symbol
_atom_site_label
_atom_site_fract_x
_atom_site_fract_y
_atom_site_fract_z
Si Si1 0.107219 0.631074 0.593623
Si Si2 0.613664 0.367469 0.998847
Si Si3 0.629319 0.796221 0.261901
Si Si4 0.500000 0.500000 0.500000
Si Si5 0.967900 0.380024 0.831902
Si Si6 0.533656 0.707235 0.728763
Si Si7 0.188425 0.283532 0.847334
Si Si8 0.770813 0.627812 0.820759
O O1 0.095886 0.500000 0.568972
O O2 0.118702 0.687989 0.435629
O O3 0.065818 0.701981 0.654918
O O4 0.153971 0.644329 0.723683
O O5 0.617556 0.500000 0.991257
O O6 0.563731 0.328344 0.896381
O O7 0.654875 0.305773 0.920598
O O8 0.621115 0.323545 0.177007
O O9 0.587915 0.869422 0.158550
O O10 0.681875 0.839836 0.249688
O O11 0.523126 0.598762 0.622978
O O12 0.976074 0.500000 0.756486
O O13 0.985303 0.272937 0.746493
O O14 0.000000 0.380411 0.000000
O O15 0.227753 0.213938 0.772790
O O16 0.214612 0.355447 0.992218
O O17 0.757208 0.500000 0.784109
#
# Coordination Sequence:
#
# PCOD9189410 Si02
#       8
#     8   8   8   2   8   8   8   8
#     4  11  23  42  64  93 130 165 205 262 313 371
#     4  10  20  41  61  84 123 162 207 258 303 372
#     4  11  23  39  58  91 122 161 213 253 311 365
#     4  12  24  40  64  92 128 164 210 266 300 376
#     4  11  22  39  63  92 122 161 212 264 304 363
#     4  11  23  42  62  92 122 167 208 252 315 371
#     4   9  21  36  63  94 120 160 212 248 316 378
#     4  10  19  37  62  90 122 161 205 259 309 371
#
# _framework density 19.997886999999999
#
# number of rings (size 3 to 8) (size 9 to 14) (size 15 to 20)
#    0.000    1.517    2.069    3.310    0.000    0.552 
#    4.966    3.793    0.000    0.000    0.000    0.000 
#    0.000    0.000    0.000    0.000    0.000    0.000 
#
# Total GULP energy -161697.439233 kJ/mol
# GULP energy per Si atom -5575.773767 kJ/mol
# Density = 1.995237 g / cm^3
# Si number density = 19.997887 Si / 1000 Ang^3
#
#
#
# Elastic Constant Matrix: (Units=GPa)
#
#
# Indices 1 2 3 4 5 6 
#
# 1 74.1481 28.7612 -6.6768 0.0000 -6.2507 0.0000
# 2 28.7612 124.0178 33.6122 0.0000 -8.2653 0.0000
# 3 -6.6768 33.6122 55.0232 0.0000 4.1487 0.0000
# 4 0.0000 0.0000 0.0000 -51.6095 0.0000 -42.3557
# 5 -6.2507 -8.2653 4.1487 0.0000 23.0559 0.0000
# 6 0.0000 0.0000 0.0000 -42.3557 0.0000 -15.5659
#
#
#
# Elastic Compliance Matrix: (Units=1/GPa)
#
#
# Indices 1 2 3 4 5 6 
#
# 1 0.015957 -0.004885 0.004791 0.000000 0.001713 0.000000
# 2 -0.004885 0.011663 -0.008042 0.000000 0.004304 0.000000
# 3 0.004791 -0.008042 0.024115 0.000000 -0.005923 0.000000
# 4 0.000000 0.000000 0.000000 0.015713 0.000000 -0.042755
# 5 0.001713 0.004304 -0.005923 0.000000 0.046446 0.000000
# 6 0.000000 0.000000 0.000000 -0.042755 0.000000 0.052096
#
#
# Mechanical properties :
#
#
# Convention : Reuss Voigt Hill
#
# Bulk Modulus (GPa) = 28.19786 40.50913 34.35350
# Shear Modulus (GPa) = 25.76240 4.34225 15.05232
#
# Velocity S-wave (km/s) = 3.59312 1.47515 2.74651
# Velocity P-wave (km/s) = 5.59867 4.81686 5.22241
#
# Compressibility (1/GPa) = 0.03546368
#
# Stress axis : x y z
#
# Youngs Moduli (GPa) = 62.66748 85.74418 41.46867
#
# Poissons Ratio (x) = 0.41887 -0.19869
# Poissons Ratio (y) = 0.30614 0.33348
# Poissons Ratio (z) = -0.30026 0.68952
#
# Static dielectric constant tensor:
#      x y z
#    x 1.714720 0.000000 -0.000240 
#    y 0.000000 1.676370 0.000000 
#    z -0.000240 0.000000 1.730000 
# 
# From -- ./inp_files/103239.got.cif
#   From: 2010.05.17/outbox.cif.g08.bks.cpg/sg12_52_cif.got.tgz:103239.got - 2010.06.03 13:09:07.
