data_PCOD9189250
_publ_section_title
;
Structure prediction by ZEFSAII (Michael W. Deem and Ramdas Pophale) SiO2 
 PCOD9189250
Probable space group: C 2/M
;
_chemical_formula_sum "Si O2"
_cell_formula_units_Z 58
_cell_length_a 20.150272
_cell_length_b 7.526299
_cell_length_c 23.421531
_cell_angle_alpha 90.000000
_cell_angle_beta 43.217152
_cell_angle_gamma 90.000000
_cell_volume 2432.312684
_symmetry_space_group_name_H-M "C 2/M"
_symmetry_group_IT_number 12
_symmetry_cell_setting 'monoclinic'
loop_
_space_group_symop_operation_xyz
x,y,z
-x,y,-z
-x,-y,-z
x,-y,z
1/2+x,1/2+y,z
1/2-x,1/2+y,-z
1/2-x,1/2-y,-z
1/2+x,1/2-y,z
loop_
_atom_site_type_symbol
_atom_site_label
_atom_site_fract_x
_atom_site_fract_y
_atom_site_fract_z
Si Si1 0.949699 0.782775 0.247222
Si Si2 0.460002 0.716858 0.366771
Si Si3 0.274068 0.295656 0.281808
Si Si4 0.371457 0.702112 0.054453
Si Si5 0.000000 0.500000 0.000000
Si Si6 0.401522 0.715631 0.527653
Si Si7 0.819651 0.799376 0.776373
Si Si8 0.363590 0.287470 0.933847
O O1 0.872272 0.724689 0.248543
O O2 0.921631 0.727027 0.328891
O O3 0.058607 0.725830 0.161625
O O4 0.947739 0.000000 0.248418
O O5 0.459193 0.500000 0.369016
O O6 0.409481 0.774346 0.456817
O O7 0.572610 0.773599 0.297318
O O8 0.291790 0.500000 0.252643
O O9 0.191767 0.289700 0.381966
O O10 0.228614 0.201496 0.255710
O O11 0.402962 0.500000 0.040622
O O12 0.256125 0.704441 0.135272
O O13 0.420928 0.841825 0.064830
O O14 0.394952 0.777551 0.976880
O O15 0.500000 0.764143 0.500000
O O16 0.395512 0.500000 0.533219
O O17 0.829104 0.000000 0.792795
O O18 0.371860 0.500000 0.930412
O O19 0.250000 0.250000 0.000000
#
# Coordination Sequence:
#
# PCOD9189250 Si02
#       8
#     8   8   8   8   2   8   8   8
#     4   9  20  38  58  86 120 162 203 250 319 380
#     4   9  18  35  63  87 116 161 213 257 304 383
#     4  11  23  37  58  90 127 162 201 260 319 384
#     4  11  25  42  63  96 130 169 218 274 329 388
#     4  12  26  44  64  94 128 178 218 266 334 402
#     4  10  19  37  60  88 119 157 206 256 311 374
#     4  11  21  39  65  92 120 164 215 261 317 382
#     4  10  22  40  65  91 127 168 216 273 328 393
#
# _framework density 23.845618000000002
#
# number of rings (size 3 to 8) (size 9 to 14) (size 15 to 20)
#    0.000    1.793    2.069    1.862    2.897    1.931 
#    0.000    1.379    0.000    4.966    0.000    0.000 
#    0.000    0.000    0.000    0.000    0.000    0.000 
#
# Total GULP energy -161897.828919 kJ/mol
# GULP energy per Si atom -5582.683756 kJ/mol
# Density = 2.379134 g / cm^3
# Si number density = 23.845618 Si / 1000 Ang^3
#
#
#
# Elastic Constant Matrix: (Units=GPa)
#
#
# Indices 1 2 3 4 5 6 
#
# 1 80.7200 -4.8338 -2.9915 -0.0001 4.4544 0.0009
# 2 -4.8338 86.5246 -10.7905 -0.0008 -1.4017 0.0063
# 3 -2.9915 -10.7905 78.6735 -0.0001 13.2934 -0.0003
# 4 -0.0001 -0.0008 -0.0001 22.4823 -0.0002 -2.6831
# 5 4.4544 -1.4017 13.2934 -0.0002 42.7940 0.0000
# 6 0.0009 0.0063 -0.0003 -2.6831 0.0000 -0.0447
#
#
#
# Elastic Compliance Matrix: (Units=1/GPa)
#
#
# Indices 1 2 3 4 5 6 
#
# 1 0.012552 0.000782 0.000845 0.000005 -0.001543 0.000042
# 2 0.000782 0.011808 0.001686 0.000024 -0.000218 0.000200
# 3 0.000845 0.001686 0.013699 0.000002 -0.004288 0.000018
# 4 0.000005 0.000024 0.000002 0.005449 0.000000 -0.327038
# 5 -0.001543 -0.000218 -0.004288 0.000000 0.024853 -0.000005
# 6 0.000042 0.000200 0.000018 -0.327038 -0.000005 -2.740299
#
#
# Mechanical properties :
#
#
# Convention : Reuss Voigt Hill
#
# Bulk Modulus (GPa) = 22.37918 23.18740 22.78329
# Shear Modulus (GPa) = -1.87711 30.68192 14.40241
#
# Velocity S-wave (km/s) = -0.88820 3.59094 2.46028
# Velocity P-wave (km/s) = 2.89025 5.19020 4.20070
#
# Compressibility (1/GPa) = 0.04468439
#
# Stress axis : x y z
#
# Youngs Moduli (GPa) = 79.66979 84.68982 72.99955
#
# Poissons Ratio (x) = -0.06620 -0.06171
# Poissons Ratio (y) = -0.06227 -0.12309
# Poissons Ratio (z) = -0.06734 -0.14280
#
# Static dielectric constant tensor:
#      x y z
#    x 1.967920 0.000000 0.021930 
#    y 0.000000 1.915160 0.000000 
#    z 0.021930 0.000000 1.919220 
# 
# From -- ./inp_files/346492.got.cif
#   From: 2010.05.17/outbox.cif.g08.bks.cpg/sg12_174_cif.got.tgz:346492.got - 2010.06.03 13:09:07.
