data_PCOD9189285
_publ_section_title
;
Structure prediction by ZEFSAII (Michael W. Deem and Ramdas Pophale) SiO2 
 PCOD9189285
Probable space group: C 2/M
;
_chemical_formula_sum "Si O2"
_cell_formula_units_Z 56
_cell_length_a 29.789755
_cell_length_b 9.383996
_cell_length_c 11.072093
_cell_angle_alpha 90.000000
_cell_angle_beta 67.940782
_cell_angle_gamma 90.000000
_cell_volume 2868.591505
_symmetry_space_group_name_H-M "C 2/M"
_symmetry_group_IT_number 12
_symmetry_cell_setting 'monoclinic'
loop_
_space_group_symop_operation_xyz
x,y,z
-x,y,-z
-x,-y,-z
x,-y,z
1/2+x,1/2+y,z
1/2-x,1/2+y,-z
1/2-x,1/2-y,-z
1/2+x,1/2-y,z
loop_
_atom_site_type_symbol
_atom_site_label
_atom_site_fract_x
_atom_site_fract_y
_atom_site_fract_z
Si Si1 0.873532 0.171996 0.292436
Si Si2 0.016911 0.826337 0.848360
Si Si3 0.535429 0.671383 0.351449
Si Si4 0.663673 0.667226 0.931986
Si Si5 0.727090 0.161369 0.206653
Si Si6 0.210900 0.169788 0.458460
Si Si7 0.123854 0.336838 0.183334
O O1 0.928144 0.224611 0.228516
O O2 0.844478 0.206584 0.199417
O O3 0.841863 0.215415 0.438951
O O4 0.876582 0.000000 0.293603
O O5 0.986736 0.788715 0.758154
O O6 0.016554 0.000000 0.851843
O O7 0.000000 0.780321 0.000000
O O8 0.500000 0.706275 0.500000
O O9 0.542202 0.500000 0.346621
O O10 0.586807 0.750829 0.304987
O O11 0.651628 0.500000 0.958708
O O12 0.720410 0.685367 0.906033
O O13 0.628464 0.757707 0.050936
O O14 0.719506 0.279324 0.315158
O O15 0.678891 0.163499 0.176251
O O16 0.730858 0.000000 0.256327
O O17 0.250000 0.250000 0.500000
O O18 0.215487 0.000000 0.466530
O O19 0.107967 0.500000 0.187952
#
# Coordination Sequence:
#
# PCOD9189285 Si02
#       7
#     8   8   8   8   8   8   8
#     4   9  18  32  56  86 113 146 186 236 292 339
#     4   9  17  32  57  86 112 142 188 244 297 342
#     4  10  22  39  61  87 114 149 203 255 290 348
#     4  10  19  37  61  84 115 150 192 240 286 347
#     4  10  22  39  57  83 118 155 196 240 288 348
#     4  11  21  35  57  84 119 156 194 239 288 349
#     4  11  24  39  58  84 119 155 192 239 299 358
#
# _framework density 19.521775000000002
#
# number of rings (size 3 to 8) (size 9 to 14) (size 15 to 20)
#    0.000    2.000    1.429    2.143    2.000    4.286 
#    0.000    0.000    0.000    3.857    0.000    0.000 
#    0.000    0.000    0.000    0.000    0.000    0.000 
#
# Total GULP energy -156169.229996 kJ/mol
# GULP energy per Si atom -5577.472500 kJ/mol
# Density = 1.947734 g / cm^3
# Si number density = 19.521775 Si / 1000 Ang^3
#
#
#
# Elastic Constant Matrix: (Units=GPa)
#
#
# Indices 1 2 3 4 5 6 
#
# 1 61.9044 20.4413 11.5195 0.0000 -16.2946 0.0000
# 2 20.4413 55.5001 47.9491 0.0000 -8.8893 0.0000
# 3 11.5195 47.9491 97.5574 0.0000 -19.6149 0.0000
# 4 0.0000 0.0000 0.0000 26.0557 0.0000 -3.9488
# 5 -16.2946 -8.8893 -19.6149 0.0000 34.0385 0.0000
# 6 0.0000 0.0000 0.0000 -3.9488 0.0000 21.9493
#
#
#
# Elastic Compliance Matrix: (Units=1/GPa)
#
#
# Indices 1 2 3 4 5 6 
#
# 1 0.021331 -0.010112 0.004494 0.000000 0.010160 0.000000
# 2 -0.010112 0.036127 -0.017688 0.000000 -0.005599 0.000000
# 3 0.004494 -0.017688 0.020265 0.000000 0.009210 0.000000
# 4 0.000000 0.000000 0.000000 0.039455 0.000000 0.007098
# 5 0.010160 -0.005599 0.009210 0.000000 0.038087 0.000000
# 6 0.000000 0.000000 0.000000 0.007098 0.000000 0.046836
#
#
# Mechanical properties :
#
#
# Convention : Reuss Voigt Hill
#
# Bulk Modulus (GPa) = 32.14224 41.64242 36.89233
# Shear Modulus (GPa) = 19.29879 25.41217 22.35548
#
# Velocity S-wave (km/s) = 3.14758 3.61187 3.38769
# Velocity P-wave (km/s) = 5.45071 6.22669 5.85158
#
# Compressibility (1/GPa) = 0.03111171
#
# Stress axis : x y z
#
# Youngs Moduli (GPa) = 46.88009 27.68023 49.34615
#
# Poissons Ratio (x) = 0.27989 -0.22176
# Poissons Ratio (y) = 0.47403 0.87283
# Poissons Ratio (z) = -0.21067 0.48961
#
# Static dielectric constant tensor:
#      x y z
#    x 1.718610 0.000000 0.005210 
#    y 0.000000 1.657850 0.000000 
#    z 0.005210 0.000000 1.686390 
# 
# From -- ./inp_files/180655.got.cif
#   From: 2010.05.17/outbox.cif.g08.bks.cpg/sg12_91_cif.got.tgz:180655.got - 2010.06.03 13:09:07.
