data_PCOD9189990
_publ_section_title
;
Structure prediction by ZEFSAII (Michael W. Deem and Ramdas Pophale) SiO2 
 PCOD9189990
Probable space group: C 2/M
;
_chemical_formula_sum "Si O2"
_cell_formula_units_Z 64
_cell_length_a 9.851657
_cell_length_b 30.222953
_cell_length_c 13.725082
_cell_angle_alpha 90.000000
_cell_angle_beta 129.828703
_cell_angle_gamma 90.000000
_cell_volume 3138.349344
_symmetry_space_group_name_H-M "C 2/M"
_symmetry_group_IT_number 12
_symmetry_cell_setting 'monoclinic'
loop_
_space_group_symop_operation_xyz
x,y,z
-x,y,-z
-x,-y,-z
x,-y,z
1/2+x,1/2+y,z
1/2-x,1/2+y,-z
1/2-x,1/2-y,-z
1/2+x,1/2-y,z
loop_
_atom_site_type_symbol
_atom_site_label
_atom_site_fract_x
_atom_site_fract_y
_atom_site_fract_z
Si Si1 0.687407 0.872097 0.120536
Si Si2 0.573821 0.130044 0.284896
Si Si3 0.173485 0.125361 0.144026
Si Si4 0.314113 0.550315 0.466897
Si Si5 0.672941 0.279571 0.250492
Si Si6 0.335689 0.832161 0.479025
Si Si7 0.076490 0.906473 0.297137
Si Si8 0.718144 0.724433 0.884147
O O1 0.660044 0.860149 0.221178
O O2 0.720183 0.826204 0.078524
O O3 0.865012 0.900954 0.192865
O O4 0.500000 0.892109 0.000000
O O5 0.363377 0.123231 0.180263
O O6 0.666576 0.085458 0.367582
O O7 0.613908 0.167697 0.384634
O O8 0.162811 0.174121 0.186881
O O9 0.158966 0.092052 0.228056
O O10 0.000000 0.119419 0.000000
O O11 0.500000 0.561773 0.500000
O O12 0.267220 0.500000 0.420376
O O13 0.358355 0.555687 0.601140
O O14 0.490779 0.272378 0.221599
O O15 0.701007 0.244768 0.176992
O O16 0.809445 0.288604 0.401036
O O17 0.500000 0.856315 0.500000
O O18 0.159700 0.861743 0.384399
O O19 0.750000 0.750000 0.000000
#
# Coordination Sequence:
#
# PCOD9189990 Si02
#       8
#     8   8   8   8   8   8   8   8
#     4  12  24  39  62  93 123 162 220 267 304 379
#     4  11  23  38  68  96 122 162 210 258 315 384
#     4  11  21  39  65  89 127 166 212 263 313 375
#     4  10  21  41  69  99 132 165 201 258 316 384
#     4  11  24  39  60  85 118 163 217 265 326 364
#     4  10  19  39  62  82 121 157 202 260 311 373
#     4  10  20  39  62  94 123 162 211 250 314 376
#     4  12  25  42  58  88 125 167 219 273 319 374
#
# _framework density 20.392885
#
# number of rings (size 3 to 8) (size 9 to 14) (size 15 to 20)
#    0.000    1.125    6.250    2.625    3.500    0.000 
#    0.000    3.750    0.000    4.500    0.000    0.000 
#    0.000    0.000    0.000    0.000    0.000    0.000 
#
# Total GULP energy -178597.119799 kJ/mol
# GULP energy per Si atom -5581.159994 kJ/mol
# Density = 2.034647 g / cm^3
# Si number density = 20.392885 Si / 1000 Ang^3
#
#
#
# Elastic Constant Matrix: (Units=GPa)
#
#
# Indices 1 2 3 4 5 6 
#
# 1 66.0805 -0.7104 0.3165 0.0000 10.1874 0.0000
# 2 -0.7104 35.8866 13.2343 0.0000 2.6836 0.0000
# 3 0.3165 13.2343 92.5845 0.0000 16.4564 0.0000
# 4 0.0000 0.0000 0.0000 18.1020 0.0000 -5.4928
# 5 10.1874 2.6836 16.4564 0.0000 39.7355 0.0000
# 6 0.0000 0.0000 0.0000 -5.4928 0.0000 11.2381
#
#
#
# Elastic Compliance Matrix: (Units=1/GPa)
#
#
# Indices 1 2 3 4 5 6 
#
# 1 0.015805 0.000394 0.000664 0.000000 -0.004354 0.000000
# 2 0.000394 0.029429 -0.004142 0.000000 -0.000373 0.000000
# 3 0.000664 -0.004142 0.012275 0.000000 -0.004974 0.000000
# 4 0.000000 0.000000 0.000000 0.064862 0.000000 0.031703
# 5 -0.004354 -0.000373 -0.004974 0.000000 0.028368 0.000000
# 6 0.000000 0.000000 0.000000 0.031703 0.000000 0.104478
#
#
# Mechanical properties :
#
#
# Convention : Reuss Voigt Hill
#
# Bulk Modulus (GPa) = 19.47802 24.47028 21.97415
# Shear Modulus (GPa) = 17.95340 25.92920 21.94130
#
# Velocity S-wave (km/s) = 2.97033 3.56965 3.28369
# Velocity P-wave (km/s) = 4.61908 5.38659 5.01754
#
# Compressibility (1/GPa) = 0.05133992
#
# Stress axis : x y z
#
# Youngs Moduli (GPa) = 63.27004 33.98050 81.46774
#
# Poissons Ratio (x) = -0.01338 -0.05405
# Poissons Ratio (y) = -0.02491 0.33741
# Poissons Ratio (z) = -0.04198 0.14073
#
# Static dielectric constant tensor:
#      x y z
#    x 1.753190 0.000000 0.006500 
#    y 0.000000 1.740680 0.000000 
#    z 0.006500 0.000000 1.797910 
# 
# From -- ./inp_files/201337.got.cif
#   From: 2010.05.17/outbox.cif.g08.bks.cpg/sg12_101_cif.got.tgz:201337.got - 2010.06.03 13:09:07.
