data_PCOD9189065
_publ_section_title
;
Structure prediction by ZEFSAII (Michael W. Deem and Ramdas Pophale) SiO2 
 PCOD9189065
Probable space group: C 2/M
;
_chemical_formula_sum "Si O2"
_cell_formula_units_Z 50
_cell_length_a 27.845601
_cell_length_b 18.272012
_cell_length_c 5.066248
_cell_angle_alpha 90.000000
_cell_angle_beta 105.149278
_cell_angle_gamma 90.000000
_cell_volume 2488.103395
_symmetry_space_group_name_H-M "C 2/M"
_symmetry_group_IT_number 12
_symmetry_cell_setting 'monoclinic'
loop_
_space_group_symop_operation_xyz
x,y,z
-x,y,-z
-x,-y,-z
x,-y,z
1/2+x,1/2+y,z
1/2-x,1/2+y,-z
1/2-x,1/2-y,-z
1/2+x,1/2-y,z
loop_
_atom_site_type_symbol
_atom_site_label
_atom_site_fract_x
_atom_site_fract_y
_atom_site_fract_z
Si Si1 0.444642 0.212670 0.517468
Si Si2 0.572421 0.613245 0.500318
Si Si3 0.882595 0.706458 0.932301
Si Si4 0.225594 0.669463 0.427631
Si Si5 0.239861 0.084976 0.026205
Si Si6 0.000000 0.000000 0.500000
Si Si7 0.631204 0.382138 0.083431
O O1 0.500000 0.192805 0.500000
O O2 0.441062 0.301425 0.516138
O O3 0.425819 0.191098 0.780185
O O4 0.404080 0.185181 0.247199
O O5 0.526498 0.564057 0.360903
O O6 0.616741 0.598791 0.359102
O O7 0.590513 0.589907 0.816501
O O8 0.830521 0.673998 0.761491
O O9 0.871862 0.793769 0.932200
O O10 0.250000 0.750000 0.500000
O O11 0.227662 0.628113 0.709754
O O12 0.256154 0.625546 0.248497
O O13 0.184322 0.091495 0.062675
O O14 0.253737 0.000000 0.021250
#
# Coordination Sequence:
#
# PCOD9189065 Si02
#       7
#     8   8   8   8   8   2   8
#     4  10  19  37  53  83 116 148 191 261 319 345
#     4  10  23  34  51  74 109 153 208 257 301 343
#     4  10  21  35  62  84 115 156 206 253 304 365
#     4  12  24  42  65  93 125 167 217 260 308 392
#     4  12  26  41  63  91 130 165 207 263 324 369
#     4  12  24  38  52  74 108 174 220 262 290 366
#     4  10  22  39  55  81 112 155 208 259 302 352
#
# _framework density 20.095628000000001
#
# number of rings (size 3 to 8) (size 9 to 14) (size 15 to 20)
#    0.000    1.280    2.400    3.360    6.720    1.280 
#    0.000    0.000    0.000    0.000    0.000    0.000 
#    0.000   44.800    0.000    0.000    0.000    0.000 
#
# Total GULP energy -139434.890692 kJ/mol
# GULP energy per Si atom -5577.395628 kJ/mol
# Density = 2.004989 g / cm^3
# Si number density = 20.095628 Si / 1000 Ang^3
#
#
#
# Elastic Constant Matrix: (Units=GPa)
#
#
# Indices 1 2 3 4 5 6 
#
# 1 77.2742 10.3475 -0.5071 0.0000 -0.7457 0.0000
# 2 10.3475 63.6729 23.1811 0.0000 -7.6503 0.0000
# 3 -0.5071 23.1811 85.4962 0.0000 -5.0234 0.0000
# 4 0.0000 0.0000 0.0000 28.2079 0.0000 21.7580
# 5 -0.7457 -7.6503 -5.0234 0.0000 31.3094 0.0000
# 6 0.0000 0.0000 0.0000 21.7580 0.0000 44.4167
#
#
#
# Elastic Compliance Matrix: (Units=1/GPa)
#
#
# Indices 1 2 3 4 5 6 
#
# 1 0.013271 -0.002443 0.000731 0.000000 -0.000163 0.000000
# 2 -0.002443 0.018271 -0.004754 0.000000 0.003643 0.000000
# 3 0.000731 -0.004754 0.013046 0.000000 0.000949 0.000000
# 4 0.000000 0.000000 0.000000 0.056981 0.000000 -0.027913
# 5 -0.000163 0.003643 0.000949 0.000000 0.032978 0.000000
# 6 0.000000 0.000000 0.000000 -0.027913 0.000000 0.036188
#
#
# Mechanical properties :
#
#
# Convention : Reuss Voigt Hill
#
# Bulk Modulus (GPa) = 31.58895 32.49846 32.04371
# Shear Modulus (GPa) = 25.74429 33.68159 29.71294
#
# Velocity S-wave (km/s) = 3.58311 4.09842 3.84940
# Velocity P-wave (km/s) = 5.73339 6.21314 5.97808
#
# Compressibility (1/GPa) = 0.03165664
#
# Stress axis : x y z
#
# Youngs Moduli (GPa) = 75.35092 54.73195 76.65433
#
# Poissons Ratio (x) = 0.13369 -0.05607
# Poissons Ratio (y) = 0.18405 0.36444
# Poissons Ratio (z) = -0.05511 0.26021
#
# Static dielectric constant tensor:
#      x y z
#    x 1.769910 0.000000 0.036910 
#    y 0.000000 1.689330 0.000000 
#    z 0.036910 0.000000 1.746000 
# 
# From -- ./inp_files/28613.got.cif
#   From: 2010.05.17/outbox.cif.g08.bks.cpg/sg12_15_cif.got.tgz:28613.got - 2010.06.03 13:09:07.
