data_PCOD9189864
_publ_section_title
;
Structure prediction by ZEFSAII (Michael W. Deem and Ramdas Pophale) SiO2 
 PCOD9189864
Probable space group: C 2/M
;
_chemical_formula_sum "Si O2"
_cell_formula_units_Z 42
_cell_length_a 21.801937
_cell_length_b 15.223025
_cell_length_c 18.464900
_cell_angle_alpha 90.000000
_cell_angle_beta 18.988385
_cell_angle_gamma 90.000000
_cell_volume 1994.018334
_symmetry_space_group_name_H-M "C 2/M"
_symmetry_group_IT_number 12
_symmetry_cell_setting 'monoclinic'
loop_
_space_group_symop_operation_xyz
x,y,z
-x,y,-z
-x,-y,-z
x,-y,z
1/2+x,1/2+y,z
1/2-x,1/2+y,-z
1/2-x,1/2-y,-z
1/2+x,1/2-y,z
loop_
_atom_site_type_symbol
_atom_site_label
_atom_site_fract_x
_atom_site_fract_y
_atom_site_fract_z
Si Si1 0.500000 0.500000 0.500000
Si Si2 0.248821 0.845470 0.172510
Si Si3 0.466350 0.902612 0.787485
Si Si4 0.027838 0.243701 0.621861
Si Si5 0.541809 0.697147 0.877947
Si Si6 0.413648 0.398462 0.319678
O O1 0.663305 0.422330 0.316252
O O2 0.406092 0.781734 0.029152
O O3 0.082567 0.785319 0.325578
O O4 0.342077 0.889769 0.997289
O O5 0.429889 0.825734 0.771187
O O6 0.685819 0.894123 0.565824
O O7 0.438764 0.000000 0.787806
O O8 0.467783 0.336777 0.326089
O O9 0.241636 0.271994 0.367213
O O10 0.500000 0.648368 0.000000
O O11 0.508149 0.641164 0.842714
O O12 0.466516 0.500000 0.271935
#
# Coordination Sequence:
#
# PCOD9189864 Si02
#       6
#     2   8   8   8   8   8
#     4  12  28  40  58 100 134 162 214 244 322 412
#     4  12  23  41  60  90 128 168 206 257 316 381
#     4  10  19  38  65  90 125 163 209 269 315 358
#     4  11  22  41  65  95 123 166 221 266 311 378
#     4  11  23  43  63  85 132 174 203 263 331 371
#     4  10  21  38  66  98 120 163 225 264 310 383
#
# _framework density 21.062996999999999
#
# number of rings (size 3 to 8) (size 9 to 14) (size 15 to 20)
#    0.000    1.143    4.762    2.857    1.333    0.381 
#    0.000    1.429    0.000    0.000    0.000    8.000 
#    0.000    0.000    0.000    0.000    0.000    0.000 
#
# Total GULP energy -117188.635621 kJ/mol
# GULP energy per Si atom -5580.411220 kJ/mol
# Density = 2.101506 g / cm^3
# Si number density = 21.062997 Si / 1000 Ang^3
#
#
#
# Elastic Constant Matrix: (Units=GPa)
#
#
# Indices 1 2 3 4 5 6 
#
# 1 46.6243 -0.7312 16.9831 -0.0005 -1.4386 -0.0002
# 2 -0.7312 99.4010 20.2387 0.0021 -2.7708 -0.0008
# 3 16.9831 20.2387 75.2301 0.0024 5.6299 -0.0015
# 4 -0.0005 0.0021 0.0024 28.4347 -0.0013 4.8968
# 5 -1.4386 -2.7708 5.6299 -0.0013 32.6016 0.0004
# 6 -0.0002 -0.0008 -0.0015 4.8968 0.0004 -5.5833
#
#
#
# Elastic Compliance Matrix: (Units=1/GPa)
#
#
# Indices 1 2 3 4 5 6 
#
# 1 0.023686 0.001436 -0.005897 0.000001 0.002186 0.000001
# 2 0.001436 0.010795 -0.003345 0.000000 0.001558 -0.000001
# 3 -0.005897 -0.003345 0.015768 -0.000001 -0.003267 -0.000004
# 4 0.000001 0.000000 -0.000001 0.030554 0.000001 0.026797
# 5 0.002186 0.001558 -0.003267 0.000001 0.031467 0.000004
# 6 0.000001 -0.000001 -0.000004 0.026797 0.000004 -0.155603
#
#
# Mechanical properties :
#
#
# Convention : Reuss Voigt Hill
#
# Bulk Modulus (GPa) = 28.87057 32.69294 30.78175
# Shear Modulus (GPa) = -309.10546 23.40826 -142.84860
#
# Velocity S-wave (km/s) = -12.12730 3.33730 -8.24421
# Velocity P-wave (km/s) = 13.50403 5.51410 8.71646
#
# Compressibility (1/GPa) = 0.03463735
#
# Stress axis : x y z
#
# Youngs Moduli (GPa) = 42.21912 92.63276 63.41892
#
# Poissons Ratio (x) = -0.13300 0.37397
# Poissons Ratio (y) = -0.06062 0.21213
# Poissons Ratio (z) = 0.24896 0.30985
#
# Static dielectric constant tensor:
#      x y z
#    x 1.767620 0.000000 0.007900 
#    y 0.000000 1.730780 0.000000 
#    z 0.007900 0.000000 1.782260 
# 
# From -- ./inp_files/285112.got.cif
#   From: 2010.05.17/outbox.cif.g08.bks.cpg/sg12_143_cif.got.tgz:285112.got - 2010.06.03 13:09:07.
