data_PCOD9189590
_publ_section_title
;
Structure prediction by ZEFSAII (Michael W. Deem and Ramdas Pophale) SiO2 
 PCOD9189590
Probable space group: C 2/M
;
_chemical_formula_sum "Si O2"
_cell_formula_units_Z 32
_cell_length_a 9.273742
_cell_length_b 13.579810
_cell_length_c 23.003788
_cell_angle_alpha 90.000000
_cell_angle_beta 153.688740
_cell_angle_gamma 90.000000
_cell_volume 1284.086324
_symmetry_space_group_name_H-M "C 2/M"
_symmetry_group_IT_number 12
_symmetry_cell_setting 'monoclinic'
loop_
_space_group_symop_operation_xyz
x,y,z
-x,y,-z
-x,-y,-z
x,-y,z
1/2+x,1/2+y,z
1/2-x,1/2+y,-z
1/2-x,1/2-y,-z
1/2+x,1/2-y,z
loop_
_atom_site_type_symbol
_atom_site_label
_atom_site_fract_x
_atom_site_fract_y
_atom_site_fract_z
Si Si1 0.308344 0.300711 0.288838
Si Si2 0.771299 0.610891 0.546783
Si Si3 0.445321 0.881062 0.045854
Si Si4 0.287525 0.388684 0.865025
O O1 0.599170 0.363398 0.423490
O O2 0.451742 0.190985 0.340930
O O3 0.185348 0.342012 0.182641
O O4 0.009989 0.319604 0.225488
O O5 0.500000 0.618111 0.500000
O O6 0.896439 0.500000 0.589940
O O7 0.466857 0.000000 0.055247
O O8 0.500000 0.846373 0.000000
O O9 0.071386 0.855149 0.924701
O O10 0.167681 0.500000 0.807600
O O11 0.500000 0.398462 0.000000
#
# Coordination Sequence:
#
# PCOD9189590 Si02
#       4
#     8   8   8   8
#     4  10  19  37  70 103 138 182 237 293 351 419
#     4  10  22  41  68 101 137 185 242 295 349 412
#     4   9  17  32  63 111 155 187 229 289 354 419
#     4   8  14  28  58 100 142 185 230 280 345 418
#
# _framework density 24.920442999999999
#
# number of rings (size 3 to 8) (size 9 to 14) (size 15 to 20)
#    0.000    2.750    0.000    3.750    0.000    0.000 
#    0.000    5.000    0.000   64.500    0.000   14.000 
#    0.000    0.000    0.000    0.000    0.000    0.000 
#
# Total GULP energy -89642.143421 kJ/mol
# GULP energy per Si atom -5602.633964 kJ/mol
# Density = 2.486372 g / cm^3
# Si number density = 24.920443 Si / 1000 Ang^3
#
#
#
# Elastic Constant Matrix: (Units=GPa)
#
#
# Indices 1 2 3 4 5 6 
#
# 1 180.4019 57.2429 79.8801 0.0007 -5.1735 0.0001
# 2 57.2429 198.3934 89.2561 0.0022 3.9388 0.0005
# 3 79.8801 89.2561 190.4397 0.0132 -34.9737 -0.0004
# 4 0.0007 0.0022 0.0132 37.8613 0.0004 19.1084
# 5 -5.1735 3.9388 -34.9737 0.0004 53.5789 0.0004
# 6 0.0001 0.0005 -0.0004 19.1084 0.0004 27.8825
#
#
#
# Elastic Compliance Matrix: (Units=1/GPa)
#
#
# Indices 1 2 3 4 5 6 
#
# 1 0.006978 -0.000742 -0.002779 0.000001 -0.001085 -0.000001
# 2 -0.000742 0.006845 -0.003412 0.000001 -0.002802 -0.000001
# 3 -0.002779 -0.003412 0.009103 -0.000005 0.005925 0.000003
# 4 0.000001 0.000001 -0.000005 0.040378 -0.000003 -0.027672
# 5 -0.001085 -0.002802 0.005925 -0.000003 0.022633 0.000002
# 6 -0.000001 -0.000001 0.000003 -0.027672 0.000002 0.054829
#
#
# Mechanical properties :
#
#
# Convention : Reuss Voigt Hill
#
# Bulk Modulus (GPa) = 110.34347 113.55480 111.94913
# Shear Modulus (GPa) = 31.71579 46.72160 39.21869
#
# Velocity S-wave (km/s) = 3.57134 4.33463 3.97136
# Velocity P-wave (km/s) = 7.83456 8.40939 8.12706
#
# Compressibility (1/GPa) = 0.00906261
#
# Stress axis : x y z
#
# Youngs Moduli (GPa) = 143.31383 146.09299 109.84826
#
# Poissons Ratio (x) = 0.10836 0.30521
# Poissons Ratio (y) = 0.10630 0.37475
# Poissons Ratio (z) = 0.39820 0.49840
#
# Static dielectric constant tensor:
#      x y z
#    x 2.018830 0.000000 -0.038390 
#    y 0.000000 2.001910 0.000000 
#    z -0.038390 0.000000 1.958780 
# 
# From -- ./inp_files/333055.got.cif
#   From: 2010.05.17/outbox.cif.g08.bks.cpg/sg12_167_cif.got.tgz:333055.got - 2010.06.03 13:09:07.
