data_PCOD9189467
_publ_section_title
;
Structure prediction by ZEFSAII (Michael W. Deem and Ramdas Pophale) SiO2 
 PCOD9189467
Probable space group: C 2/M
;
_chemical_formula_sum "Si O2"
_cell_formula_units_Z 42
_cell_length_a 14.183850
_cell_length_b 7.780947
_cell_length_c 14.823100
_cell_angle_alpha 90.000000
_cell_angle_beta 98.612001
_cell_angle_gamma 90.000000
_cell_volume 1617.488336
_symmetry_space_group_name_H-M "C 2/M"
_symmetry_group_IT_number 12
_symmetry_cell_setting 'monoclinic'
loop_
_space_group_symop_operation_xyz
x,y,z
-x,y,-z
-x,-y,-z
x,-y,z
1/2+x,1/2+y,z
1/2-x,1/2+y,-z
1/2-x,1/2-y,-z
1/2+x,1/2-y,z
loop_
_atom_site_type_symbol
_atom_site_label
_atom_site_fract_x
_atom_site_fract_y
_atom_site_fract_z
Si Si1 0.246627 0.199470 0.183618
Si Si2 0.049257 0.794493 0.238147
Si Si3 0.000000 0.500000 0.000000
Si Si4 0.684884 0.297689 0.623596
Si Si5 0.391560 0.301172 0.066039
Si Si6 0.113981 0.702928 0.432793
O O1 0.147996 0.273008 0.209193
O O2 0.318633 0.211762 0.279494
O O3 0.291301 0.286301 0.102871
O O4 0.231826 0.000000 0.159100
O O5 0.041858 0.737671 0.340797
O O6 0.965821 0.752465 0.157510
O O7 0.054988 0.000000 0.242614
O O8 0.081846 0.654517 0.000668
O O9 0.692650 0.500000 0.642292
O O10 0.784680 0.231339 0.593739
O O11 0.608110 0.273602 0.533156
O O12 0.406111 0.500000 0.039677
O O13 0.120446 0.500000 0.444979
#
# Coordination Sequence:
#
# PCOD9189467 Si02
#       6
#     8   8   2   8   8   8
#     4  10  19  37  63  92 125 165 208 253 302 364
#     4   9  20  37  62  90 125 165 206 251 303 365
#     4  12  26  48  72  94 122 158 194 264 316 390
#     4   9  16  27  46  79 121 165 208 251 296 346
#     4  11  24  45  70  94 125 159 201 249 318 379
#     4   9  16  26  47  80 119 163 209 252 295 345
#
# _framework density 25.966184999999999
#
# number of rings (size 3 to 8) (size 9 to 14) (size 15 to 20)
#    0.000    2.286    0.952    2.000    1.333    5.333 
#    0.000    1.905    0.000    5.714    0.000    0.000 
#    0.000    0.000    0.000    0.000    0.000    0.000 
#
# Total GULP energy -117219.599341 kJ/mol
# GULP energy per Si atom -5581.885683 kJ/mol
# Density = 2.590708 g / cm^3
# Si number density = 25.966185 Si / 1000 Ang^3
#
#
#
# Elastic Constant Matrix: (Units=GPa)
#
#
# Indices 1 2 3 4 5 6 
#
# 1 101.8167 7.1106 42.4707 0.0000 -14.4759 0.0000
# 2 7.1106 48.6630 24.9540 0.0000 -4.7350 0.0000
# 3 42.4707 24.9540 147.7566 0.0000 -0.6834 0.0000
# 4 0.0000 0.0000 0.0000 1.8411 0.0000 -23.4833
# 5 -14.4759 -4.7350 -0.6834 0.0000 51.6381 0.0000
# 6 0.0000 0.0000 0.0000 -23.4833 0.0000 0.2197
#
#
#
# Elastic Compliance Matrix: (Units=1/GPa)
#
#
# Indices 1 2 3 4 5 6 
#
# 1 0.011680 0.000355 -0.003402 0.000000 0.003262 0.000000
# 2 0.000355 0.022720 -0.003929 0.000000 0.002131 0.000000
# 3 -0.003402 -0.003929 0.008404 0.000000 -0.001203 0.000000
# 4 0.000000 0.000000 0.000000 -0.000399 0.000000 -0.042615
# 5 0.003262 0.002131 -0.001203 0.000000 0.020459 0.000000
# 6 0.000000 0.000000 0.000000 -0.042615 0.000000 -0.003341
#
#
# Mechanical properties :
#
#
# Convention : Reuss Voigt Hill
#
# Bulk Modulus (GPa) = 34.66076 49.70077 42.18076
# Shear Modulus (GPa) = 60.17412 25.65317 42.91365
#
# Velocity S-wave (km/s) = 4.81916 3.14657 4.06972
# Velocity P-wave (km/s) = 6.65907 5.69064 6.19381
#
# Compressibility (1/GPa) = 0.02885107
#
# Stress axis : x y z
#
# Youngs Moduli (GPa) = 85.61932 44.01436 118.99357
#
# Poissons Ratio (x) = -0.01564 0.40482
# Poissons Ratio (y) = -0.03042 0.46757
# Poissons Ratio (z) = 0.29128 0.17295
#
# Static dielectric constant tensor:
#      x y z
#    x 2.121150 0.000000 0.044060 
#    y 0.000000 1.922330 0.000000 
#    z 0.044060 0.000000 2.123550 
# 
# From -- ./inp_files/221152.got.cif
#   From: 2010.05.17/outbox.cif.g08.bks.cpg/sg12_111_cif.got.tgz:221152.got - 2010.06.03 13:09:07.
