data_PCOD9189123
_publ_section_title
;
Structure prediction by ZEFSAII (Michael W. Deem and Ramdas Pophale) SiO2 
 PCOD9189123
Probable space group: C 2/M
;
_chemical_formula_sum "Si O2"
_cell_formula_units_Z 64
_cell_length_a 21.950421
_cell_length_b 24.161097
_cell_length_c 5.604061
_cell_angle_alpha 90.000000
_cell_angle_beta 86.703500
_cell_angle_gamma 90.000000
_cell_volume 2967.174912
_symmetry_space_group_name_H-M "C 2/M"
_symmetry_group_IT_number 12
_symmetry_cell_setting 'monoclinic'
loop_
_space_group_symop_operation_xyz
x,y,z
-x,y,-z
-x,-y,-z
x,-y,z
1/2+x,1/2+y,z
1/2-x,1/2+y,-z
1/2-x,1/2-y,-z
1/2+x,1/2-y,z
loop_
_atom_site_type_symbol
_atom_site_label
_atom_site_fract_x
_atom_site_fract_y
_atom_site_fract_z
Si Si1 0.569323 0.325585 0.980968
Si Si2 0.614413 0.938231 0.352292
Si Si3 0.819681 0.870816 0.276245
Si Si4 0.436819 0.100693 0.121524
Si Si5 0.239918 0.561781 0.586123
Si Si6 0.230089 0.672953 0.910533
Si Si7 0.344340 0.275931 0.652827
Si Si8 0.605832 0.214431 0.751049
O O1 0.619573 0.371593 0.897727
O O2 0.572607 0.272064 0.806707
O O3 0.500000 0.345198 0.000000
O O4 0.598668 0.298135 0.209252
O O5 0.582821 0.924820 0.617861
O O6 0.684827 0.938262 0.410784
O O7 0.594585 0.000000 0.291988
O O8 0.605262 0.905082 0.106716
O O9 0.801398 0.924785 0.426828
O O10 0.833576 0.821379 0.452216
O O11 0.761306 0.849210 0.142662
O O12 0.440028 0.164870 0.195013
O O13 0.500000 0.079451 0.000000
O O14 0.240737 0.500000 0.699230
O O15 0.228860 0.616008 0.752576
O O16 0.279701 0.717433 0.800009
O O17 0.163888 0.701223 0.908678
O O18 0.362766 0.219384 0.516562
#
# Coordination Sequence:
#
# PCOD9189123 Si02
#       8
#     8   8   8   8   8   8   8   8
#     4  10  22  39  57  85 121 165 207 246 301 373
#     4  11  25  45  67  89 119 165 216 272 326 375
#     4   9  20  37  59  88 119 159 198 254 309 376
#     4  12  26  43  62  90 124 167 217 268 318 375
#     4  10  21  37  61  90 119 153 201 261 323 379
#     4  10  19  37  57  85 121 155 202 250 314 372
#     4   9  21  36  58  86 118 159 201 247 306 368
#     4  11  22  35  56  86 122 162 201 254 305 368
#
# _framework density 21.569337000000001
#
# number of rings (size 3 to 8) (size 9 to 14) (size 15 to 20)
#    0.000    1.750    1.250    2.250    1.750   10.500 
#    2.250    0.000    0.000    0.375    0.000    7.875 
#    0.000    0.000    0.000    0.000    0.000    0.000 
#
# Total GULP energy -178347.726619 kJ/mol
# GULP energy per Si atom -5573.366457 kJ/mol
# Density = 2.152024 g / cm^3
# Si number density = 21.569337 Si / 1000 Ang^3
#
#
#
# Elastic Constant Matrix: (Units=GPa)
#
#
# Indices 1 2 3 4 5 6 
#
# 1 84.7571 3.2518 8.1259 0.0000 -8.5289 0.0000
# 2 3.2518 60.4589 15.1440 0.0000 -17.8635 0.0000
# 3 8.1259 15.1440 72.5063 0.0000 -8.5418 0.0000
# 4 0.0000 0.0000 0.0000 27.4955 0.0000 -0.4550
# 5 -8.5289 -17.8635 -8.5418 0.0000 25.7006 0.0000
# 6 0.0000 0.0000 0.0000 -0.4550 0.0000 7.3041
#
#
#
# Elastic Compliance Matrix: (Units=1/GPa)
#
#
# Indices 1 2 3 4 5 6 
#
# 1 0.012303 0.000887 -0.001052 0.000000 0.004350 0.000000
# 2 0.000887 0.021420 -0.002898 0.000000 0.014219 0.000000
# 3 -0.001052 -0.002898 0.014817 0.000000 0.002561 0.000000
# 4 0.000000 0.000000 0.000000 0.036407 0.000000 0.002268
# 5 0.004350 0.014219 0.002561 0.000000 0.051087 0.000000
# 6 0.000000 0.000000 0.000000 0.002268 0.000000 0.137050
#
#
# Mechanical properties :
#
#
# Convention : Reuss Voigt Hill
#
# Bulk Modulus (GPa) = 23.57730 30.08506 26.83118
# Shear Modulus (GPa) = 17.04464 24.84676 20.94570
#
# Velocity S-wave (km/s) = 2.81414 3.39772 3.11961
# Velocity P-wave (km/s) = 4.63831 5.41950 5.04405
#
# Compressibility (1/GPa) = 0.04241368
#
# Stress axis : x y z
#
# Youngs Moduli (GPa) = 81.28154 46.68619 67.49102
#
# Poissons Ratio (x) = -0.04141 0.07097
# Poissons Ratio (y) = -0.07209 0.19559
# Poissons Ratio (z) = 0.08548 0.13530
#
# Static dielectric constant tensor:
#      x y z
#    x 1.810830 0.000000 -0.053390 
#    y 0.000000 1.787630 0.000000 
#    z -0.053390 0.000000 1.900310 
# 
# From -- ./inp_files/22331.got.cif
#   From: 2010.05.17/outbox.cif.g08.bks.cpg/sg12_12_cif.got.tgz:22331.got - 2010.06.03 13:09:07.
