data_PCOD9189727
_publ_section_title
;
Structure prediction by ZEFSAII (Michael W. Deem and Ramdas Pophale) SiO2 
 PCOD9189727
Probable space group: C 2/M
;
_chemical_formula_sum "Si O2"
_cell_formula_units_Z 36
_cell_length_a 18.086966
_cell_length_b 11.971544
_cell_length_c 6.738324
_cell_angle_alpha 90.000000
_cell_angle_beta 96.443512
_cell_angle_gamma 90.000000
_cell_volume 1449.825149
_symmetry_space_group_name_H-M "C 2/M"
_symmetry_group_IT_number 12
_symmetry_cell_setting 'monoclinic'
loop_
_space_group_symop_operation_xyz
x,y,z
-x,y,-z
-x,-y,-z
x,-y,z
1/2+x,1/2+y,z
1/2-x,1/2+y,-z
1/2-x,1/2-y,-z
1/2+x,1/2-y,z
loop_
_atom_site_type_symbol
_atom_site_label
_atom_site_fract_x
_atom_site_fract_y
_atom_site_fract_z
Si Si1 0.732045 0.383610 0.099395
Si Si2 0.150247 0.318089 0.171042
Si Si3 0.910775 0.376224 0.444891
Si Si4 0.105204 0.122593 0.720037
Si Si5 0.500000 0.697254 0.000000
O O1 0.727464 0.500000 0.206740
O O2 0.809220 0.372161 0.005883
O O3 0.671131 0.381752 0.903571
O O4 0.706986 0.283795 0.230540
O O5 0.134464 0.384171 0.363608
O O6 0.069841 0.272292 0.082625
O O7 0.899677 0.500000 0.341512
O O8 0.891123 0.247988 0.370508
O O9 0.000000 0.370439 0.500000
O O10 0.028329 0.126938 0.822026
O O11 0.108291 0.000000 0.614759
#
# Coordination Sequence:
#
# PCOD9189727 Si02
#       5
#     8   8   8   8   4
#     4   9  20  39  62  89 120 158 203 255 304 355
#     4  10  20  38  62  85 123 160 200 248 305 359
#     4  11  23  40  58  90 130 162 197 248 306 361
#     4  10  21  39  63  90 121 159 204 250 304 361
#     4  10  19  38  61  92 115 160 207 258 295 356
#
# _framework density 24.830580000000001
#
# number of rings (size 3 to 8) (size 9 to 14) (size 15 to 20)
#    0.000    2.000    2.222    1.000    0.000    3.111 
#    0.000   17.222    0.000    0.000    0.000    0.000 
#    0.000    0.000    0.000    0.000    0.000    0.000 
#
# Total GULP energy -100284.530453 kJ/mol
# GULP energy per Si atom -5571.362803 kJ/mol
# Density = 2.477406 g / cm^3
# Si number density = 24.830580 Si / 1000 Ang^3
#
#
#
# Elastic Constant Matrix: (Units=GPa)
#
#
# Indices 1 2 3 4 5 6 
#
# 1 148.0057 40.6197 29.5956 0.0000 -13.0919 0.0000
# 2 40.6197 240.8044 51.9653 0.0000 -7.9635 0.0000
# 3 29.5956 51.9653 38.3185 0.0000 -18.1968 0.0000
# 4 0.0000 0.0000 0.0000 18.4595 0.0000 1.5434
# 5 -13.0919 -7.9635 -18.1968 0.0000 38.6999 0.0000
# 6 0.0000 0.0000 0.0000 1.5434 0.0000 -9.5115
#
#
#
# Elastic Compliance Matrix: (Units=1/GPa)
#
#
# Indices 1 2 3 4 5 6 
#
# 1 0.007993 0.000003 -0.006299 0.000000 -0.000257 0.000000
# 2 0.000003 0.006210 -0.010063 0.000000 -0.003453 0.000000
# 3 -0.006299 -0.010063 0.054864 0.000000 0.021596 0.000000
# 4 0.000000 0.000000 0.000000 0.053447 0.000000 0.008673
# 5 -0.000257 -0.003453 0.021596 0.000000 0.035197 0.000000
# 6 0.000000 0.000000 0.000000 0.008673 0.000000 -0.103728
#
#
# Mechanical properties :
#
#
# Convention : Reuss Voigt Hill
#
# Bulk Modulus (GPa) = 27.51186 74.60998 51.06092
# Shear Modulus (GPa) = 50.59896 29.85945 40.22921
#
# Velocity S-wave (km/s) = 4.51906 3.47151 4.02947
# Velocity P-wave (km/s) = 6.19137 6.79569 6.50056
#
# Compressibility (1/GPa) = 0.03634796
#
# Stress axis : x y z
#
# Youngs Moduli (GPa) = 125.11649 161.03867 18.22690
#
# Poissons Ratio (x) = -0.00041 0.11481
# Poissons Ratio (y) = -0.00032 0.18342
# Poissons Ratio (z) = 0.78808 1.62052
#
# Static dielectric constant tensor:
#      x y z
#    x 1.947160 0.000000 0.053880 
#    y 0.000000 2.049470 0.000000 
#    z 0.053880 0.000000 2.009010 
# 
# From -- ./inp_files/82868.got.cif
#   From: 2010.05.17/outbox.cif.g08.bks.cpg/sg12_42_cif.got.tgz:82868.got - 2010.06.03 13:09:07.
