data_PCOD9189619
_publ_section_title
;
Structure prediction by ZEFSAII (Michael W. Deem and Ramdas Pophale) SiO2 
 PCOD9189619
Probable space group: C 2/M
;
_chemical_formula_sum "Si O2"
_cell_formula_units_Z 44
_cell_length_a 13.633740
_cell_length_b 21.492616
_cell_length_c 10.803068
_cell_angle_alpha 90.000000
_cell_angle_beta 42.071396
_cell_angle_gamma 90.000000
_cell_volume 2121.106976
_symmetry_space_group_name_H-M "C 2/M"
_symmetry_group_IT_number 12
_symmetry_cell_setting 'monoclinic'
loop_
_space_group_symop_operation_xyz
x,y,z
-x,y,-z
-x,-y,-z
x,-y,z
1/2+x,1/2+y,z
1/2-x,1/2+y,-z
1/2-x,1/2-y,-z
1/2+x,1/2-y,z
loop_
_atom_site_type_symbol
_atom_site_label
_atom_site_fract_x
_atom_site_fract_y
_atom_site_fract_z
Si Si1 0.000000 0.355479 0.000000
Si Si2 0.585076 0.764420 0.695824
Si Si3 0.376095 0.348399 0.198588
Si Si4 0.354469 0.071157 0.937691
Si Si5 0.199574 0.304025 0.141581
Si Si6 0.891447 0.429374 0.491944
O O1 0.063920 0.311805 0.831004
O O2 0.880331 0.400258 0.048826
O O3 0.750000 0.750000 0.500000
O O4 0.538824 0.696519 0.788010
O O5 0.475931 0.791016 0.694036
O O6 0.280502 0.304069 0.196381
O O7 0.256598 0.390980 0.375035
O O8 0.500000 0.381311 0.000000
O O9 0.275216 0.126238 0.936195
O O10 0.513532 0.069141 0.721344
O O11 0.297833 0.000000 0.987685
O O12 0.250000 0.250000 0.000000
O O13 0.852665 0.500000 0.563150
O O14 0.000000 0.407285 0.500000
#
# Coordination Sequence:
#
# PCOD9189619 Si02
#       6
#     4   8   8   8   8   8
#     4  10  19  38  56  92 123 152 206 252 307 374
#     4  11  23  37  59  90 123 159 203 253 313 372
#     4  12  21  36  57  82 118 160 199 252 310 368
#     4  10  20  36  61  86 116 159 205 254 312 370
#     4  11  21  38  58  87 124 158 202 259 311 371
#     4  10  21  37  58  87 117 154 207 258 309 372
#
# _framework density 20.743886
#
# number of rings (size 3 to 8) (size 9 to 14) (size 15 to 20)
#    0.000    1.273    4.545    3.545    0.000    0.364 
#    0.000    0.000    0.000    0.000    0.000    1.273 
#    0.000    0.000    0.000    0.000    0.000    0.000 
#
# Total GULP energy -122688.268952 kJ/mol
# GULP energy per Si atom -5576.739498 kJ/mol
# Density = 2.069667 g / cm^3
# Si number density = 20.743886 Si / 1000 Ang^3
#
#
#
# Elastic Constant Matrix: (Units=GPa)
#
#
# Indices 1 2 3 4 5 6 
#
# 1 72.8083 16.8126 3.0434 0.0000 -8.1850 0.0000
# 2 16.8126 141.4341 18.0149 0.0000 -8.6892 0.0000
# 3 3.0434 18.0149 73.2317 0.0000 -7.3718 0.0000
# 4 0.0000 0.0000 0.0000 35.2235 0.0000 -5.9458
# 5 -8.1850 -8.6892 -7.3718 0.0000 22.0535 0.0000
# 6 0.0000 0.0000 0.0000 -5.9458 0.0000 24.0703
#
#
#
# Elastic Compliance Matrix: (Units=1/GPa)
#
#
# Indices 1 2 3 4 5 6 
#
# 1 0.014617 -0.001466 0.000250 0.000000 0.004931 0.000000
# 2 -0.001466 0.007566 -0.001609 0.000000 0.001899 0.000000
# 3 0.000250 -0.001609 0.014473 0.000000 0.004297 0.000000
# 4 0.000000 0.000000 0.000000 0.029625 0.000000 0.007318
# 5 0.004931 0.001899 0.004297 0.000000 0.049359 0.000000
# 6 0.000000 0.000000 0.000000 0.007318 0.000000 0.043353
#
#
# Mechanical properties :
#
#
# Convention : Reuss Voigt Hill
#
# Bulk Modulus (GPa) = 32.25306 40.35732 36.30519
# Shear Modulus (GPa) = 28.57458 32.90968 30.74213
#
# Velocity S-wave (km/s) = 3.71549 3.98738 3.85383
# Velocity P-wave (km/s) = 5.82996 6.37936 6.11084
#
# Compressibility (1/GPa) = 0.03100481
#
# Stress axis : x y z
#
# Youngs Moduli (GPa) = 68.41260 132.16344 69.09278
#
# Poissons Ratio (x) = 0.19381 -0.01725
# Poissons Ratio (y) = 0.10032 0.11118
# Poissons Ratio (z) = -0.01708 0.21268
#
# Static dielectric constant tensor:
#      x y z
#    x 1.770680 0.000000 0.016640 
#    y 0.000000 1.804870 0.000000 
#    z 0.016640 0.000000 1.867240 
# 
# From -- ./inp_files/147479.got.cif
#   From: 2010.05.17/outbox.cif.g08.bks.cpg/sg12_74_cif.got.tgz:147479.got - 2010.06.03 13:09:07.
