data_PCOD9189968
_publ_section_title
;
Structure prediction by ZEFSAII (Michael W. Deem and Ramdas Pophale) SiO2 
 PCOD9189968
Probable space group: C 2/M
;
_chemical_formula_sum "Si O2"
_cell_formula_units_Z 64
_cell_length_a 31.065482
_cell_length_b 22.678964
_cell_length_c 9.638976
_cell_angle_alpha 90.000000
_cell_angle_beta 28.340234
_cell_angle_gamma 90.000000
_cell_volume 3223.719698
_symmetry_space_group_name_H-M "C 2/M"
_symmetry_group_IT_number 12
_symmetry_cell_setting 'monoclinic'
loop_
_space_group_symop_operation_xyz
x,y,z
-x,y,-z
-x,-y,-z
x,-y,z
1/2+x,1/2+y,z
1/2-x,1/2+y,-z
1/2-x,1/2-y,-z
1/2+x,1/2-y,z
loop_
_atom_site_type_symbol
_atom_site_label
_atom_site_fract_x
_atom_site_fract_y
_atom_site_fract_z
Si Si1 0.914850 0.130051 0.641470
Si Si2 0.853794 0.260254 0.739389
Si Si3 0.595572 0.160241 0.159541
Si Si4 0.357641 0.262790 0.178577
Si Si5 0.596946 0.197428 0.697860
Si Si6 0.740780 0.068929 0.648543
Si Si7 0.281987 0.372019 0.248017
Si Si8 0.084611 0.928731 0.662021
O O1 0.900443 0.200171 0.658407
O O2 0.921555 0.100719 0.471415
O O3 0.000000 0.118547 0.500000
O O4 0.827395 0.107508 0.976536
O O5 0.852996 0.308492 0.860961
O O6 0.898187 0.284099 0.474271
O O7 0.750000 0.250000 0.000000
O O8 0.500000 0.144212 0.500000
O O9 0.594242 0.211872 0.047685
O O10 0.652853 0.107049 0.935474
O O11 0.250000 0.250000 0.500000
O O12 0.397469 0.255329 0.218888
O O13 0.353549 0.324162 0.109485
O O14 0.685347 0.158883 0.487247
O O15 0.500000 0.167501 0.000000
O O16 0.767362 0.082535 0.413979
O O17 0.823363 0.087042 0.515997
O O18 0.724633 0.000000 0.712908
O O19 0.083234 0.000000 0.649769
O O20 0.000000 0.912382 0.000000
#
# Coordination Sequence:
#
# PCOD9189968 Si02
#       8
#     8   8   8   8   8   8   8   8
#     4  12  25  39  64 101 135 167 213 266 333 402
#     4  12  23  37  58  96 137 168 207 265 326 398
#     4  12  23  40  66  94 138 172 215 272 330 401
#     4  10  19  39  60  89 123 175 208 259 327 390
#     4  11  23  36  60  92 128 175 215 253 327 393
#     4  11  25  45  71  93 123 179 233 278 329 389
#     4  11  23  41  63  92 135 168 219 272 324 392
#     4  10  24  47  69  95 128 171 226 280 335 390
#
# _framework density 19.852843
#
# number of rings (size 3 to 8) (size 9 to 14) (size 15 to 20)
#    0.000    0.875    5.000    3.375    3.500    1.500 
#    0.000    0.000    0.000    0.375    0.000    0.000 
#    0.000    0.000    0.000    0.000    0.000    0.000 
#
# Total GULP energy -178821.823441 kJ/mol
# GULP energy per Si atom -5588.181983 kJ/mol
# Density = 1.980766 g / cm^3
# Si number density = 19.852843 Si / 1000 Ang^3
#
#
#
# Elastic Constant Matrix: (Units=GPa)
#
#
# Indices 1 2 3 4 5 6 
#
# 1 94.8632 14.8020 32.6878 0.0000 11.9509 0.0000
# 2 14.8020 52.5417 29.8264 0.0000 4.4751 0.0000
# 3 32.6878 29.8264 132.5101 0.0000 10.4882 0.0000
# 4 0.0000 0.0000 0.0000 8.6757 0.0000 -1.1131
# 5 11.9509 4.4751 10.4882 0.0000 47.1540 0.0000
# 6 0.0000 0.0000 0.0000 -1.1131 0.0000 21.6045
#
#
#
# Elastic Compliance Matrix: (Units=1/GPa)
#
#
# Indices 1 2 3 4 5 6 
#
# 1 0.011929 -0.001830 -0.002346 0.000000 -0.002328 0.000000
# 2 -0.001830 0.022148 -0.004483 0.000000 -0.000641 0.000000
# 3 -0.002346 -0.004483 0.009216 0.000000 -0.001030 0.000000
# 4 0.000000 0.000000 0.000000 0.116031 0.000000 0.005978
# 5 -0.002328 -0.000641 -0.001030 0.000000 0.022087 0.000000
# 6 0.000000 0.000000 0.000000 0.005978 0.000000 0.046595
#
#
# Mechanical properties :
#
#
# Convention : Reuss Voigt Hill
#
# Bulk Modulus (GPa) = 38.50145 48.28306 43.39225
# Shear Modulus (GPa) = 19.68645 28.99344 24.33994
#
# Velocity S-wave (km/s) = 3.15241 3.82569 3.50525
# Velocity P-wave (km/s) = 5.71715 6.62479 6.18763
#
# Compressibility (1/GPa) = 0.02597305
#
# Stress axis : x y z
#
# Youngs Moduli (GPa) = 83.83035 45.15174 108.50741
#
# Poissons Ratio (x) = 0.08264 0.25460
# Poissons Ratio (y) = 0.15344 0.48643
# Poissons Ratio (z) = 0.19670 0.20241
#
# Static dielectric constant tensor:
#      x y z
#    x 1.718040 0.000000 -0.005050 
#    y 0.000000 1.677700 0.000000 
#    z -0.005050 0.000000 1.744060 
# 
# From -- ./inp_files/113596.got.cif
#   From: 2010.05.17/outbox.cif.g08.bks.cpg/sg12_57_cif.got.tgz:113596.got - 2010.06.03 13:09:07.
