data_PCOD9189657
_publ_section_title
;
Structure prediction by ZEFSAII (Michael W. Deem and Ramdas Pophale) SiO2 
 PCOD9189657
Probable space group: C 2/M
;
_chemical_formula_sum "Si O2"
_cell_formula_units_Z 48
_cell_length_a 13.794280
_cell_length_b 19.449564
_cell_length_c 12.316384
_cell_angle_alpha 90.000000
_cell_angle_beta 134.549534
_cell_angle_gamma 90.000000
_cell_volume 2354.858945
_symmetry_space_group_name_H-M "C 2/M"
_symmetry_group_IT_number 12
_symmetry_cell_setting 'monoclinic'
loop_
_space_group_symop_operation_xyz
x,y,z
-x,y,-z
-x,-y,-z
x,-y,z
1/2+x,1/2+y,z
1/2-x,1/2+y,-z
1/2-x,1/2-y,-z
1/2+x,1/2-y,z
loop_
_atom_site_type_symbol
_atom_site_label
_atom_site_fract_x
_atom_site_fract_y
_atom_site_fract_z
Si Si1 0.929198 0.287354 0.629035
Si Si2 0.838080 0.076595 0.373798
Si Si3 0.134199 0.309004 0.165563
Si Si4 0.741124 0.199751 0.888463
Si Si5 0.169475 0.139527 0.411969
Si Si6 0.557856 0.578221 0.923672
O O1 0.900924 0.297325 0.735997
O O2 0.898483 0.207045 0.585021
O O3 0.813098 0.332406 0.479551
O O4 0.084244 0.306303 0.730603
O O5 0.755765 0.136370 0.249350
O O6 0.799279 0.084927 0.469754
O O7 0.000000 0.085933 0.500000
O O8 0.806702 0.000000 0.308819
O O9 0.175994 0.238124 0.141148
O O10 0.000000 0.335376 0.000000
O O11 0.750000 0.250000 0.000000
O O12 0.813247 0.128699 0.975770
O O13 0.061110 0.109508 0.244263
O O14 0.589149 0.500000 0.914348
O O15 0.500000 0.576770 0.000000
#
# Coordination Sequence:
#
# PCOD9189657 Si02
#       6
#     8   8   8   8   8   8
#     4  10  21  35  61  91 119 155 207 251 308 357
#     4  10  22  36  54  83 119 159 199 241 301 369
#     4  11  21  37  57  85 121 157 198 253 302 357
#     4  12  21  37  64  91 120 158 204 263 299 362
#     4  10  19  38  59  85 119 159 201 253 302 366
#     4  11  24  42  64  90 123 165 207 255 320 377
#
# _framework density 20.383386000000002
#
# number of rings (size 3 to 8) (size 9 to 14) (size 15 to 20)
#    0.000    1.333    3.333    3.000    0.000    0.333 
#    0.000   10.000    0.000    2.000    0.000    0.000 
#    0.000    0.000    0.000    0.000    0.000    0.000 
#
# Total GULP energy -134168.466475 kJ/mol
# GULP energy per Si atom -5590.352770 kJ/mol
# Density = 2.033699 g / cm^3
# Si number density = 20.383386 Si / 1000 Ang^3
#
#
#
# Elastic Constant Matrix: (Units=GPa)
#
#
# Indices 1 2 3 4 5 6 
#
# 1 38.5054 17.9933 10.8718 0.0000 14.2212 0.0000
# 2 17.9933 140.6192 55.4277 0.0000 25.3883 0.0000
# 3 10.8718 55.4277 120.6054 0.0000 35.6678 0.0000
# 4 0.0000 0.0000 0.0000 28.1381 0.0000 3.3292
# 5 14.2212 25.3883 35.6678 0.0000 36.8479 0.0000
# 6 0.0000 0.0000 0.0000 3.3292 0.0000 16.9460
#
#
#
# Elastic Compliance Matrix: (Units=1/GPa)
#
#
# Indices 1 2 3 4 5 6 
#
# 1 0.031096 -0.002562 0.001964 0.000000 -0.012137 0.000000
# 2 -0.002562 0.009134 -0.003360 0.000000 -0.002052 0.000000
# 3 0.001964 -0.003360 0.012887 0.000000 -0.010917 0.000000
# 4 0.000000 0.000000 0.000000 0.036385 0.000000 -0.007148
# 5 -0.012137 -0.002052 -0.010917 0.000000 0.043805 0.000000
# 6 0.000000 0.000000 0.000000 -0.007148 0.000000 0.060415
#
#
# Mechanical properties :
#
#
# Convention : Reuss Voigt Hill
#
# Bulk Modulus (GPa) = 22.12337 52.03506 37.07922
# Shear Modulus (GPa) = 23.07286 30.74888 26.91087
#
# Velocity S-wave (km/s) = 3.36809 3.88819 3.63745
# Velocity P-wave (km/s) = 5.09927 6.76321 5.98930
#
# Compressibility (1/GPa) = 0.04520106
#
# Stress axis : x y z
#
# Youngs Moduli (GPa) = 32.15893 109.47945 77.59527
#
# Poissons Ratio (x) = 0.28044 -0.15236
# Poissons Ratio (y) = 0.08238 0.26072
# Poissons Ratio (z) = -0.06315 0.36785
#
# Static dielectric constant tensor:
#      x y z
#    x 1.768780 0.000000 -0.017390 
#    y 0.000000 1.716210 0.000000 
#    z -0.017390 0.000000 1.734490 
# 
# From -- ./inp_files/216491.got.cif
#   From: 2010.05.17/outbox.cif.g08.bks.cpg/sg12_109_cif.got.tgz:216491.got - 2010.06.03 13:09:07.
