data_PCOD9189516
_publ_section_title
;
Structure prediction by ZEFSAII (Michael W. Deem and Ramdas Pophale) SiO2 
 PCOD9189516
Probable space group: C 2/M
;
_chemical_formula_sum "Si O2"
_cell_formula_units_Z 64
_cell_length_a 17.776300
_cell_length_b 15.995255
_cell_length_c 13.901269
_cell_angle_alpha 90.000000
_cell_angle_beta 127.155562
_cell_angle_gamma 90.000000
_cell_volume 3150.246549
_symmetry_space_group_name_H-M "C 2/M"
_symmetry_group_IT_number 12
_symmetry_cell_setting 'monoclinic'
loop_
_space_group_symop_operation_xyz
x,y,z
-x,y,-z
-x,-y,-z
x,-y,z
1/2+x,1/2+y,z
1/2-x,1/2+y,-z
1/2-x,1/2-y,-z
1/2+x,1/2-y,z
loop_
_atom_site_type_symbol
_atom_site_label
_atom_site_fract_x
_atom_site_fract_y
_atom_site_fract_z
Si Si1 0.306427 0.100759 0.060318
Si Si2 0.833423 0.402838 0.302207
Si Si3 0.244530 0.588224 0.556731
Si Si4 0.562903 0.652064 0.353572
Si Si5 0.859930 0.775258 0.393528
Si Si6 0.343253 0.197287 0.667823
Si Si7 0.500655 0.899708 0.890688
Si Si8 0.856858 0.901552 0.212476
O O1 0.298381 0.117666 0.167823
O O2 0.407117 0.130920 0.096471
O O3 0.307067 0.000000 0.053661
O O4 0.220116 0.127550 0.925682
O O5 0.874272 0.500000 0.330591
O O6 0.757155 0.407158 0.329418
O O7 0.887665 0.318082 0.377890
O O8 0.197711 0.500000 0.495310
O O9 0.348447 0.591706 0.593786
O O10 0.187619 0.660232 0.459035
O O11 0.573896 0.690323 0.469497
O O12 0.587428 0.726119 0.298768
O O13 0.463538 0.609949 0.258173
O O14 0.752085 0.777214 0.351406
O O15 0.854414 0.841865 0.303029
O O16 0.403280 0.128578 0.768877
O O17 0.505408 0.000000 0.894959
O O18 0.500000 0.869746 0.000000
O O19 0.840236 0.000000 0.222612
#
# Coordination Sequence:
#
# PCOD9189516 Si02
#       8
#     8   8   8   8   8   8   8   8
#     4   9  21  42  63  88 123 162 212 261 306 373
#     4  10  20  39  64  90 124 168 211 255 314 376
#     4  10  19  37  65  88 120 167 207 254 319 373
#     4  11  22  40  58  93 131 158 207 264 306 378
#     4  11  22  40  65  91 129 162 208 260 319 374
#     4  11  21  38  58  94 125 159 206 261 314 377
#     4  10  21  39  62  88 121 158 206 265 315 369
#     4  11  25  43  65  92 125 169 213 262 322 375
#
# _framework density 20.315868999999999
#
# number of rings (size 3 to 8) (size 9 to 14) (size 15 to 20)
#    0.000    1.625    2.500    2.625    1.750    5.000 
#    2.250    1.250    0.000    7.500    0.000    0.000 
#    0.000    0.000    0.000    0.000    0.000    0.000 
#
# Total GULP energy -178375.140080 kJ/mol
# GULP energy per Si atom -5574.223127 kJ/mol
# Density = 2.026963 g / cm^3
# Si number density = 20.315869 Si / 1000 Ang^3
#
#
#
# Elastic Constant Matrix: (Units=GPa)
#
#
# Indices 1 2 3 4 5 6 
#
# 1 63.4996 29.9985 55.7154 0.0000 -10.2844 0.0000
# 2 29.9985 82.5328 17.6511 0.0000 -6.8725 0.0000
# 3 55.7154 17.6511 99.5366 0.0000 4.3834 0.0000
# 4 0.0000 0.0000 0.0000 37.5691 0.0000 -16.8317
# 5 -10.2844 -6.8725 4.3834 0.0000 29.0417 0.0000
# 6 0.0000 0.0000 0.0000 -16.8317 0.0000 61.3734
#
#
#
# Elastic Compliance Matrix: (Units=1/GPa)
#
#
# Indices 1 2 3 4 5 6 
#
# 1 0.043353 -0.009380 -0.023337 0.000000 0.016655 0.000000
# 2 -0.009380 0.014954 0.002606 0.000000 -0.000176 0.000000
# 3 -0.023337 0.002606 0.023138 0.000000 -0.011140 0.000000
# 4 0.000000 0.000000 0.000000 0.030346 0.000000 0.008322
# 5 0.016655 -0.000176 -0.011140 0.000000 0.041971 0.000000
# 6 0.000000 0.000000 0.000000 0.008322 0.000000 0.018576
#
#
# Mechanical properties :
#
#
# Convention : Reuss Voigt Hill
#
# Bulk Modulus (GPa) = 47.11739 50.25547 48.68643
# Shear Modulus (GPa) = 20.86538 35.07712 27.97125
#
# Velocity S-wave (km/s) = 3.20824 4.15973 3.71457
# Velocity P-wave (km/s) = 6.08000 6.91823 6.51262
#
# Compressibility (1/GPa) = 0.02122359
#
# Stress axis : x y z
#
# Youngs Moduli (GPa) = 23.06671 66.87355 43.21980
#
# Poissons Ratio (x) = 0.62726 1.00860
# Poissons Ratio (y) = 0.21636 -0.11264
# Poissons Ratio (z) = 0.53830 -0.17429
#
# Static dielectric constant tensor:
#      x y z
#    x 1.740630 0.000000 -0.004970 
#    y 0.000000 1.793760 0.000000 
#    z -0.004970 0.000000 1.684270 
# 
# From -- ./inp_files/225769.got.cif
#   From: 2010.05.17/outbox.cif.g08.bks.cpg/sg12_113_cif.got.tgz:225769.got - 2010.06.03 13:09:07.
