data_PCOD9189603
_publ_section_title
;
Structure prediction by ZEFSAII (Michael W. Deem and Ramdas Pophale) SiO2 
 PCOD9189603
Probable space group: C 2/M
;
_chemical_formula_sum "Si O2"
_cell_formula_units_Z 52
_cell_length_a 8.123139
_cell_length_b 31.367706
_cell_length_c 17.816124
_cell_angle_alpha 90.000000
_cell_angle_beta 37.373448
_cell_angle_gamma 90.000000
_cell_volume 2755.586309
_symmetry_space_group_name_H-M "C 2/M"
_symmetry_group_IT_number 12
_symmetry_cell_setting 'monoclinic'
loop_
_space_group_symop_operation_xyz
x,y,z
-x,y,-z
-x,-y,-z
x,-y,z
1/2+x,1/2+y,z
1/2-x,1/2+y,-z
1/2-x,1/2-y,-z
1/2+x,1/2-y,z
loop_
_atom_site_type_symbol
_atom_site_label
_atom_site_fract_x
_atom_site_fract_y
_atom_site_fract_z
Si Si1 0.993465 0.701963 0.376095
Si Si2 0.277425 0.118864 0.761612
Si Si3 0.807441 0.548669 0.376243
Si Si4 0.959794 0.453337 0.145258
Si Si5 0.000000 0.921005 0.000000
Si Si6 0.553818 0.295932 0.657094
Si Si7 0.756968 0.366179 0.143937
O O1 0.052273 0.661966 0.302765
O O2 0.216208 0.701452 0.361881
O O3 0.704369 0.696507 0.522719
O O4 0.026888 0.746449 0.320803
O O5 0.472978 0.080040 0.667329
O O6 0.170907 0.107983 0.882382
O O7 0.014885 0.124569 0.804891
O O8 0.500000 0.563190 0.500000
O O9 0.833001 0.500000 0.394928
O O10 0.862021 0.547730 0.267158
O O11 0.885490 0.500000 0.140425
O O12 0.847650 0.411409 0.145793
O O13 0.285970 0.448709 0.030900
O O14 0.326626 0.330088 0.764520
O O15 0.000000 0.351972 0.000000
#
# Coordination Sequence:
#
# PCOD9189603 Si02
#       7
#     8   8   8   8   4   8   8
#     4   9  19  38  59  85 107 147 187 232 286 344
#     4  10  21  37  58  84 115 149 190 235 288 341
#     4   9  20  38  58  85 116 149 192 241 288 338
#     4  10  21  36  58  83 112 154 199 234 278 337
#     4  10  19  38  54  80 116 148 194 238 279 334
#     4   9  20  38  59  81 115 142 188 235 283 341
#     4  11  22  39  56  85 120 153 189 239 290 335
#
# _framework density 18.870757000000001
#
# number of rings (size 3 to 8) (size 9 to 14) (size 15 to 20)
#    0.000    2.308    1.538    0.231    2.154    4.000 
#    4.154    1.538    0.000    2.769    0.000    0.000 
#    0.000    0.000    0.000    0.000    0.000    0.000 
#
# Total GULP energy -144942.021736 kJ/mol
# GULP energy per Si atom -5574.693144 kJ/mol
# Density = 1.882781 g / cm^3
# Si number density = 18.870757 Si / 1000 Ang^3
#
#
#
# Elastic Constant Matrix: (Units=GPa)
#
#
# Indices 1 2 3 4 5 6 
#
# 1 19.9660 30.6888 19.2958 0.0000 -4.7164 0.0000
# 2 30.6888 149.2945 79.0814 0.0000 -0.8479 0.0000
# 3 19.2958 79.0814 109.7454 0.0000 -11.6779 0.0000
# 4 0.0000 0.0000 0.0000 23.2173 0.0000 1.5867
# 5 -4.7164 -0.8479 -11.6779 0.0000 21.5176 0.0000
# 6 0.0000 0.0000 0.0000 1.5867 0.0000 21.6128
#
#
#
# Elastic Compliance Matrix: (Units=1/GPa)
#
#
# Indices 1 2 3 4 5 6 
#
# 1 0.078793 -0.015654 -0.000850 0.000000 0.016192 0.000000
# 2 -0.015654 0.014285 -0.008327 0.000000 -0.007388 0.000000
# 3 -0.000850 -0.008327 0.016140 0.000000 0.008245 0.000000
# 4 0.000000 0.000000 0.000000 0.043289 0.000000 -0.003178
# 5 0.016192 -0.007388 0.008245 0.000000 0.054206 0.000000
# 6 0.000000 0.000000 0.000000 -0.003178 0.000000 0.046502
#
#
# Mechanical properties :
#
#
# Convention : Reuss Voigt Hill
#
# Bulk Modulus (GPa) = 16.79156 59.68198 38.23677
# Shear Modulus (GPa) = 15.49283 23.26555 19.37919
#
# Velocity S-wave (km/s) = 2.86841 3.51506 3.20807
# Velocity P-wave (km/s) = 4.45958 6.94043 5.83342
#
# Compressibility (1/GPa) = 0.05955372
#
# Stress axis : x y z
#
# Youngs Moduli (GPa) = 12.69144 70.00285 61.95978
#
# Poissons Ratio (x) = 1.09584 0.05269
# Poissons Ratio (y) = 0.19867 0.51597
# Poissons Ratio (z) = 0.01079 0.58295
#
# Static dielectric constant tensor:
#      x y z
#    x 1.660280 0.000000 -0.006210 
#    y 0.000000 1.663380 0.000000 
#    z -0.006210 0.000000 1.666790 
# 
# From -- ./inp_files/302923.got.cif
#   From: 2010.05.17/outbox.cif.g08.bks.cpg/sg12_152_cif.got.tgz:302923.got - 2010.06.03 13:09:07.
