data_PCOD9189943
_publ_section_title
;
Structure prediction by ZEFSAII (Michael W. Deem and Ramdas Pophale) SiO2 
 PCOD9189943
Probable space group: C 2/M
;
_chemical_formula_sum "Si O2"
_cell_formula_units_Z 56
_cell_length_a 17.556112
_cell_length_b 19.030567
_cell_length_c 15.352965
_cell_angle_alpha 90.000000
_cell_angle_beta 149.125017
_cell_angle_gamma 90.000000
_cell_volume 2632.271417
_symmetry_space_group_name_H-M "C 2/M"
_symmetry_group_IT_number 12
_symmetry_cell_setting 'monoclinic'
loop_
_space_group_symop_operation_xyz
x,y,z
-x,y,-z
-x,-y,-z
x,-y,z
1/2+x,1/2+y,z
1/2-x,1/2+y,-z
1/2-x,1/2-y,-z
1/2+x,1/2-y,z
loop_
_atom_site_type_symbol
_atom_site_label
_atom_site_fract_x
_atom_site_fract_y
_atom_site_fract_z
Si Si1 0.151383 0.080469 0.093558
Si Si2 0.670826 0.713967 0.341279
Si Si3 0.325404 0.217267 0.313399
Si Si4 0.965409 0.918226 0.742031
Si Si5 0.347975 0.778866 0.016786
Si Si6 0.589688 0.079370 0.999593
Si Si7 0.560817 0.419500 0.646099
O O1 0.271396 0.138736 0.234243
O O2 0.195501 0.000000 0.155875
O O3 0.000000 0.094763 0.000000
O O4 0.101681 0.084903 0.943898
O O5 0.750000 0.750000 0.500000
O O6 0.749430 0.735118 0.330048
O O7 0.665892 0.630272 0.351508
O O8 0.498690 0.734410 0.163892
O O9 0.500000 0.220032 0.500000
O O10 0.253862 0.265736 0.168234
O O11 0.015125 0.890980 0.695617
O O12 0.923193 0.000000 0.696503
O O13 0.409149 0.859079 0.071382
O O14 0.250000 0.750000 0.000000
O O15 0.763797 0.075106 0.191521
O O16 0.541410 0.000000 0.925558
O O17 0.500000 0.098182 0.000000
O O18 0.500000 0.383059 0.500000
O O19 0.500926 0.500000 0.588586
#
# Coordination Sequence:
#
# PCOD9189943 Si02
#       7
#     8   8   8   8   8   8   8
#     4  10  19  38  70  99 130 177 226 281 350 421
#     4  12  25  44  66  96 132 175 226 282 348 423
#     4  12  25  43  66  97 135 178 227 283 348 421
#     4  10  20  38  68  98 127 173 232 281 340 419
#     4  12  25  45  69  97 134 179 228 284 350 422
#     4  10  22  40  64  94 130 173 222 278 347 409
#     4   9  19  36  60  91 127 167 218 271 319 391
#
# _framework density 21.274401999999998
#
# number of rings (size 3 to 8) (size 9 to 14) (size 15 to 20)
#    0.000    1.286    2.857    3.000    0.000    3.143 
#    0.000    2.143    0.000    1.714    0.000    0.000 
#    0.000    0.000    0.000    0.000    0.000    0.000 
#
# Total GULP energy -156405.591281 kJ/mol
# GULP energy per Si atom -5585.913974 kJ/mol
# Density = 2.122598 g / cm^3
# Si number density = 21.274402 Si / 1000 Ang^3
#
#
#
# Elastic Constant Matrix: (Units=GPa)
#
#
# Indices 1 2 3 4 5 6 
#
# 1 159.6857 28.2082 38.3646 0.0000 -16.1533 0.0000
# 2 28.2082 131.9005 25.1368 0.0000 -0.5460 0.0000
# 3 38.3646 25.1368 82.3346 0.0000 -11.1398 0.0000
# 4 0.0000 0.0000 0.0000 16.3469 0.0000 -4.5489
# 5 -16.1533 -0.5460 -11.1398 0.0000 40.3081 0.0000
# 6 0.0000 0.0000 0.0000 -4.5489 0.0000 23.9234
#
#
#
# Elastic Compliance Matrix: (Units=1/GPa)
#
#
# Indices 1 2 3 4 5 6 
#
# 1 0.007337 -0.001024 -0.002816 0.000000 0.002148 0.000000
# 2 -0.001024 0.008206 -0.002149 0.000000 -0.000893 0.000000
# 3 -0.002816 -0.002149 0.014499 0.000000 0.002850 0.000000
# 4 0.000000 0.000000 0.000000 0.064591 0.000000 0.012282
# 5 0.002148 -0.000893 0.002850 0.000000 0.026445 0.000000
# 6 0.000000 0.000000 0.000000 0.012282 0.000000 0.044135
#
#
# Mechanical properties :
#
#
# Convention : Reuss Voigt Hill
#
# Bulk Modulus (GPa) = 55.35384 61.92668 58.64026
# Shear Modulus (GPa) = 27.29066 34.92977 31.11021
#
# Velocity S-wave (km/s) = 3.58550 4.05639 3.82819
# Velocity P-wave (km/s) = 6.57393 7.14918 6.86758
#
# Compressibility (1/GPa) = 0.01806560
#
# Stress axis : x y z
#
# Youngs Moduli (GPa) = 136.29815 121.85798 68.96930
#
# Poissons Ratio (x) = 0.12473 0.19418
# Poissons Ratio (y) = 0.13951 0.14823
# Poissons Ratio (z) = 0.38375 0.26190
#
# Static dielectric constant tensor:
#      x y z
#    x 1.782700 0.000000 -0.060080 
#    y 0.000000 1.895880 0.000000 
#    z -0.060080 0.000000 1.715290 
# 
# From -- ./inp_files/227636.got.cif
#   From: 2010.05.17/outbox.cif.g08.bks.cpg/sg12_114_cif.got.tgz:227636.got - 2010.06.03 13:09:07.
