data_PCOD9189288
_publ_section_title
;
Structure prediction by ZEFSAII (Michael W. Deem and Ramdas Pophale) SiO2 
 PCOD9189288
Probable space group: C 2/M
;
_chemical_formula_sum "Si O2"
_cell_formula_units_Z 64
_cell_length_a 30.936901
_cell_length_b 8.100160
_cell_length_c 25.421872
_cell_angle_alpha 90.000000
_cell_angle_beta 152.020737
_cell_angle_gamma 90.000000
_cell_volume 2988.762978
_symmetry_space_group_name_H-M "C 2/M"
_symmetry_group_IT_number 12
_symmetry_cell_setting 'monoclinic'
loop_
_space_group_symop_operation_xyz
x,y,z
-x,y,-z
-x,-y,-z
x,-y,z
1/2+x,1/2+y,z
1/2-x,1/2+y,-z
1/2-x,1/2-y,-z
1/2+x,1/2-y,z
loop_
_atom_site_type_symbol
_atom_site_label
_atom_site_fract_x
_atom_site_fract_y
_atom_site_fract_z
Si Si1 0.457612 0.701563 0.190230
Si Si2 0.655992 0.301351 0.426263
Si Si3 0.297859 0.300915 0.407729
Si Si4 0.404562 0.685832 0.834325
Si Si5 0.808964 0.803832 0.945442
Si Si6 0.464643 0.298361 0.518945
Si Si7 0.392384 0.699829 0.236290
Si Si8 0.901418 0.685521 0.944501
O O1 0.456441 0.500000 0.187730
O O2 0.563251 0.756887 0.297809
O O3 0.424544 0.751548 0.212873
O O4 0.386330 0.757586 0.069542
O O5 0.652592 0.500000 0.423121
O O6 0.750000 0.250000 0.500000
O O7 0.657964 0.247379 0.489336
O O8 0.297615 0.500000 0.406557
O O9 0.192726 0.243458 0.292532
O O10 0.363154 0.245285 0.429702
O O11 0.423456 0.500000 0.837185
O O12 0.394065 0.696864 0.886377
O O13 0.496440 0.789726 0.921650
O O14 0.708565 0.765286 0.859452
O O15 0.827188 0.720888 0.909028
O O16 0.820091 0.000000 0.950890
O O17 0.500000 0.241102 0.500000
O O18 0.463283 0.500000 0.515813
O O19 0.536257 0.249697 0.641569
O O20 0.390024 0.500000 0.233990
O O21 0.891992 0.500000 0.913834
#
# Coordination Sequence:
#
# PCOD9189288 Si02
#       8
#     8   8   8   8   8   8   8   8
#     4   9  19  38  60  81 115 158 200 247 300 352
#     4  10  21  38  59  86 117 157 205 254 300 354
#     4  10  20  37  61  89 122 157 201 249 296 356
#     4  11  23  40  62  88 123 157 190 237 302 361
#     4  11  23  37  57  87 121 155 193 246 308 357
#     4   9  18  33  58  89 116 150 200 248 291 347
#     4  10  19  37  61  85 113 154 204 249 294 354
#     4  11  23  42  63  87 116 153 201 246 288 349
#
# _framework density 21.413542
#
# number of rings (size 3 to 8) (size 9 to 14) (size 15 to 20)
#    0.000    1.875    1.250    3.750    3.500    0.500 
#    0.000    2.500    0.000    0.750    0.000    0.000 
#    0.000    0.000    0.000    0.000    0.000    0.000 
#
# Total GULP energy -178827.338101 kJ/mol
# GULP energy per Si atom -5588.354316 kJ/mol
# Density = 2.136480 g / cm^3
# Si number density = 21.413542 Si / 1000 Ang^3
#
#
#
# Elastic Constant Matrix: (Units=GPa)
#
#
# Indices 1 2 3 4 5 6 
#
# 1 69.4470 -4.2208 -17.2294 0.0000 15.8659 0.0000
# 2 -4.2208 23.8083 -4.1383 0.0000 -1.0350 0.0000
# 3 -17.2294 -4.1383 60.4994 0.0000 16.7911 0.0000
# 4 0.0000 0.0000 0.0000 18.7129 0.0000 4.4367
# 5 15.8659 -1.0350 16.7911 0.0000 33.5970 0.0000
# 6 0.0000 0.0000 0.0000 4.4367 0.0000 16.8040
#
#
#
# Elastic Compliance Matrix: (Units=1/GPa)
#
#
# Indices 1 2 3 4 5 6 
#
# 1 0.020606 0.004800 0.010282 0.000000 -0.014722 0.000000
# 2 0.004800 0.043627 0.005349 0.000000 -0.003596 0.000000
# 3 0.010282 0.005349 0.024527 0.000000 -0.016949 0.000000
# 4 0.000000 0.000000 0.000000 0.057008 0.000000 -0.015051
# 5 -0.014722 -0.003596 -0.016949 0.000000 0.045077 0.000000
# 6 0.000000 0.000000 0.000000 -0.015051 0.000000 0.063484
#
#
# Mechanical properties :
#
#
# Convention : Reuss Voigt Hill
#
# Bulk Modulus (GPa) = 7.71462 11.39753 9.55608
# Shear Modulus (GPa) = 19.48014 25.77899 22.62956
#
# Velocity S-wave (km/s) = 3.01941 3.47344 3.25435
# Velocity P-wave (km/s) = 3.97068 4.62823 4.31201
#
# Compressibility (1/GPa) = 0.12962393
#
# Stress axis : x y z
#
# Youngs Moduli (GPa) = 48.53040 22.92175 40.77067
#
# Poissons Ratio (x) = -0.11003 -0.41922
# Poissons Ratio (y) = -0.23296 -0.21810
# Poissons Ratio (z) = -0.49901 -0.12262
#
# Static dielectric constant tensor:
#      x y z
#    x 1.753770 0.000000 -0.007840 
#    y 0.000000 1.764710 0.000000 
#    z -0.007840 0.000000 1.766690 
# 
# From -- ./inp_files/353480.got.cif
#   From: 2010.05.17/outbox.cif.g08.bks.cpg/sg12_177_cif.got.tgz:353480.got - 2010.06.03 13:09:07.
