data_PCOD9189526
_publ_section_title
;
Structure prediction by ZEFSAII (Michael W. Deem and Ramdas Pophale) SiO2 
 PCOD9189526
Probable space group: C 2/M
;
_chemical_formula_sum "Si O2"
_cell_formula_units_Z 44
_cell_length_a 27.525081
_cell_length_b 10.213063
_cell_length_c 11.793951
_cell_angle_alpha 90.000000
_cell_angle_beta 45.546642
_cell_angle_gamma 90.000000
_cell_volume 2366.645064
_symmetry_space_group_name_H-M "C 2/M"
_symmetry_group_IT_number 12
_symmetry_cell_setting 'monoclinic'
loop_
_space_group_symop_operation_xyz
x,y,z
-x,y,-z
-x,-y,-z
x,-y,z
1/2+x,1/2+y,z
1/2-x,1/2+y,-z
1/2-x,1/2-y,-z
1/2+x,1/2-y,z
loop_
_atom_site_type_symbol
_atom_site_label
_atom_site_fract_x
_atom_site_fract_y
_atom_site_fract_z
Si Si1 0.683198 0.000000 0.164438
Si Si2 0.513739 0.216122 0.105514
Si Si3 0.365691 0.155672 0.356841
Si Si4 0.399668 0.000000 0.914815
Si Si5 0.278637 0.211624 0.718476
Si Si6 0.754176 0.000000 0.819438
Si Si7 0.642997 0.352446 0.833527
O O1 0.689013 0.125895 0.234580
O O2 0.617326 0.000000 0.190707
O O3 0.744059 0.000000 0.972199
O O4 0.437690 0.220308 0.277447
O O5 0.557994 0.122104 0.110890
O O6 0.500000 0.162601 0.000000
O O7 0.564591 0.337112 0.001625
O O8 0.311995 0.171128 0.545105
O O9 0.345480 0.240807 0.280245
O O10 0.374408 0.000000 0.319264
O O11 0.324710 0.000000 0.093544
O O12 0.286854 0.365518 0.726050
O O13 0.198530 0.175835 0.839748
O O14 0.653889 0.500000 0.772558
#
# Coordination Sequence:
#
# PCOD9189526 Si02
#       7
#     4   8   8   4   8   4   8
#     4  10  22  40  64  89 116 155 211 247 300 354
#     4  10  21  37  63  88 123 156 202 245 293 358
#     4  11  24  37  61  88 128 156 200 248 304 356
#     4  10  19  37  65  92 105 157 210 248 291 349
#     4  12  22  41  59  93 121 158 197 261 299 353
#     4  10  24  35  67  84 116 153 210 242 304 349
#     4  11  23  38  61  89 125 162 200 242 304 362
#
# _framework density 18.591719000000001
#
# number of rings (size 3 to 8) (size 9 to 14) (size 15 to 20)
#    0.545    0.727    4.545    1.364    6.364    3.273 
#    0.000    1.818    0.000    0.000    0.000    2.545 
#    0.000    0.000    0.000    0.000    0.000    0.000 
#
# Total GULP energy -122609.647259 kJ/mol
# GULP energy per Si atom -5573.165784 kJ/mol
# Density = 1.854940 g / cm^3
# Si number density = 18.591719 Si / 1000 Ang^3
#
#
#
# Elastic Constant Matrix: (Units=GPa)
#
#
# Indices 1 2 3 4 5 6 
#
# 1 122.6791 39.2930 9.0629 0.0000 4.4677 0.0000
# 2 39.2930 122.2417 20.9049 0.0000 9.8482 0.0000
# 3 9.0629 20.9049 28.6722 0.0000 -7.9009 0.0000
# 4 0.0000 0.0000 0.0000 15.6358 0.0000 -17.0999
# 5 4.4677 9.8482 -7.9009 0.0000 20.6918 0.0000
# 6 0.0000 0.0000 0.0000 -17.0999 0.0000 -41.4162
#
#
#
# Elastic Compliance Matrix: (Units=1/GPa)
#
#
# Indices 1 2 3 4 5 6 
#
# 1 0.009130 -0.002609 -0.001324 0.000000 -0.001235 0.000000
# 2 -0.002609 0.011402 -0.009867 0.000000 -0.008631 0.000000
# 3 -0.001324 -0.009867 0.049020 0.000000 0.023700 0.000000
# 4 0.000000 0.000000 0.000000 0.044061 0.000000 -0.018192
# 5 -0.001235 -0.008631 0.023700 0.000000 0.061752 0.000000
# 6 0.000000 0.000000 0.000000 -0.018192 0.000000 -0.016634
#
#
# Mechanical properties :
#
#
# Convention : Reuss Voigt Hill
#
# Bulk Modulus (GPa) = 23.83661 45.79051 34.81356
# Shear Modulus (GPa) = 24.96087 12.60442 18.78265
#
# Velocity S-wave (km/s) = 3.66810 2.60659 3.18192
# Velocity P-wave (km/s) = 5.54877 5.80879 5.68027
#
# Compressibility (1/GPa) = 0.04195228
#
# Stress axis : x y z
#
# Youngs Moduli (GPa) = 109.53282 87.70618 20.39981
#
# Poissons Ratio (x) = 0.22879 0.02701
# Poissons Ratio (y) = 0.28573 0.20128
# Poissons Ratio (z) = 0.14504 0.86538
#
# Static dielectric constant tensor:
#      x y z
#    x 1.640980 0.000000 -0.028240 
#    y 0.000000 1.644940 0.000000 
#    z -0.028240 0.000000 1.669870 
# 
# From -- ./inp_files/180492.got.cif
#   From: 2010.05.17/outbox.cif.g08.bks.cpg/sg12_91_cif.got.tgz:180492.got - 2010.06.03 13:09:07.
