data_PCOD9189225
_publ_section_title
;
Structure prediction by ZEFSAII (Michael W. Deem and Ramdas Pophale) SiO2 
 PCOD9189225
Probable space group: C 2/M
;
_chemical_formula_sum "Si O2"
_cell_formula_units_Z 30
_cell_length_a 6.845130
_cell_length_b 25.613144
_cell_length_c 7.155172
_cell_angle_alpha 90.000000
_cell_angle_beta 119.523696
_cell_angle_gamma 90.000000
_cell_volume 1091.590573
_symmetry_space_group_name_H-M "C 2/M"
_symmetry_group_IT_number 12
_symmetry_cell_setting 'monoclinic'
loop_
_space_group_symop_operation_xyz
x,y,z
-x,y,-z
-x,-y,-z
x,-y,z
1/2+x,1/2+y,z
1/2-x,1/2+y,-z
1/2-x,1/2-y,-z
1/2+x,1/2-y,z
loop_
_atom_site_type_symbol
_atom_site_label
_atom_site_fract_x
_atom_site_fract_y
_atom_site_fract_z
Si Si1 0.000000 0.000000 0.000000
Si Si2 0.989089 0.194340 0.270261
Si Si3 0.500000 0.788782 0.000000
Si Si4 0.312300 0.062737 0.764439
Si Si5 0.684291 0.590768 0.315892
O O1 0.178706 0.953855 0.156356
O O2 0.731425 0.180801 0.099858
O O3 0.161130 0.152124 0.265880
O O4 0.000000 0.195149 0.500000
O O5 0.024874 0.250154 0.190092
O O6 0.065615 0.078863 0.716059
O O7 0.345191 0.083480 0.570648
O O8 0.301217 0.000000 0.752149
O O9 0.500000 0.077621 0.000000
#
# Coordination Sequence:
#
# PCOD9189225 Si02
#       5
#     2   8   4   8   8
#     4  12  22  38  58  92 140 156 202 272 312 392
#     4  11  22  42  68  94 130 172 218 270 332 389
#     4  10  25  42  64 100 130 166 221 280 328 390
#     4  10  19  37  60  83 117 166 212 246 298 380
#     4  11  21  37  61  90 123 167 202 255 321 380
#
# _framework density 27.482832999999999
#
# number of rings (size 3 to 8) (size 9 to 14) (size 15 to 20)
#    0.000    1.333    5.333    2.400    1.867    0.000 
#    0.000    2.667    0.000    6.400    0.000    0.000 
#    0.000    0.000    0.000    0.000    0.000    0.000 
#
# Total GULP energy -83819.467122 kJ/mol
# GULP energy per Si atom -5587.964475 kJ/mol
# Density = 2.742028 g / cm^3
# Si number density = 27.482833 Si / 1000 Ang^3
#
#
#
# Elastic Constant Matrix: (Units=GPa)
#
#
# Indices 1 2 3 4 5 6 
#
# 1 48.5633 0.0574 16.4681 0.0000 -21.7779 0.0000
# 2 0.0574 137.7802 56.8510 0.0000 -1.0320 0.0000
# 3 16.4681 56.8510 212.3502 0.0000 -3.2636 0.0000
# 4 0.0000 0.0000 0.0000 44.0680 0.0000 13.9913
# 5 -21.7779 -1.0320 -3.2636 0.0000 46.5518 0.0000
# 6 0.0000 0.0000 0.0000 13.9913 0.0000 30.6059
#
#
#
# Elastic Compliance Matrix: (Units=1/GPa)
#
#
# Indices 1 2 3 4 5 6 
#
# 1 0.026909 0.000971 -0.002155 0.000000 0.012459 0.000000
# 2 0.000971 0.008194 -0.002262 0.000000 0.000478 0.000000
# 3 -0.002155 -0.002262 0.005472 0.000000 -0.000675 0.000000
# 4 0.000000 0.000000 0.000000 0.026545 0.000000 -0.012135
# 5 0.012459 0.000478 -0.000675 0.000000 0.027273 0.000000
# 6 0.000000 0.000000 0.000000 -0.012135 0.000000 0.038221
#
#
# Mechanical properties :
#
#
# Convention : Reuss Voigt Hill
#
# Bulk Modulus (GPa) = 29.68864 60.60518 45.14691
# Shear Modulus (GPa) = 33.17132 45.93294 39.55213
#
# Velocity S-wave (km/s) = 3.47794 4.09263 3.79774
# Velocity P-wave (km/s) = 5.19173 6.66579 5.97440
#
# Compressibility (1/GPa) = 0.03368292
#
# Stress axis : x y z
#
# Youngs Moduli (GPa) = 37.16295 122.03476 182.76429
#
# Poissons Ratio (x) = -0.11855 0.39393
# Poissons Ratio (y) = -0.03610 0.41338
# Poissons Ratio (z) = 0.08010 0.27602
#
# Static dielectric constant tensor:
#      x y z
#    x 2.270550 0.000000 -0.050010 
#    y 0.000000 2.149890 0.000000 
#    z -0.050010 0.000000 2.147970 
# 
# From -- ./inp_files/40102.got.cif
#   From: 2010.05.17/outbox.cif.g08.bks.cpg/sg12_21_cif.got.tgz:40102.got - 2010.06.03 13:09:07.
