data_PCOD9189072
_publ_section_title
;
Structure prediction by ZEFSAII (Michael W. Deem and Ramdas Pophale) SiO2 
 PCOD9189072
Probable space group: C 2/M
;
_chemical_formula_sum "Si O2"
_cell_formula_units_Z 32
_cell_length_a 8.726652
_cell_length_b 14.502404
_cell_length_c 13.886478
_cell_angle_alpha 90.000000
_cell_angle_beta 86.658453
_cell_angle_gamma 90.000000
_cell_volume 1754.449035
_symmetry_space_group_name_H-M "C 2/M"
_symmetry_group_IT_number 12
_symmetry_cell_setting 'monoclinic'
loop_
_space_group_symop_operation_xyz
x,y,z
-x,y,-z
-x,-y,-z
x,-y,z
1/2+x,1/2+y,z
1/2-x,1/2+y,-z
1/2-x,1/2-y,-z
1/2+x,1/2-y,z
loop_
_atom_site_type_symbol
_atom_site_label
_atom_site_fract_x
_atom_site_fract_y
_atom_site_fract_z
Si Si1 0.083720 0.000000 0.895841
Si Si2 0.109765 0.500000 0.202709
Si Si3 0.377105 0.851007 0.271722
Si Si4 0.351387 0.000000 0.439024
Si Si5 0.355565 0.500000 0.373042
Si Si6 0.979214 0.850430 0.746465
O O1 0.036093 0.909254 0.836445
O O2 0.268155 0.000000 0.887506
O O3 0.000000 0.000000 0.000000
O O4 0.214698 0.500000 0.298108
O O5 0.997934 0.412578 0.207891
O O6 0.203897 0.845755 0.240009
O O7 0.446820 0.749245 0.271227
O O8 0.359578 0.909457 0.371399
O O9 0.500000 0.000000 0.500000
O O10 0.210684 0.000000 0.518086
O O11 0.460370 0.412411 0.344395
#
# Coordination Sequence:
#
# PCOD9189072 Si02
#       6
#     4   4   8   4   4   8
#     4  10  21  41  67  91 113 142 188 243 290 359
#     4   9  18  37  59  81 121 152 184 234 304 332
#     4  11  21  38  59  84 119 164 189 238 284 350
#     4  11  22  36  58  84 120 153 212 239 279 327
#     4  10  19  37  54  83 117 156 194 249 279 336
#     4  10  22  38  60  84 119 157 193 230 307 339
#
# _framework density 18.239345
#
# number of rings (size 3 to 8) (size 9 to 14) (size 15 to 20)
#    0.000    2.000    2.500    6.000    0.000    3.000 
#    0.000    7.500    0.000    0.000    0.000    0.000 
#    0.000    0.000    0.000    0.000    0.000    0.000 
#
# Total GULP energy -89213.645213 kJ/mol
# GULP energy per Si atom -5575.852826 kJ/mol
# Density = 1.819783 g / cm^3
# Si number density = 18.239345 Si / 1000 Ang^3
#
#
#
# Elastic Constant Matrix: (Units=GPa)
#
#
# Indices 1 2 3 4 5 6 
#
# 1 158.1039 71.2491 34.7680 0.0000 -37.6675 0.0000
# 2 71.2491 192.9530 50.6844 0.0000 -23.0901 0.0000
# 3 34.7680 50.6844 110.9831 0.0000 -45.8410 0.0000
# 4 0.0000 0.0000 0.0000 -2.4486 0.0000 6.8793
# 5 -37.6675 -23.0901 -45.8410 0.0000 36.3195 0.0000
# 6 0.0000 0.0000 0.0000 6.8793 0.0000 3.7504
#
#
#
# Elastic Compliance Matrix: (Units=1/GPa)
#
#
# Indices 1 2 3 4 5 6 
#
# 1 0.010028 -0.003104 0.003670 0.000000 0.013059 0.000000
# 2 -0.003104 0.006859 -0.003528 0.000000 -0.003311 0.000000
# 3 0.003670 -0.003528 0.021137 0.000000 0.028241 0.000000
# 4 0.000000 0.000000 0.000000 -0.066369 0.000000 0.121740
# 5 0.013059 -0.003311 0.028241 0.000000 0.074617 0.000000
# 6 0.000000 0.000000 0.000000 0.121740 0.000000 0.043332
#
#
# Mechanical properties :
#
#
# Convention : Reuss Voigt Hill
#
# Bulk Modulus (GPa) = 31.15264 86.16034 58.65649
# Shear Modulus (GPa) = 47.06857 27.88015 37.47436
#
# Velocity S-wave (km/s) = 5.08548 3.91394 4.53767
# Velocity P-wave (km/s) = 7.18330 8.23204 7.72549
#
# Compressibility (1/GPa) = 0.03210001
#
# Stress axis : x y z
#
# Youngs Moduli (GPa) = 99.72065 145.78777 47.31122
#
# Poissons Ratio (x) = 0.45256 -0.17363
# Poissons Ratio (y) = 0.30956 0.16690
# Poissons Ratio (z) = -0.36598 0.51431
#
# Static dielectric constant tensor:
#      x y z
#    x 1.655030 0.000000 0.005850 
#    y 0.000000 1.669580 0.000000 
#    z 0.005850 0.000000 1.629470 
# 
# From -- ./inp_files/193722.got.cif
#   From: 2010.05.17/outbox.cif.g08.bks.cpg/sg12_97_cif.got.tgz:193722.got - 2010.06.03 13:09:07.
