data_PCOD9189696
_publ_section_title
;
Structure prediction by ZEFSAII (Michael W. Deem and Ramdas Pophale) SiO2 
 PCOD9189696
Probable space group: C 2/M
;
_chemical_formula_sum "Si O2"
_cell_formula_units_Z 60
_cell_length_a 9.557154
_cell_length_b 22.235722
_cell_length_c 26.984356
_cell_angle_alpha 90.000000
_cell_angle_beta 148.679617
_cell_angle_gamma 90.000000
_cell_volume 2980.900043
_symmetry_space_group_name_H-M "C 2/M"
_symmetry_group_IT_number 12
_symmetry_cell_setting 'monoclinic'
loop_
_space_group_symop_operation_xyz
x,y,z
-x,y,-z
-x,-y,-z
x,-y,z
1/2+x,1/2+y,z
1/2-x,1/2+y,-z
1/2-x,1/2-y,-z
1/2+x,1/2-y,z
loop_
_atom_site_type_symbol
_atom_site_label
_atom_site_fract_x
_atom_site_fract_y
_atom_site_fract_z
Si Si1 0.710848 0.565171 0.845312
Si Si2 0.473075 0.725922 0.864793
Si Si3 0.500000 0.161410 0.000000
Si Si4 0.287546 0.069684 0.750136
Si Si5 0.683643 0.658242 0.386026
Si Si6 0.786606 0.280917 0.563982
Si Si7 0.722256 0.168185 0.886026
Si Si8 0.251919 0.358219 0.710016
O O1 0.788724 0.500000 0.888096
O O2 0.770634 0.566551 0.805032
O O3 0.394946 0.578158 0.760299
O O4 0.863740 0.618314 0.918731
O O5 0.520992 0.793626 0.860507
O O6 0.306292 0.709033 0.863647
O O7 0.357509 0.686269 0.784390
O O8 0.779197 0.701170 0.961153
O O9 0.552962 0.109342 0.818269
O O10 0.017209 0.107254 0.653729
O O11 0.292655 0.000000 0.734060
O O12 0.579248 0.724783 0.367358
O O13 0.668459 0.657581 0.322117
O O14 0.000000 0.652162 0.500000
O O15 0.500000 0.290366 0.500000
O O16 0.750000 0.250000 0.500000
O O17 0.938986 0.343515 0.613308
O O18 0.000000 0.154471 0.000000
#
# Coordination Sequence:
#
# PCOD9189696 Si02
#       8
#     8   8   4   8   8   8   8   8
#     4   9  19  36  61  86 117 162 208 256 297 361
#     4  11  25  37  62  94 127 165 200 257 319 369
#     4  10  19  38  60  90 123 158 210 246 314 370
#     4  10  23  41  63  90 124 165 215 261 309 368
#     4  10  20  38  63  92 123 160 206 260 310 375
#     4  11  20  34  57  85 120 153 194 246 312 372
#     4  12  25  41  63  92 132 168 207 260 313 382
#     4  10  21  36  56  90 122 153 201 250 305 371
#
# _framework density 20.128149000000001
#
# number of rings (size 3 to 8) (size 9 to 14) (size 15 to 20)
#    0.000    1.600    3.333    2.200    7.467    1.600 
#    0.000    3.333    0.000    0.400    0.000    0.000 
#    0.000    0.000    0.000    0.000    0.000    0.000 
#
# Total GULP energy -167167.519573 kJ/mol
# GULP energy per Si atom -5572.250652 kJ/mol
# Density = 2.008234 g / cm^3
# Si number density = 20.128149 Si / 1000 Ang^3
#
#
#
# Elastic Constant Matrix: (Units=GPa)
#
#
# Indices 1 2 3 4 5 6 
#
# 1 74.0595 19.4790 27.6333 0.0002 13.0420 -0.0001
# 2 19.4790 77.8858 7.7573 -0.0002 17.3955 -0.0010
# 3 27.6333 7.7573 62.3277 0.0019 10.2010 -0.0019
# 4 0.0002 -0.0002 0.0019 27.4280 -0.0003 0.8440
# 5 13.0420 17.3955 10.2010 -0.0003 30.5981 -0.0010
# 6 -0.0001 -0.0010 -0.0019 0.8440 -0.0010 15.1017
#
#
#
# Elastic Compliance Matrix: (Units=1/GPa)
#
#
# Indices 1 2 3 4 5 6 
#
# 1 0.017415 -0.002894 -0.006785 0.000000 -0.003515 -0.000001
# 2 -0.002894 0.015202 0.000639 0.000000 -0.007622 0.000001
# 3 -0.006785 0.000639 0.019630 -0.000001 -0.004015 0.000002
# 4 0.000000 0.000000 -0.000001 0.036522 0.000001 -0.002041
# 5 -0.003515 -0.007622 -0.004015 0.000001 0.039852 0.000002
# 6 -0.000001 0.000001 0.000002 -0.002041 0.000002 0.066332
#
#
# Mechanical properties :
#
#
# Convention : Reuss Voigt Hill
#
# Bulk Modulus (GPa) = 29.27006 36.00134 32.63570
# Shear Modulus (GPa) = 22.27937 25.25245 23.76591
#
# Velocity S-wave (km/s) = 3.33058 3.54585 3.43990
# Velocity P-wave (km/s) = 5.41884 5.88974 5.65919
#
# Compressibility (1/GPa) = 0.03416460
#
# Stress axis : x y z
#
# Youngs Moduli (GPa) = 57.42259 65.78127 50.94172
#
# Poissons Ratio (x) = 0.19040 0.34566
# Poissons Ratio (y) = 0.16621 -0.03254
# Poissons Ratio (z) = 0.38963 -0.04202
#
# Static dielectric constant tensor:
#      x y z
#    x 1.645360 0.000000 0.007100 
#    y 0.000000 1.703750 0.000000 
#    z 0.007100 0.000000 1.827210 
# 
# From -- ./inp_files/357083.got.cif
#   From: 2010.05.17/outbox.cif.g08.bks.cpg/sg12_179_cif.got.tgz:357083.got - 2010.06.03 13:09:07.
