data_PCOD9189315
_publ_section_title
;
Structure prediction by ZEFSAII (Michael W. Deem and Ramdas Pophale) SiO2 
 PCOD9189315
Probable space group: C 2/M
;
_chemical_formula_sum "Si O2"
_cell_formula_units_Z 58
_cell_length_a 24.858385
_cell_length_b 7.669039
_cell_length_c 19.957496
_cell_angle_alpha 90.000000
_cell_angle_beta 40.801408
_cell_angle_gamma 90.000000
_cell_volume 2486.137222
_symmetry_space_group_name_H-M "C 2/M"
_symmetry_group_IT_number 12
_symmetry_cell_setting 'monoclinic'
loop_
_space_group_symop_operation_xyz
x,y,z
-x,y,-z
-x,-y,-z
x,-y,z
1/2+x,1/2+y,z
1/2-x,1/2+y,-z
1/2-x,1/2-y,-z
1/2+x,1/2-y,z
loop_
_atom_site_type_symbol
_atom_site_label
_atom_site_fract_x
_atom_site_fract_y
_atom_site_fract_z
Si Si1 0.588848 0.209814 0.388267
Si Si2 0.398043 0.205399 0.245343
Si Si3 0.273888 0.788458 0.637361
Si Si4 0.841260 0.705645 0.937062
Si Si5 0.568948 0.210170 0.016032
Si Si6 0.539675 0.305013 0.291916
Si Si7 0.000000 0.000000 0.000000
Si Si8 0.365779 0.802522 0.421492
O O1 0.500000 0.271421 0.500000
O O2 0.664610 0.272192 0.362279
O O3 0.592977 0.259636 0.306698
O O4 0.588175 0.000000 0.393083
O O5 0.320275 0.231722 0.271036
O O6 0.484302 0.267541 0.134484
O O7 0.375004 0.282790 0.339845
O O8 0.412119 0.000000 0.242614
O O9 0.309350 0.723202 0.532345
O O10 0.276537 0.000000 0.634317
O O11 0.855455 0.500000 0.916413
O O12 0.859828 0.745361 0.997034
O O13 0.906298 0.791622 0.825619
O O14 0.750000 0.750000 0.000000
O O15 0.566889 0.343868 0.957334
O O16 0.566646 0.000000 0.002859
O O17 0.508012 0.500000 0.329460
O O18 0.458203 0.189906 0.363595
O O19 0.334897 0.000000 0.440312
#
# Coordination Sequence:
#
# PCOD9189315 Si02
#       8
#     8   8   8   8   8   8   2   8
#     4  10  20  39  61  82 121 174 218 259 319 388
#     4  10  21  38  62  89 128 168 209 264 323 384
#     4  10  21  35  58  89 124 169 221 264 310 383
#     4  11  24  46  74 100 133 167 220 288 343 408
#     4  10  24  46  71 103 136 178 222 279 348 415
#     4  12  24  37  62  96 128 166 214 267 327 391
#     4  12  26  44  80  98 136 180 222 282 336 438
#     4  10  19  37  61  87 123 169 214 257 316 374
#
# _framework density 23.329364000000002
#
# number of rings (size 3 to 8) (size 9 to 14) (size 15 to 20)
#    0.000    1.517    2.759    2.276    2.897    1.931 
#    2.483    0.000    0.000    0.000    0.000    0.000 
#    0.000    0.000    0.000    0.000    0.000    0.000 
#
# Total GULP energy -161862.718037 kJ/mol
# GULP energy per Si atom -5581.473036 kJ/mol
# Density = 2.327627 g / cm^3
# Si number density = 23.329364 Si / 1000 Ang^3
#
#
#
# Elastic Constant Matrix: (Units=GPa)
#
#
# Indices 1 2 3 4 5 6 
#
# 1 135.3431 16.5366 12.5564 -0.0091 -7.6193 0.0095
# 2 16.5366 73.6632 1.9445 -0.0008 5.6177 0.0057
# 3 12.5564 1.9445 45.3392 0.0005 -7.6583 0.0190
# 4 -0.0091 -0.0008 0.0005 2.4379 0.0068 -11.6801
# 5 -7.6193 5.6177 -7.6583 0.0068 36.4824 -0.0128
# 6 0.0095 0.0057 0.0190 -11.6801 -0.0128 10.0352
#
#
#
# Elastic Compliance Matrix: (Units=1/GPa)
#
#
# Indices 1 2 3 4 5 6 
#
# 1 0.007870 -0.001836 -0.001841 -0.000004 0.001540 -0.000006
# 2 -0.001836 0.014207 -0.000555 0.000008 -0.002688 0.000000
# 3 -0.001841 -0.000555 0.023368 0.000043 0.004606 0.000014
# 4 -0.000004 0.000008 0.000043 -0.089632 -0.000013 -0.104324
# 5 0.001540 -0.002688 0.004606 -0.000013 0.029113 0.000013
# 6 -0.000006 0.000000 0.000014 -0.104324 0.000013 -0.021775
#
#
# Mechanical properties :
#
#
# Convention : Reuss Voigt Hill
#
# Bulk Modulus (GPa) = 27.03998 35.15785 31.09892
# Shear Modulus (GPa) = -311.36162 24.67828 -143.34167
#
# Velocity S-wave (km/s) = -11.56517 3.25594 -7.84704
# Velocity P-wave (km/s) = 12.91208 5.40720 8.29108
#
# Compressibility (1/GPa) = 0.03698227
#
# Stress axis : x y z
#
# Youngs Moduli (GPa) = 127.05844 70.38790 42.79423
#
# Poissons Ratio (x) = 0.12921 0.07878
# Poissons Ratio (y) = 0.23324 0.02375
# Poissons Ratio (z) = 0.23389 0.03906
#
# Static dielectric constant tensor:
#      x y z
#    x 1.910310 -0.000010 0.060250 
#    y -0.000010 1.895110 0.000010 
#    z 0.060250 0.000010 1.884660 
# 
# From -- ./inp_files/324517.got.cif
#   From: 2010.05.17/outbox.cif.g08.bks.cpg/sg12_163_cif.got.tgz:324517.got - 2010.06.03 13:09:07.
