data_PCOD9189252
_publ_section_title
;
Structure prediction by ZEFSAII (Michael W. Deem and Ramdas Pophale) SiO2 
 PCOD9189252
Probable space group: C 2/M
;
_chemical_formula_sum "Si O2"
_cell_formula_units_Z 64
_cell_length_a 15.215621
_cell_length_b 27.737828
_cell_length_c 12.510176
_cell_angle_alpha 90.000000
_cell_angle_beta 33.376442
_cell_angle_gamma 90.000000
_cell_volume 2904.669668
_symmetry_space_group_name_H-M "C 2/M"
_symmetry_group_IT_number 12
_symmetry_cell_setting 'monoclinic'
loop_
_space_group_symop_operation_xyz
x,y,z
-x,y,-z
-x,-y,-z
x,-y,z
1/2+x,1/2+y,z
1/2-x,1/2+y,-z
1/2-x,1/2-y,-z
1/2+x,1/2-y,z
loop_
_atom_site_type_symbol
_atom_site_label
_atom_site_fract_x
_atom_site_fract_y
_atom_site_fract_z
Si Si1 0.814496 0.171360 0.293866
Si Si2 0.497510 0.653633 0.721959
Si Si3 0.807372 0.290229 0.026676
Si Si4 0.838353 0.229862 0.604154
Si Si5 0.452871 0.052320 0.924410
Si Si6 0.449190 0.854202 0.298917
Si Si7 0.140229 0.945106 0.111612
Si Si8 0.346505 0.892361 0.721819
O O1 0.988518 0.173132 0.168866
O O2 0.735438 0.223501 0.375420
O O3 0.729521 0.145223 0.479799
O O4 0.765855 0.138909 0.242904
O O5 0.315488 0.666090 0.871001
O O6 0.603153 0.686032 0.531297
O O7 0.492255 0.595484 0.730814
O O8 0.781974 0.280526 0.176865
O O9 0.750000 0.250000 0.000000
O O10 0.987948 0.306910 0.823544
O O11 0.000000 0.245985 0.500000
O O12 0.525437 0.098557 0.795124
O O13 0.508929 0.000000 0.824868
O O14 0.500000 0.054060 0.000000
O O15 0.265985 0.054429 0.082574
O O16 0.560772 0.857206 0.290741
O O17 0.082870 0.000000 0.154552
O O18 0.242393 0.927948 0.902370
O O19 0.500000 0.914083 0.500000
#
# Coordination Sequence:
#
# PCOD9189252 Si02
#       8
#     8   8   8   8   8   8   8   8
#     4  11  22  39  60  91 127 168 214 265 322 386
#     4  11  23  41  60  91 131 172 206 267 324 393
#     4  11  21  39  64  87 119 167 211 262 324 388
#     4  10  22  38  61  88 128 168 213 268 325 388
#     4   9  18  35  62  93 119 151 205 261 303 364
#     4  10  19  37  60  88 121 160 205 256 314 370
#     4  10  21  41  67  95 130 175 218 263 330 397
#     4   9  18  36  63  90 126 166 210 270 321 374
#
# _framework density 22.033487000000001
#
# number of rings (size 3 to 8) (size 9 to 14) (size 15 to 20)
#    0.000    1.875    2.500    3.750    0.000    1.750 
#    2.250    5.000    0.000    4.125    0.000    0.000 
#    0.000    0.000    0.000    0.000    0.000    0.000 
#
# Total GULP energy -178394.373906 kJ/mol
# GULP energy per Si atom -5574.824185 kJ/mol
# Density = 2.198334 g / cm^3
# Si number density = 22.033487 Si / 1000 Ang^3
#
#
#
# Elastic Constant Matrix: (Units=GPa)
#
#
# Indices 1 2 3 4 5 6 
#
# 1 98.3965 45.0983 29.2073 -0.0001 20.2419 0.0000
# 2 45.0983 154.2998 41.2009 0.0000 7.5057 0.0000
# 3 29.2073 41.2009 64.0857 0.0003 10.4311 -0.0001
# 4 -0.0001 0.0000 0.0003 24.9656 0.0001 0.3674
# 5 20.2419 7.5057 10.4311 0.0001 11.1530 0.0000
# 6 0.0000 0.0000 -0.0001 0.3674 0.0000 19.5775
#
#
#
# Elastic Compliance Matrix: (Units=1/GPa)
#
#
# Indices 1 2 3 4 5 6 
#
# 1 0.018242 -0.003572 -0.001203 0.000000 -0.029579 0.000000
# 2 -0.003572 0.008527 -0.004689 0.000000 0.005129 0.000000
# 3 -0.001203 -0.004689 0.021584 0.000000 -0.014847 0.000000
# 4 0.000000 0.000000 0.000000 0.040066 0.000000 -0.000752
# 5 -0.029579 0.005129 -0.014847 0.000000 0.153780 0.000000
# 6 0.000000 0.000000 0.000000 -0.000752 0.000000 0.051093
#
#
# Mechanical properties :
#
#
# Convention : Reuss Voigt Hill
#
# Bulk Modulus (GPa) = 33.98473 60.86611 47.42542
# Shear Modulus (GPa) = 15.52654 24.55760 20.04207
#
# Velocity S-wave (km/s) = 2.65746 3.34212 3.01926
# Velocity P-wave (km/s) = 4.98736 6.52513 5.80737
#
# Compressibility (1/GPa) = 0.02942498
#
# Stress axis : x y z
#
# Youngs Moduli (GPa) = 54.81850 117.26838 46.33076
#
# Poissons Ratio (x) = 0.41884 0.05574
# Poissons Ratio (y) = 0.19579 0.21726
# Poissons Ratio (z) = 0.06596 0.54992
#
# Static dielectric constant tensor:
#      x y z
#    x 1.954800 0.000000 -0.088490 
#    y 0.000000 1.837890 0.000000 
#    z -0.088490 0.000000 1.944970 
# 
# From -- ./inp_files/149756.got.cif
#   From: 2010.05.17/outbox.cif.g08.bks.cpg/sg12_75_cif.got.tgz:149756.got - 2010.06.03 13:09:07.
