data_PCOD9189116
_publ_section_title
;
Structure prediction by ZEFSAII (Michael W. Deem and Ramdas Pophale) SiO2 
 PCOD9189116
Probable space group: C 2/M
;
_chemical_formula_sum "Si O2"
_cell_formula_units_Z 48
_cell_length_a 19.191183
_cell_length_b 14.024937
_cell_length_c 14.489006
_cell_angle_alpha 90.000000
_cell_angle_beta 36.352283
_cell_angle_gamma 90.000000
_cell_volume 2311.594284
_symmetry_space_group_name_H-M "C 2/M"
_symmetry_group_IT_number 12
_symmetry_cell_setting 'monoclinic'
loop_
_space_group_symop_operation_xyz
x,y,z
-x,y,-z
-x,-y,-z
x,-y,z
1/2+x,1/2+y,z
1/2-x,1/2+y,-z
1/2-x,1/2-y,-z
1/2+x,1/2-y,z
loop_
_atom_site_type_symbol
_atom_site_label
_atom_site_fract_x
_atom_site_fract_y
_atom_site_fract_z
Si Si1 0.370485 0.229338 0.662700
Si Si2 0.282769 0.894302 0.922344
Si Si3 0.055817 0.111286 0.290987
Si Si4 0.782367 0.395712 0.602964
Si Si5 0.975510 0.395844 0.232803
Si Si6 0.878265 0.205916 0.342620
O O1 0.500000 0.188814 0.500000
O O2 0.313010 0.181622 0.813109
O O3 0.395748 0.337176 0.668456
O O4 0.294489 0.193829 0.658070
O O5 0.389568 0.892105 0.881038
O O6 0.283947 0.000000 0.879016
O O7 0.160554 0.881310 0.104532
O O8 0.948923 0.169795 0.357339
O O9 0.027724 0.000000 0.335046
O O10 0.786390 0.500000 0.644375
O O11 0.892040 0.395140 0.413626
O O12 0.659549 0.382692 0.679894
O O13 0.952863 0.500000 0.211809
O O14 0.945744 0.293317 0.221262
O O15 0.750000 0.250000 0.500000
#
# Coordination Sequence:
#
# PCOD9189116 Si02
#       6
#     8   8   8   8   8   8
#     4  12  21  36  58  91 121 153 196 246 302 348
#     4  10  20  36  61  90 117 151 199 249 298 351
#     4  11  24  40  61  87 120 160 202 246 294 353
#     4  10  20  33  55  87 120 150 189 246 299 347
#     4   9  17  32  57  86 111 146 198 245 289 345
#     4  10  19  37  57  83 118 158 200 238 292 356
#
# _framework density 20.764890000000001
#
# number of rings (size 3 to 8) (size 9 to 14) (size 15 to 20)
#    0.000    1.667    3.333    2.500    0.000    1.667 
#    0.000    1.667    0.000    3.000    0.000    3.500 
#    0.000    0.000    0.000    0.000    0.000    0.000 
#
# Total GULP energy -133669.473516 kJ/mol
# GULP energy per Si atom -5569.561397 kJ/mol
# Density = 2.071763 g / cm^3
# Si number density = 20.764890 Si / 1000 Ang^3
#
#
#
# Elastic Constant Matrix: (Units=GPa)
#
#
# Indices 1 2 3 4 5 6 
#
# 1 58.1058 37.8955 -2.2653 0.0000 -14.9859 0.0000
# 2 37.8955 138.2683 26.6173 0.0000 -8.4461 0.0000
# 3 -2.2653 26.6173 33.7477 0.0000 -8.5850 0.0000
# 4 0.0000 0.0000 0.0000 22.6540 0.0000 -3.0696
# 5 -14.9859 -8.4461 -8.5850 0.0000 18.0838 0.0000
# 6 0.0000 0.0000 0.0000 -3.0696 0.0000 20.2657
#
#
#
# Elastic Compliance Matrix: (Units=1/GPa)
#
#
# Indices 1 2 3 4 5 6 
#
# 1 0.032935 -0.010700 0.018564 0.000000 0.031108 0.000000
# 2 -0.010700 0.012016 -0.012538 0.000000 -0.009207 0.000000
# 3 0.018564 -0.012538 0.049122 0.000000 0.032848 0.000000
# 4 0.000000 0.000000 0.000000 0.045067 0.000000 0.006826
# 5 0.031108 -0.009207 0.032848 0.000000 0.092371 0.000000
# 6 0.000000 0.000000 0.000000 0.006826 0.000000 0.050378
#
#
# Mechanical properties :
#
#
# Convention : Reuss Voigt Hill
#
# Bulk Modulus (GPa) = 11.80279 39.40188 25.60233
# Shear Modulus (GPa) = 15.65043 23.39231 19.52137
#
# Velocity S-wave (km/s) = 2.74833 3.36003 3.06945
# Velocity P-wave (km/s) = 3.97083 5.83691 4.99184
#
# Compressibility (1/GPa) = 0.08472570
#
# Stress axis : x y z
#
# Youngs Moduli (GPa) = 30.36279 83.22225 20.35728
#
# Poissons Ratio (x) = 0.89047 -0.37790
# Poissons Ratio (y) = 0.32488 0.25523
# Poissons Ratio (z) = -0.56364 1.04341
#
# Static dielectric constant tensor:
#      x y z
#    x 1.768370 0.000000 0.014510 
#    y 0.000000 1.846380 0.000000 
#    z 0.014510 0.000000 1.734270 
# 
# From -- ./inp_files/225076.got.cif
#   From: 2010.05.17/outbox.cif.g08.bks.cpg/sg12_113_cif.got.tgz:225076.got - 2010.06.03 13:09:07.
