data_PCOD9189081
_publ_section_title
;
Structure prediction by ZEFSAII (Michael W. Deem and Ramdas Pophale) SiO2 
 PCOD9189081
Probable space group: C 2/M
;
_chemical_formula_sum "Si O2"
_cell_formula_units_Z 52
_cell_length_a 17.410266
_cell_length_b 14.656210
_cell_length_c 19.981357
_cell_angle_alpha 90.000000
_cell_angle_beta 34.924786
_cell_angle_gamma 90.000000
_cell_volume 2918.959187
_symmetry_space_group_name_H-M "C 2/M"
_symmetry_group_IT_number 12
_symmetry_cell_setting 'monoclinic'
loop_
_space_group_symop_operation_xyz
x,y,z
-x,y,-z
-x,-y,-z
x,-y,z
1/2+x,1/2+y,z
1/2-x,1/2+y,-z
1/2-x,1/2-y,-z
1/2+x,1/2-y,z
loop_
_atom_site_type_symbol
_atom_site_label
_atom_site_fract_x
_atom_site_fract_y
_atom_site_fract_z
Si Si1 0.469890 0.315239 0.685738
Si Si2 0.257195 0.106463 0.496816
Si Si3 0.148106 0.500000 0.060457
Si Si4 0.829894 0.320890 0.298684
Si Si5 0.857870 0.500000 0.198543
Si Si6 0.876023 0.299574 0.876220
Si Si7 0.410076 0.191181 0.507354
Si Si8 0.303352 0.500000 0.814906
O O1 0.618276 0.340086 0.607305
O O2 0.400036 0.245415 0.786735
O O3 0.499354 0.268409 0.593731
O O4 0.387749 0.408725 0.740232
O O5 0.315977 0.140614 0.384404
O O6 0.357540 0.127718 0.485319
O O7 0.228663 0.000000 0.512329
O O8 0.149718 0.408179 0.102919
O O9 0.010880 0.500000 0.115002
O O10 0.262226 0.500000 0.922179
O O11 0.800818 0.406704 0.271448
O O12 0.720546 0.241918 0.369650
O O13 0.983765 0.287750 0.183094
O O14 0.823279 0.500000 0.145069
O O15 0.750000 0.250000 0.000000
O O16 0.500000 0.146381 0.500000
#
# Coordination Sequence:
#
# PCOD9189081 Si02
#       8
#     8   8   4   8   4   8   8   4
#     4  11  21  37  57  84 116 150 188 235 283 344
#     4  11  20  36  59  80 111 147 193 235 281 334
#     4  10  23  34  56  82 113 154 192 234 277 332
#     4  10  19  37  55  81 112 150 183 229 279 349
#     4  10  21  33  54  83 120 145 177 225 294 349
#     4  11  20  36  59  83 111 154 200 233 273 326
#     4  11  22  35  55  82 115 148 187 233 291 339
#     4  12  21  35  54  87 122 143 182 234 291 346
#
# _framework density 17.81457
#
# number of rings (size 3 to 8) (size 9 to 14) (size 15 to 20)
#    0.000    1.231    6.154    2.077    0.000    0.308 
#    0.000    2.308    0.000    0.000    0.000    0.000 
#    0.000    9.846    0.000    0.000    0.000    0.000 
#
# Total GULP energy -145101.657279 kJ/mol
# GULP energy per Si atom -5580.832972 kJ/mol
# Density = 1.777402 g / cm^3
# Si number density = 17.814570 Si / 1000 Ang^3
#
#
#
# Elastic Constant Matrix: (Units=GPa)
#
#
# Indices 1 2 3 4 5 6 
#
# 1 79.8621 15.6661 9.7090 -0.0001 -3.2620 0.0000
# 2 15.6661 81.9584 30.9511 -0.0001 -0.3043 0.0000
# 3 9.7090 30.9511 91.7909 -0.0002 -5.6050 0.0000
# 4 -0.0001 -0.0001 -0.0002 24.9207 0.0001 -2.9766
# 5 -3.2620 -0.3043 -5.6050 0.0001 4.5985 0.0000
# 6 0.0000 0.0000 0.0000 -2.9766 0.0000 20.0110
#
#
#
# Elastic Compliance Matrix: (Units=1/GPa)
#
#
# Indices 1 2 3 4 5 6 
#
# 1 0.013399 -0.002529 0.000006 0.000000 0.009344 0.000000
# 2 -0.002529 0.014575 -0.005076 0.000000 -0.007016 0.000000
# 3 0.000006 -0.005076 0.013597 0.000000 0.016241 0.000000
# 4 0.000000 0.000000 0.000000 0.040853 0.000000 0.006077
# 5 0.009344 -0.007016 0.016241 0.000000 0.243421 0.000000
# 6 0.000000 0.000000 0.000000 0.006077 0.000000 0.050877
#
#
# Mechanical properties :
#
#
# Convention : Reuss Voigt Hill
#
# Bulk Modulus (GPa) = 37.91568 40.69596 39.30582
# Shear Modulus (GPa) = 12.47786 23.05837 17.76812
#
# Velocity S-wave (km/s) = 2.64944 3.60162 3.16158
# Velocity P-wave (km/s) = 5.53977 6.33950 5.95308
#
# Compressibility (1/GPa) = 0.02637431
#
# Stress axis : x y z
#
# Youngs Moduli (GPa) = 74.63481 68.60872 73.54615
#
# Poissons Ratio (x) = 0.17349 -0.00044
# Poissons Ratio (y) = 0.18873 0.37329
# Poissons Ratio (z) = -0.00045 0.34823
#
# Static dielectric constant tensor:
#      x y z
#    x 1.602680 0.000000 -0.012350 
#    y 0.000000 1.600810 0.000000 
#    z -0.012350 0.000000 1.630900 
# 
# From -- ./inp_files/155405.got.cif
#   From: 2010.05.17/outbox.cif.g08.bks.cpg/sg12_78_cif.got.tgz:155405.got - 2010.06.03 13:09:07.
