data_PCOD9189923
_publ_section_title
;
Structure prediction by ZEFSAII (Michael W. Deem and Ramdas Pophale) SiO2 
 PCOD9189923
Probable space group: C 2/M
;
_chemical_formula_sum "Si O2"
_cell_formula_units_Z 32
_cell_length_a 14.975373
_cell_length_b 15.472772
_cell_length_c 21.440042
_cell_angle_alpha 90.000000
_cell_angle_beta 160.251520
_cell_angle_gamma 90.000000
_cell_volume 1678.606860
_symmetry_space_group_name_H-M "C 2/M"
_symmetry_group_IT_number 12
_symmetry_cell_setting 'monoclinic'
loop_
_space_group_symop_operation_xyz
x,y,z
-x,y,-z
-x,-y,-z
x,-y,z
1/2+x,1/2+y,z
1/2-x,1/2+y,-z
1/2-x,1/2-y,-z
1/2+x,1/2-y,z
loop_
_atom_site_type_symbol
_atom_site_label
_atom_site_fract_x
_atom_site_fract_y
_atom_site_fract_z
Si Si1 0.410643 0.000000 0.300632
Si Si2 0.364367 0.500000 0.013486
Si Si3 0.083429 0.900953 0.361159
Si Si4 0.349237 0.395224 0.338309
Si Si5 0.257421 0.157345 0.973613
O O1 0.603668 0.081961 0.438323
O O2 0.161364 0.000000 0.181861
O O3 0.319957 0.000000 0.169091
O O4 0.309711 0.583291 0.020036
O O5 0.004157 0.869620 0.377559
O O6 0.952233 0.847725 0.220222
O O7 0.972268 0.000000 0.281773
O O8 0.500000 0.366398 0.500000
O O9 0.341847 0.500000 0.335208
O O10 0.050926 0.361830 0.141296
O O11 0.250000 0.250000 0.000000
#
# Coordination Sequence:
#
# PCOD9189923 Si02
#       5
#     4   4   8   8   8
#     4   9  21  40  71  88 115 179 207 261 323 361
#     4  11  21  44  63  86 133 161 215 261 312 378
#     4   9  19  39  67  92 116 161 212 257 313 369
#     4  10  19  38  68  92 119 159 210 267 316 363
#     4  12  24  39  62  95 129 167 207 258 317 375
#
# _framework density 19.063427999999998
#
# number of rings (size 3 to 8) (size 9 to 14) (size 15 to 20)
#    0.750    1.000    2.500    2.250    0.000    4.000 
#   13.500    2.500    0.000    0.000    0.000    0.000 
#    0.000    0.000    0.000    0.000    0.000    0.000 
#
# Total GULP energy -89301.108238 kJ/mol
# GULP energy per Si atom -5581.319265 kJ/mol
# Density = 1.902004 g / cm^3
# Si number density = 19.063428 Si / 1000 Ang^3
#
#
#
# Elastic Constant Matrix: (Units=GPa)
#
#
# Indices 1 2 3 4 5 6 
#
# 1 53.8240 39.2801 33.2608 -0.0046 -8.0210 0.0073
# 2 39.2801 73.2723 23.3751 -0.0589 -12.9990 0.0162
# 3 33.2608 23.3751 130.6983 -0.1144 -3.2896 0.0086
# 4 -0.0046 -0.0589 -0.1144 -11.9064 0.0460 -4.4133
# 5 -8.0210 -12.9990 -3.2896 0.0460 32.9624 0.0089
# 6 0.0073 0.0162 0.0086 -4.4133 0.0089 11.3293
#
#
#
# Elastic Compliance Matrix: (Units=1/GPa)
#
#
# Indices 1 2 3 4 5 6 
#
# 1 0.034208 -0.016263 -0.005763 0.000110 0.001335 0.000047
# 2 -0.016263 0.023258 0.000111 -0.000070 0.005226 -0.000054
# 3 -0.005763 0.000111 0.009087 -0.000075 -0.000452 -0.000032
# 4 0.000110 -0.000070 -0.000075 -0.073390 0.000102 -0.028589
# 5 0.001335 0.005226 -0.000452 0.000102 0.032678 0.000006
# 6 0.000047 -0.000054 -0.000032 -0.028589 0.000006 0.077130
#
#
# Mechanical properties :
#
#
# Convention : Reuss Voigt Hill
#
# Bulk Modulus (GPa) = 44.01131 49.95851 46.98491
# Shear Modulus (GPa) = 32.38870 17.26895 24.82883
#
# Velocity S-wave (km/s) = 4.12636 3.01303 3.61284
# Velocity P-wave (km/s) = 6.77048 6.19418 6.48873
#
# Compressibility (1/GPa) = 0.02272143
#
# Stress axis : x y z
#
# Youngs Moduli (GPa) = 29.23313 42.99663 110.05173
#
# Poissons Ratio (x) = 0.69924 0.63424
# Poissons Ratio (y) = 0.47541 -0.01216
# Poissons Ratio (z) = 0.16847 -0.00475
#
# Static dielectric constant tensor:
#      x y z
#    x 1.640870 0.000000 -0.002010 
#    y 0.000000 1.649770 -0.000020 
#    z -0.002010 -0.000020 1.661320 
# 
# From -- ./inp_files/58245.got.cif
#   From: 2010.05.17/outbox.cif.g08.bks.cpg/sg12_30_cif.got.tgz:58245.got - 2010.06.03 13:09:07.
