data_PCOD9189179
_publ_section_title
;
Structure prediction by ZEFSAII (Michael W. Deem and Ramdas Pophale) SiO2 
 PCOD9189179
Probable space group: C 2/M
;
_chemical_formula_sum "Si O2"
_cell_formula_units_Z 40
_cell_length_a 10.363320
_cell_length_b 11.863075
_cell_length_c 13.622138
_cell_angle_alpha 90.000000
_cell_angle_beta 94.387904
_cell_angle_gamma 90.000000
_cell_volume 1669.808402
_symmetry_space_group_name_H-M "C 2/M"
_symmetry_group_IT_number 12
_symmetry_cell_setting 'monoclinic'
loop_
_space_group_symop_operation_xyz
x,y,z
-x,y,-z
-x,-y,-z
x,-y,z
1/2+x,1/2+y,z
1/2-x,1/2+y,-z
1/2-x,1/2-y,-z
1/2+x,1/2-y,z
loop_
_atom_site_type_symbol
_atom_site_label
_atom_site_fract_x
_atom_site_fract_y
_atom_site_fract_z
Si Si1 0.633967 0.500000 0.567987
Si Si2 0.876583 0.875740 0.759152
Si Si3 0.371083 0.000000 0.428140
Si Si4 0.586853 0.652261 0.915846
Si Si5 0.184286 0.380492 0.934980
Si Si6 0.208033 0.749186 0.611035
O O1 0.500000 0.500000 0.500000
O O2 0.751781 0.500000 0.497468
O O3 0.646787 0.375237 0.621530
O O4 0.785780 0.867484 0.850935
O O5 0.833797 0.775321 0.686084
O O6 0.020893 0.879056 0.811102
O O7 0.853094 0.000000 0.712422
O O8 0.500000 0.000000 0.500000
O O9 0.367211 0.127249 0.377259
O O10 0.580943 0.785599 0.917334
O O11 0.500000 0.609644 0.000000
O O12 0.732612 0.627315 0.959316
O O13 0.121560 0.500000 0.923396
O O14 0.250000 0.750000 0.500000
#
# Coordination Sequence:
#
# PCOD9189179 Si02
#       6
#     4   8   4   8   8   8
#     4  10  22  42  62  86 123 162 200 257 320 370
#     4  10  19  37  59  85 115 150 205 242 291 355
#     4  10  20  40  66  90 111 158 214 255 302 366
#     4   9  18  34  58  81 116 150 184 243 295 360
#     4   9  18  34  55  86 114 151 196 237 296 349
#     4  10  21  40  60  87 119 161 205 257 311 366
#
# _framework density 23.954844000000001
#
# number of rings (size 3 to 8) (size 9 to 14) (size 15 to 20)
#    0.000    2.400    1.000    1.200    0.000    2.800 
#   16.200    0.000    8.800    0.000    0.000    0.000 
#    0.000    0.000    0.000    0.000    0.000    0.000 
#
# Total GULP energy -111388.060070 kJ/mol
# GULP energy per Si atom -5569.403004 kJ/mol
# Density = 2.390032 g / cm^3
# Si number density = 23.954844 Si / 1000 Ang^3
#
#
#
# Elastic Constant Matrix: (Units=GPa)
#
#
# Indices 1 2 3 4 5 6 
#
# 1 58.7562 26.8596 31.1971 0.0000 8.9202 0.0000
# 2 26.8596 260.3545 54.8299 0.0000 25.2114 0.0000
# 3 31.1971 54.8299 128.5211 0.0000 20.2051 0.0000
# 4 0.0000 0.0000 0.0000 -73.5871 0.0000 -75.9667
# 5 8.9202 25.2114 20.2051 0.0000 37.7513 0.0000
# 6 0.0000 0.0000 0.0000 -75.9667 0.0000 -63.6226
#
#
#
# Elastic Compliance Matrix: (Units=1/GPa)
#
#
# Indices 1 2 3 4 5 6 
#
# 1 0.019949 -0.001013 -0.004123 0.000000 -0.001831 0.000000
# 2 -0.001013 0.004418 -0.001324 0.000000 -0.002003 0.000000
# 3 -0.004123 -0.001324 0.009886 0.000000 -0.003433 0.000000
# 4 0.000000 0.000000 0.000000 0.058415 0.000000 -0.069749
# 5 -0.001831 -0.002003 -0.003433 0.000000 0.030096 0.000000
# 6 0.000000 0.000000 0.000000 -0.069749 0.000000 0.067564
#
#
# Mechanical properties :
#
#
# Convention : Reuss Voigt Hill
#
# Bulk Modulus (GPa) = 46.87192 74.82278 60.84735
# Shear Modulus (GPa) = 23.76878 2.42466 13.09672
#
# Velocity S-wave (km/s) = 3.15339 1.00716 2.34075
# Velocity P-wave (km/s) = 5.73304 5.71448 5.72377
#
# Compressibility (1/GPa) = 0.02133474
#
# Stress axis : x y z
#
# Youngs Moduli (GPa) = 50.12716 226.33729 101.15133
#
# Poissons Ratio (x) = 0.22918 0.41701
# Poissons Ratio (y) = 0.05076 0.13395
# Poissons Ratio (z) = 0.20665 0.29973
#
# Static dielectric constant tensor:
#      x y z
#    x 1.917500 0.000000 -0.012610 
#    y 0.000000 2.038060 0.000000 
#    z -0.012610 0.000000 1.920100 
# 
# From -- ./inp_files/203307.got.cif
#   From: 2010.05.17/outbox.cif.g08.bks.cpg/sg12_102_cif.got.tgz:203307.got - 2010.06.03 13:09:07.
