data_PCOD9189023
_publ_section_title
;
Structure prediction by ZEFSAII (Michael W. Deem and Ramdas Pophale) SiO2 
 PCOD9189023
Probable space group: C 2/M
;
_chemical_formula_sum "Si O2"
_cell_formula_units_Z 32
_cell_length_a 20.267724
_cell_length_b 14.456194
_cell_length_c 5.287399
_cell_angle_alpha 90.000000
_cell_angle_beta 126.199916
_cell_angle_gamma 90.000000
_cell_volume 1250.125678
_symmetry_space_group_name_H-M "C 2/M"
_symmetry_group_IT_number 12
_symmetry_cell_setting 'monoclinic'
loop_
_space_group_symop_operation_xyz
x,y,z
-x,y,-z
-x,-y,-z
x,-y,z
1/2+x,1/2+y,z
1/2-x,1/2+y,-z
1/2-x,1/2-y,-z
1/2+x,1/2-y,z
loop_
_atom_site_type_symbol
_atom_site_label
_atom_site_fract_x
_atom_site_fract_y
_atom_site_fract_z
Si Si1 0.245938 0.648114 0.373538
Si Si2 0.088060 0.896981 0.052563
Si Si3 0.908242 0.603245 0.688992
Si Si4 0.115463 0.798167 0.616007
O O1 0.250000 0.750000 0.500000
O O2 0.313438 0.593746 0.685373
O O3 0.156199 0.611928 0.224337
O O4 0.291548 0.661997 0.208228
O O5 0.068515 0.854770 0.286288
O O6 0.057158 0.000000 0.925095
O O7 0.082280 0.824760 0.812075
O O8 0.898907 0.500000 0.555653
O O9 0.890777 0.690295 0.466250
O O10 0.000000 0.612348 0.000000
#
# Coordination Sequence:
#
# PCOD9189023 Si02
#       4
#     8   8   8   8
#     4   8  18  35  59  89 120 157 202 249 301 352
#     4  10  19  36  65  95 119 153 202 260 307 349
#     4  10  20  38  62  90 127 166 201 245 306 368
#     4   9  21  38  63  90 124 157 202 254 299 358
#
# _framework density 25.597425999999999
#
# number of rings (size 3 to 8) (size 9 to 14) (size 15 to 20)
#    1.500    1.250    0.000    1.500    0.000    4.000 
#    0.000    2.500    0.000    7.500    0.000    0.000 
#    0.000    0.000    0.000    0.000    0.000    0.000 
#
# Total GULP energy -89308.311619 kJ/mol
# GULP energy per Si atom -5581.769476 kJ/mol
# Density = 2.553917 g / cm^3
# Si number density = 25.597426 Si / 1000 Ang^3
#
#
#
# Elastic Constant Matrix: (Units=GPa)
#
#
# Indices 1 2 3 4 5 6 
#
# 1 190.2140 34.8521 46.7335 0.0000 -11.2676 0.0000
# 2 34.8521 229.1149 41.1062 0.0000 -26.0708 0.0000
# 3 46.7335 41.1062 84.0172 0.0000 -17.1576 0.0000
# 4 0.0000 0.0000 0.0000 3.6915 0.0000 16.1113
# 5 -11.2676 -26.0708 -17.1576 0.0000 49.3800 0.0000
# 6 0.0000 0.0000 0.0000 16.1113 0.0000 25.8500
#
#
#
# Elastic Compliance Matrix: (Units=1/GPa)
#
#
# Indices 1 2 3 4 5 6 
#
# 1 0.006115 -0.000342 -0.003214 0.000000 0.000098 0.000000
# 2 -0.000342 0.004965 -0.001851 0.000000 0.001900 0.000000
# 3 -0.003214 -0.001851 0.015334 0.000000 0.003618 0.000000
# 4 0.000000 0.000000 0.000000 -0.157478 0.000000 0.098150
# 5 0.000098 0.001900 0.003618 0.000000 0.022534 0.000000
# 6 0.000000 0.000000 0.000000 0.098150 0.000000 -0.022489
#
#
# Mechanical properties :
#
#
# Convention : Reuss Voigt Hill
#
# Bulk Modulus (GPa) = 64.10110 83.19220 73.64665
# Shear Modulus (GPa) = -43.47670 41.16124 -1.15773
#
# Velocity S-wave (km/s) = -4.12573 4.01437 -0.67325
# Velocity P-wave (km/s) = 1.54946 7.35239 5.31312
#
# Compressibility (1/GPa) = 0.01560036
#
# Stress axis : x y z
#
# Youngs Moduli (GPa) = 163.52011 201.41145 65.21313
#
# Poissons Ratio (x) = 0.06898 0.20960
# Poissons Ratio (y) = 0.05600 0.12068
# Poissons Ratio (z) = 0.52557 0.37274
#
# Static dielectric constant tensor:
#      x y z
#    x 2.202980 0.000000 0.129910 
#    y 0.000000 2.032060 0.000000 
#    z 0.129910 0.000000 2.079670 
# 
# From -- ./inp_files/23950.got.cif
#   From: 2010.05.17/outbox.cif.g08.bks.cpg/sg12_12_cif.got.tgz:23950.got - 2010.06.03 13:09:07.
