data_PCOD9189854
_publ_section_title
;
Structure prediction by ZEFSAII (Michael W. Deem and Ramdas Pophale) SiO2 
 PCOD9189854
Probable space group: C 2/M
;
_chemical_formula_sum "Si O2"
_cell_formula_units_Z 64
_cell_length_a 31.648173
_cell_length_b 8.415872
_cell_length_c 12.463871
_cell_angle_alpha 90.000000
_cell_angle_beta 89.107688
_cell_angle_gamma 90.000000
_cell_volume 3319.311735
_symmetry_space_group_name_H-M "C 2/M"
_symmetry_group_IT_number 12
_symmetry_cell_setting 'monoclinic'
loop_
_space_group_symop_operation_xyz
x,y,z
-x,y,-z
-x,-y,-z
x,-y,z
1/2+x,1/2+y,z
1/2-x,1/2+y,-z
1/2-x,1/2-y,-z
1/2+x,1/2-y,z
loop_
_atom_site_type_symbol
_atom_site_label
_atom_site_fract_x
_atom_site_fract_y
_atom_site_fract_z
Si Si1 0.202384 0.808257 0.000806
Si Si2 0.749235 0.190790 0.622518
Si Si3 0.171362 0.192590 0.769983
Si Si4 0.449846 0.681837 0.512985
Si Si5 0.001280 0.808250 0.123707
Si Si6 0.076067 0.194206 0.721155
Si Si7 0.422247 0.815240 0.736149
Si Si8 0.828186 0.191666 0.766711
O O1 0.181874 0.754662 0.890489
O O2 0.201308 0.000000 0.001264
O O3 0.250000 0.750000 0.000000
O O4 0.181445 0.752688 0.111893
O O5 0.750000 0.250000 0.500000
O O6 0.707231 0.246466 0.687260
O O7 0.790974 0.246125 0.687298
O O8 0.749661 0.000000 0.621751
O O9 0.123537 0.243009 0.747373
O O10 0.172598 0.000000 0.765851
O O11 0.500000 0.672968 0.500000
O O12 0.434020 0.500000 0.531210
O O13 0.433019 0.743353 0.400370
O O14 0.438931 0.784884 0.615771
O O15 0.044431 0.762600 0.182763
O O16 0.960779 0.752496 0.195596
O O17 0.999257 0.000000 0.121617
O O18 0.000000 0.752427 0.000000
O O19 0.074527 0.000000 0.722138
O O20 0.375299 0.744662 0.739050
O O21 0.420256 0.000000 0.761118
O O22 0.826838 0.000000 0.765471
#
# Coordination Sequence:
#
# PCOD9189854 Si02
#       8
#     8   8   8   8   8   8   8   8
#     4  10  20  37  63  89 118 152 197 252 299 355
#     4  11  24  42  62  86 121 160 202 249 300 359
#     4  10  21  37  61  92 122 153 195 246 300 356
#     4  10  19  38  65  87 115 154 203 251 292 353
#     4  10  21  40  67  91 119 161 208 248 289 356
#     4   9  19  36  60  91 118 151 197 244 292 346
#     4  12  26  40  59  90 127 159 198 253 311 358
#     4  10  23  42  63  87 118 162 209 246 292 359
#
# _framework density 19.281105
#
# number of rings (size 3 to 8) (size 9 to 14) (size 15 to 20)
#    0.000    1.750    2.500    1.500    3.500    2.000 
#    0.000    0.625    0.000    0.000    0.000    0.000 
#    0.000    0.000    0.000    0.000    0.000    0.000 
#
# Total GULP energy -178657.154629 kJ/mol
# GULP energy per Si atom -5583.036082 kJ/mol
# Density = 1.923722 g / cm^3
# Si number density = 19.281105 Si / 1000 Ang^3
#
#
#
# Elastic Constant Matrix: (Units=GPa)
#
#
# Indices 1 2 3 4 5 6 
#
# 1 152.2428 12.7662 81.4265 0.0000 14.1351 0.0000
# 2 12.7662 10.9171 17.9806 0.0000 1.8581 0.0000
# 3 81.4265 17.9806 169.5164 0.0000 18.4214 0.0000
# 4 0.0000 0.0000 0.0000 7.1550 0.0000 -0.8013
# 5 14.1351 1.8581 18.4214 0.0000 37.6639 0.0000
# 6 0.0000 0.0000 0.0000 -0.8013 0.0000 27.1022
#
#
#
# Elastic Compliance Matrix: (Units=1/GPa)
#
#
# Indices 1 2 3 4 5 6 
#
# 1 0.009055 -0.004164 -0.003761 0.000000 -0.001353 0.000000
# 2 -0.004164 0.112907 -0.010076 0.000000 0.000921 0.000000
# 3 -0.003761 -0.010076 0.009048 0.000000 -0.002517 0.000000
# 4 0.000000 0.000000 0.000000 0.140226 0.000000 0.004146
# 5 -0.001353 0.000921 -0.002517 0.000000 0.028244 0.000000
# 6 0.000000 0.000000 0.000000 0.004146 0.000000 0.037020
#
#
# Mechanical properties :
#
#
# Convention : Reuss Voigt Hill
#
# Bulk Modulus (GPa) = 10.52542 61.89144 36.20843
# Shear Modulus (GPa) = 12.37102 29.08442 20.72772
#
# Velocity S-wave (km/s) = 2.53576 3.88808 3.28232
# Velocity P-wave (km/s) = 3.74756 7.23363 5.76063
#
# Compressibility (1/GPa) = 0.09500812
#
# Stress axis : x y z
#
# Youngs Moduli (GPa) = 110.44069 8.85685 110.52446
#
# Poissons Ratio (x) = 0.03688 0.41564
# Poissons Ratio (y) = 0.45989 1.11363
# Poissons Ratio (z) = 0.41532 0.08924
#
# Static dielectric constant tensor:
#      x y z
#    x 1.665560 0.000000 0.011360 
#    y 0.000000 1.679480 0.000000 
#    z 0.011360 0.000000 1.644850 
# 
# From -- ./inp_files/187392.got.cif
#   From: 2010.05.17/outbox.cif.g08.bks.cpg/sg12_94_cif.got.tgz:187392.got - 2010.06.03 13:09:07.
