data_PCOD9189980
_publ_section_title
;
Structure prediction by ZEFSAII (Michael W. Deem and Ramdas Pophale) SiO2 
 PCOD9189980
Probable space group: C 2/M
;
_chemical_formula_sum "Si O2"
_cell_formula_units_Z 56
_cell_length_a 19.320335
_cell_length_b 14.077686
_cell_length_c 20.894343
_cell_angle_alpha 90.000000
_cell_angle_beta 151.311378
_cell_angle_gamma 90.000000
_cell_volume 2728.101273
_symmetry_space_group_name_H-M "C 2/M"
_symmetry_group_IT_number 12
_symmetry_cell_setting 'monoclinic'
loop_
_space_group_symop_operation_xyz
x,y,z
-x,y,-z
-x,-y,-z
x,-y,z
1/2+x,1/2+y,z
1/2-x,1/2+y,-z
1/2-x,1/2-y,-z
1/2+x,1/2-y,z
loop_
_atom_site_type_symbol
_atom_site_label
_atom_site_fract_x
_atom_site_fract_y
_atom_site_fract_z
Si Si1 0.092367 0.390080 0.641211
Si Si2 0.143793 0.256563 0.508983
Si Si3 0.076625 0.197366 0.320183
Si Si4 0.263600 0.674436 0.068071
Si Si5 0.488538 0.099906 0.787767
Si Si6 0.276917 0.392075 0.328804
Si Si7 0.673715 0.758761 0.136007
O O1 0.113232 0.500000 0.675330
O O2 0.242523 0.332237 0.766070
O O3 0.000000 0.388152 0.500000
O O4 0.986550 0.329473 0.600128
O O5 0.140867 0.191397 0.443253
O O6 0.294953 0.314340 0.627039
O O7 0.128811 0.186371 0.556974
O O8 0.928581 0.139235 0.198801
O O9 0.028667 0.306648 0.268661
O O10 0.224400 0.722212 0.104279
O O11 0.250000 0.750000 0.000000
O O12 0.137766 0.602869 0.947398
O O13 0.363395 0.104794 0.739246
O O14 0.475421 0.000000 0.741226
O O15 0.332030 0.500000 0.368534
O O16 0.228757 0.348139 0.222518
O O17 0.500000 0.750339 0.000000
#
# Coordination Sequence:
#
# PCOD9189980 Si02
#       7
#     8   8   8   8   8   8   8
#     4  11  24  42  66  92 121 161 216 271 323 379
#     4  10  19  39  61  88 121 165 208 264 320 379
#     4   9  19  34  61  83 118 166 208 251 316 374
#     4  10  20  36  56  87 121 166 203 251 317 378
#     4   9  18  34  56  88 123 159 208 253 308 386
#     4  10  21  37  62  93 127 166 207 256 321 389
#     4  12  23  40  66  94 130 171 214 266 323 382
#
# _framework density 20.527097000000001
#
# number of rings (size 3 to 8) (size 9 to 14) (size 15 to 20)
#    0.000    1.857    4.286    0.000    0.000    1.714 
#    0.000    5.000    0.000    1.714    0.000    0.000 
#    0.000    0.000    0.000    0.000    0.000    0.000 
#
# Total GULP energy -156010.239691 kJ/mol
# GULP energy per Si atom -5571.794275 kJ/mol
# Density = 2.048038 g / cm^3
# Si number density = 20.527097 Si / 1000 Ang^3
#
#
#
# Elastic Constant Matrix: (Units=GPa)
#
#
# Indices 1 2 3 4 5 6 
#
# 1 94.9251 27.6130 34.3080 0.0003 -9.2489 0.0000
# 2 27.6130 96.2963 22.2620 0.0009 0.9827 0.0003
# 3 34.3080 22.2620 103.5495 0.0019 15.0236 0.0006
# 4 0.0003 0.0009 0.0019 14.5520 0.0006 0.4095
# 5 -9.2489 0.9827 15.0236 0.0006 40.5566 0.0001
# 6 0.0000 0.0003 0.0006 0.4095 0.0001 13.3086
#
#
#
# Elastic Compliance Matrix: (Units=1/GPa)
#
#
# Indices 1 2 3 4 5 6 
#
# 1 0.013484 -0.002863 -0.004553 0.000000 0.004831 0.000000
# 2 -0.002863 0.011551 -0.001479 0.000000 -0.000385 0.000000
# 3 -0.004553 -0.001479 0.012290 -0.000001 -0.005555 0.000000
# 4 0.000000 0.000000 -0.000001 0.068779 -0.000001 -0.002116
# 5 0.004831 -0.000385 -0.005555 -0.000001 0.027826 0.000000
# 6 0.000000 0.000000 0.000000 -0.002116 0.000000 0.075204
#
#
# Mechanical properties :
#
#
# Convention : Reuss Voigt Hill
#
# Bulk Modulus (GPa) = 51.19051 51.45965 51.32508
# Shear Modulus (GPa) = 21.41926 27.72263 24.57095
#
# Velocity S-wave (km/s) = 3.23377 3.67895 3.46352
# Velocity P-wave (km/s) = 6.23981 6.57037 6.40722
#
# Compressibility (1/GPa) = 0.01953487
#
# Stress axis : x y z
#
# Youngs Moduli (GPa) = 74.16382 86.56902 81.37010
#
# Poissons Ratio (x) = 0.24787 0.37046
# Poissons Ratio (y) = 0.21235 0.12034
# Poissons Ratio (z) = 0.33765 0.12803
#
# Static dielectric constant tensor:
#      x y z
#    x 1.755980 0.000000 0.016530 
#    y 0.000000 1.747030 0.000000 
#    z 0.016530 0.000000 1.820330 
# 
# From -- ./inp_files/316776.got.cif
#   From: 2010.05.17/outbox.cif.g08.bks.cpg/sg12_159_cif.got.tgz:316776.got - 2010.06.03 13:09:07.
