data_PCOD9189465
_publ_section_title
;
Structure prediction by ZEFSAII (Michael W. Deem and Ramdas Pophale) SiO2 
 PCOD9189465
Probable space group: C 2/M
;
_chemical_formula_sum "Si O2"
_cell_formula_units_Z 38
_cell_length_a 8.221878
_cell_length_b 21.542697
_cell_length_c 9.320325
_cell_angle_alpha 90.000000
_cell_angle_beta 100.811498
_cell_angle_gamma 90.000000
_cell_volume 1621.526426
_symmetry_space_group_name_H-M "C 2/M"
_symmetry_group_IT_number 12
_symmetry_cell_setting 'monoclinic'
loop_
_space_group_symop_operation_xyz
x,y,z
-x,y,-z
-x,-y,-z
x,-y,z
1/2+x,1/2+y,z
1/2-x,1/2+y,-z
1/2-x,1/2-y,-z
1/2+x,1/2-y,z
loop_
_atom_site_type_symbol
_atom_site_label
_atom_site_fract_x
_atom_site_fract_y
_atom_site_fract_z
Si Si1 0.320069 0.329530 0.912979
Si Si2 0.748034 0.227998 0.334713
Si Si3 0.680854 0.885950 0.168505
Si Si4 0.562716 0.427843 0.278611
Si Si5 0.000000 0.500000 0.000000
Si Si6 0.000000 0.153642 0.500000
O O1 0.263347 0.280284 0.786002
O O2 0.349638 0.395356 0.839999
O O3 0.500000 0.308874 0.000000
O O4 0.204515 0.344088 0.028547
O O5 0.750000 0.250000 0.500000
O O6 0.638743 0.166840 0.280116
O O7 0.931115 0.197187 0.363174
O O8 0.864777 0.915178 0.228979
O O9 0.564524 0.944180 0.120841
O O10 0.594506 0.500000 0.289714
O O11 0.618453 0.392735 0.432985
#
# Coordination Sequence:
#
# PCOD9189465 Si02
#       6
#     8   8   8   8   2   4
#     4  10  22  39  65  96 122 158 214 267 319 370
#     4  11  22  41  63  93 125 166 211 260 318 368
#     4  10  24  38  63  91 125 168 206 260 311 382
#     4  10  19  37  63  92 119 156 208 262 311 368
#     4  12  24  44  62  92 136 174 212 246 330 394
#     4  10  21  36  60  92 125 162 204 256 314 379
#
# _framework density 23.434708000000001
#
# number of rings (size 3 to 8) (size 9 to 14) (size 15 to 20)
#    0.000    1.684    3.158    0.947    2.947    2.947 
#    0.000    0.000    0.000    1.263    0.000    0.000 
#    0.000    0.000    0.000    0.000    0.000    0.000 
#
# Total GULP energy -105775.825165 kJ/mol
# GULP energy per Si atom -5567.148693 kJ/mol
# Density = 2.338137 g / cm^3
# Si number density = 23.434708 Si / 1000 Ang^3
#
#
#
# Elastic Constant Matrix: (Units=GPa)
#
#
# Indices 1 2 3 4 5 6 
#
# 1 23.4879 27.4052 17.7807 0.0000 4.5078 0.0000
# 2 27.4052 216.7890 98.2617 0.0000 10.5697 0.0000
# 3 17.7807 98.2617 153.4864 0.0000 -0.9545 0.0000
# 4 0.0000 0.0000 0.0000 55.2984 0.0000 7.0845
# 5 4.5078 10.5697 -0.9545 0.0000 29.3390 0.0000
# 6 0.0000 0.0000 0.0000 7.0845 0.0000 19.3654
#
#
#
# Elastic Compliance Matrix: (Units=1/GPa)
#
#
# Indices 1 2 3 4 5 6 
#
# 1 0.051702 -0.004928 -0.002873 0.000000 -0.006262 0.000000
# 2 -0.004928 0.007153 -0.004021 0.000000 -0.001951 0.000000
# 3 -0.002873 -0.004021 0.009436 0.000000 0.002197 0.000000
# 4 0.000000 0.000000 0.000000 0.018973 0.000000 -0.006941
# 5 -0.006262 -0.001951 0.002197 0.000000 0.035821 0.000000
# 6 0.000000 0.000000 0.000000 -0.006941 0.000000 0.054178
#
#
# Mechanical properties :
#
#
# Convention : Reuss Voigt Hill
#
# Bulk Modulus (GPa) = 22.39804 75.62871 49.01338
# Shear Modulus (GPa) = 23.17070 37.48827 30.32948
#
# Velocity S-wave (km/s) = 3.14783 4.00395 3.60142
# Velocity P-wave (km/s) = 4.77390 7.32923 6.18497
#
# Compressibility (1/GPa) = 0.04464677
#
# Stress axis : x y z
#
# Youngs Moduli (GPa) = 19.34150 139.79481 105.97872
#
# Poissons Ratio (x) = 0.68894 0.30452
# Poissons Ratio (y) = 0.09532 0.42612
# Poissons Ratio (z) = 0.05558 0.56208
#
# Static dielectric constant tensor:
#      x y z
#    x 2.060760 0.000000 0.096480 
#    y 0.000000 1.895820 0.000000 
#    z 0.096480 0.000000 1.982470 
# 
# From -- ./inp_files/48551.got.cif
#   From: 2010.05.17/outbox.cif.g08.bks.cpg/sg12_25_cif.got.tgz:48551.got - 2010.06.03 13:09:07.
