data_PCOD9189338
_publ_section_title
;
Structure prediction by ZEFSAII (Michael W. Deem and Ramdas Pophale) SiO2 
 PCOD9189338
Probable space group: C 2/M
;
_chemical_formula_sum "Si O2"
_cell_formula_units_Z 64
_cell_length_a 20.915290
_cell_length_b 11.146531
_cell_length_c 26.345257
_cell_angle_alpha 90.000000
_cell_angle_beta 28.571354
_cell_angle_gamma 90.000000
_cell_volume 2937.403527
_symmetry_space_group_name_H-M "C 2/M"
_symmetry_group_IT_number 12
_symmetry_cell_setting 'monoclinic'
loop_
_space_group_symop_operation_xyz
x,y,z
-x,y,-z
-x,-y,-z
x,-y,z
1/2+x,1/2+y,z
1/2-x,1/2+y,-z
1/2-x,1/2-y,-z
1/2+x,1/2-y,z
loop_
_atom_site_type_symbol
_atom_site_label
_atom_site_fract_x
_atom_site_fract_y
_atom_site_fract_z
Si Si1 0.261938 0.130138 0.763627
Si Si2 0.089200 0.365870 0.887213
Si Si3 0.509786 0.132528 0.782072
Si Si4 0.153973 0.708349 0.190864
Si Si5 0.543259 0.788212 0.525813
Si Si6 0.073588 0.139465 0.605692
Si Si7 0.834393 0.368950 0.996027
Si Si8 0.175653 0.134906 0.646252
O O1 0.182962 0.253838 0.808516
O O2 0.273524 0.134234 0.816569
O O3 0.411600 0.143822 0.637593
O O4 0.205752 0.000000 0.786633
O O5 0.152550 0.500000 0.848806
O O6 0.980105 0.373602 0.919640
O O7 0.000000 0.343946 0.000000
O O8 0.457618 0.134065 0.760887
O O9 0.376284 0.147355 0.908931
O O10 0.598133 0.252388 0.725211
O O11 0.569102 0.000000 0.751863
O O12 0.071617 0.815190 0.274938
O O13 0.253442 0.770100 0.082353
O O14 0.500000 0.741709 0.500000
O O15 0.587797 0.698727 0.540333
O O16 0.677766 0.866490 0.431035
O O17 0.168138 0.159250 0.589966
O O18 0.078544 0.000000 0.593611
O O19 0.768743 0.500000 0.048161
O O20 0.116578 0.000000 0.693912
#
# Coordination Sequence:
#
# PCOD9189338 Si02
#       8
#     8   8   8   8   8   8   8   8
#     4  11  24  40  61  90 121 158 204 255 308 369
#     4  10  21  40  63  87 119 165 206 245 299 367
#     4  10  22  39  61  92 129 162 203 259 310 361
#     4  10  19  37  61  90 123 163 202 249 306 371
#     4  11  25  42  63  92 127 165 208 264 328 385
#     4   9  20  39  65  95 124 162 213 263 312 377
#     4  10  20  36  60  89 124 165 206 249 304 364
#     4  10  22  43  68  91 123 171 219 259 312 384
#
# _framework density 21.787949000000001
#
# number of rings (size 3 to 8) (size 9 to 14) (size 15 to 20)
#    0.000    1.875    1.250    1.875    1.750    4.500 
#    0.000    4.375    0.000    0.000    0.000    0.000 
#    0.000    0.000    0.000    0.000    0.000    0.000 
#
# Total GULP energy -178244.076600 kJ/mol
# GULP energy per Si atom -5570.127394 kJ/mol
# Density = 2.173836 g / cm^3
# Si number density = 21.787949 Si / 1000 Ang^3
#
#
#
# Elastic Constant Matrix: (Units=GPa)
#
#
# Indices 1 2 3 4 5 6 
#
# 1 84.4933 23.6627 5.9992 -0.0071 2.8906 0.0036
# 2 23.6627 146.3513 63.4751 -0.0034 -6.9015 0.0016
# 3 5.9992 63.4751 48.2268 -0.0094 -0.5106 0.0044
# 4 -0.0071 -0.0034 -0.0094 -108.4624 0.0003 47.2718
# 5 2.8906 -6.9015 -0.5106 0.0003 28.5227 0.0000
# 6 0.0036 0.0016 0.0044 47.2718 0.0000 -12.2277
#
#
#
# Elastic Compliance Matrix: (Units=1/GPa)
#
#
# Indices 1 2 3 4 5 6 
#
# 1 0.012649 -0.003379 0.002852 -0.000001 -0.002048 -0.000001
# 2 -0.003379 0.017177 -0.022144 0.000002 0.004102 0.000001
# 3 0.002852 -0.022144 0.049476 -0.000004 -0.004761 -0.000002
# 4 -0.000001 0.000002 -0.000004 0.013461 0.000000 0.052040
# 5 -0.002048 0.004102 -0.004761 0.000000 0.036175 0.000000
# 6 -0.000001 0.000001 -0.000002 0.052040 0.000000 0.119403
#
#
# Mechanical properties :
#
#
# Convention : Reuss Voigt Hill
#
# Bulk Modulus (GPa) = 29.44675 51.70504 40.57589
# Shear Modulus (GPa) = 16.39331 -6.03787 5.17772
#
# Velocity S-wave (km/s) = 2.74597 -1.66650 1.54324
# Velocity P-wave (km/s) = 4.85781 4.48103 4.67322
#
# Compressibility (1/GPa) = 0.03395961
#
# Stress axis : x y z
#
# Youngs Moduli (GPa) = 79.05742 58.21783 20.21187
#
# Poissons Ratio (x) = 0.19669 -0.05764
# Poissons Ratio (y) = 0.26710 0.44757
# Poissons Ratio (z) = -0.22544 1.28918
#
# Static dielectric constant tensor:
#      x y z
#    x 1.882470 0.000000 0.038720 
#    y 0.000000 1.854720 0.000000 
#    z 0.038720 0.000000 1.810390 
# 
# From -- ./inp_files/365995.got.cif
#   From: 2010.05.17/outbox.cif.g08.bks.cpg/sg12_183_cif.got.tgz:365995.got - 2010.06.03 13:09:07.
