data_PCOD9189463
_publ_section_title
;
Structure prediction by ZEFSAII (Michael W. Deem and Ramdas Pophale) SiO2 
 PCOD9189463
Probable space group: C 2/M
;
_chemical_formula_sum "Si O2"
_cell_formula_units_Z 64
_cell_length_a 9.391925
_cell_length_b 28.636292
_cell_length_c 17.615372
_cell_angle_alpha 90.000000
_cell_angle_beta 43.927425
_cell_angle_gamma 90.000000
_cell_volume 3286.730637
_symmetry_space_group_name_H-M "C 2/M"
_symmetry_group_IT_number 12
_symmetry_cell_setting 'monoclinic'
loop_
_space_group_symop_operation_xyz
x,y,z
-x,y,-z
-x,-y,-z
x,-y,z
1/2+x,1/2+y,z
1/2-x,1/2+y,-z
1/2-x,1/2-y,-z
1/2+x,1/2-y,z
loop_
_atom_site_type_symbol
_atom_site_label
_atom_site_fract_x
_atom_site_fract_y
_atom_site_fract_z
Si Si1 0.605478 0.554322 0.289217
Si Si2 0.274240 0.291246 0.550749
Si Si3 0.023996 0.555663 0.735629
Si Si4 0.185519 0.895346 0.490645
Si Si5 0.228773 0.122689 0.927750
Si Si6 0.476596 0.787969 0.198299
Si Si7 0.756720 0.600008 0.085892
Si Si8 0.226878 0.293822 0.878124
O O1 0.566439 0.500000 0.316712
O O2 0.812314 0.565657 0.258513
O O3 0.416759 0.582826 0.396105
O O4 0.645018 0.566103 0.186851
O O5 0.500000 0.288067 0.500000
O O6 0.250000 0.250000 0.500000
O O7 0.250034 0.342073 0.522252
O O8 0.119584 0.290351 0.681230
O O9 0.989332 0.500000 0.746259
O O10 0.136022 0.574279 0.616837
O O11 0.824199 0.586281 0.831190
O O12 0.000000 0.895109 0.500000
O O13 0.385671 0.166243 0.871616
O O14 0.212325 0.096619 0.014486
O O15 0.000000 0.140357 0.000000
O O16 0.619432 0.742468 0.142937
O O17 0.302202 0.785954 0.200701
O O18 0.709630 0.653060 0.130085
O O19 0.000000 0.593028 0.000000
O O20 0.000000 0.287464 0.000000
#
# Coordination Sequence:
#
# PCOD9189463 Si02
#       8
#     8   8   8   8   8   8   8   8
#     4  10  20  35  63  94 119 155 203 258 310 360
#     4  11  24  40  61  91 122 160 200 250 305 359
#     4  10  19  37  63  91 121 158 202 254 308 368
#     4   9  19  35  62  91 124 154 200 255 308 357
#     4  12  25  41  60  92 127 165 204 246 306 368
#     4  12  23  40  61  87 125 161 203 252 304 361
#     4  11  22  39  61  89 127 159 202 252 306 358
#     4  11  23  37  60  88 120 161 205 243 299 362
#
# _framework density 19.472238000000001
#
# number of rings (size 3 to 8) (size 9 to 14) (size 15 to 20)
#    0.000    1.250    5.000    1.875    7.000    2.500 
#    0.000    0.000    0.000    0.000    0.000    1.750 
#    0.000    0.000    0.000    0.000    0.000    0.000 
#
# Total GULP energy -178795.410042 kJ/mol
# GULP energy per Si atom -5587.356564 kJ/mol
# Density = 1.942792 g / cm^3
# Si number density = 19.472238 Si / 1000 Ang^3
#
#
#
# Elastic Constant Matrix: (Units=GPa)
#
#
# Indices 1 2 3 4 5 6 
#
# 1 10.4479 3.5304 5.3014 0.0000 -4.8474 0.0000
# 2 3.5304 44.9282 17.8169 0.0000 -2.1741 0.0000
# 3 5.3014 17.8169 93.2858 0.0000 11.5041 0.0000
# 4 0.0000 0.0000 0.0000 25.6148 0.0000 5.9871
# 5 -4.8474 -2.1741 11.5041 0.0000 19.2381 0.0000
# 6 0.0000 0.0000 0.0000 5.9871 0.0000 21.1055
#
#
#
# Elastic Compliance Matrix: (Units=1/GPa)
#
#
# Indices 1 2 3 4 5 6 
#
# 1 0.118841 -0.003432 -0.010519 0.000000 0.035847 0.000000
# 2 -0.003432 0.024819 -0.005165 0.000000 0.005029 0.000000
# 3 -0.010519 -0.005165 0.013714 0.000000 -0.011435 0.000000
# 4 0.000000 0.000000 0.000000 0.041812 0.000000 -0.011861
# 5 0.035847 0.005029 -0.011435 0.000000 0.068419 0.000000
# 6 0.000000 0.000000 0.000000 -0.011861 0.000000 0.050746
#
#
# Mechanical properties :
#
#
# Convention : Reuss Voigt Hill
#
# Bulk Modulus (GPa) = 8.39337 22.43994 15.41665
# Shear Modulus (GPa) = 12.61674 21.32587 16.97130
#
# Velocity S-wave (km/s) = 2.54822 3.31296 2.95543
# Velocity P-wave (km/s) = 3.60245 5.11697 4.42499
#
# Compressibility (1/GPa) = 0.11914170
#
# Stress axis : x y z
#
# Youngs Moduli (GPa) = 8.41458 40.29138 72.91667
#
# Poissons Ratio (x) = 0.13829 0.76700
# Poissons Ratio (y) = 0.02888 0.37664
# Poissons Ratio (z) = 0.08851 0.20812
#
# Static dielectric constant tensor:
#      x y z
#    x 1.706290 0.000000 0.009490 
#    y 0.000000 1.657360 0.000000 
#    z 0.009490 0.000000 1.689880 
# 
# From -- ./inp_files/201294.got.cif
#   From: 2010.05.17/outbox.cif.g08.bks.cpg/sg12_101_cif.got.tgz:201294.got - 2010.06.03 13:09:07.
