data_PCOD9189298
_publ_section_title
;
Structure prediction by ZEFSAII (Michael W. Deem and Ramdas Pophale) SiO2 
 PCOD9189298
Probable space group: C 2/M
;
_chemical_formula_sum "Si O2"
_cell_formula_units_Z 64
_cell_length_a 14.395277
_cell_length_b 10.923208
_cell_length_c 22.389839
_cell_angle_alpha 90.000000
_cell_angle_beta 72.448535
_cell_angle_gamma 90.000000
_cell_volume 3356.738517
_symmetry_space_group_name_H-M "C 2/M"
_symmetry_group_IT_number 12
_symmetry_cell_setting 'monoclinic'
loop_
_space_group_symop_operation_xyz
x,y,z
-x,y,-z
-x,-y,-z
x,-y,z
1/2+x,1/2+y,z
1/2-x,1/2+y,-z
1/2-x,1/2-y,-z
1/2+x,1/2-y,z
loop_
_atom_site_type_symbol
_atom_site_label
_atom_site_fract_x
_atom_site_fract_y
_atom_site_fract_z
Si Si1 0.825676 0.643483 0.001453
Si Si2 0.982896 0.359320 0.876941
Si Si3 0.380163 0.637715 0.448011
Si Si4 0.187680 0.639954 0.853533
Si Si5 0.148247 0.358154 0.463488
Si Si6 0.382301 0.780102 0.779621
Si Si7 0.790264 0.356900 0.675161
Si Si8 0.073866 0.143349 0.698396
O O1 0.802813 0.500000 0.988162
O O2 0.831651 0.641636 0.071640
O O3 0.750000 0.750000 0.000000
O O4 0.922481 0.681468 0.946378
O O5 0.006293 0.500000 0.885362
O O6 0.916419 0.353606 0.831334
O O7 0.088870 0.300549 0.846393
O O8 0.405032 0.500000 0.465775
O O9 0.262964 0.637336 0.459462
O O10 0.400190 0.754894 0.485662
O O11 0.426541 0.653144 0.373531
O O12 0.200179 0.500000 0.830307
O O13 0.287769 0.705346 0.818753
O O14 0.112928 0.500000 0.475784
O O15 0.150067 0.312710 0.394283
O O16 0.346583 0.844854 0.726097
O O17 0.478418 0.704610 0.743553
O O18 0.776314 0.500000 0.664142
O O19 0.679962 0.304577 0.697974
O O20 0.070712 0.000000 0.715056
#
# Coordination Sequence:
#
# PCOD9189298 Si02
#       8
#     8   8   8   8   8   8   8   8
#     4  10  19  37  61  86 114 146 183 227 279 328
#     4  10  21  36  56  81 110 146 185 225 273 328
#     4   8  14  28  51  76 102 135 178 224 273 329
#     4  10  21  36  56  81 110 146 185 225 273 328
#     4   8  14  28  51  76 102 135 178 224 273 329
#     4  12  20  33  55  78 108 140 186 232 266 316
#     4   9  19  35  53  75 106 144 180 220 278 336
#     4   9  19  35  53  75 106 144 180 220 278 336
#
# _framework density 19.066126000000001
#
# number of rings (size 3 to 8) (size 9 to 14) (size 15 to 20)
#    0.000    2.500    1.250    3.375    0.000    1.500 
#    0.000    3.125    0.000   12.000    0.000    0.000 
#    0.000    0.000    0.000    0.000    0.000    1.000 
#
# Total GULP energy -178157.158215 kJ/mol
# GULP energy per Si atom -5567.411194 kJ/mol
# Density = 1.902273 g / cm^3
# Si number density = 19.066126 Si / 1000 Ang^3
#
#
#
# Elastic Constant Matrix: (Units=GPa)
#
#
# Indices 1 2 3 4 5 6 
#
# 1 87.9254 18.3094 16.0751 0.0000 -4.3022 0.0000
# 2 18.3094 53.8093 20.4434 0.0000 -4.8111 0.0000
# 3 16.0751 20.4434 66.5392 0.0000 -1.7934 0.0000
# 4 0.0000 0.0000 0.0000 128.5124 0.0000 -4.6394
# 5 -4.3022 -4.8111 -1.7934 0.0000 27.8653 0.0000
# 6 0.0000 0.0000 0.0000 -4.6394 0.0000 16.8391
#
#
#
# Elastic Compliance Matrix: (Units=1/GPa)
#
#
# Indices 1 2 3 4 5 6 
#
# 1 0.012497 -0.003407 -0.001940 0.000000 0.001216 0.000000
# 2 -0.003407 0.022262 -0.005938 0.000000 0.002935 0.000000
# 3 -0.001940 -0.005938 0.017316 0.000000 -0.000210 0.000000
# 4 0.000000 0.000000 0.000000 0.007860 0.000000 0.002165
# 5 0.001216 0.002935 -0.000210 0.000000 0.036568 0.000000
# 6 0.000000 0.000000 0.000000 0.002165 0.000000 0.059982
#
#
# Mechanical properties :
#
#
# Convention : Reuss Voigt Hill
#
# Bulk Modulus (GPa) = 33.89048 35.32552 34.60800
# Shear Modulus (GPa) = 26.47088 44.87312 35.67200
#
# Velocity S-wave (km/s) = 3.73013 4.85661 4.33015
# Velocity P-wave (km/s) = 6.03039 7.07227 6.57201
#
# Compressibility (1/GPa) = 0.02950681
#
# Stress axis : x y z
#
# Youngs Moduli (GPa) = 80.02058 44.92056 57.75035
#
# Poissons Ratio (x) = 0.15302 0.11202
# Poissons Ratio (y) = 0.27259 0.34289
# Poissons Ratio (z) = 0.15521 0.26672
#
# Static dielectric constant tensor:
#      x y z
#    x 1.713170 0.000000 -0.009820 
#    y 0.000000 1.651130 0.000000 
#    z -0.009820 0.000000 1.676090 
# 
# From -- ./inp_files/309907.got.cif
#   From: 2010.05.17/outbox.cif.g08.bks.cpg/sg12_155_cif.got.tgz:309907.got - 2010.06.03 13:09:07.
