data_PCOD9189932
_publ_section_title
;
Structure prediction by ZEFSAII (Michael W. Deem and Ramdas Pophale) SiO2 
 PCOD9189932
Probable space group: C 2/M
;
_chemical_formula_sum "Si O2"
_cell_formula_units_Z 24
_cell_length_a 13.375014
_cell_length_b 9.503449
_cell_length_c 14.885068
_cell_angle_alpha 90.000000
_cell_angle_beta 150.423597
_cell_angle_gamma 90.000000
_cell_volume 933.871561
_symmetry_space_group_name_H-M "C 2/M"
_symmetry_group_IT_number 12
_symmetry_cell_setting 'monoclinic'
loop_
_space_group_symop_operation_xyz
x,y,z
-x,y,-z
-x,-y,-z
x,-y,z
1/2+x,1/2+y,z
1/2-x,1/2+y,-z
1/2-x,1/2-y,-z
1/2+x,1/2-y,z
loop_
_atom_site_type_symbol
_atom_site_label
_atom_site_fract_x
_atom_site_fract_y
_atom_site_fract_z
Si Si1 0.089629 0.000000 0.212476
Si Si2 0.640793 0.000000 0.022984
Si Si3 0.928508 0.000000 0.546424
Si Si4 0.330295 0.000000 0.224459
Si Si5 0.445004 0.799057 0.727164
O O1 0.084595 0.138966 0.268477
O O2 0.273994 0.000000 0.285177
O O3 0.883732 0.000000 0.994208
O O4 0.581305 0.131916 0.913917
O O5 0.500000 0.000000 0.000000
O O6 0.867518 0.000000 0.236369
O O7 0.775935 0.870015 0.440854
O O8 0.000000 0.000000 0.500000
O O9 0.449292 0.862956 0.279655
#
# Coordination Sequence:
#
# PCOD9189932 Si02
#       5
#     4   4   4   4   8
#     4  11  22  42  74 104 151 186 234 310 363 420
#     4  10  19  38  73 103 138 196 239 288 362 430
#     4  10  19  38  69 103 144 188 246 288 359 439
#     4   9  22  40  69 105 144 193 248 282 362 441
#     4  10  23  42  68 108 140 190 244 296 360 435
#
# _framework density 25.699466999999999
#
# number of rings (size 3 to 8) (size 9 to 14) (size 15 to 20)
#    0.000    2.333    3.333    1.000    4.667    0.000 
#    0.000    5.833    0.000   88.000    0.000   18.667 
#    0.000    0.000    0.000    0.000    0.000    0.000 
#
# Total GULP energy -67321.791811 kJ/mol
# GULP energy per Si atom -5610.149318 kJ/mol
# Density = 2.564097 g / cm^3
# Si number density = 25.699467 Si / 1000 Ang^3
#
#
#
# Elastic Constant Matrix: (Units=GPa)
#
#
# Indices 1 2 3 4 5 6 
#
# 1 287.7484 115.1839 66.2480 0.0004 3.9662 0.0000
# 2 115.1839 280.7010 73.0934 0.0006 1.1981 0.0002
# 3 66.2480 73.0934 226.0448 0.0004 30.6493 0.0000
# 4 0.0004 0.0006 0.0004 22.4619 0.0006 -0.1604
# 5 3.9662 1.1981 30.6493 0.0006 50.8978 0.0002
# 6 0.0000 0.0002 0.0000 -0.1604 0.0002 0.9381
#
#
#
# Elastic Compliance Matrix: (Units=1/GPa)
#
#
# Indices 1 2 3 4 5 6 
#
# 1 0.004272 -0.001553 -0.000773 0.000000 0.000169 0.000001
# 2 -0.001553 0.004479 -0.001084 0.000000 0.000668 -0.000001
# 3 -0.000773 -0.001084 0.005433 0.000000 -0.003186 0.000001
# 4 0.000000 0.000000 0.000000 0.044574 -0.000001 0.007623
# 5 0.000169 0.000668 -0.003186 -0.000001 0.021537 -0.000004
# 6 0.000001 -0.000001 0.000001 0.007623 -0.000004 1.067322
#
#
# Mechanical properties :
#
#
# Convention : Reuss Voigt Hill
#
# Bulk Modulus (GPa) = 135.77217 144.83830 140.30523
# Shear Modulus (GPa) = 4.32193 50.85749 27.58971
#
# Velocity S-wave (km/s) = 1.29822 4.45334 3.28006
# Velocity P-wave (km/s) = 7.42917 9.10625 8.31013
#
# Compressibility (1/GPa) = 0.00736528
#
# Stress axis : x y z
#
# Youngs Moduli (GPa) = 234.06122 223.26447 184.06362
#
# Poissons Ratio (x) = 0.34664 0.14228
# Poissons Ratio (y) = 0.36340 0.19951
# Poissons Ratio (z) = 0.18093 0.24200
#
# Static dielectric constant tensor:
#      x y z
#    x 1.988090 0.000000 -0.004960 
#    y 0.000000 2.056970 0.000000 
#    z -0.004960 0.000000 2.025800 
# 
# From -- ./inp_files/211111.got.cif
#   From: 2010.05.17/outbox.cif.g08.bks.cpg/sg12_106_cif.got.tgz:211111.got - 2010.06.03 13:09:07.
