data_PCOD9189209
_publ_section_title
;
Structure prediction by ZEFSAII (Michael W. Deem and Ramdas Pophale) SiO2 
 PCOD9189209
Probable space group: C 2/M
;
_chemical_formula_sum "Si O2"
_cell_formula_units_Z 42
_cell_length_a 6.917580
_cell_length_b 17.990315
_cell_length_c 15.105270
_cell_angle_alpha 90.000000
_cell_angle_beta 70.734082
_cell_angle_gamma 90.000000
_cell_volume 1774.566356
_symmetry_space_group_name_H-M "C 2/M"
_symmetry_group_IT_number 12
_symmetry_cell_setting 'monoclinic'
loop_
_space_group_symop_operation_xyz
x,y,z
-x,y,-z
-x,-y,-z
x,-y,z
1/2+x,1/2+y,z
1/2-x,1/2+y,-z
1/2-x,1/2-y,-z
1/2+x,1/2-y,z
loop_
_atom_site_type_symbol
_atom_site_label
_atom_site_fract_x
_atom_site_fract_y
_atom_site_fract_z
Si Si1 0.372027 0.137564 0.127937
Si Si2 0.792739 0.650302 0.334256
Si Si3 0.750571 0.414651 0.527019
Si Si4 0.762024 0.176777 0.304496
Si Si5 0.000000 0.500000 0.000000
Si Si6 0.830956 0.808136 0.097831
O O1 0.268969 0.120920 0.238363
O O2 0.362035 0.066273 0.068091
O O3 0.614747 0.153403 0.109882
O O4 0.304785 0.218215 0.100387
O O5 0.703453 0.612341 0.434889
O O6 0.739968 0.737405 0.335617
O O7 0.037326 0.647334 0.314892
O O8 0.694431 0.500000 0.546854
O O9 0.660867 0.366251 0.621005
O O10 0.000000 0.409011 0.500000
O O11 0.880870 0.173481 0.193248
O O12 0.000000 0.829173 0.000000
#
# Coordination Sequence:
#
# PCOD9189209 Si02
#       6
#     8   8   8   8   2   8
#     4  10  22  36  60  82 114 142 189 228 275 322
#     4   9  18  33  55  80 101 138 176 219 260 320
#     4   9  17  30  51  77 107 137 170 216 270 314
#     4   9  18  32  53  81 102 134 181 221 254 312
#     4  12  24  36  54  88 118 140 178 240 278 320
#     4  10  19  37  60  80 106 151 189 223 266 333
#
# _framework density 23.667756000000001
#
# number of rings (size 3 to 8) (size 9 to 14) (size 15 to 20)
#    0.000    2.476    0.952    1.143    1.333    0.000 
#    5.143    0.476    0.000    2.286    0.000    0.000 
#    0.000    0.000    0.000    0.000    0.000    0.000 
#
# Total GULP energy -117176.309196 kJ/mol
# GULP energy per Si atom -5579.824247 kJ/mol
# Density = 2.361389 g / cm^3
# Si number density = 23.667756 Si / 1000 Ang^3
#
#
#
# Elastic Constant Matrix: (Units=GPa)
#
#
# Indices 1 2 3 4 5 6 
#
# 1 67.7261 -5.4977 12.2758 0.0000 -6.9987 0.0000
# 2 -5.4977 100.4513 96.6025 0.0000 9.4180 0.0000
# 3 12.2758 96.6025 198.9021 0.0000 -15.1789 0.0000
# 4 0.0000 0.0000 0.0000 22.2687 0.0000 -3.1456
# 5 -6.9987 9.4180 -15.1789 0.0000 43.1186 0.0000
# 6 0.0000 0.0000 0.0000 -3.1456 0.0000 19.1922
#
#
#
# Elastic Compliance Matrix: (Units=1/GPa)
#
#
# Indices 1 2 3 4 5 6 
#
# 1 0.015540 0.002999 -0.002336 0.000000 0.001045 0.000000
# 2 0.002999 0.021939 -0.011477 0.000000 -0.008346 0.000000
# 3 -0.002336 -0.011477 0.011210 0.000000 0.006074 0.000000
# 4 0.000000 0.000000 0.000000 0.045970 0.000000 0.007534
# 5 0.001045 -0.008346 0.006074 0.000000 0.027322 0.000000
# 6 0.000000 0.000000 0.000000 0.007534 0.000000 0.053339
#
#
# Mechanical properties :
#
#
# Convention : Reuss Voigt Hill
#
# Bulk Modulus (GPa) = 36.95445 63.76009 50.35727
# Shear Modulus (GPa) = 24.27536 34.49583 29.38559
#
# Velocity S-wave (km/s) = 3.20609 3.82187 3.52744
# Velocity P-wave (km/s) = 5.41785 6.81716 6.15738
#
# Compressibility (1/GPa) = 0.02706034
#
# Stress axis : x y z
#
# Youngs Moduli (GPa) = 64.34930 45.58026 89.20915
#
# Poissons Ratio (x) = -0.13669 0.20838
# Poissons Ratio (y) = -0.19298 1.02389
# Poissons Ratio (z) = 0.15031 0.52314
#
# Static dielectric constant tensor:
#      x y z
#    x 2.023090 0.000000 0.007660 
#    y 0.000000 1.825970 0.000000 
#    z 0.007660 0.000000 1.919760 
# 
# From -- ./inp_files/195359.got.cif
#   From: 2010.05.17/outbox.cif.g08.bks.cpg/sg12_98_cif.got.tgz:195359.got - 2010.06.03 13:09:07.
