data_PCOD9189710
_publ_section_title
;
Structure prediction by ZEFSAII (Michael W. Deem and Ramdas Pophale) SiO2 
 PCOD9189710
Probable space group: C 2/M
;
_chemical_formula_sum "Si O2"
_cell_formula_units_Z 52
_cell_length_a 25.979308
_cell_length_b 14.052240
_cell_length_c 8.461443
_cell_angle_alpha 90.000000
_cell_angle_beta 122.090303
_cell_angle_gamma 90.000000
_cell_volume 2617.035356
_symmetry_space_group_name_H-M "C 2/M"
_symmetry_group_IT_number 12
_symmetry_cell_setting 'monoclinic'
loop_
_space_group_symop_operation_xyz
x,y,z
-x,y,-z
-x,-y,-z
x,-y,z
1/2+x,1/2+y,z
1/2-x,1/2+y,-z
1/2-x,1/2-y,-z
1/2+x,1/2-y,z
loop_
_atom_site_type_symbol
_atom_site_label
_atom_site_fract_x
_atom_site_fract_y
_atom_site_fract_z
Si Si1 0.259514 0.763882 0.832000
Si Si2 0.466609 0.675210 0.612655
Si Si3 0.367257 0.239496 0.797202
Si Si4 0.542629 0.103625 0.417475
Si Si5 0.825435 0.393152 0.456525
Si Si6 0.000000 0.816318 0.000000
Si Si7 0.163674 0.888433 0.517201
O O1 0.329398 0.767249 0.895105
O O2 0.225787 0.676568 0.689836
O O3 0.223593 0.855229 0.706871
O O4 0.250000 0.750000 0.000000
O O5 0.500000 0.657181 0.500000
O O6 0.470849 0.788614 0.660427
O O7 0.396218 0.645410 0.484197
O O8 0.489739 0.628962 0.815683
O O9 0.351730 0.148906 0.662866
O O10 0.438328 0.257266 0.929460
O O11 0.341649 0.328558 0.653172
O O12 0.500000 0.097134 0.500000
O O13 0.615494 0.107127 0.561743
O O14 0.533392 0.000000 0.316037
O O15 0.803209 0.500000 0.438938
O O16 0.162168 0.000000 0.488574
#
# Coordination Sequence:
#
# PCOD9189710 Si02
#       7
#     8   8   8   8   8   4   8
#     4  11  24  38  60  90 120 156 198 249 309 364
#     4  10  20  36  62  86 124 167 202 254 312 360
#     4  10  22  40  60  88 119 156 201 248 302 361
#     4   9  16  29  54  85 116 154 196 238 296 363
#     4  10  19  38  61  86 117 157 201 242 301 362
#     4  10  20  38  60  92 118 156 208 248 302 362
#     4  10  21  41  62  86 118 159 208 251 303 365
#
# _framework density 19.869812
#
# number of rings (size 3 to 8) (size 9 to 14) (size 15 to 20)
#    0.000    2.000    4.615    1.846    2.154    3.385 
#    0.000    7.692    0.000    0.000    0.000    0.000 
#    0.000    0.000    0.000    0.000    0.000    0.000 
#
# Total GULP energy -144776.944550 kJ/mol
# GULP energy per Si atom -5568.344021 kJ/mol
# Density = 1.982459 g / cm^3
# Si number density = 19.869812 Si / 1000 Ang^3
#
#
#
# Elastic Constant Matrix: (Units=GPa)
#
#
# Indices 1 2 3 4 5 6 
#
# 1 161.0771 -1.9836 31.1466 0.0000 0.6305 0.0000
# 2 -1.9836 103.6429 -0.2284 0.0000 -2.0192 0.0000
# 3 31.1466 -0.2284 59.0469 0.0000 8.7794 0.0000
# 4 0.0000 0.0000 0.0000 2.1041 0.0000 2.2103
# 5 0.6305 -2.0192 8.7794 0.0000 17.8851 0.0000
# 6 0.0000 0.0000 0.0000 2.2103 0.0000 12.0723
#
#
#
# Elastic Compliance Matrix: (Units=1/GPa)
#
#
# Indices 1 2 3 4 5 6 
#
# 1 0.006962 0.000158 -0.003925 0.000000 0.001699 0.000000
# 2 0.000158 0.009674 -0.000224 0.000000 0.001196 0.000000
# 3 -0.003925 -0.000224 0.020483 0.000000 -0.009942 0.000000
# 4 0.000000 0.000000 0.000000 0.588421 0.000000 -0.107731
# 5 0.001699 0.001196 -0.009942 0.000000 0.060868 0.000000
# 6 0.000000 0.000000 0.000000 -0.107731 0.000000 0.102559
#
#
# Mechanical properties :
#
#
# Convention : Reuss Voigt Hill
#
# Bulk Modulus (GPa) = 34.31842 42.40400 38.36121
# Shear Modulus (GPa) = 6.19839 26.06779 16.13309
#
# Velocity S-wave (km/s) = 1.76813 3.62599 2.85255
# Velocity P-wave (km/s) = 4.63438 6.23840 5.49523
#
# Compressibility (1/GPa) = 0.02913887
#
# Stress axis : x y z
#
# Youngs Moduli (GPa) = 143.62927 103.36610 48.82059
#
# Poissons Ratio (x) = -0.01630 0.19160
# Poissons Ratio (y) = -0.02265 0.01092
# Poissons Ratio (z) = 0.56368 0.02312
#
# Static dielectric constant tensor:
#      x y z
#    x 1.734560 0.000000 -0.009060 
#    y 0.000000 1.729730 0.000000 
#    z -0.009060 0.000000 1.695990 
# 
# From -- ./inp_files/104766.got.cif
#   From: 2010.05.17/outbox.cif.g08.bks.cpg/sg12_53_cif.got.tgz:104766.got - 2010.06.03 13:09:07.
