data_PCOD9189928
_publ_section_title
;
Structure prediction by ZEFSAII (Michael W. Deem and Ramdas Pophale) SiO2 
 PCOD9189928
Probable space group: C 2/M
;
_chemical_formula_sum "Si O2"
_cell_formula_units_Z 32
_cell_length_a 13.097104
_cell_length_b 24.214063
_cell_length_c 8.583658
_cell_angle_alpha 90.000000
_cell_angle_beta 146.665676
_cell_angle_gamma 90.000000
_cell_volume 1495.896545
_symmetry_space_group_name_H-M "C 2/M"
_symmetry_group_IT_number 12
_symmetry_cell_setting 'monoclinic'
loop_
_space_group_symop_operation_xyz
x,y,z
-x,y,-z
-x,-y,-z
x,-y,z
1/2+x,1/2+y,z
1/2-x,1/2+y,-z
1/2-x,1/2-y,-z
1/2+x,1/2-y,z
loop_
_atom_site_type_symbol
_atom_site_label
_atom_site_fract_x
_atom_site_fract_y
_atom_site_fract_z
Si Si1 0.531731 0.500000 0.856650
Si Si2 0.851905 0.193418 0.674875
Si Si3 0.993344 0.619759 0.799861
Si Si4 0.393266 0.000000 0.703353
Si Si5 0.897607 0.113193 0.210748
O O1 0.321624 0.500000 0.526016
O O2 0.619987 0.557620 0.914616
O O3 0.500000 0.500000 0.000000
O O4 0.750000 0.250000 0.500000
O O5 0.677113 0.153962 0.486393
O O6 0.972028 0.159646 0.700357
O O7 0.000000 0.203231 0.000000
O O8 0.951143 0.556677 0.698371
O O9 0.000000 0.624131 0.000000
O O10 0.194423 0.635889 0.992700
O O11 0.500000 0.000000 0.000000
O O12 0.000000 0.095611 0.500000
#
# Coordination Sequence:
#
# PCOD9189928 Si02
#       5
#     4   8   8   4   8
#     4  12  24  44  73 112 154 188 235 301 359 438
#     4  12  28  50  73 103 145 188 247 312 364 429
#     4  11  22  44  72 108 145 189 241 298 361 436
#     4  10  19  38  68  98 146 185 222 286 352 427
#     4  12  24  45  79 108 145 196 242 292 372 437
#
# _framework density 21.391853000000001
#
# number of rings (size 3 to 8) (size 9 to 14) (size 15 to 20)
#    0.000    0.500    5.000    4.125    0.000    2.000 
#    0.000    1.250    0.000    0.000    0.000    0.000 
#    0.000    0.000    0.000    0.000    0.000    0.000 
#
# Total GULP energy -89422.009865 kJ/mol
# GULP energy per Si atom -5588.875617 kJ/mol
# Density = 2.134316 g / cm^3
# Si number density = 21.391853 Si / 1000 Ang^3
#
#
#
# Elastic Constant Matrix: (Units=GPa)
#
#
# Indices 1 2 3 4 5 6 
#
# 1 130.0942 56.3618 54.6709 0.0000 29.1102 0.0000
# 2 56.3618 158.9727 59.6085 0.0000 2.5148 0.0000
# 3 54.6709 59.6085 153.6688 0.0000 22.5266 0.0000
# 4 0.0000 0.0000 0.0000 23.3336 0.0000 -30.9681
# 5 29.1102 2.5148 22.5266 0.0000 56.1545 0.0000
# 6 0.0000 0.0000 0.0000 -30.9681 0.0000 -73.8488
#
#
#
# Elastic Compliance Matrix: (Units=1/GPa)
#
#
# Indices 1 2 3 4 5 6 
#
# 1 0.010901 -0.003036 -0.002010 0.000000 -0.004708 0.000000
# 2 -0.003036 0.008247 -0.002439 0.000000 0.002183 0.000000
# 3 -0.002010 -0.002439 0.008500 0.000000 -0.002258 0.000000
# 4 0.000000 0.000000 0.000000 0.027533 0.000000 -0.011546
# 5 -0.004708 0.002183 -0.002258 0.000000 0.021057 0.000000
# 6 0.000000 0.000000 0.000000 -0.011546 0.000000 -0.008699
#
#
# Mechanical properties :
#
#
# Convention : Reuss Voigt Hill
#
# Bulk Modulus (GPa) = 78.88533 87.11314 82.99923
# Shear Modulus (GPa) = 57.64778 19.26749 38.45764
#
# Velocity S-wave (km/s) = 5.19682 3.00441 4.24461
# Velocity P-wave (km/s) = 8.54200 7.26955 7.93133
#
# Compressibility (1/GPa) = 0.01267663
#
# Stress axis : x y z
#
# Youngs Moduli (GPa) = 91.73865 121.25888 117.65188
#
# Poissons Ratio (x) = 0.36820 0.23648
# Poissons Ratio (y) = 0.27856 0.28692
# Poissons Ratio (z) = 0.18440 0.29571
#
# Static dielectric constant tensor:
#      x y z
#    x 1.782050 0.000000 -0.029400 
#    y 0.000000 1.694420 0.000000 
#    z -0.029400 0.000000 1.785410 
# 
# From -- ./inp_files/65681.got.cif
#   From: 2010.05.17/outbox.cif.g08.bks.cpg/sg12_33_cif.got.tgz:65681.got - 2010.06.03 13:09:07.
