data_PCOD9189405
_publ_section_title
;
Structure prediction by ZEFSAII (Michael W. Deem and Ramdas Pophale) SiO2 
 PCOD9189405
Probable space group: C 2/M
;
_chemical_formula_sum "Si O2"
_cell_formula_units_Z 64
_cell_length_a 15.490565
_cell_length_b 17.230888
_cell_length_c 12.752296
_cell_angle_alpha 90.000000
_cell_angle_beta 116.090147
_cell_angle_gamma 90.000000
_cell_volume 3056.958585
_symmetry_space_group_name_H-M "C 2/M"
_symmetry_group_IT_number 12
_symmetry_cell_setting 'monoclinic'
loop_
_space_group_symop_operation_xyz
x,y,z
-x,y,-z
-x,-y,-z
x,-y,z
1/2+x,1/2+y,z
1/2-x,1/2+y,-z
1/2-x,1/2-y,-z
1/2+x,1/2-y,z
loop_
_atom_site_type_symbol
_atom_site_label
_atom_site_fract_x
_atom_site_fract_y
_atom_site_fract_z
Si Si1 0.237031 0.908276 0.973749
Si Si2 0.655107 0.409211 0.288079
Si Si3 0.678402 0.840889 0.772229
Si Si4 0.977024 0.334332 0.872975
Si Si5 0.734924 0.159258 0.464497
Si Si6 0.531613 0.331291 0.896167
Si Si7 0.025940 0.409730 0.343509
Si Si8 0.239427 0.676799 0.227656
O O1 0.129353 0.877512 0.934092
O O2 0.261093 0.883482 0.867891
O O3 0.243899 0.000000 0.990639
O O4 0.301826 0.868190 0.097904
O O5 0.640925 0.500000 0.263828
O O6 0.736034 0.379166 0.250272
O O7 0.697470 0.390270 0.424428
O O8 0.554362 0.366162 0.217867
O O9 0.574608 0.870470 0.677001
O O10 0.693500 0.749078 0.765780
O O11 0.976214 0.398806 0.783996
O O12 0.871125 0.295994 0.822130
O O13 0.042979 0.260464 0.880477
O O14 0.000000 0.364927 0.000000
O O15 0.750000 0.250000 0.500000
O O16 0.624186 0.134210 0.426609
O O17 0.760116 0.146632 0.355587
O O18 0.500000 0.337727 0.000000
O O19 0.029333 0.500000 0.374944
#
# Coordination Sequence:
#
# PCOD9189405 Si02
#       8
#     8   8   8   8   8   8   8   8
#     4  12  25  39  64 103 141 172 217 279 344 397
#     4  12  23  39  67  95 128 170 218 280 336 389
#     4  12  22  42  64  99 138 171 218 271 334 406
#     4  10  19  37  62  89 124 174 224 262 318 396
#     4  11  24  48  67  88 124 174 230 268 320 399
#     4  11  21  41  65  96 131 172 228 274 329 395
#     4  11  24  39  62  96 132 167 210 270 333 392
#     4  11  23  42  67  90 129 178 222 272 331 403
#
# _framework density 20.935842000000001
#
# number of rings (size 3 to 8) (size 9 to 14) (size 15 to 20)
#    0.000    0.750    3.750    5.250    0.000    3.750 
#    0.000    3.125    0.000    1.500    0.000    0.000 
#    0.000    0.000    0.000    0.000    0.000    0.000 
#
# Total GULP energy -178998.870402 kJ/mol
# GULP energy per Si atom -5593.714700 kJ/mol
# Density = 2.088819 g / cm^3
# Si number density = 20.935842 Si / 1000 Ang^3
#
#
#
# Elastic Constant Matrix: (Units=GPa)
#
#
# Indices 1 2 3 4 5 6 
#
# 1 95.7581 40.3374 36.4597 0.0000 17.3941 0.0000
# 2 40.3374 70.2772 16.9792 0.0000 13.5808 0.0000
# 3 36.4597 16.9792 121.0766 0.0000 2.1077 0.0000
# 4 0.0000 0.0000 0.0000 24.4115 0.0000 -2.5395
# 5 17.3941 13.5808 2.1077 0.0000 42.0153 0.0000
# 6 0.0000 0.0000 0.0000 -2.5395 0.0000 15.7654
#
#
#
# Elastic Compliance Matrix: (Units=1/GPa)
#
#
# Indices 1 2 3 4 5 6 
#
# 1 0.015617 -0.007336 -0.003606 0.000000 -0.003913 0.000000
# 2 -0.007336 0.019147 -0.000421 0.000000 -0.003131 0.000000
# 3 -0.003606 -0.000421 0.009384 0.000000 0.001158 0.000000
# 4 0.000000 0.000000 0.000000 0.041662 0.000000 0.006711
# 5 -0.003913 -0.003131 0.001158 0.000000 0.026375 0.000000
# 6 0.000000 0.000000 0.000000 0.006711 0.000000 0.064511
#
#
# Mechanical properties :
#
#
# Convention : Reuss Voigt Hill
#
# Bulk Modulus (GPa) = 46.68346 52.74051 49.71198
# Shear Modulus (GPa) = 24.20556 29.32747 26.76651
#
# Velocity S-wave (km/s) = 3.40395 3.74682 3.57949
# Velocity P-wave (km/s) = 6.14784 6.63057 6.39376
#
# Compressibility (1/GPa) = 0.02142086
#
# Stress axis : x y z
#
# Youngs Moduli (GPa) = 64.03226 52.22723 106.56458
#
# Poissons Ratio (x) = 0.38316 0.38425
# Poissons Ratio (y) = 0.46977 0.04490
# Poissons Ratio (z) = 0.23089 0.02201
#
# Static dielectric constant tensor:
#      x y z
#    x 1.777320 0.000000 -0.014280 
#    y 0.000000 1.728080 0.000000 
#    z -0.014280 0.000000 1.759900 
# 
# From -- ./inp_files/216392.got.cif
#   From: 2010.05.17/outbox.cif.g08.bks.cpg/sg12_109_cif.got.tgz:216392.got - 2010.06.03 13:09:07.
