data_PCOD9189039
_publ_section_title
;
Structure prediction by ZEFSAII (Michael W. Deem and Ramdas Pophale) SiO2 
 PCOD9189039
Probable space group: C 2/M
;
_chemical_formula_sum "Si O2"
_cell_formula_units_Z 28
_cell_length_a 14.264077
_cell_length_b 23.215264
_cell_length_c 9.279545
_cell_angle_alpha 90.000000
_cell_angle_beta 154.595414
_cell_angle_gamma 90.000000
_cell_volume 1318.283460
_symmetry_space_group_name_H-M "C 2/M"
_symmetry_group_IT_number 12
_symmetry_cell_setting 'monoclinic'
loop_
_space_group_symop_operation_xyz
x,y,z
-x,y,-z
-x,-y,-z
x,-y,z
1/2+x,1/2+y,z
1/2-x,1/2+y,-z
1/2-x,1/2-y,-z
1/2+x,1/2-y,z
loop_
_atom_site_type_symbol
_atom_site_label
_atom_site_fract_x
_atom_site_fract_y
_atom_site_fract_z
Si Si1 0.441008 0.326858 0.580798
Si Si2 0.000000 0.380060 0.500000
Si Si3 0.969159 0.934938 0.130583
Si Si4 0.716126 0.290240 0.215678
O O1 0.500000 0.341649 0.500000
O O2 0.272694 0.274159 0.338751
O O3 0.389843 0.385384 0.595385
O O4 0.642250 0.298350 0.948068
O O5 0.783321 0.418695 0.178888
O O6 0.913628 0.335669 0.504486
O O7 0.018746 0.000000 0.245738
O O8 0.000000 0.933081 0.000000
O O9 0.500000 0.307634 0.000000
#
# Coordination Sequence:
#
# PCOD9189039 Si02
#       4
#     8   4   8   8
#     4  11  22  39  61  92 130 162 200 254 307 365
#     4  10  19  36  66  92 115 158 202 254 298 366
#     4  10  23  43  65  88 120 166 214 254 300 362
#     4  11  23  38  61  94 127 164 199 245 311 372
#
# _framework density 21.239740999999999
#
# number of rings (size 3 to 8) (size 9 to 14) (size 15 to 20)
#    0.000    1.429    1.429    5.571    4.000    0.571 
#    0.000    0.000    0.000    0.857    0.000    0.000 
#    0.000    0.000    0.000    0.000    0.000    0.000 
#
# Total GULP energy -77986.368068 kJ/mol
# GULP energy per Si atom -5570.454862 kJ/mol
# Density = 2.119140 g / cm^3
# Si number density = 21.239741 Si / 1000 Ang^3
#
#
#
# Elastic Constant Matrix: (Units=GPa)
#
#
# Indices 1 2 3 4 5 6 
#
# 1 98.1670 24.8944 31.6163 -0.0002 15.4707 -0.0001
# 2 24.8944 205.6527 32.3898 -0.0002 -1.3713 -0.0001
# 3 31.6163 32.3898 55.3141 0.0002 -8.0889 0.0000
# 4 -0.0002 -0.0002 0.0002 57.2253 0.0003 -2.3987
# 5 15.4707 -1.3713 -8.0889 0.0003 32.2547 0.0000
# 6 -0.0001 -0.0001 0.0000 -2.3987 0.0000 36.5155
#
#
#
# Elastic Compliance Matrix: (Units=1/GPa)
#
#
# Indices 1 2 3 4 5 6 
#
# 1 0.014924 -0.000337 -0.009739 0.000000 -0.009615 0.000000
# 2 -0.000337 0.005375 -0.003008 0.000000 -0.000364 0.000000
# 3 -0.009739 -0.003008 0.027063 0.000000 0.011330 0.000000
# 4 0.000000 0.000000 0.000000 0.017523 0.000000 0.001151
# 5 -0.009615 -0.000364 0.011330 0.000000 0.038441 0.000000
# 6 0.000000 0.000000 0.000000 0.001151 0.000000 0.027461
#
#
# Mechanical properties :
#
#
# Convention : Reuss Voigt Hill
#
# Bulk Modulus (GPa) = 47.18207 59.65944 53.42075
# Shear Modulus (GPa) = 30.48415 43.21465 36.84940
#
# Velocity S-wave (km/s) = 3.79257 4.51556 4.16976
# Velocity P-wave (km/s) = 6.43742 7.43886 6.95618
#
# Compressibility (1/GPa) = 0.02119449
#
# Stress axis : x y z
#
# Youngs Moduli (GPa) = 67.00612 186.05847 36.95023
#
# Poissons Ratio (x) = 0.06266 0.35986
# Poissons Ratio (y) = 0.02257 0.11114
# Poissons Ratio (z) = 0.65258 0.55966
#
# Static dielectric constant tensor:
#      x y z
#    x 1.812170 0.000000 -0.015830 
#    y 0.000000 1.823990 0.000000 
#    z -0.015830 0.000000 1.840250 
# 
# From -- ./inp_files/65645.got.cif
#   From: 2010.05.17/outbox.cif.g08.bks.cpg/sg12_33_cif.got.tgz:65645.got - 2010.06.03 13:09:07.
