data_PCOD9189462
_publ_section_title
;
Structure prediction by ZEFSAII (Michael W. Deem and Ramdas Pophale) SiO2 
 PCOD9189462
Probable space group: C 2/M
;
_chemical_formula_sum "Si O2"
_cell_formula_units_Z 38
_cell_length_a 12.071368
_cell_length_b 20.125346
_cell_length_c 12.252202
_cell_angle_alpha 90.000000
_cell_angle_beta 36.027529
_cell_angle_gamma 90.000000
_cell_volume 1750.732276
_symmetry_space_group_name_H-M "C 2/M"
_symmetry_group_IT_number 12
_symmetry_cell_setting 'monoclinic'
loop_
_space_group_symop_operation_xyz
x,y,z
-x,y,-z
-x,-y,-z
x,-y,z
1/2+x,1/2+y,z
1/2-x,1/2+y,-z
1/2-x,1/2-y,-z
1/2+x,1/2-y,z
loop_
_atom_site_type_symbol
_atom_site_label
_atom_site_fract_x
_atom_site_fract_y
_atom_site_fract_z
Si Si1 0.014934 0.872012 0.758311
Si Si2 0.000000 0.500000 0.500000
Si Si3 0.356286 0.754997 0.799412
Si Si4 0.943751 0.396387 0.364740
Si Si5 0.111387 0.000000 0.246104
Si Si6 0.311524 0.000000 0.307557
Si Si7 0.000000 0.196323 0.000000
O O1 0.230635 0.893157 0.579228
O O2 0.979653 0.811457 0.701877
O O3 0.886197 0.933763 0.827630
O O4 0.979628 0.847937 0.908971
O O5 0.952326 0.442244 0.630244
O O6 0.473383 0.822840 0.705929
O O7 0.190576 0.760253 0.842220
O O8 0.250000 0.750000 0.000000
O O9 0.919558 0.435867 0.269886
O O10 0.268445 0.000000 0.214281
O O11 0.901041 0.000000 0.469762
#
# Coordination Sequence:
#
# PCOD9189462 Si02
#       7
#     8   2   8   8   4   4   4
#     4  10  21  37  60  87 117 156 201 252 307 365
#     4  10  20  34  62  98 128 154 200 256 308 368
#     4  10  22  38  56  83 119 158 198 245 302 363
#     4  10  19  37  63  91 120 155 201 252 307 367
#     4   9  18  35  56  87 119 151 198 251 310 370
#     4   8  18  34  57  85 117 150 192 250 304 363
#     4  10  22  39  56  81 122 158 198 258 310 361
#
# _framework density 21.705203999999998
#
# number of rings (size 3 to 8) (size 9 to 14) (size 15 to 20)
#    0.000    2.316    0.000    2.526    0.000    3.789 
#    0.000   18.947    0.000    5.684    0.000    0.000 
#    0.000    0.000    0.000    0.000    0.000    0.000 
#
# Total GULP energy -105792.463896 kJ/mol
# GULP energy per Si atom -5568.024416 kJ/mol
# Density = 2.165580 g / cm^3
# Si number density = 21.705204 Si / 1000 Ang^3
#
#
#
# Elastic Constant Matrix: (Units=GPa)
#
#
# Indices 1 2 3 4 5 6 
#
# 1 139.0562 67.8359 8.3464 -0.0012 14.4281 -0.0012
# 2 67.8359 155.7400 -4.1405 -0.0047 14.2414 0.0048
# 3 8.3464 -4.1405 23.8289 -0.0021 1.1691 0.0016
# 4 -0.0012 -0.0047 -0.0021 1.2551 0.0020 29.2623
# 5 14.4281 14.2414 1.1691 0.0020 24.9593 -0.0007
# 6 -0.0012 0.0048 0.0016 29.2623 -0.0007 -7.5241
#
#
#
# Elastic Compliance Matrix: (Units=1/GPa)
#
#
# Indices 1 2 3 4 5 6 
#
# 1 0.009734 -0.004059 -0.003961 0.000001 -0.003125 0.000000
# 2 -0.004059 0.008512 0.003031 -0.000001 -0.002652 0.000002
# 3 -0.003961 0.003031 0.043954 -0.000002 -0.001498 0.000004
# 4 0.000001 -0.000001 -0.000002 0.008691 0.000001 0.033801
# 5 -0.003125 -0.002652 -0.001498 0.000001 0.043455 -0.000004
# 6 0.000000 0.000002 0.000004 0.033801 -0.000004 -0.001450
#
#
# Mechanical properties :
#
#
# Convention : Reuss Voigt Hill
#
# Bulk Modulus (GPa) = 19.14968 51.41208 35.28088
# Shear Modulus (GPa) = 35.64256 20.17693 27.90975
#
# Velocity S-wave (km/s) = 4.05670 3.05222 3.58977
# Velocity P-wave (km/s) = 5.54836 6.01327 5.78548
#
# Compressibility (1/GPa) = 0.05222019
#
# Stress axis : x y z
#
# Youngs Moduli (GPa) = 102.73750 117.47899 22.75128
#
# Poissons Ratio (x) = 0.47687 0.09012
# Poissons Ratio (y) = 0.41703 -0.06896
# Poissons Ratio (z) = 0.40698 -0.35608
#
# Static dielectric constant tensor:
#      x y z
#    x 1.826570 0.000000 -0.044100 
#    y 0.000000 1.802740 0.000000 
#    z -0.044100 0.000000 1.843620 
# 
# From -- ./inp_files/47207.got.cif
#   From: 2010.05.17/outbox.cif.g08.bks.cpg/sg12_24_cif.got.tgz:47207.got - 2010.06.03 13:09:07.
