data_PCOD9189508
_publ_section_title
;
Structure prediction by ZEFSAII (Michael W. Deem and Ramdas Pophale) SiO2 
 PCOD9189508
Probable space group: C 2/M
;
_chemical_formula_sum "Si O2"
_cell_formula_units_Z 48
_cell_length_a 21.328457
_cell_length_b 7.708347
_cell_length_c 32.782414
_cell_angle_alpha 90.000000
_cell_angle_beta 152.201859
_cell_angle_gamma 90.000000
_cell_volume 2513.512212
_symmetry_space_group_name_H-M "C 2/M"
_symmetry_group_IT_number 12
_symmetry_cell_setting 'monoclinic'
loop_
_space_group_symop_operation_xyz
x,y,z
-x,y,-z
-x,-y,-z
x,-y,z
1/2+x,1/2+y,z
1/2-x,1/2+y,-z
1/2-x,1/2-y,-z
1/2+x,1/2-y,z
loop_
_atom_site_type_symbol
_atom_site_label
_atom_site_fract_x
_atom_site_fract_y
_atom_site_fract_z
Si Si1 0.626419 0.700977 0.958079
Si Si2 0.669216 0.801989 0.231061
Si Si3 0.280849 0.000000 0.348924
Si Si4 0.357821 0.210302 0.938626
Si Si5 0.327792 0.290255 0.240544
Si Si6 0.891570 0.793994 0.561305
Si Si7 0.585080 0.000000 0.491234
O O1 0.595634 0.500000 0.933824
O O2 0.489892 0.800664 0.868486
O O3 0.750000 0.750000 0.000000
O O4 0.656945 0.729033 0.023492
O O5 0.708647 0.669507 0.289246
O O6 0.742144 0.739463 0.231287
O O7 0.713600 0.000000 0.264819
O O8 0.434286 0.000000 0.421591
O O9 0.299970 0.000000 0.408301
O O10 0.241630 0.271802 0.840870
O O11 0.357381 0.000000 0.939673
O O12 0.500000 0.262428 0.000000
O O13 0.319721 0.500000 0.234575
O O14 0.482435 0.245035 0.337202
O O15 0.750000 0.750000 0.500000
O O16 0.902711 0.672943 0.528475
O O17 0.901096 0.000000 0.558237
#
# Coordination Sequence:
#
# PCOD9189508 Si02
#       7
#     8   8   4   8   8   8   4
#     4  12  25  42  61  90 131 176 217 264 322 382
#     4  11  21  41  67  91 126 171 217 264 319 382
#     4  11  24  42  66  98 127 165 214 269 319 395
#     4  10  19  37  64  94 126 161 209 262 314 379
#     4   9  19  36  63  93 123 162 211 262 316 374
#     4  11  22  41  65  92 129 171 211 267 330 382
#     4  11  24  42  66  97 130 161 215 267 329 395
#
# _framework density 19.096782999999999
#
# number of rings (size 3 to 8) (size 9 to 14) (size 15 to 20)
#    0.000    1.333    5.000    1.500    0.000    1.000 
#    6.000    1.667    0.000    0.000    0.000    0.000 
#    0.000    0.000    0.000    0.000    0.000    0.000 
#
# Total GULP energy -134046.516115 kJ/mol
# GULP energy per Si atom -5585.271505 kJ/mol
# Density = 1.905332 g / cm^3
# Si number density = 19.096783 Si / 1000 Ang^3
#
#
#
# Elastic Constant Matrix: (Units=GPa)
#
#
# Indices 1 2 3 4 5 6 
#
# 1 90.7270 21.6325 67.6656 0.0001 -5.3387 0.0008
# 2 21.6325 97.1611 32.5787 0.0001 -16.9580 0.0021
# 3 67.6656 32.5787 156.2804 0.0001 -13.4454 0.0004
# 4 0.0001 0.0001 0.0001 22.5952 0.0000 0.0402
# 5 -5.3387 -16.9580 -13.4454 0.0000 43.3092 -0.0001
# 6 0.0008 0.0021 0.0004 0.0402 -0.0001 25.1627
#
#
#
# Elastic Compliance Matrix: (Units=1/GPa)
#
#
# Indices 1 2 3 4 5 6 
#
# 1 0.016465 -0.001479 -0.006880 0.000000 -0.000685 0.000000
# 2 -0.001479 0.011813 -0.001480 0.000000 0.003984 -0.000001
# 3 -0.006880 -0.001480 0.009826 0.000000 0.001623 0.000000
# 4 0.000000 0.000000 0.000000 0.044257 0.000000 -0.000071
# 5 -0.000685 0.003984 0.001623 0.000000 0.025069 0.000000
# 6 0.000000 -0.000001 0.000000 -0.000071 0.000000 0.039741
#
#
# Mechanical properties :
#
#
# Convention : Reuss Voigt Hill
#
# Bulk Modulus (GPa) = 54.26613 65.32468 59.79540
# Shear Modulus (GPa) = 28.90336 33.03288 30.96812
#
# Velocity S-wave (km/s) = 3.89462 4.16355 4.03133
# Velocity P-wave (km/s) = 6.97869 7.57595 7.28344
#
# Compressibility (1/GPa) = 0.01842770
#
# Stress axis : x y z
#
# Youngs Moduli (GPa) = 60.73346 84.65376 101.77484
#
# Poissons Ratio (x) = 0.12518 0.70019
# Poissons Ratio (y) = 0.08981 0.15058
# Poissons Ratio (z) = 0.41783 0.12525
#
# Static dielectric constant tensor:
#      x y z
#    x 1.650650 0.000000 0.002690 
#    y 0.000000 1.682420 0.000000 
#    z 0.002690 0.000000 1.669860 
# 
# From -- ./inp_files/378584.got.cif
#   From: 2010.05.17/outbox.cif.g08.bks.cpg/sg12_190_cif.got.tgz:378584.got - 2010.06.03 13:09:07.
