data_PCOD9189192
_publ_section_title
;
Structure prediction by ZEFSAII (Michael W. Deem and Ramdas Pophale) SiO2 
 PCOD9189192
Probable space group: C 2/M
;
_chemical_formula_sum "Si O2"
_cell_formula_units_Z 60
_cell_length_a 27.148030
_cell_length_b 21.544407
_cell_length_c 14.580157
_cell_angle_alpha 90.000000
_cell_angle_beta 18.742834
_cell_angle_gamma 90.000000
_cell_volume 2740.149235
_symmetry_space_group_name_H-M "C 2/M"
_symmetry_group_IT_number 12
_symmetry_cell_setting 'monoclinic'
loop_
_space_group_symop_operation_xyz
x,y,z
-x,y,-z
-x,-y,-z
x,-y,z
1/2+x,1/2+y,z
1/2-x,1/2+y,-z
1/2-x,1/2-y,-z
1/2+x,1/2-y,z
loop_
_atom_site_type_symbol
_atom_site_label
_atom_site_fract_x
_atom_site_fract_y
_atom_site_fract_z
Si Si1 0.573501 0.815036 0.470948
Si Si2 0.641581 0.705569 0.131040
Si Si3 0.000000 0.898068 0.500000
Si Si4 0.596698 0.762039 0.921392
Si Si5 0.337291 0.072320 0.341776
Si Si6 0.843576 0.067464 0.594287
Si Si7 0.388799 0.334790 0.365168
Si Si8 0.988842 0.377849 0.802417
O O1 0.500000 0.829462 0.500000
O O2 0.509082 0.747325 0.614258
O O3 0.525873 0.863407 0.632148
O O4 0.755310 0.810055 0.137580
O O5 0.611858 0.646563 0.245840
O O6 0.750000 0.750000 0.000000
O O7 0.908592 0.932438 0.582232
O O8 0.538497 0.694651 0.055493
O O9 0.553446 0.812790 0.074155
O O10 0.500000 0.775692 0.000000
O O11 0.773720 0.776620 0.587211
O O12 0.210872 0.118223 0.522236
O O13 0.376086 0.091568 0.377164
O O14 0.294132 0.000000 0.411152
O O15 0.500000 0.079614 0.000000
O O16 0.914707 0.124231 0.410771
O O17 0.872628 0.000000 0.500561
O O18 0.662636 0.080471 0.918698
#
# Coordination Sequence:
#
# PCOD9189192 Si02
#       8
#     8   8   4   8   8   8   8   8
#     4  10  21  35  57  90 137 168 207 257 331 399
#     4  10  19  37  59  89 133 168 207 260 321 407
#     4  12  23  40  66  94 128 174 229 276 334 376
#     4  11  22  38  62  99 143 163 208 267 347 396
#     4  11  20  40  67  94 126 171 229 275 310 381
#     4  11  24  43  66  93 125 177 236 274 317 388
#     4  11  23  41  65 101 134 170 207 273 335 404
#     4  11  22  37  66  97 129 168 216 277 331 385
#
# _framework density 21.896616999999999
#
# number of rings (size 3 to 8) (size 9 to 14) (size 15 to 20)
#    0.000    1.200    6.000    3.000    1.867    1.067 
#    0.000    0.000    0.000   12.000    0.000    0.000 
#    0.000    0.000    0.000    0.000    0.000    0.000 
#
# Total GULP energy -167788.092617 kJ/mol
# GULP energy per Si atom -5592.936421 kJ/mol
# Density = 2.184678 g / cm^3
# Si number density = 21.896617 Si / 1000 Ang^3
#
#
#
# Elastic Constant Matrix: (Units=GPa)
#
#
# Indices 1 2 3 4 5 6 
#
# 1 137.2272 28.4585 15.1025 0.0003 -10.8051 -0.0005
# 2 28.4585 114.1691 29.8648 0.0028 -1.9467 -0.0016
# 3 15.1025 29.8648 55.3497 0.0040 9.5430 -0.0008
# 4 0.0003 0.0028 0.0040 12.8827 0.0006 13.3351
# 5 -10.8051 -1.9467 9.5430 0.0006 30.5668 -0.0006
# 6 -0.0005 -0.0016 -0.0008 13.3351 -0.0006 -3.9827
#
#
#
# Elastic Compliance Matrix: (Units=1/GPa)
#
#
# Indices 1 2 3 4 5 6 
#
# 1 0.008072 -0.001426 -0.002018 0.000000 0.003393 0.000000
# 2 -0.001426 0.010635 -0.005685 0.000001 0.001948 -0.000001
# 3 -0.002018 -0.005685 0.023114 -0.000001 -0.008292 -0.000004
# 4 0.000000 0.000001 -0.000001 0.017381 0.000001 0.058198
# 5 0.003393 0.001948 -0.008292 0.000001 0.036627 -0.000001
# 6 0.000000 -0.000001 -0.000004 0.058198 -0.000001 -0.056224
#
#
# Mechanical properties :
#
#
# Convention : Reuss Voigt Hill
#
# Bulk Modulus (GPa) = 42.43885 50.39974 46.41930
# Shear Modulus (GPa) = 76.08206 23.44805 49.76505
#
# Velocity S-wave (km/s) = 5.90097 3.27594 4.77249
# Velocity P-wave (km/s) = 8.11493 6.11360 7.18430
#
# Compressibility (1/GPa) = 0.02356331
#
# Stress axis : x y z
#
# Youngs Moduli (GPa) = 123.88199 94.03129 43.26306
#
# Poissons Ratio (x) = 0.13413 0.08730
# Poissons Ratio (y) = 0.17671 0.24594
# Poissons Ratio (z) = 0.24997 0.53455
#
# Static dielectric constant tensor:
#      x y z
#    x 1.867000 0.000000 -0.026590 
#    y 0.000000 1.790660 0.000000 
#    z -0.026590 0.000000 1.818400 
# 
# From -- ./inp_files/247421.got.cif
#   From: 2010.05.17/outbox.cif.g08.bks.cpg/sg12_124_cif.got.tgz:247421.got - 2010.06.03 13:09:07.
