data_PCOD9189889
_publ_section_title
;
Structure prediction by ZEFSAII (Michael W. Deem and Ramdas Pophale) SiO2 
 PCOD9189889
Probable space group: C 2/M
;
_chemical_formula_sum "Si O2"
_cell_formula_units_Z 52
_cell_length_a 9.316468
_cell_length_b 17.421704
_cell_length_c 19.422190
_cell_angle_alpha 90.000000
_cell_angle_beta 135.574874
_cell_angle_gamma 90.000000
_cell_volume 2206.600146
_symmetry_space_group_name_H-M "C 2/M"
_symmetry_group_IT_number 12
_symmetry_cell_setting 'monoclinic'
loop_
_space_group_symop_operation_xyz
x,y,z
-x,y,-z
-x,-y,-z
x,-y,z
1/2+x,1/2+y,z
1/2-x,1/2+y,-z
1/2-x,1/2-y,-z
1/2+x,1/2-y,z
loop_
_atom_site_type_symbol
_atom_site_label
_atom_site_fract_x
_atom_site_fract_y
_atom_site_fract_z
Si Si1 0.000000 0.698990 0.000000
Si Si2 0.824681 0.089867 0.036977
Si Si3 0.140810 0.587791 0.278108
Si Si4 0.784753 0.844296 0.868689
Si Si5 0.375227 0.817795 0.387018
Si Si6 0.514415 0.325361 0.662311
Si Si7 0.273097 0.914836 0.537020
O O1 0.166505 0.645025 0.021245
O O2 0.126312 0.758542 0.091844
O O3 0.062694 0.112230 0.131030
O O4 0.788443 0.000000 0.035941
O O5 0.799003 0.112954 0.947954
O O6 0.073430 0.500000 0.242405
O O7 0.291941 0.617824 0.270843
O O8 0.254247 0.588321 0.390664
O O9 0.953081 0.644966 0.225964
O O10 0.500000 0.794262 0.500000
O O11 0.406233 0.755642 0.338104
O O12 0.137447 0.824238 0.325336
O O13 0.492543 0.894103 0.402354
O O14 0.365687 0.355494 0.550617
O O15 0.222023 0.000000 0.495025
#
# Coordination Sequence:
#
# PCOD9189889 Si02
#       7
#     4   8   8   8   8   8   8
#     4  10  21  40  63  94 124 148 196 244 289 354
#     4  10  19  38  66  91 119 154 193 239 294 351
#     4  11  22  37  58  85 117 153 200 245 292 351
#     4  10  20  39  61  86 121 161 196 233 292 363
#     4  10  20  36  57  79 110 147 198 248 298 353
#     4  11  21  37  58  82 113 155 201 247 296 347
#     4  10  21  37  58  83 114 153 200 250 297 343
#
# _framework density 23.565664999999999
#
# number of rings (size 3 to 8) (size 9 to 14) (size 15 to 20)
#    0.000    1.846    0.000    8.538    0.000    4.615 
#   11.077    0.000    0.000    1.846    0.000    0.000 
#    0.000    0.000    0.000    0.000    0.000    0.000 
#
# Total GULP energy -145388.168857 kJ/mol
# GULP energy per Si atom -5591.852648 kJ/mol
# Density = 2.351203 g / cm^3
# Si number density = 23.565665 Si / 1000 Ang^3
#
#
#
# Elastic Constant Matrix: (Units=GPa)
#
#
# Indices 1 2 3 4 5 6 
#
# 1 165.9705 68.7221 23.7903 0.0001 40.3501 0.0003
# 2 68.7221 146.6675 13.6250 0.0000 17.7216 0.0002
# 3 23.7903 13.6250 30.2098 0.0001 15.7005 0.0005
# 4 0.0001 0.0000 0.0001 54.9227 0.0001 111.7120
# 5 40.3501 17.7216 15.7005 0.0001 32.6863 0.0003
# 6 0.0003 0.0002 0.0005 111.7120 0.0003 276.8576
#
#
#
# Elastic Compliance Matrix: (Units=1/GPa)
#
#
# Indices 1 2 3 4 5 6 
#
# 1 0.010017 -0.003379 -0.001186 0.000000 -0.009963 0.000000
# 2 -0.003379 0.008498 -0.001259 0.000000 0.000169 0.000000
# 3 -0.001186 -0.001259 0.044629 0.000000 -0.019290 0.000000
# 4 0.000000 0.000000 0.000000 0.101555 0.000000 -0.040977
# 5 -0.009963 0.000169 -0.019290 0.000000 0.052067 0.000000
# 6 0.000000 0.000000 0.000000 -0.040977 0.000000 0.020146
#
#
# Mechanical properties :
#
#
# Convention : Reuss Voigt Hill
#
# Bulk Modulus (GPa) = 19.41951 61.68030 40.54990
# Shear Modulus (GPa) = 18.81629 88.67401 53.74515
#
# Velocity S-wave (km/s) = 2.82877 6.14086 4.78080
# Velocity P-wave (km/s) = 4.35060 8.74705 6.90792
#
# Compressibility (1/GPa) = 0.05149462
#
# Stress axis : x y z
#
# Youngs Moduli (GPa) = 99.83338 117.67309 22.40685
#
# Poissons Ratio (x) = 0.39766 0.02657
# Poissons Ratio (y) = 0.33737 0.02822
# Poissons Ratio (z) = 0.11839 0.14820
#
# Static dielectric constant tensor:
#      x y z
#    x 1.890500 0.000000 0.039340 
#    y 0.000000 1.850330 0.000000 
#    z 0.039340 0.000000 2.019100 
# 
# From -- ./inp_files/301189.got.cif
#   From: 2010.05.17/outbox.cif.g08.bks.cpg/sg12_151_cif.got.tgz:301189.got - 2010.06.03 13:09:07.
