data_PCOD9189524
_publ_section_title
;
Structure prediction by ZEFSAII (Michael W. Deem and Ramdas Pophale) SiO2 
 PCOD9189524
Probable space group: C 2/M
;
_chemical_formula_sum "Si O2"
_cell_formula_units_Z 56
_cell_length_a 9.334505
_cell_length_b 16.565626
_cell_length_c 25.042400
_cell_angle_alpha 90.000000
_cell_angle_beta 137.865131
_cell_angle_gamma 90.000000
_cell_volume 2597.877526
_symmetry_space_group_name_H-M "C 2/M"
_symmetry_group_IT_number 12
_symmetry_cell_setting 'monoclinic'
loop_
_space_group_symop_operation_xyz
x,y,z
-x,y,-z
-x,-y,-z
x,-y,z
1/2+x,1/2+y,z
1/2-x,1/2+y,-z
1/2-x,1/2-y,-z
1/2+x,1/2-y,z
loop_
_atom_site_type_symbol
_atom_site_label
_atom_site_fract_x
_atom_site_fract_y
_atom_site_fract_z
Si Si1 0.215771 0.196052 0.774556
Si Si2 0.750855 0.736824 0.325437
Si Si3 0.201594 0.590709 0.016304
Si Si4 0.453350 0.592585 0.423664
Si Si5 0.440971 0.086648 0.146929
Si Si6 0.076340 0.797681 0.082148
Si Si7 0.874356 0.668414 0.519987
O O1 0.293327 0.254634 0.749135
O O2 0.311888 0.110640 0.784288
O O3 0.337601 0.221300 0.861949
O O4 0.964267 0.206040 0.706950
O O5 0.821726 0.827123 0.367044
O O6 0.937129 0.670956 0.384757
O O7 0.284217 0.500000 0.053001
O O8 0.387841 0.658108 0.063640
O O9 0.000000 0.605035 0.000000
O O10 0.128129 0.585704 0.934198
O O11 0.500000 0.602229 0.500000
O O12 0.371828 0.500000 0.392211
O O13 0.692677 0.601564 0.465975
O O14 0.285225 0.146923 0.134147
O O15 0.405127 0.000000 0.161042
O O16 0.000000 0.784287 0.000000
O O17 0.750000 0.750000 0.500000
O O18 0.000000 0.677265 0.500000
#
# Coordination Sequence:
#
# PCOD9189524 Si02
#       7
#     8   8   8   8   8   8   8
#     4  12  24  39  59  92 125 172 212 264 321 381
#     4  11  22  39  60  91 132 166 206 258 321 377
#     4   9  19  35  62  90 117 154 205 272 332 373
#     4  10  21  40  67  97 128 169 215 258 311 380
#     4  10  22  41  60  84 120 162 209 262 323 386
#     4  10  22  41  63  88 119 168 224 271 311 382
#     4  10  19  37  65  91 121 164 207 256 305 375
#
# _framework density 21.556058
#
# number of rings (size 3 to 8) (size 9 to 14) (size 15 to 20)
#    0.000    1.714    1.429    4.714    2.000    5.429 
#    0.000    0.714    0.000    1.714    0.000    0.000 
#    0.000    0.000    0.000    0.000    0.000    0.000 
#
# Total GULP energy -156121.966185 kJ/mol
# GULP energy per Si atom -5575.784507 kJ/mol
# Density = 2.150700 g / cm^3
# Si number density = 21.556058 Si / 1000 Ang^3
#
#
#
# Elastic Constant Matrix: (Units=GPa)
#
#
# Indices 1 2 3 4 5 6 
#
# 1 92.9516 -9.9392 1.9539 0.0000 17.8273 -0.0001
# 2 -9.9392 52.0162 13.2241 0.0000 19.2880 -0.0001
# 3 1.9539 13.2241 66.0908 0.0000 16.3558 -0.0004
# 4 0.0000 0.0000 0.0000 13.8235 0.0000 -4.2814
# 5 17.8273 19.2880 16.3558 0.0000 42.2760 -0.0001
# 6 -0.0001 -0.0001 -0.0004 -4.2814 -0.0001 -33.5230
#
#
#
# Elastic Compliance Matrix: (Units=1/GPa)
#
#
# Indices 1 2 3 4 5 6 
#
# 1 0.012859 0.005304 0.000552 0.000000 -0.008056 0.000000
# 2 0.005304 0.025628 -0.002032 0.000000 -0.013143 0.000000
# 3 0.000552 -0.002032 0.016974 0.000000 -0.005873 0.000000
# 4 0.000000 0.000000 0.000000 0.069588 0.000000 -0.008887
# 5 -0.008056 -0.013143 -0.005873 0.000000 0.035320 0.000000
# 6 0.000000 0.000000 0.000000 -0.008887 0.000000 -0.028695
#
#
# Mechanical properties :
#
#
# Convention : Reuss Voigt Hill
#
# Bulk Modulus (GPa) = 15.84547 24.61513 20.23030
# Shear Modulus (GPa) = 34.46777 18.23661 26.35219
#
# Velocity S-wave (km/s) = 4.00307 2.91178 3.50021
# Velocity P-wave (km/s) = 5.36030 4.76954 5.07353
#
# Compressibility (1/GPa) = 0.06310953
#
# Stress axis : x y z
#
# Youngs Moduli (GPa) = 77.76730 39.01914 58.91236
#
# Poissons Ratio (x) = -0.20695 -0.03253
# Poissons Ratio (y) = -0.41247 0.11972
# Poissons Ratio (z) = -0.04295 0.07929
#
# Static dielectric constant tensor:
#      x y z
#    x 1.759950 0.000000 -0.002770 
#    y 0.000000 1.824320 0.000000 
#    z -0.002770 0.000000 1.844250 
# 
# From -- ./inp_files/356734.got.cif
#   From: 2010.05.17/outbox.cif.g08.bks.cpg/sg12_179_cif.got.tgz:356734.got - 2010.06.03 13:09:07.
