data_PCOD9189840
_publ_section_title
;
Structure prediction by ZEFSAII (Michael W. Deem and Ramdas Pophale) SiO2 
 PCOD9189840
Probable space group: C 2/M
;
_chemical_formula_sum "Si O2"
_cell_formula_units_Z 44
_cell_length_a 9.501266
_cell_length_b 19.855022
_cell_length_c 11.454523
_cell_angle_alpha 90.000000
_cell_angle_beta 106.125866
_cell_angle_gamma 90.000000
_cell_volume 2075.849156
_symmetry_space_group_name_H-M "C 2/M"
_symmetry_group_IT_number 12
_symmetry_cell_setting 'monoclinic'
loop_
_space_group_symop_operation_xyz
x,y,z
-x,y,-z
-x,-y,-z
x,-y,z
1/2+x,1/2+y,z
1/2-x,1/2+y,-z
1/2-x,1/2-y,-z
1/2+x,1/2-y,z
loop_
_atom_site_type_symbol
_atom_site_label
_atom_site_fract_x
_atom_site_fract_y
_atom_site_fract_z
Si Si1 0.212778 0.269674 0.122613
Si Si2 0.315406 0.421357 0.627274
Si Si3 0.564096 0.926223 0.764274
Si Si4 0.500000 0.885101 0.000000
Si Si5 0.618584 0.826571 0.425810
Si Si6 0.034020 0.202468 0.270611
O O1 0.107493 0.216587 0.162188
O O2 0.365319 0.275682 0.227326
O O3 0.250000 0.250000 0.000000
O O4 0.123667 0.338353 0.086686
O O5 0.338979 0.500000 0.604209
O O6 0.209848 0.419450 0.718140
O O7 0.238165 0.377548 0.507128
O O8 0.453648 0.375094 0.690795
O O9 0.574658 0.921940 0.906758
O O10 0.458821 0.868081 0.694901
O O11 0.502823 0.000000 0.719713
O O12 0.500000 0.818686 0.500000
O O13 0.632472 0.751265 0.376835
#
# Coordination Sequence:
#
# PCOD9189840 Si02
#       6
#     8   8   8   4   8   8
#     4  12  22  39  63  94 126 163 206 262 312 365
#     4  10  22  39  62  90 126 167 206 252 310 371
#     4  10  20  37  61  91 123 163 211 256 306 372
#     4  12  21  38  60  92 127 160 206 256 323 366
#     4  10  19  38  64  93 122 163 211 256 305 367
#     4  12  23  39  65  93 125 160 214 258 305 373
#
# _framework density 21.196144
#
# number of rings (size 3 to 8) (size 9 to 14) (size 15 to 20)
#    0.000    1.091    3.636    4.636    0.000    2.182 
#    0.000    1.818    0.000    6.000    0.000    0.000 
#    0.000    0.000    0.000    0.000    0.000    0.000 
#
# Total GULP energy -122703.769548 kJ/mol
# GULP energy per Si atom -5577.444070 kJ/mol
# Density = 2.114790 g / cm^3
# Si number density = 21.196144 Si / 1000 Ang^3
#
#
#
# Elastic Constant Matrix: (Units=GPa)
#
#
# Indices 1 2 3 4 5 6 
#
# 1 59.6212 16.1826 14.2520 0.0000 12.7288 0.0000
# 2 16.1826 149.3699 25.2088 0.0000 8.9126 0.0000
# 3 14.2520 25.2088 91.2138 0.0000 -10.1521 0.0000
# 4 0.0000 0.0000 0.0000 26.7249 0.0000 3.9167
# 5 12.7288 8.9126 -10.1521 0.0000 25.7740 0.0000
# 6 0.0000 0.0000 0.0000 3.9167 0.0000 14.1008
#
#
#
# Elastic Compliance Matrix: (Units=1/GPa)
#
#
# Indices 1 2 3 4 5 6 
#
# 1 0.020465 -0.000813 -0.004253 0.000000 -0.011501 0.000000
# 2 -0.000813 0.007341 -0.002238 0.000000 -0.003018 0.000000
# 3 -0.004253 -0.002238 0.013142 0.000000 0.008051 0.000000
# 4 0.000000 0.000000 0.000000 0.039006 0.000000 -0.010835
# 5 -0.011501 -0.003018 0.008051 0.000000 0.048693 0.000000
# 6 0.000000 0.000000 0.000000 -0.010835 0.000000 0.073927
#
#
# Mechanical properties :
#
#
# Convention : Reuss Voigt Hill
#
# Bulk Modulus (GPa) = 37.96417 45.72129 41.84273
# Shear Modulus (GPa) = 22.12753 29.62404 25.87578
#
# Velocity S-wave (km/s) = 3.23451 3.74252 3.49775
# Velocity P-wave (km/s) = 5.64794 6.34765 6.00799
#
# Compressibility (1/GPa) = 0.02634063
#
# Stress axis : x y z
#
# Youngs Moduli (GPa) = 48.86309 136.22854 76.09063
#
# Poissons Ratio (x) = 0.11078 0.32361
# Poissons Ratio (y) = 0.03973 0.17026
# Poissons Ratio (z) = 0.20781 0.30482
#
# Static dielectric constant tensor:
#      x y z
#    x 1.760990 0.000000 -0.019300 
#    y 0.000000 1.773230 0.000000 
#    z -0.019300 0.000000 1.823280 
# 
# From -- ./inp_files/120822.got.cif
#   From: 2010.05.17/outbox.cif.g08.bks.cpg/sg12_61_cif.got.tgz:120822.got - 2010.06.03 13:09:07.
