data_PCOD9189146
_publ_section_title
;
Structure prediction by ZEFSAII (Michael W. Deem and Ramdas Pophale) SiO2 
 PCOD9189146
Probable space group: C 2/M
;
_chemical_formula_sum "Si O2"
_cell_formula_units_Z 54
_cell_length_a 13.078156
_cell_length_b 13.672600
_cell_length_c 17.496130
_cell_angle_alpha 90.000000
_cell_angle_beta 119.093769
_cell_angle_gamma 90.000000
_cell_volume 2733.783626
_symmetry_space_group_name_H-M "C 2/M"
_symmetry_group_IT_number 12
_symmetry_cell_setting 'monoclinic'
loop_
_space_group_symop_operation_xyz
x,y,z
-x,y,-z
-x,-y,-z
x,-y,z
1/2+x,1/2+y,z
1/2-x,1/2+y,-z
1/2-x,1/2-y,-z
1/2+x,1/2-y,z
loop_
_atom_site_type_symbol
_atom_site_label
_atom_site_fract_x
_atom_site_fract_y
_atom_site_fract_z
Si Si1 0.338331 0.811854 0.820635
Si Si2 0.968886 0.887595 0.898564
Si Si3 0.500000 0.500000 0.500000
Si Si4 0.164384 0.176173 0.616007
Si Si5 0.633769 0.108426 0.402986
Si Si6 0.545826 0.110991 0.800191
Si Si7 0.310182 0.706444 0.096583
Si Si8 0.000000 0.662681 0.500000
O O1 0.379209 0.698231 0.842501
O O2 0.240015 0.827181 0.720367
O O3 0.451978 0.871194 0.834111
O O4 0.284199 0.841466 0.881870
O O5 0.085598 0.864283 0.892149
O O6 0.930195 0.000000 0.872477
O O7 0.000000 0.876158 0.000000
O O8 0.578285 0.585693 0.571527
O O9 0.260052 0.178270 0.581938
O O10 0.084200 0.270849 0.582151
O O11 0.528640 0.122412 0.304641
O O12 0.583565 0.110880 0.469627
O O13 0.682294 0.000000 0.405534
O O14 0.636424 0.199167 0.840309
O O15 0.592989 0.000000 0.820644
O O16 0.250000 0.750000 0.000000
#
# Coordination Sequence:
#
# PCOD9189146 Si02
#       8
#     8   8   2   8   8   8   8   4
#     4  10  21  38  62  85 120 158 198 249 301 354
#     4  10  21  39  59  84 119 162 202 245 300 366
#     4  10  20  40  66  94 108 164 204 248 304 390
#     4  10  21  38  62  85 120 154 200 243 305 363
#     4  10  19  37  58  83 117 152 190 240 297 353
#     4   9  21  37  58  83 115 155 197 240 295 357
#     4  11  21  36  59  86 119 154 199 252 297 349
#     4  11  21  33  59  88 114 152 193 243 293 359
#
# _framework density 19.752842999999999
#
# number of rings (size 3 to 8) (size 9 to 14) (size 15 to 20)
#    0.000    1.926    2.222    1.556    1.037    1.778 
#    0.000    2.222    0.000    0.000    0.000    0.000 
#    0.000    0.000    0.000    0.000    0.000    0.000 
#
# Total GULP energy -150353.987578 kJ/mol
# GULP energy per Si atom -5568.666207 kJ/mol
# Density = 1.970788 g / cm^3
# Si number density = 19.752843 Si / 1000 Ang^3
#
#
#
# Elastic Constant Matrix: (Units=GPa)
#
#
# Indices 1 2 3 4 5 6 
#
# 1 67.2411 -3.4986 8.4710 0.0000 -23.8075 0.0000
# 2 -3.4986 79.9313 12.6628 0.0000 5.5851 0.0000
# 3 8.4710 12.6628 46.6505 0.0000 -8.6102 0.0000
# 4 0.0000 0.0000 0.0000 -132.7002 0.0000 32.9687
# 5 -23.8075 5.5851 -8.6102 0.0000 35.0029 0.0000
# 6 0.0000 0.0000 0.0000 32.9687 0.0000 11.9022
#
#
#
# Elastic Compliance Matrix: (Units=1/GPa)
#
#
# Indices 1 2 3 4 5 6 
#
# 1 0.019650 0.000138 -0.001197 0.000000 0.013048 0.000000
# 2 0.000138 0.013403 -0.004233 0.000000 -0.003086 0.000000
# 3 -0.001197 -0.004233 0.023860 0.000000 0.005730 0.000000
# 4 0.000000 0.000000 0.000000 -0.004464 0.000000 0.012365
# 5 0.013048 -0.003086 0.005730 0.000000 0.039346 0.000000
# 6 0.000000 0.000000 0.000000 0.012365 0.000000 0.049768
#
#
# Mechanical properties :
#
#
# Convention : Reuss Voigt Hill
#
# Bulk Modulus (GPa) = 21.58485 25.45482 23.51984
# Shear Modulus (GPa) = 29.83474 -5.41316 12.21079
#
# Velocity S-wave (km/s) = 3.89061 -1.65722 2.48902
# Velocity P-wave (km/s) = 5.57975 3.04184 4.49368
#
# Compressibility (1/GPa) = 0.04632880
#
# Stress axis : x y z
#
# Youngs Moduli (GPa) = 50.89108 74.61042 41.91125
#
# Poissons Ratio (x) = -0.01030 0.05018
# Poissons Ratio (y) = -0.00702 0.17740
# Poissons Ratio (z) = 0.06093 0.31580
#
# Static dielectric constant tensor:
#      x y z
#    x 1.700470 0.000000 -0.023280 
#    y 0.000000 1.673960 0.000000 
#    z -0.023280 0.000000 1.646270 
# 
# From -- ./inp_files/263005.got.cif
#   From: 2010.05.17/outbox.cif.g08.bks.cpg/sg12_132_cif.got.tgz:263005.got - 2010.06.03 13:09:07.
