data_PCOD9189335
_publ_section_title
;
Structure prediction by ZEFSAII (Michael W. Deem and Ramdas Pophale) SiO2 
 PCOD9189335
Probable space group: C 2/M
;
_chemical_formula_sum "Si O2"
_cell_formula_units_Z 56
_cell_length_a 25.104886
_cell_length_b 15.176465
_cell_length_c 9.006217
_cell_angle_alpha 90.000000
_cell_angle_beta 53.394005
_cell_angle_gamma 90.000000
_cell_volume 2754.573411
_symmetry_space_group_name_H-M "C 2/M"
_symmetry_group_IT_number 12
_symmetry_cell_setting 'monoclinic'
loop_
_space_group_symop_operation_xyz
x,y,z
-x,y,-z
-x,-y,-z
x,-y,z
1/2+x,1/2+y,z
1/2-x,1/2+y,-z
1/2-x,1/2-y,-z
1/2+x,1/2-y,z
loop_
_atom_site_type_symbol
_atom_site_label
_atom_site_fract_x
_atom_site_fract_y
_atom_site_fract_z
Si Si1 0.203352 0.326828 0.017822
Si Si2 0.895416 0.903052 0.249049
Si Si3 0.620759 0.103108 0.744623
Si Si4 0.031834 0.174502 0.598225
Si Si5 0.350007 0.807334 0.596975
Si Si6 0.764183 0.851251 0.635472
Si Si7 0.417526 0.243971 0.979101
O O1 0.172497 0.362003 0.221751
O O2 0.250000 0.250000 0.000000
O O3 0.246922 0.384398 0.831517
O O4 0.145952 0.281437 0.015118
O O5 0.943835 0.888953 0.309809
O O6 0.822679 0.894143 0.443719
O O7 0.905388 0.826744 0.110315
O O8 0.904765 0.000000 0.168599
O O9 0.616276 0.132586 0.582466
O O10 0.695519 0.132709 0.665888
O O11 0.573741 0.160737 0.927459
O O12 0.612593 0.000000 0.779939
O O13 0.096043 0.232992 0.448819
O O14 0.000000 0.136891 0.500000
O O15 0.977441 0.234971 0.770232
O O16 0.290043 0.749194 0.622633
#
# Coordination Sequence:
#
# PCOD9189335 Si02
#       7
#     8   8   8   8   8   8   8
#     4   9  19  33  63  89 116 160 201 242 304 364
#     4  11  24  40  63  93 125 162 207 251 303 368
#     4  11  22  37  62  93 121 156 201 252 308 368
#     4  11  22  40  65  87 120 165 205 253 308 359
#     4  10  19  37  61  90 118 161 202 249 305 362
#     4   9  19  37  60  88 124 155 197 247 303 362
#     4  11  22  39  64  87 122 162 203 251 304 360
#
# _framework density 20.329827999999999
#
# number of rings (size 3 to 8) (size 9 to 14) (size 15 to 20)
#    0.000    1.714    4.286    1.286    4.000    1.429 
#    0.000    5.000    0.000    1.714    0.000    0.000 
#    0.000    0.000    0.000    0.000    0.000    0.000 
#
# Total GULP energy -156078.809043 kJ/mol
# GULP energy per Si atom -5574.243180 kJ/mol
# Density = 2.028356 g / cm^3
# Si number density = 20.329828 Si / 1000 Ang^3
#
#
#
# Elastic Constant Matrix: (Units=GPa)
#
#
# Indices 1 2 3 4 5 6 
#
# 1 60.3354 5.4944 -10.7383 0.0000 6.4084 0.0000
# 2 5.4944 82.2682 12.8580 0.0000 10.5003 0.0000
# 3 -10.7383 12.8580 60.4655 0.0000 18.8103 0.0000
# 4 0.0000 0.0000 0.0000 -5.3078 0.0000 -0.0912
# 5 6.4084 10.5003 18.8103 0.0000 37.3759 0.0000
# 6 0.0000 0.0000 0.0000 -0.0912 0.0000 2.8930
#
#
#
# Elastic Compliance Matrix: (Units=1/GPa)
#
#
# Indices 1 2 3 4 5 6 
#
# 1 0.018186 -0.001341 0.005178 0.000000 -0.005347 0.000000
# 2 -0.001341 0.012888 -0.002281 0.000000 -0.002243 0.000000
# 3 0.005178 -0.002281 0.021365 0.000000 -0.010999 0.000000
# 4 0.000000 0.000000 0.000000 -0.188301 0.000000 -0.005939
# 5 -0.005347 -0.002243 -0.010999 0.000000 0.033838 0.000000
# 6 0.000000 0.000000 0.000000 -0.005939 0.000000 0.345475
#
#
# Mechanical properties :
#
#
# Convention : Reuss Voigt Hill
#
# Bulk Modulus (GPa) = 18.00171 24.25525 21.12848
# Shear Modulus (GPa) = 19.31578 20.02255 19.66917
#
# Velocity S-wave (km/s) = 3.08575 3.14169 3.11385
# Velocity P-wave (km/s) = 4.64433 5.01169 4.83151
#
# Compressibility (1/GPa) = 0.05555028
#
# Stress axis : x y z
#
# Youngs Moduli (GPa) = 54.98802 77.59320 46.80566
#
# Poissons Ratio (x) = 0.10408 -0.24238
# Poissons Ratio (y) = 0.07376 0.10677
# Poissons Ratio (z) = -0.28475 0.17700
#
# Static dielectric constant tensor:
#      x y z
#    x 1.763240 0.000000 -0.001520 
#    y 0.000000 1.711030 0.000000 
#    z -0.001520 0.000000 1.784390 
# 
# From -- ./inp_files/96755.got.cif
#   From: 2010.05.17/outbox.cif.g08.bks.cpg/sg12_49_cif.got.tgz:96755.got - 2010.06.03 13:09:07.
