data_PCOD9189221
_publ_section_title
;
Structure prediction by ZEFSAII (Michael W. Deem and Ramdas Pophale) SiO2 
 PCOD9189221
Probable space group: C 2/M
;
_chemical_formula_sum "Si O2"
_cell_formula_units_Z 56
_cell_length_a 29.996172
_cell_length_b 7.536852
_cell_length_c 11.469247
_cell_angle_alpha 90.000000
_cell_angle_beta 110.286540
_cell_angle_gamma 90.000000
_cell_volume 2432.091258
_symmetry_space_group_name_H-M "C 2/M"
_symmetry_group_IT_number 12
_symmetry_cell_setting 'monoclinic'
loop_
_space_group_symop_operation_xyz
x,y,z
-x,y,-z
-x,-y,-z
x,-y,z
1/2+x,1/2+y,z
1/2-x,1/2+y,-z
1/2-x,1/2-y,-z
1/2+x,1/2-y,z
loop_
_atom_site_type_symbol
_atom_site_label
_atom_site_fract_x
_atom_site_fract_y
_atom_site_fract_z
Si Si1 0.376453 0.292532 0.561974
Si Si2 0.020511 0.717700 0.891705
Si Si3 0.628248 0.206901 0.987376
Si Si4 0.673028 0.785701 0.262647
Si Si5 0.704931 0.709812 0.879207
Si Si6 0.722214 0.716915 0.631960
Si Si7 0.480901 0.796181 0.605674
O O1 0.378943 0.500000 0.534626
O O2 0.370410 0.269800 0.694898
O O3 0.325809 0.219104 0.472453
O O4 0.423728 0.207415 0.555022
O O5 0.017540 0.500000 0.888614
O O6 0.075274 0.778583 0.935159
O O7 0.996234 0.777592 0.747297
O O8 0.000000 0.772471 0.000000
O O9 0.657328 0.219839 0.894904
O O10 0.622116 0.000000 0.009542
O O11 0.661154 0.278378 0.121730
O O12 0.724777 0.720756 0.353764
O O13 0.675868 0.000000 0.265029
O O14 0.699410 0.500000 0.867201
O O15 0.715825 0.772076 0.759982
O O16 0.750000 0.750000 0.000000
O O17 0.722393 0.500000 0.623812
O O18 0.500000 0.717498 0.500000
O O19 0.498256 0.000000 0.621860
#
# Coordination Sequence:
#
# PCOD9189221 Si02
#       7
#     8   8   8   8   8   8   8
#     4  11  23  38  58  84 115 151 193 234 286 343
#     4   9  18  35  60  86 112 148 192 238 290 347
#     4  10  20  35  60  88 114 148 189 234 289 345
#     4  10  19  37  60  83 115 151 187 230 283 338
#     4  11  21  37  57  82 116 153 190 232 284 339
#     4   9  20  37  56  81 116 154 188 229 280 339
#     4  10  22  40  60  85 115 149 197 249 290 339
#
# _framework density 23.025451
#
# number of rings (size 3 to 8) (size 9 to 14) (size 15 to 20)
#    0.000    2.000    1.429    2.143    2.000    3.143 
#    0.000    3.571    0.000    1.714    0.000    0.000 
#    0.000    0.000    0.000    0.000    0.000    0.000 
#
# Total GULP energy -156319.518898 kJ/mol
# GULP energy per Si atom -5582.839961 kJ/mol
# Density = 2.297304 g / cm^3
# Si number density = 23.025451 Si / 1000 Ang^3
#
#
#
# Elastic Constant Matrix: (Units=GPa)
#
#
# Indices 1 2 3 4 5 6 
#
# 1 188.3715 -9.1647 62.8582 0.0000 -6.5519 0.0000
# 2 -9.1647 53.7939 4.3469 0.0000 5.7527 0.0000
# 3 62.8582 4.3469 109.0233 0.0000 -9.6361 0.0000
# 4 0.0000 0.0000 0.0000 3.7932 0.0000 -1.2026
# 5 -6.5519 5.7527 -9.6361 0.0000 36.8231 0.0000
# 6 0.0000 0.0000 0.0000 -1.2026 0.0000 20.5986
#
#
#
# Elastic Compliance Matrix: (Units=1/GPa)
#
#
# Indices 1 2 3 4 5 6 
#
# 1 0.006685 0.001462 -0.003918 0.000000 -0.000064 0.000000
# 2 0.001462 0.019341 -0.001902 0.000000 -0.003259 0.000000
# 3 -0.003918 -0.001902 0.011744 0.000000 0.002673 0.000000
# 4 0.000000 0.000000 0.000000 0.268600 0.000000 0.015682
# 5 -0.000064 -0.003259 0.002673 0.000000 0.028354 0.000000
# 6 0.000000 0.000000 0.000000 0.015682 0.000000 0.049463
#
#
# Mechanical properties :
#
#
# Convention : Reuss Voigt Hill
#
# Bulk Modulus (GPa) = 34.41985 51.91885 43.16935
# Shear Modulus (GPa) = 12.41967 31.78619 22.10293
#
# Velocity S-wave (km/s) = 2.32499 3.71951 3.10164
# Velocity P-wave (km/s) = 4.71047 6.40654 5.62282
#
# Compressibility (1/GPa) = 0.02905300
#
# Stress axis : x y z
#
# Youngs Moduli (GPa) = 149.58656 51.70392 85.15261
#
# Poissons Ratio (x) = -0.07561 0.33366
# Poissons Ratio (y) = -0.21876 0.16199
# Poissons Ratio (z) = 0.58613 0.09836
#
# Static dielectric constant tensor:
#      x y z
#    x 1.810340 0.000000 -0.007250 
#    y 0.000000 1.870960 0.000000 
#    z -0.007250 0.000000 1.901250 
# 
# From -- ./inp_files/180806.got.cif
#   From: 2010.05.17/outbox.cif.g08.bks.cpg/sg12_91_cif.got.tgz:180806.got - 2010.06.03 13:09:07.
