data_PCOD9189138
_publ_section_title
;
Structure prediction by ZEFSAII (Michael W. Deem and Ramdas Pophale) SiO2 
 PCOD9189138
Probable space group: C 2/M
;
_chemical_formula_sum "Si O2"
_cell_formula_units_Z 44
_cell_length_a 22.325076
_cell_length_b 14.246117
_cell_length_c 8.230350
_cell_angle_alpha 90.000000
_cell_angle_beta 60.985017
_cell_angle_gamma 90.000000
_cell_volume 2289.096197
_symmetry_space_group_name_H-M "C 2/M"
_symmetry_group_IT_number 12
_symmetry_cell_setting 'monoclinic'
loop_
_space_group_symop_operation_xyz
x,y,z
-x,y,-z
-x,-y,-z
x,-y,z
1/2+x,1/2+y,z
1/2-x,1/2+y,-z
1/2-x,1/2-y,-z
1/2+x,1/2-y,z
loop_
_atom_site_type_symbol
_atom_site_label
_atom_site_fract_x
_atom_site_fract_y
_atom_site_fract_z
Si Si1 0.490235 0.500000 0.821715
Si Si2 0.781950 0.500000 0.164852
Si Si3 0.538078 0.000000 0.780682
Si Si4 0.372461 0.860623 0.516022
Si Si5 0.138683 0.000000 0.220270
Si Si6 0.596382 0.000000 0.242938
Si Si7 0.742826 0.361997 0.501758
Si Si8 0.398864 0.640008 0.449506
O O1 0.411561 0.500000 0.866704
O O2 0.530760 0.591669 0.699376
O O3 0.500000 0.500000 0.000000
O O4 0.720974 0.500000 0.110973
O O5 0.771762 0.411367 0.299982
O O6 0.852696 0.500000 0.977011
O O7 0.585177 0.089532 0.683834
O O8 0.480109 0.000000 0.720429
O O9 0.500000 0.000000 0.000000
O O10 0.391394 0.909807 0.659409
O O11 0.293355 0.887161 0.581999
O O12 0.392057 0.751261 0.484346
O O13 0.119204 0.910867 0.357934
O O14 0.750000 0.250000 0.500000
O O15 0.662229 0.385156 0.598453
#
# Coordination Sequence:
#
# PCOD9189138 Si02
#       8
#     4   4   4   8   4   4   8   8
#     4  11  23  35  53  83 107 134 183 228 267 318
#     4  10  19  37  58  80 113 142 172 231 273 306
#     4  11  23  36  52  78 110 145 186 221 263 326
#     4  10  20  36  57  81 110 144 178 221 270 319
#     4   9  20  37  57  78 104 143 180 210 270 330
#     4  11  23  35  54  85 109 140 185 222 269 326
#     4   9  18  35  59  83 105 144 186 212 264 331
#     4   9  19  37  58  77 107 144 176 215 265 323
#
# _framework density 19.221558999999999
#
# number of rings (size 3 to 8) (size 9 to 14) (size 15 to 20)
#    0.000    2.182    0.000    4.909    0.000    5.091 
#    0.000   11.818    0.000    0.000    0.000    0.000 
#    0.000    0.000    0.000    0.000    0.000    0.000 
#
# Total GULP energy -122563.518224 kJ/mol
# GULP energy per Si atom -5571.069010 kJ/mol
# Density = 1.917781 g / cm^3
# Si number density = 19.221559 Si / 1000 Ang^3
#
#
#
# Elastic Constant Matrix: (Units=GPa)
#
#
# Indices 1 2 3 4 5 6 
#
# 1 139.6418 14.8637 -17.5836 0.0000 9.8461 0.0000
# 2 14.8637 148.5453 22.6396 0.0000 3.8710 0.0000
# 3 -17.5836 22.6396 31.6588 0.0000 1.6253 0.0000
# 4 0.0000 0.0000 0.0000 1.3810 0.0000 0.1446
# 5 9.8461 3.8710 1.6253 0.0000 25.4116 0.0000
# 6 0.0000 0.0000 0.0000 0.1446 0.0000 19.4705
#
#
#
# Elastic Compliance Matrix: (Units=1/GPa)
#
#
# Indices 1 2 3 4 5 6 
#
# 1 0.008328 -0.001658 0.005983 0.000000 -0.003357 0.000000
# 2 -0.001658 0.007902 -0.006564 0.000000 -0.000142 0.000000
# 3 0.005983 -0.006564 0.039802 0.000000 -0.003864 0.000000
# 4 0.000000 0.000000 0.000000 0.724698 0.000000 -0.005381
# 5 -0.003357 -0.000142 -0.003864 0.000000 0.040921 0.000000
# 6 0.000000 0.000000 0.000000 -0.005381 0.000000 0.051400
#
#
# Mechanical properties :
#
#
# Convention : Reuss Voigt Hill
#
# Bulk Modulus (GPa) = 19.39700 39.96501 29.68101
# Shear Modulus (GPa) = 5.58838 29.24771 17.41804
#
# Velocity S-wave (km/s) = 1.70695 3.90501 3.01354
# Velocity P-wave (km/s) = 3.74140 6.41631 5.25201
#
# Compressibility (1/GPa) = 0.05155436
#
# Stress axis : x y z
#
# Youngs Moduli (GPa) = 120.08122 126.55102 25.12413
#
# Poissons Ratio (x) = 0.20978 -0.15032
# Poissons Ratio (y) = 0.19906 0.16492
# Poissons Ratio (z) = -0.71845 0.83071
#
# Static dielectric constant tensor:
#      x y z
#    x 1.733710 0.000000 -0.006740 
#    y 0.000000 1.659800 0.000000 
#    z -0.006740 0.000000 1.630290 
# 
# From -- ./inp_files/85646.got.cif
#   From: 2010.05.17/outbox.cif.g08.bks.cpg/sg12_43_cif.got.tgz:85646.got - 2010.06.03 13:09:07.
