data_PCOD9189548
_publ_section_title
;
Structure prediction by ZEFSAII (Michael W. Deem and Ramdas Pophale) SiO2 
 PCOD9189548
Probable space group: C 2/M
;
_chemical_formula_sum "Si O2"
_cell_formula_units_Z 56
_cell_length_a 12.094773
_cell_length_b 13.627603
_cell_length_c 25.428976
_cell_angle_alpha 90.000000
_cell_angle_beta 140.262457
_cell_angle_gamma 90.000000
_cell_volume 2679.363478
_symmetry_space_group_name_H-M "C 2/M"
_symmetry_group_IT_number 12
_symmetry_cell_setting 'monoclinic'
loop_
_space_group_symop_operation_xyz
x,y,z
-x,y,-z
-x,-y,-z
x,-y,z
1/2+x,1/2+y,z
1/2-x,1/2+y,-z
1/2-x,1/2-y,-z
1/2+x,1/2-y,z
loop_
_atom_site_type_symbol
_atom_site_label
_atom_site_fract_x
_atom_site_fract_y
_atom_site_fract_z
Si Si1 0.240679 0.383529 0.362639
Si Si2 0.016295 0.788999 0.260378
Si Si3 0.199891 0.388449 0.944301
Si Si4 0.383933 0.381228 0.530853
Si Si5 0.813585 0.613213 0.833974
Si Si6 0.742993 0.681853 0.918151
Si Si7 0.695996 0.117926 0.567276
O O1 0.217557 0.500000 0.347965
O O2 0.074043 0.323186 0.284528
O O3 0.288447 0.361249 0.440894
O O4 0.415217 0.351220 0.396237
O O5 0.181691 0.847052 0.341278
O O6 0.850655 0.817134 0.236325
O O7 0.947856 0.820405 0.178244
O O8 0.240687 0.500000 0.942868
O O9 0.280851 0.297065 0.942587
O O10 0.990844 0.375048 0.867563
O O11 0.249273 0.372948 0.023787
O O12 0.391363 0.500000 0.535511
O O13 0.279717 0.347735 0.543277
O O14 0.757228 0.500000 0.808225
O O15 0.851814 0.636571 0.909677
O O16 0.500000 0.152894 0.500000
O O17 0.693796 0.000000 0.566239
#
# Coordination Sequence:
#
# PCOD9189548 Si02
#       7
#     8   8   8   8   8   8   8
#     4   9  18  36  57  79 108 144 191 244 299 345
#     4  10  22  34  52  86 114 146 186 242 289 338
#     4  10  19  37  66  88 111 155 197 236 290 353
#     4   8  17  35  59  78  99 144 200 246 284 341
#     4   9  19  37  60  84 113 149 190 237 289 346
#     4   9  21  35  55  92 120 141 192 247 291 344
#     4  10  21  37  53  77 112 151 196 240 287 344
#
# _framework density 20.900485
#
# number of rings (size 3 to 8) (size 9 to 14) (size 15 to 20)
#    0.857    1.857    0.000    2.143    2.000    3.429 
#    2.571    2.857    0.000   12.000    0.000    0.000 
#    0.000    0.000    0.000    0.000    0.000    0.000 
#
# Total GULP energy -156141.714835 kJ/mol
# GULP energy per Si atom -5576.489816 kJ/mol
# Density = 2.085291 g / cm^3
# Si number density = 20.900485 Si / 1000 Ang^3
#
#
#
# Elastic Constant Matrix: (Units=GPa)
#
#
# Indices 1 2 3 4 5 6 
#
# 1 59.2772 30.7673 20.5672 0.0000 0.8248 0.0000
# 2 30.7673 78.6805 17.4775 0.0000 13.3028 0.0000
# 3 20.5672 17.4775 94.4426 0.0000 13.3629 0.0000
# 4 0.0000 0.0000 0.0000 32.9983 0.0000 4.6631
# 5 0.8248 13.3028 13.3629 0.0000 18.0925 0.0000
# 6 0.0000 0.0000 0.0000 4.6631 0.0000 13.2925
#
#
#
# Elastic Compliance Matrix: (Units=1/GPa)
#
#
# Indices 1 2 3 4 5 6 
#
# 1 0.023396 -0.009726 -0.004641 0.000000 0.009513 0.000000
# 2 -0.009726 0.018705 0.000603 0.000000 -0.013755 0.000000
# 3 -0.004641 0.000603 0.012865 0.000000 -0.009733 0.000000
# 4 0.000000 0.000000 0.000000 0.031885 0.000000 -0.011186
# 5 0.009513 -0.013755 -0.009733 0.000000 0.072141 0.000000
# 6 0.000000 0.000000 0.000000 -0.011186 0.000000 0.079154
#
#
# Mechanical properties :
#
#
# Convention : Reuss Voigt Hill
#
# Bulk Modulus (GPa) = 36.44772 41.11382 38.78077
# Shear Modulus (GPa) = 18.19369 23.78253 20.98811
#
# Velocity S-wave (km/s) = 2.95361 3.37693 3.17234
# Velocity P-wave (km/s) = 5.39521 5.90921 5.65805
#
# Compressibility (1/GPa) = 0.02743656
#
# Stress axis : x y z
#
# Youngs Moduli (GPa) = 42.74199 53.46253 77.73141
#
# Poissons Ratio (x) = 0.51999 0.36076
# Poissons Ratio (y) = 0.41572 -0.04686
# Poissons Ratio (z) = 0.19837 -0.03223
#
# Static dielectric constant tensor:
#      x y z
#    x 1.775560 0.000000 0.000400 
#    y 0.000000 1.786200 0.000000 
#    z 0.000400 0.000000 1.766060 
# 
# From -- ./inp_files/358219.got.cif
#   From: 2010.05.17/outbox.cif.g08.bks.cpg/sg12_180_cif.got.tgz:358219.got - 2010.06.03 13:09:07.
