data_PCOD9189024
_publ_section_title
;
Structure prediction by ZEFSAII (Michael W. Deem and Ramdas Pophale) SiO2 
 PCOD9189024
Probable space group: C 2/M
;
_chemical_formula_sum "Si O2"
_cell_formula_units_Z 58
_cell_length_a 16.878939
_cell_length_b 20.414097
_cell_length_c 8.657818
_cell_angle_alpha 90.000000
_cell_angle_beta 121.282819
_cell_angle_gamma 90.000000
_cell_volume 2549.494422
_symmetry_space_group_name_H-M "C 2/M"
_symmetry_group_IT_number 12
_symmetry_cell_setting 'monoclinic'
loop_
_space_group_symop_operation_xyz
x,y,z
-x,y,-z
-x,-y,-z
x,-y,z
1/2+x,1/2+y,z
1/2-x,1/2+y,-z
1/2-x,1/2-y,-z
1/2+x,1/2-y,z
loop_
_atom_site_type_symbol
_atom_site_label
_atom_site_fract_x
_atom_site_fract_y
_atom_site_fract_z
Si Si1 0.343636 0.689674 0.699567
Si Si2 0.195067 0.662773 0.287329
Si Si3 0.338100 0.429043 0.898522
Si Si4 0.118915 0.426375 0.656888
Si Si5 0.515482 0.868624 0.265911
Si Si6 0.640857 0.606781 0.737862
Si Si7 0.979142 0.767933 0.308260
Si Si8 0.500000 0.500000 0.500000
O O1 0.256875 0.665843 0.508108
O O2 0.319898 0.759075 0.757036
O O3 0.376327 0.633452 0.848581
O O4 0.427687 0.702269 0.668005
O O5 0.094643 0.629649 0.215023
O O6 0.259232 0.624189 0.231922
O O7 0.362476 0.500000 0.853170
O O8 0.227718 0.419077 0.783166
O O9 0.362654 0.429548 0.102119
O O10 0.101721 0.500000 0.582486
O O11 0.079346 0.378548 0.485367
O O12 0.067346 0.416654 0.768666
O O13 0.464388 0.798429 0.198514
O O14 0.596094 0.676721 0.738731
O O15 0.580122 0.559220 0.567823
O O16 0.000000 0.743528 0.500000
#
# Coordination Sequence:
#
# PCOD9189024 Si02
#       8
#     8   8   8   8   8   8   8   2
#     4  10  21  40  64 100 131 166 221 276 324 393
#     4  10  21  38  67 100 128 167 227 267 325 397
#     4  11  25  45  64  95 137 175 215 278 342 392
#     4  10  20  36  61  96 129 168 214 265 331 395
#     4  10  19  36  65  95 129 165 214 275 318 394
#     4  12  25  45  68  93 128 183 219 275 329 399
#     4  11  20  37  65  92 126 169 220 269 327 380
#     4  12  24  48  68  94 126 180 240 256 324 416
#
# _framework density 22.749607999999998
#
# number of rings (size 3 to 8) (size 9 to 14) (size 15 to 20)
#    0.000    1.379    5.517    0.828    1.931    1.103 
#    7.448    1.379    0.000    1.655    0.000    0.000 
#    0.000    0.000    0.000    0.000    0.000    0.000 
#
# Total GULP energy -161453.679121 kJ/mol
# GULP energy per Si atom -5567.368246 kJ/mol
# Density = 2.269783 g / cm^3
# Si number density = 22.749608 Si / 1000 Ang^3
#
#
#
# Elastic Constant Matrix: (Units=GPa)
#
#
# Indices 1 2 3 4 5 6 
#
# 1 119.4021 54.3017 -9.4051 0.0000 -16.4559 0.0000
# 2 54.3017 113.4997 9.9654 0.0000 -18.4664 0.0000
# 3 -9.4051 9.9654 10.4650 0.0000 -6.9292 0.0000
# 4 0.0000 0.0000 0.0000 17.3969 0.0000 -7.5899
# 5 -16.4559 -18.4664 -6.9292 0.0000 17.7098 0.0000
# 6 0.0000 0.0000 0.0000 -7.5899 0.0000 12.2419
#
#
#
# Elastic Compliance Matrix: (Units=1/GPa)
#
#
# Indices 1 2 3 4 5 6 
#
# 1 0.019175 -0.008787 0.042286 0.000000 0.025201 0.000000
# 2 -0.008787 0.014747 -0.023166 0.000000 -0.001851 0.000000
# 3 0.042286 -0.023166 0.223561 0.000000 0.102609 0.000000
# 4 0.000000 0.000000 0.000000 0.078795 0.000000 0.048853
# 5 0.025201 -0.001851 0.102609 0.000000 0.118099 0.000000
# 6 0.000000 0.000000 0.000000 0.048853 0.000000 0.111975
#
#
# Mechanical properties :
#
#
# Convention : Reuss Voigt Hill
#
# Bulk Modulus (GPa) = 3.59516 39.23231 21.41374
# Shear Modulus (GPa) = 7.83206 22.03669 14.93437
#
# Velocity S-wave (km/s) = 1.85747 3.11571 2.56494
# Velocity P-wave (km/s) = 2.48677 5.49784 4.26675
#
# Compressibility (1/GPa) = 0.27815185
#
# Stress axis : x y z
#
# Youngs Moduli (GPa) = 52.15130 67.80968 4.47304
#
# Poissons Ratio (x) = 0.59581 -0.18915
# Poissons Ratio (y) = 0.45823 0.10362
# Poissons Ratio (z) = -2.20529 1.57086
#
# Static dielectric constant tensor:
#      x y z
#    x 1.838550 0.000000 0.030890 
#    y 0.000000 1.890010 0.000000 
#    z 0.030890 0.000000 1.954330 
# 
# From -- ./inp_files/78068.got.cif
#   From: 2010.05.17/outbox.cif.g08.bks.cpg/sg12_40_cif.got.tgz:78068.got - 2010.06.03 13:09:07.
