data_PCOD9189038
_publ_section_title
;
Structure prediction by ZEFSAII (Michael W. Deem and Ramdas Pophale) SiO2 
 PCOD9189038
Probable space group: C 2/M
;
_chemical_formula_sum "Si O2"
_cell_formula_units_Z 44
_cell_length_a 10.982099
_cell_length_b 25.657734
_cell_length_c 7.305548
_cell_angle_alpha 90.000000
_cell_angle_beta 77.975812
_cell_angle_gamma 90.000000
_cell_volume 2013.361846
_symmetry_space_group_name_H-M "C 2/M"
_symmetry_group_IT_number 12
_symmetry_cell_setting 'monoclinic'
loop_
_space_group_symop_operation_xyz
x,y,z
-x,y,-z
-x,-y,-z
x,-y,z
1/2+x,1/2+y,z
1/2-x,1/2+y,-z
1/2-x,1/2-y,-z
1/2+x,1/2-y,z
loop_
_atom_site_type_symbol
_atom_site_label
_atom_site_fract_x
_atom_site_fract_y
_atom_site_fract_z
Si Si1 0.500000 0.192753 0.500000
Si Si2 0.128488 0.000000 0.201524
Si Si3 0.353222 0.612689 0.737257
Si Si4 0.863366 0.882279 0.309793
Si Si5 0.882738 0.675613 0.164073
Si Si6 0.653837 0.500000 0.757725
Si Si7 0.742464 0.226071 0.296884
O O1 0.418646 0.164000 0.368212
O O2 0.592283 0.224720 0.335891
O O3 0.183728 0.947606 0.259447
O O4 0.982172 0.000000 0.292882
O O5 0.141088 0.000000 0.979950
O O6 0.489073 0.615962 0.789372
O O7 0.366398 0.630121 0.524678
O O8 0.237862 0.642786 0.855768
O O9 0.791308 0.832539 0.253774
O O10 0.803265 0.940046 0.298318
O O11 0.830814 0.734533 0.161717
O O12 0.000000 0.665422 0.000000
O O13 0.750000 0.250000 0.500000
#
# Coordination Sequence:
#
# PCOD9189038 Si02
#       7
#     4   4   8   8   8   4   8
#     4  10  22  42  62  81 128 161 208 254 300 362
#     4   9  19  37  58  89 129 152 199 271 312 364
#     4  10  20  37  64  90 121 161 204 256 312 368
#     4  10  19  36  66  90 122 160 207 254 315 367
#     4  11  25  41  61  93 127 168 210 251 308 373
#     4   9  19  35  57  95 123 153 202 263 322 362
#     4  10  21  38  63  90 125 168 202 256 307 371
#
# _framework density 21.853995000000001
#
# number of rings (size 3 to 8) (size 9 to 14) (size 15 to 20)
#    0.000    2.000    3.636    0.545    5.091    4.364 
#    6.545    0.455    0.000    2.182    0.000    0.000 
#    0.000    0.000    0.000    0.000    0.000    0.000 
#
# Total GULP energy -122503.792294 kJ/mol
# GULP energy per Si atom -5568.354195 kJ/mol
# Density = 2.180425 g / cm^3
# Si number density = 21.853995 Si / 1000 Ang^3
#
#
#
# Elastic Constant Matrix: (Units=GPa)
#
#
# Indices 1 2 3 4 5 6 
#
# 1 81.1559 38.8770 31.3485 0.0000 -27.8125 0.0000
# 2 38.8770 157.3979 9.1857 0.0000 -25.3111 0.0000
# 3 31.3485 9.1857 77.0949 0.0000 -11.7621 0.0000
# 4 0.0000 0.0000 0.0000 43.2909 0.0000 -3.8633
# 5 -27.8125 -25.3111 -11.7621 0.0000 41.6517 0.0000
# 6 0.0000 0.0000 0.0000 -3.8633 0.0000 31.4727
#
#
#
# Elastic Compliance Matrix: (Units=1/GPa)
#
#
# Indices 1 2 3 4 5 6 
#
# 1 0.019268 -0.002895 -0.006056 0.000000 0.009397 0.000000
# 2 -0.002895 0.007479 0.000715 0.000000 0.002814 0.000000
# 3 -0.006056 0.000715 0.015464 0.000000 0.000757 0.000000
# 4 0.000000 0.000000 0.000000 0.023355 0.000000 0.002867
# 5 0.009397 0.002814 0.000757 0.000000 0.032207 0.000000
# 6 0.000000 0.000000 0.000000 0.002867 0.000000 0.032126
#
#
# Mechanical properties :
#
#
# Convention : Reuss Voigt Hill
#
# Bulk Modulus (GPa) = 38.85025 52.71903 45.78464
# Shear Modulus (GPa) = 32.26815 39.03222 35.65019
#
# Velocity S-wave (km/s) = 3.84674 4.23075 4.04330
# Velocity P-wave (km/s) = 6.12745 6.93118 6.54167
#
# Compressibility (1/GPa) = 0.02573986
#
# Stress axis : x y z
#
# Youngs Moduli (GPa) = 51.89819 133.70615 64.66613
#
# Poissons Ratio (x) = 0.38704 0.39165
# Poissons Ratio (y) = 0.15023 -0.04625
# Poissons Ratio (z) = 0.31432 -0.09563
#
# Static dielectric constant tensor:
#      x y z
#    x 1.924160 0.000000 0.046200 
#    y 0.000000 1.847590 0.000000 
#    z 0.046200 0.000000 1.897530 
# 
# From -- ./inp_files/50544.got.cif
#   From: 2010.05.17/outbox.cif.g08.bks.cpg/sg12_26_cif.got.tgz:50544.got - 2010.06.03 13:09:07.
