data_PCOD9189445
_publ_section_title
;
Structure prediction by ZEFSAII (Michael W. Deem and Ramdas Pophale) SiO2 
 PCOD9189445
Probable space group: C 2/M
;
_chemical_formula_sum "Si O2"
_cell_formula_units_Z 56
_cell_length_a 19.074584
_cell_length_b 19.557093
_cell_length_c 14.706270
_cell_angle_alpha 90.000000
_cell_angle_beta 148.588501
_cell_angle_gamma 90.000000
_cell_volume 2859.238768
_symmetry_space_group_name_H-M "C 2/M"
_symmetry_group_IT_number 12
_symmetry_cell_setting 'monoclinic'
loop_
_space_group_symop_operation_xyz
x,y,z
-x,y,-z
-x,-y,-z
x,-y,z
1/2+x,1/2+y,z
1/2-x,1/2+y,-z
1/2-x,1/2-y,-z
1/2+x,1/2-y,z
loop_
_atom_site_type_symbol
_atom_site_label
_atom_site_fract_x
_atom_site_fract_y
_atom_site_fract_z
Si Si1 0.122079 0.694088 0.580920
Si Si2 0.996684 0.864322 0.106936
Si Si3 0.227710 0.573242 0.826595
Si Si4 0.924362 0.294244 0.044297
Si Si5 0.783453 0.322833 0.713084
Si Si6 0.483520 0.886879 0.268447
Si Si7 0.271136 0.579426 0.507732
O O1 0.190965 0.639260 0.724436
O O2 0.212056 0.749501 0.630037
O O3 0.055570 0.648607 0.431662
O O4 0.000000 0.729977 0.500000
O O5 0.940074 0.787751 0.064015
O O6 0.136408 0.882248 0.313416
O O7 0.884736 0.916718 0.019181
O O8 0.000000 0.870501 0.000000
O O9 0.204652 0.500000 0.752760
O O10 0.136366 0.572841 0.815479
O O11 0.068097 0.316156 0.163288
O O12 0.915361 0.329177 0.131089
O O13 0.811000 0.325810 0.852162
O O14 0.715258 0.379684 0.573517
O O15 0.611189 0.919762 0.357434
O O16 0.311178 0.500000 0.545551
#
# Coordination Sequence:
#
# PCOD9189445 Si02
#       7
#     8   8   8   8   8   8   8
#     4  10  20  36  57  87 116 155 195 240 301 352
#     4  12  22  38  62  90 123 152 197 244 298 358
#     4  11  23  38  57  86 126 158 189 241 302 363
#     4  10  19  37  63  88 111 152 201 252 293 337
#     4  10  19  40  60  85 118 150 204 251 288 345
#     4  10  22  37  59  86 118 155 198 243 292 353
#     4  11  24  39  61  89 120 160 198 242 299 357
#
# _framework density 19.585633000000001
#
# number of rings (size 3 to 8) (size 9 to 14) (size 15 to 20)
#    0.000    1.429    2.857    3.429    0.000    8.286 
#    2.571    6.429    0.000    0.429    0.000    0.000 
#    0.000    0.000    0.000    0.000    0.000    0.000 
#
# Total GULP energy -155870.490677 kJ/mol
# GULP energy per Si atom -5566.803238 kJ/mol
# Density = 1.954106 g / cm^3
# Si number density = 19.585633 Si / 1000 Ang^3
#
#
#
# Elastic Constant Matrix: (Units=GPa)
#
#
# Indices 1 2 3 4 5 6 
#
# 1 77.0440 44.1628 80.9394 0.0000 -65.5210 0.0000
# 2 44.1628 117.1765 56.5782 0.0000 -18.2497 0.0000
# 3 80.9394 56.5782 204.2151 0.0000 -161.7700 0.0000
# 4 0.0000 0.0000 0.0000 13.6066 0.0000 -5.8963
# 5 -65.5210 -18.2497 -161.7700 0.0000 233.3212 0.0000
# 6 0.0000 0.0000 0.0000 -5.8963 0.0000 19.5191
#
#
#
# Elastic Compliance Matrix: (Units=1/GPa)
#
#
# Indices 1 2 3 4 5 6 
#
# 1 0.025128 -0.005857 -0.006899 0.000000 0.001815 0.000000
# 2 -0.005857 0.011915 -0.003426 0.000000 -0.003088 0.000000
# 3 -0.006899 -0.003426 0.015159 0.000000 0.008305 0.000000
# 4 0.000000 0.000000 0.000000 0.084563 0.000000 0.025545
# 5 0.001815 -0.003088 0.008305 0.000000 0.010312 0.000000
# 6 0.000000 0.000000 0.000000 0.025545 0.000000 0.058948
#
#
# Mechanical properties :
#
#
# Convention : Reuss Voigt Hill
#
# Bulk Modulus (GPa) = 50.40608 84.64405 67.52506
# Shear Modulus (GPa) = 20.40795 67.73973 44.07384
#
# Velocity S-wave (km/s) = 3.23148 5.88740 4.74889
# Velocity P-wave (km/s) = 6.30202 9.46185 8.03872
#
# Compressibility (1/GPa) = 0.01983888
#
# Stress axis : x y z
#
# Youngs Moduli (GPa) = 39.79595 83.92950 65.96610
#
# Poissons Ratio (x) = 0.49156 0.45510
# Poissons Ratio (y) = 0.23308 0.22600
# Poissons Ratio (z) = 0.27455 0.28754
#
# Static dielectric constant tensor:
#      x y z
#    x 1.748410 0.000000 0.041200 
#    y 0.000000 1.676930 0.000000 
#    z 0.041200 0.000000 1.759600 
# 
# From -- ./inp_files/234742.got.cif
#   From: 2010.05.17/outbox.cif.g08.bks.cpg/sg12_118_cif.got.tgz:234742.got - 2010.06.03 13:09:07.
