data_PCOD9189986
_publ_section_title
;
Structure prediction by ZEFSAII (Michael W. Deem and Ramdas Pophale) SiO2 
 PCOD9189986
Probable space group: C 2/M
;
_chemical_formula_sum "Si O2"
_cell_formula_units_Z 48
_cell_length_a 20.438907
_cell_length_b 23.715646
_cell_length_c 12.633634
_cell_angle_alpha 90.000000
_cell_angle_beta 21.984606
_cell_angle_gamma 90.000000
_cell_volume 2292.489836
_symmetry_space_group_name_H-M "C 2/M"
_symmetry_group_IT_number 12
_symmetry_cell_setting 'monoclinic'
loop_
_space_group_symop_operation_xyz
x,y,z
-x,y,-z
-x,-y,-z
x,-y,z
1/2+x,1/2+y,z
1/2-x,1/2+y,-z
1/2-x,1/2-y,-z
1/2+x,1/2-y,z
loop_
_atom_site_type_symbol
_atom_site_label
_atom_site_fract_x
_atom_site_fract_y
_atom_site_fract_z
Si Si1 0.198197 0.250470 0.739361
Si Si2 0.524976 0.934560 0.583467
Si Si3 0.707370 0.629599 0.667621
Si Si4 0.709159 0.123669 0.689160
Si Si5 0.798426 0.094923 0.783925
Si Si6 0.798697 0.229329 0.812824
O O1 0.274268 0.195044 0.569225
O O2 0.281648 0.311865 0.593821
O O3 0.201018 0.242235 0.861285
O O4 0.000000 0.254272 0.000000
O O5 0.500000 0.913188 0.500000
O O6 0.675719 0.901710 0.420882
O O7 0.576242 0.000000 0.498587
O O8 0.346334 0.931054 0.920865
O O9 0.733422 0.603813 0.512296
O O10 0.500000 0.629759 0.000000
O O11 0.760106 0.088431 0.716277
O O12 0.500000 0.126356 0.000000
O O13 0.779024 0.162091 0.833693
O O14 0.000000 0.078346 0.500000
O O15 0.000000 0.243556 0.500000
O O16 0.750000 0.250000 0.000000
#
# Coordination Sequence:
#
# PCOD9189986 Si02
#       6
#     8   8   8   8   8   8
#     4   9  21  35  57  91 131 168 206 247 308 378
#     4  11  27  48  69  93 124 167 220 276 330 380
#     4  11  24  39  65  94 128 174 208 257 322 379
#     4  10  19  39  61  95 132 168 210 256 306 384
#     4  10  23  41  66  93 129 164 212 273 320 377
#     4  10  23  35  56  92 128 171 213 249 305 381
#
# _framework density 20.937933999999998
#
# number of rings (size 3 to 8) (size 9 to 14) (size 15 to 20)
#    0.000    1.833    1.667    0.500    7.000    7.333 
#    0.000    1.667    0.000    0.000    0.000    0.000 
#    0.000    0.000    0.000    0.000    0.000    0.000 
#
# Total GULP energy -134033.449286 kJ/mol
# GULP energy per Si atom -5584.727054 kJ/mol
# Density = 2.089028 g / cm^3
# Si number density = 20.937934 Si / 1000 Ang^3
#
#
#
# Elastic Constant Matrix: (Units=GPa)
#
#
# Indices 1 2 3 4 5 6 
#
# 1 179.3145 24.7919 39.6897 -0.0708 20.6500 -0.0046
# 2 24.7919 23.0782 12.2408 -0.0211 -7.0464 -0.0037
# 3 39.6897 12.2408 88.3326 -0.1163 12.2045 -0.0216
# 4 -0.0708 -0.0211 -0.1163 27.4203 -0.0009 -4.1744
# 5 20.6500 -7.0464 12.2045 -0.0009 40.5648 0.0008
# 6 -0.0046 -0.0037 -0.0216 -4.1744 0.0008 15.9673
#
#
#
# Elastic Compliance Matrix: (Units=1/GPa)
#
#
# Indices 1 2 3 4 5 6 
#
# 1 0.007750 -0.009060 -0.001528 0.000006 -0.005060 0.000000
# 2 -0.009060 0.062090 -0.006950 -0.000004 0.017489 0.000001
# 3 -0.001528 -0.006950 0.013595 0.000053 -0.004520 0.000030
# 4 0.000006 -0.000004 0.000053 0.037981 -0.000019 0.009930
# 5 -0.005060 0.017489 -0.004520 -0.000019 0.031625 -0.000010
# 6 0.000000 0.000001 0.000030 0.009930 -0.000010 0.065224
#
#
# Mechanical properties :
#
#
# Convention : Reuss Voigt Hill
#
# Bulk Modulus (GPa) = 20.67829 49.35224 35.01527
# Shear Modulus (GPa) = 18.55558 31.05735 24.80647
#
# Velocity S-wave (km/s) = 2.98017 3.85555 3.44577
# Velocity P-wave (km/s) = 4.66255 6.59107 5.70883
#
# Compressibility (1/GPa) = 0.04835990
#
# Stress axis : x y z
#
# Youngs Moduli (GPa) = 129.02746 16.10567 73.55713
#
# Poissons Ratio (x) = 0.14592 0.11238
# Poissons Ratio (y) = 1.16903 0.51119
# Poissons Ratio (z) = 0.19712 0.11193
#
# Static dielectric constant tensor:
#      x y z
#    x 1.758060 0.000000 0.010260 
#    y 0.000000 1.787760 0.000020 
#    z 0.010260 0.000020 1.723590 
# 
# From -- ./inp_files/170664.got.cif
#   From: 2010.05.17/outbox.cif.g08.bks.cpg/sg12_86_cif.got.tgz:170664.got - 2010.06.03 13:09:07.
