data_PCOD9189237
_publ_section_title
;
Structure prediction by ZEFSAII (Michael W. Deem and Ramdas Pophale) SiO2 
 PCOD9189237
Probable space group: C 2/M
;
_chemical_formula_sum "Si O2"
_cell_formula_units_Z 48
_cell_length_a 11.701737
_cell_length_b 21.367995
_cell_length_c 13.978870
_cell_angle_alpha 90.000000
_cell_angle_beta 150.348562
_cell_angle_gamma 90.000000
_cell_volume 1729.209571
_symmetry_space_group_name_H-M "C 2/M"
_symmetry_group_IT_number 12
_symmetry_cell_setting 'monoclinic'
loop_
_space_group_symop_operation_xyz
x,y,z
-x,y,-z
-x,-y,-z
x,-y,z
1/2+x,1/2+y,z
1/2-x,1/2+y,-z
1/2-x,1/2-y,-z
1/2+x,1/2-y,z
loop_
_atom_site_type_symbol
_atom_site_label
_atom_site_fract_x
_atom_site_fract_y
_atom_site_fract_z
Si Si1 0.929875 0.571478 0.046765
Si Si2 0.930200 0.573522 0.344773
Si Si3 0.842128 0.069259 0.497856
Si Si4 0.566659 0.247312 0.274773
Si Si5 0.807267 0.148106 0.987564
Si Si6 0.556770 0.702353 0.627222
O O1 0.877874 0.500000 0.987083
O O2 0.159309 0.570607 0.278125
O O3 0.708727 0.592941 0.946343
O O4 0.000000 0.606213 0.000000
O O5 0.856404 0.500000 0.294842
O O6 0.747680 0.616269 0.154808
O O7 0.000000 0.596552 0.500000
O O8 0.170502 0.575552 0.462095
O O9 0.001953 0.130136 0.605562
O O10 0.948481 0.000000 0.574339
O O11 0.750000 0.250000 0.500000
O O12 0.429473 0.183659 0.156475
O O13 0.360242 0.267324 0.217538
O O14 0.817926 0.220029 0.385320
O O15 0.014282 0.193689 0.166768
#
# Coordination Sequence:
#
# PCOD9189237 Si02
#       6
#     8   8   8   8   8   8
#     4   9  17  30  57  91 125 159 192 242 315 378
#     4   9  17  33  64  97 126 163 204 257 323 377
#     4   9  18  36  58  87 122 156 201 252 305 381
#     4  10  23  39  57  88 122 164 209 258 304 365
#     4  10  19  37  60  85 128 158 211 258 301 368
#     4  11  23  41  61  84 125 167 209 258 314 375
#
# _framework density 27.758348000000002
#
# number of rings (size 3 to 8) (size 9 to 14) (size 15 to 20)
#    0.000    2.333    3.333    1.500    2.333    1.000 
#    0.000    4.167    0.000    0.000    0.000    3.500 
#    0.000    6.000    0.000    0.000    0.000    0.000 
#
# Total GULP energy -133812.657519 kJ/mol
# GULP energy per Si atom -5575.527397 kJ/mol
# Density = 2.769517 g / cm^3
# Si number density = 27.758348 Si / 1000 Ang^3
#
#
#
# Elastic Constant Matrix: (Units=GPa)
#
#
# Indices 1 2 3 4 5 6 
#
# 1 134.6038 42.6082 69.2603 -0.0002 -33.3111 -0.0001
# 2 42.6082 152.7195 58.7003 -0.0001 8.3029 0.0000
# 3 69.2603 58.7003 171.4284 -0.0005 -18.1792 -0.0003
# 4 -0.0002 -0.0001 -0.0005 32.5038 -0.0002 -2.3438
# 5 -33.3111 8.3029 -18.1792 -0.0002 70.1207 -0.0001
# 6 -0.0001 0.0000 -0.0003 -2.3438 -0.0001 32.7702
#
#
#
# Elastic Compliance Matrix: (Units=1/GPa)
#
#
# Indices 1 2 3 4 5 6 
#
# 1 0.010854 -0.002047 -0.003200 0.000000 0.004569 0.000000
# 2 -0.002047 0.008107 -0.002215 0.000000 -0.002506 0.000000
# 3 -0.003200 -0.002215 0.007970 0.000000 0.000808 0.000000
# 4 0.000000 0.000000 0.000000 0.030925 0.000000 0.002212
# 5 0.004569 -0.002506 0.000808 0.000000 0.016938 0.000000
# 6 0.000000 0.000000 0.000000 0.002212 0.000000 0.030674
#
#
# Mechanical properties :
#
#
# Convention : Reuss Voigt Hill
#
# Bulk Modulus (GPa) = 83.27574 88.87658 86.07616
# Shear Modulus (GPa) = 40.19494 46.29114 43.24304
#
# Velocity S-wave (km/s) = 3.80943 4.08811 3.95123
# Velocity P-wave (km/s) = 7.02954 7.37367 7.20366
#
# Compressibility (1/GPa) = 0.01200830
#
# Stress axis : x y z
#
# Youngs Moduli (GPa) = 92.12836 123.35769 125.46630
#
# Poissons Ratio (x) = 0.25249 0.40149
# Poissons Ratio (y) = 0.18857 0.27787
# Poissons Ratio (z) = 0.29481 0.27320
#
# Static dielectric constant tensor:
#      x y z
#    x -2.960150 0.000000 -2.022910 
#    y 0.000000 1.824500 0.000000 
#    z -2.022910 0.000000 1.266290 
# 
# From -- ./inp_files/218551.got.cif
#   From: 2010.05.17/outbox.cif.g08.bks.cpg/sg12_110_cif.got.tgz:218551.got - 2010.06.03 13:09:07.
