data_PCOD9189435
_publ_section_title
;
Structure prediction by ZEFSAII (Michael W. Deem and Ramdas Pophale) SiO2 
 PCOD9189435
Probable space group: C 2/M
;
_chemical_formula_sum "Si O2"
_cell_formula_units_Z 64
_cell_length_a 17.593343
_cell_length_b 13.080065
_cell_length_c 29.010206
_cell_angle_alpha 90.000000
_cell_angle_beta 151.520056
_cell_angle_gamma 90.000000
_cell_volume 3183.404896
_symmetry_space_group_name_H-M "C 2/M"
_symmetry_group_IT_number 12
_symmetry_cell_setting 'monoclinic'
loop_
_space_group_symop_operation_xyz
x,y,z
-x,y,-z
-x,-y,-z
x,-y,z
1/2+x,1/2+y,z
1/2-x,1/2+y,-z
1/2-x,1/2-y,-z
1/2+x,1/2-y,z
loop_
_atom_site_type_symbol
_atom_site_label
_atom_site_fract_x
_atom_site_fract_y
_atom_site_fract_z
Si Si1 0.699441 0.881599 0.918511
Si Si2 0.555375 0.114770 0.140735
Si Si3 0.703917 0.381751 0.643876
Si Si4 0.971608 0.285073 0.724466
Si Si5 0.841149 0.878731 0.596210
Si Si6 0.621561 0.113649 0.717577
Si Si7 0.459791 0.685553 0.924829
Si Si8 0.538583 0.267904 0.430020
O O1 0.609849 0.869246 0.919289
O O2 0.613697 0.807770 0.835924
O O3 0.669973 0.000000 0.888209
O O4 0.886205 0.860091 0.018758
O O5 0.690497 0.119840 0.252449
O O6 0.573419 0.201851 0.112704
O O7 0.557979 0.000000 0.122862
O O8 0.687042 0.500000 0.621326
O O9 0.811774 0.321990 0.664633
O O10 0.538606 0.329468 0.569568
O O11 0.956385 0.170666 0.696502
O O12 0.005509 0.353540 0.697380
O O13 0.681134 0.810896 0.516275
O O14 0.906243 0.846913 0.580376
O O15 0.820945 0.000000 0.589337
O O16 0.800945 0.121178 0.831441
O O17 0.595939 0.195366 0.663952
O O18 0.583124 0.000000 0.681483
O O19 0.500000 0.686961 0.000000
#
# Coordination Sequence:
#
# PCOD9189435 Si02
#       8
#     8   8   8   8   8   8   8   8
#     4  10  20  37  59  81 115 158 194 241 287 332
#     4   9  20  38  57  78 113 159 197 236 288 336
#     4  10  19  37  63  86 113 152 196 242 284 334
#     4  10  21  37  58  84 114 154 195 237 287 341
#     4  10  22  41  62  87 119 153 186 238 299 344
#     4  11  21  36  57  85 119 153 189 239 291 343
#     4  12  22  33  55  89 119 149 193 241 288 349
#     4  10  21  39  63  89 113 148 199 236 282 353
#
# _framework density 20.10426
#
# number of rings (size 3 to 8) (size 9 to 14) (size 15 to 20)
#    0.000    1.750    2.500    3.375    0.000    1.250 
#    0.000    6.250    0.000    0.000    0.000    0.000 
#    0.000    0.000    0.000    0.000    0.000    0.000 
#
# Total GULP energy -178798.871238 kJ/mol
# GULP energy per Si atom -5587.464726 kJ/mol
# Density = 2.005850 g / cm^3
# Si number density = 20.104260 Si / 1000 Ang^3
#
#
#
# Elastic Constant Matrix: (Units=GPa)
#
#
# Indices 1 2 3 4 5 6 
#
# 1 56.2236 29.7760 11.1712 0.0000 21.5783 0.0000
# 2 29.7760 114.0647 12.7875 0.0002 7.2231 0.0001
# 3 11.1712 12.7875 58.9324 0.0007 8.4263 0.0000
# 4 0.0000 0.0002 0.0007 22.6607 0.0000 -2.5966
# 5 21.5783 7.2231 8.4263 0.0000 28.0519 0.0000
# 6 0.0000 0.0001 0.0000 -2.5966 0.0000 13.4984
#
#
#
# Elastic Compliance Matrix: (Units=1/GPa)
#
#
# Indices 1 2 3 4 5 6 
#
# 1 0.029160 -0.006175 -0.001262 0.000000 -0.020462 0.000000
# 2 -0.006175 0.010382 -0.001441 0.000000 0.002510 0.000000
# 3 -0.001262 -0.001441 0.018106 -0.000001 -0.004097 0.000000
# 4 0.000000 0.000000 -0.000001 0.045124 0.000000 0.008680
# 5 -0.020462 0.002510 -0.004097 0.000000 0.051972 0.000000
# 6 0.000000 0.000000 0.000000 0.008680 0.000000 0.075753
#
#
# Mechanical properties :
#
#
# Convention : Reuss Voigt Hill
#
# Bulk Modulus (GPa) = 25.06762 37.41002 31.23882
# Shear Modulus (GPa) = 19.11681 24.54127 21.82904
#
# Velocity S-wave (km/s) = 3.08699 3.49764 3.29871
# Velocity P-wave (km/s) = 5.02014 5.91268 5.48460
#
# Compressibility (1/GPa) = 0.03989210
#
# Stress axis : x y z
#
# Youngs Moduli (GPa) = 34.29338 96.32514 55.22938
#
# Poissons Ratio (x) = 0.59480 0.06970
# Poissons Ratio (y) = 0.21176 0.07958
# Poissons Ratio (z) = 0.04328 0.13880
#
# Static dielectric constant tensor:
#      x y z
#    x 1.686000 0.000000 0.012040 
#    y 0.000000 1.682040 0.000000 
#    z 0.012040 0.000000 1.772350 
# 
# From -- ./inp_files/379102.got.cif
#   From: 2010.05.17/outbox.cif.g08.bks.cpg/sg12_190_cif.got.tgz:379102.got - 2010.06.03 13:09:07.
