data_PCOD9189549
_publ_section_title
;
Structure prediction by ZEFSAII (Michael W. Deem and Ramdas Pophale) SiO2 
 PCOD9189549
Probable space group: C 2/M
;
_chemical_formula_sum "Si O2"
_cell_formula_units_Z 48
_cell_length_a 19.910666
_cell_length_b 15.549539
_cell_length_c 18.373886
_cell_angle_alpha 90.000000
_cell_angle_beta 29.394976
_cell_angle_gamma 90.000000
_cell_volume 2792.113607
_symmetry_space_group_name_H-M "C 2/M"
_symmetry_group_IT_number 12
_symmetry_cell_setting 'monoclinic'
loop_
_space_group_symop_operation_xyz
x,y,z
-x,y,-z
-x,-y,-z
x,-y,z
1/2+x,1/2+y,z
1/2-x,1/2+y,-z
1/2-x,1/2-y,-z
1/2+x,1/2-y,z
loop_
_atom_site_type_symbol
_atom_site_label
_atom_site_fract_x
_atom_site_fract_y
_atom_site_fract_z
Si Si1 0.599634 0.688254 0.034123
Si Si2 0.500000 0.299937 0.500000
Si Si3 0.267299 0.897310 0.312314
Si Si4 0.500000 0.188982 0.000000
Si Si5 0.398074 0.500000 0.030695
Si Si6 0.914327 0.316055 0.721556
Si Si7 0.615433 0.214012 0.664750
Si Si8 0.594052 0.000000 0.341635
O O1 0.483011 0.718523 0.200163
O O2 0.567325 0.747067 0.994780
O O3 0.587021 0.587021 0.029326
O O4 0.761183 0.703006 0.896195
O O5 0.625282 0.355290 0.416591
O O6 0.553313 0.242576 0.380643
O O7 0.326568 0.855050 0.331220
O O8 0.253136 0.000000 0.332427
O O9 0.383539 0.870106 0.144907
O O10 0.253480 0.500000 0.208264
O O11 0.500000 0.500000 0.000000
O O12 0.925395 0.413520 0.684320
O O13 0.020313 0.312146 0.687292
O O14 0.750000 0.250000 0.500000
O O15 0.500000 0.000000 0.500000
#
# Coordination Sequence:
#
# PCOD9189549 Si02
#       8
#     8   4   8   4   4   8   8   4
#     4  10  21  38  61  88 121 161 195 244 304 358
#     4  12  21  39  68  84 122 160 200 253 299 356
#     4  11  24  41  62  90 118 156 205 253 300 353
#     4  10  19  37  66  88 116 154 202 251 299 352
#     4  10  20  34  60  92 124 148 197 248 294 358
#     4  11  22  40  60  90 124 161 197 245 305 362
#     4  11  24  41  62  86 120 161 201 248 307 357
#     4  10  22  34  60  94 122 155 198 246 299 357
#
# _framework density 17.191278000000001
#
# number of rings (size 3 to 8) (size 9 to 14) (size 15 to 20)
#    0.000    1.333    5.000    1.000    1.167    1.333 
#    1.500    0.000    0.000    0.000    0.000    0.000 
#    0.000    0.000    0.000    0.000    0.000    0.000 
#
# Total GULP energy -133681.094545 kJ/mol
# GULP energy per Si atom -5570.045606 kJ/mol
# Density = 1.715215 g / cm^3
# Si number density = 17.191278 Si / 1000 Ang^3
#
#
#
# Elastic Constant Matrix: (Units=GPa)
#
#
# Indices 1 2 3 4 5 6 
#
# 1 138.2003 59.3093 84.0300 0.0001 -27.1086 0.0000
# 2 59.3093 130.3204 84.4412 0.0002 -11.9367 -0.0001
# 3 84.0300 84.4412 165.6051 0.0001 -10.5259 0.0000
# 4 0.0001 0.0002 0.0001 14.2184 -0.0001 -8.8888
# 5 -27.1086 -11.9367 -10.5259 -0.0001 35.8754 0.0000
# 6 0.0000 -0.0001 0.0000 -8.8888 0.0000 -1.0162
#
#
#
# Elastic Compliance Matrix: (Units=1/GPa)
#
#
# Indices 1 2 3 4 5 6 
#
# 1 0.012451 -0.001795 -0.004935 0.000000 0.007363 0.000000
# 2 -0.001795 0.011881 -0.005077 0.000000 0.001108 0.000000
# 3 -0.004935 -0.005077 0.010992 0.000000 -0.002193 0.000000
# 4 0.000000 0.000000 0.000000 0.010873 0.000000 -0.095108
# 5 0.007363 0.001108 -0.002193 0.000000 0.033163 0.000000
# 6 0.000000 0.000000 0.000000 -0.095108 0.000000 -0.152132
#
#
# Mechanical properties :
#
#
# Convention : Reuss Voigt Hill
#
# Bulk Modulus (GPa) = 85.38942 98.85410 92.12176
# Shear Modulus (GPa) = -110.48451 23.57188 -43.45631
#
# Velocity S-wave (km/s) = -8.02542 3.70693 -5.03319
# Velocity P-wave (km/s) = 6.00819 8.71487 4.46378
#
# Compressibility (1/GPa) = 0.01171105
#
# Stress axis : x y z
#
# Youngs Moduli (GPa) = 80.31647 84.16542 90.97671
#
# Poissons Ratio (x) = 0.15104 0.44893
# Poissons Ratio (y) = 0.14413 0.46191
# Poissons Ratio (z) = 0.39633 0.42733
#
# Static dielectric constant tensor:
#      x y z
#    x 1.622230 0.000000 0.029330 
#    y 0.000000 1.547950 0.000000 
#    z 0.029330 0.000000 1.593960 
# 
# From -- ./inp_files/278113.got.cif
#   From: 2010.05.17/outbox.cif.g08.bks.cpg/sg12_140_cif.got.tgz:278113.got - 2010.06.03 13:09:07.
