data_PCOD9189011
_publ_section_title
;
Structure prediction by ZEFSAII (Michael W. Deem and Ramdas Pophale) SiO2 
 PCOD9189011
Probable space group: C 2/M
;
_chemical_formula_sum "Si O2"
_cell_formula_units_Z 60
_cell_length_a 7.813775
_cell_length_b 19.865228
_cell_length_c 21.817732
_cell_angle_alpha 90.000000
_cell_angle_beta 127.979228
_cell_angle_gamma 90.000000
_cell_volume 2669.433885
_symmetry_space_group_name_H-M "C 2/M"
_symmetry_group_IT_number 12
_symmetry_cell_setting 'monoclinic'
loop_
_space_group_symop_operation_xyz
x,y,z
-x,y,-z
-x,-y,-z
x,-y,z
1/2+x,1/2+y,z
1/2-x,1/2+y,-z
1/2-x,1/2-y,-z
1/2+x,1/2-y,z
loop_
_atom_site_type_symbol
_atom_site_label
_atom_site_fract_x
_atom_site_fract_y
_atom_site_fract_z
Si Si1 0.507275 0.786491 0.212977
Si Si2 0.407910 0.077329 0.918170
Si Si3 0.492972 0.424031 0.375987
Si Si4 0.179313 0.328256 0.487057
Si Si5 0.583763 0.647469 0.765522
Si Si6 0.970690 0.611825 0.674818
Si Si7 0.737132 0.500000 0.203944
Si Si8 0.291881 0.611866 0.910364
O O1 0.545122 0.708306 0.233152
O O2 0.708925 0.815364 0.219589
O O3 0.503056 0.822957 0.277097
O O4 0.291456 0.814719 0.131402
O O5 0.185198 0.104193 0.842053
O O6 0.591583 0.083569 0.906934
O O7 0.362505 0.000000 0.922210
O O8 0.500000 0.110917 0.000000
O O9 0.577501 0.500000 0.398835
O O10 0.616762 0.372877 0.447255
O O11 0.511148 0.396264 0.310609
O O12 0.241744 0.423596 0.341524
O O13 0.250000 0.250000 0.500000
O O14 0.082931 0.360800 0.404166
O O15 0.000000 0.333948 0.500000
O O16 0.165796 0.559673 0.727995
O O17 0.681724 0.559703 0.139764
O O18 0.500000 0.615552 0.000000
#
# Coordination Sequence:
#
# PCOD9189011 Si02
#       8
#     8   8   8   8   8   8   4   8
#     4   9  21  36  60  88 119 166 204 263 313 368
#     4  10  21  36  58  86 120 160 201 257 319 370
#     4  11  23  40  70  99 125 173 218 262 322 386
#     4  12  27  46  68  96 135 171 213 264 321 379
#     4  10  21  39  61  87 126 160 214 261 315 379
#     4  10  21  40  67  94 126 162 217 254 312 389
#     4  10  19  36  65  90 122 168 204 258 313 376
#     4  10  20  36  62  91 121 158 214 257 313 383
#
# _framework density 22.476676000000001
#
# number of rings (size 3 to 8) (size 9 to 14) (size 15 to 20)
#    0.000    1.733    1.333    3.400    0.933    5.600 
#    0.000    4.000    0.000    0.000    0.000    0.000 
#    0.000    0.000    0.000    0.000    0.000    0.000 
#
# Total GULP energy -167241.561698 kJ/mol
# GULP energy per Si atom -5574.718723 kJ/mol
# Density = 2.242552 g / cm^3
# Si number density = 22.476676 Si / 1000 Ang^3
#
#
#
# Elastic Constant Matrix: (Units=GPa)
#
#
# Indices 1 2 3 4 5 6 
#
# 1 62.4372 5.9469 16.7672 -0.0001 -6.2094 0.0001
# 2 5.9469 119.6024 46.6078 0.0000 -10.3010 0.0000
# 3 16.7672 46.6078 161.8430 0.0000 -22.9026 0.0000
# 4 -0.0001 0.0000 0.0000 -20.4102 0.0000 21.7552
# 5 -6.2094 -10.3010 -22.9026 0.0000 28.8646 0.0000
# 6 0.0001 0.0000 0.0000 21.7552 0.0000 -1.2095
#
#
#
# Elastic Compliance Matrix: (Units=1/GPa)
#
#
# Indices 1 2 3 4 5 6 
#
# 1 0.016633 -0.000089 -0.001347 0.000000 0.002478 0.000000
# 2 -0.000089 0.009466 -0.002525 0.000000 0.001356 0.000000
# 3 -0.001347 -0.002525 0.007747 0.000000 0.004956 0.000000
# 4 0.000000 0.000000 0.000000 0.002696 0.000000 0.048495
# 5 0.002478 0.001356 0.004956 0.000000 0.039593 0.000000
# 6 0.000000 0.000000 0.000000 0.048495 0.000000 0.045497
#
#
# Mechanical properties :
#
#
# Convention : Reuss Voigt Hill
#
# Bulk Modulus (GPa) = 38.57405 53.61404 46.09404
# Shear Modulus (GPa) = 36.18061 19.75303 27.96682
#
# Velocity S-wave (km/s) = 4.01645 2.96771 3.53123
# Velocity P-wave (km/s) = 6.22160 5.97060 6.09739
#
# Compressibility (1/GPa) = 0.02592417
#
# Stress axis : x y z
#
# Youngs Moduli (GPa) = 60.12265 105.63903 129.08457
#
# Poissons Ratio (x) = 0.00937 0.17388
# Poissons Ratio (y) = 0.00533 0.32595
# Poissons Ratio (z) = 0.08099 0.26675
#
# Static dielectric constant tensor:
#      x y z
#    x 1.924430 0.000000 0.042740 
#    y 0.000000 1.836840 0.000000 
#    z 0.042740 0.000000 1.836650 
# 
# From -- ./inp_files/301904.got.cif
#   From: 2010.05.17/outbox.cif.g08.bks.cpg/sg12_151_cif.got.tgz:301904.got - 2010.06.03 13:09:07.
