data_PCOD9190594
_publ_section_title
;
Structure prediction by ZEFSAII (Michael W. Deem and Ramdas Pophale) SiO2 
 PCOD9190594
Probable space group: C 2/M
;
_chemical_formula_sum "Si O2"
_cell_formula_units_Z 56
_cell_length_a 28.551478
_cell_length_b 8.904644
_cell_length_c 21.372126
_cell_angle_alpha 90.000000
_cell_angle_beta 41.663513
_cell_angle_gamma 90.000000
_cell_volume 3612.054791
_symmetry_space_group_name_H-M "C 2/M"
_symmetry_group_IT_number 12
_symmetry_cell_setting 'monoclinic'
loop_
_space_group_symop_operation_xyz
x,y,z
-x,y,-z
-x,-y,-z
x,-y,z
1/2+x,1/2+y,z
1/2-x,1/2+y,-z
1/2-x,1/2-y,-z
1/2+x,1/2-y,z
loop_
_atom_site_type_symbol
_atom_site_label
_atom_site_fract_x
_atom_site_fract_y
_atom_site_fract_z
Si Si1 0.215781 0.679969 0.971687
Si Si2 0.423440 0.320087 0.324068
Si Si3 0.417603 0.180704 0.578167
Si Si4 0.783121 0.819618 0.403934
Si Si5 0.342947 0.320064 0.532878
Si Si6 0.658814 0.819469 0.215894
Si Si7 0.575918 0.180157 0.172162
O O1 0.221764 0.500000 0.967330
O O2 0.264410 0.745632 0.868582
O O3 0.250000 0.750000 0.000000
O O4 0.133308 0.719050 0.061305
O O5 0.430044 0.500000 0.318353
O O6 0.365760 0.281410 0.328266
O O7 0.389495 0.275777 0.425212
O O8 0.499553 0.249314 0.239555
O O9 0.500000 0.220503 0.500000
O O10 0.380763 0.260684 0.556828
O O11 0.379184 0.219055 0.681558
O O12 0.413122 0.000000 0.574175
O O13 0.750000 0.750000 0.500000
O O14 0.734641 0.751268 0.398247
O O15 0.776497 0.000000 0.411442
O O16 0.337367 0.500000 0.538366
O O17 0.610184 0.773735 0.204976
O O18 0.666482 0.000000 0.204668
O O19 0.569693 0.000000 0.179971
#
# Coordination Sequence:
#
# PCOD9190594 Si02
#       7
#     8   8   8   8   8   8   8
#     4   9  17  29  44  63  87 116 149 184 223 265
#     4   9  18  29  43  66  92 116 145 183 224 265
#     4  10  20  33  48  66  91 124 157 187 221 262
#     4   9  17  30  46  65  89 117 150 186 225 269
#     4  10  20  32  45  65  92 122 156 188 221 264
#     4   9  18  31  45  64  89 119 155 186 217 262
#     4   9  17  28  44  66  90 116 147 182 221 268
#
# _framework density 15.503640000000001
#
# number of rings (size 3 to 8) (size 9 to 14) (size 15 to 20)
#    0.000    2.714    0.000    3.857    0.000    8.286 
#    0.000    0.000    0.000    0.000    0.000    1.000 
#    0.000    8.000    0.000    0.000    0.000    0.000 
#
# Total GULP energy -155935.597696 kJ/mol
# GULP energy per Si atom -5569.128489 kJ/mol
# Density = 1.546835 g / cm^3
# Si number density = 15.503640 Si / 1000 Ang^3
#
#
#
# Elastic Constant Matrix: (Units=GPa)
#
#
# Indices 1 2 3 4 5 6 
#
# 1 123.3319 42.7033 66.4047 -0.0039 -24.8851 0.0026
# 2 42.7033 32.8329 42.2740 -0.0048 -10.1792 0.0072
# 3 66.4047 42.2740 120.3715 -0.0028 -25.7716 0.0026
# 4 -0.0039 -0.0048 -0.0028 25.4484 0.0035 -4.5983
# 5 -24.8851 -10.1792 -25.7716 0.0035 26.6754 -0.0015
# 6 0.0026 0.0072 0.0026 -4.5983 -0.0015 27.9834
#
#
#
# Elastic Compliance Matrix: (Units=1/GPa)
#
#
# Indices 1 2 3 4 5 6 
#
# 1 0.016240 -0.017044 -0.001415 -0.000001 0.007279 0.000003
# 2 -0.017044 0.073671 -0.017469 0.000007 -0.004665 -0.000015
# 3 -0.001415 -0.017469 0.017038 -0.000002 0.008474 0.000003
# 4 -0.000001 0.000007 -0.000002 0.040498 -0.000006 0.006655
# 5 0.007279 -0.004665 0.008474 -0.000006 0.050686 0.000001
# 6 0.000003 -0.000015 0.000003 0.006655 0.000001 0.036829
#
#
# Mechanical properties :
#
#
# Convention : Reuss Voigt Hill
#
# Bulk Modulus (GPa) = 28.49570 64.36672 46.43121
# Shear Modulus (GPa) = 15.69788 24.36507 20.03147
#
# Velocity S-wave (km/s) = 3.18548 3.96861 3.59841
# Velocity P-wave (km/s) = 5.65240 7.91246 6.87592
#
# Compressibility (1/GPa) = 0.03509301
#
# Stress axis : x y z
#
# Youngs Moduli (GPa) = 61.57580 13.57387 58.69361
#
# Poissons Ratio (x) = 0.23135 0.08305
# Poissons Ratio (y) = 1.04948 1.02533
# Poissons Ratio (z) = 0.08712 0.23713
#
# Static dielectric constant tensor:
#      x y z
#    x 1.522190 0.000000 -0.010060 
#    y 0.000000 1.511490 0.000000 
#    z -0.010060 0.000000 1.530770 
# 
# From -- ./inp_files/288254.got.cif
#   From: 2010.05.17/outbox.cif.g08.bks.cpg/sg12_145_cif.got.tgz:288254.got - 2010.06.03 13:09:07.
