data_PCOD9190309
_publ_section_title
;
Structure prediction by ZEFSAII (Michael W. Deem and Ramdas Pophale) SiO2 
 PCOD9190309
Probable space group: C 2/M
;
_chemical_formula_sum "Si O2"
_cell_formula_units_Z 54
_cell_length_a 20.568852
_cell_length_b 26.993252
_cell_length_c 5.150445
_cell_angle_alpha 90.000000
_cell_angle_beta 114.457800
_cell_angle_gamma 90.000000
_cell_volume 2603.026299
_symmetry_space_group_name_H-M "C 2/M"
_symmetry_group_IT_number 12
_symmetry_cell_setting 'monoclinic'
loop_
_space_group_symop_operation_xyz
x,y,z
-x,y,-z
-x,-y,-z
x,-y,z
1/2+x,1/2+y,z
1/2-x,1/2+y,-z
1/2-x,1/2-y,-z
1/2+x,1/2-y,z
loop_
_atom_site_type_symbol
_atom_site_label
_atom_site_fract_x
_atom_site_fract_y
_atom_site_fract_z
Si Si1 0.926880 0.584126 0.214363
Si Si2 0.550838 0.807864 0.835480
Si Si3 0.050110 0.000000 0.828935
Si Si4 0.000000 0.500000 0.000000
Si Si5 0.199139 0.939473 0.634088
Si Si6 0.784669 0.558764 0.268680
Si Si7 0.551541 0.299574 0.834711
Si Si8 0.415360 0.400227 0.923471
O O1 0.909578 0.639628 0.090266
O O2 0.000000 0.584970 0.500000
O O3 0.945051 0.543572 0.025196
O O4 0.864361 0.569441 0.307608
O O5 0.500000 0.808304 0.500000
O O6 0.589071 0.754293 0.882434
O O7 0.500000 0.808202 0.000000
O O8 0.000000 0.000000 0.500000
O O9 0.094297 0.949590 0.918857
O O10 0.000000 0.000000 0.000000
O O11 0.231924 0.921562 0.958162
O O12 0.129549 0.911806 0.408293
O O13 0.186974 0.000000 0.613296
O O14 0.259211 0.927691 0.513229
O O15 0.776754 0.500000 0.243931
O O16 0.500000 0.306833 0.500000
O O17 0.500000 0.296075 0.000000
O O18 0.599282 0.348047 0.963030
O O19 0.500000 0.398497 0.000000
#
# Coordination Sequence:
#
# PCOD9190309 Si02
#       8
#     8   8   4   2   8   8   8   8
#     4  11  23  35  58  87 116 144 185 229 276 322
#     4   9  18  33  52  79 111 141 177 224 276 326
#     4  10  20  30  46  78 108 130 165 227 280 308
#     4  12  22  32  56  94 116 136 180 240 274 312
#     4  10  22  38  52  76 110 154 183 217 279 336
#     4  10  23  37  54  74 114 150 181 216 271 346
#     4   9  18  32  52  79 108 140 179 229 281 321
#     4  10  20  36  57  83 109 143 189 239 274 324
#
# _framework density 20.745085
#
# number of rings (size 3 to 8) (size 9 to 14) (size 15 to 20)
#    0.000    2.074    2.222    0.667    2.074    4.741 
#    0.000    0.000    0.000    1.778    0.000    0.000 
#    0.000    0.000    0.000    0.000    0.000    0.000 
#
# Total GULP energy -150384.770466 kJ/mol
# GULP energy per Si atom -5569.806314 kJ/mol
# Density = 2.069787 g / cm^3
# Si number density = 20.745085 Si / 1000 Ang^3
#
#
#
# Elastic Constant Matrix: (Units=GPa)
#
#
# Indices 1 2 3 4 5 6 
#
# 1 85.7451 0.1561 7.1326 0.0000 1.1315 0.0000
# 2 0.1561 158.9023 10.7045 0.0000 -8.5431 0.0000
# 3 7.1326 10.7045 69.9228 0.0000 -12.3323 0.0000
# 4 0.0000 0.0000 0.0000 -3.7706 0.0000 -2.8436
# 5 1.1315 -8.5431 -12.3323 0.0000 32.1622 0.0000
# 6 0.0000 0.0000 0.0000 -2.8436 0.0000 8.5613
#
#
#
# Elastic Compliance Matrix: (Units=1/GPa)
#
#
# Indices 1 2 3 4 5 6 
#
# 1 0.011789 0.000031 -0.001372 0.000000 -0.000933 0.000000
# 2 0.000031 0.006419 -0.000735 0.000000 0.001422 0.000000
# 3 -0.001372 -0.000735 0.015582 0.000000 0.005828 0.000000
# 4 0.000000 0.000000 0.000000 -0.212083 0.000000 -0.070443
# 5 -0.000933 0.001422 0.005828 0.000000 0.033738 0.000000
# 6 0.000000 0.000000 0.000000 -0.070443 0.000000 0.093407
#
#
# Mechanical properties :
#
#
# Convention : Reuss Voigt Hill
#
# Bulk Modulus (GPa) = 33.74086 38.95073 36.34580
# Shear Modulus (GPa) = -134.70929 27.16236 -53.77346
#
# Velocity S-wave (km/s) = -8.06700 3.62241 -5.09680
# Velocity P-wave (km/s) = 8.39457 6.02598 4.13258
#
# Compressibility (1/GPa) = 0.02963765
#
# Stress axis : x y z
#
# Youngs Moduli (GPa) = 84.82610 155.78462 64.17752
#
# Poissons Ratio (x) = -0.00478 0.08803
# Poissons Ratio (y) = -0.00260 0.04717
# Poissons Ratio (z) = 0.11636 0.11450
#
# Static dielectric constant tensor:
#      x y z
#    x 1.764540 0.000000 -0.032150 
#    y 0.000000 1.861600 0.000000 
#    z -0.032150 0.000000 1.781180 
# 
# From -- ./inp_files/22390.got.cif
#   From: 2010.05.17/outbox.cif.g08.bks.cpg/sg12_12_cif.got.tgz:22390.got - 2010.06.03 13:09:07.
