data_PCOD9190988
_publ_section_title
;
Structure prediction by ZEFSAII (Michael W. Deem and Ramdas Pophale) SiO2 
 PCOD9190988
Probable space group: C 2/M
;
_chemical_formula_sum "Si O2"
_cell_formula_units_Z 56
_cell_length_a 19.570118
_cell_length_b 8.145419
_cell_length_c 25.464908
_cell_angle_alpha 90.000000
_cell_angle_beta 137.521078
_cell_angle_gamma 90.000000
_cell_volume 2741.308483
_symmetry_space_group_name_H-M "C 2/M"
_symmetry_group_IT_number 12
_symmetry_cell_setting 'monoclinic'
loop_
_space_group_symop_operation_xyz
x,y,z
-x,y,-z
-x,-y,-z
x,-y,z
1/2+x,1/2+y,z
1/2-x,1/2+y,-z
1/2-x,1/2-y,-z
1/2+x,1/2-y,z
loop_
_atom_site_type_symbol
_atom_site_label
_atom_site_fract_x
_atom_site_fract_y
_atom_site_fract_z
Si Si1 0.020088 0.808270 0.673790
Si Si2 0.562677 0.196100 0.584855
Si Si3 0.464998 0.303893 0.753014
Si Si4 0.582538 0.302248 0.003322
Si Si5 0.744532 0.197541 0.820960
Si Si6 0.292002 0.300039 0.732936
Si Si7 0.863251 0.689688 0.076318
O O1 0.009973 0.728671 0.610947
O O2 0.961905 0.738810 0.691652
O O3 0.137829 0.785581 0.756057
O O4 0.996921 0.000000 0.654947
O O5 0.500000 0.262523 0.500000
O O6 0.678711 0.257057 0.653801
O O7 0.570208 0.000000 0.583030
O O8 0.452026 0.500000 0.741898
O O9 0.378080 0.238262 0.742522
O O10 0.573247 0.274133 0.841657
O O11 0.575225 0.500000 0.991669
O O12 0.690329 0.263797 0.091140
O O13 0.500000 0.255770 0.000000
O O14 0.575843 0.219591 0.943267
O O15 0.806089 0.238475 0.802508
O O16 0.726854 0.000000 0.810176
O O17 0.293309 0.500000 0.730898
O O18 0.857123 0.500000 0.086371
O O19 0.750000 0.750000 0.000000
#
# Coordination Sequence:
#
# PCOD9190988 Si02
#       7
#     8   8   8   8   8   8   8
#     4  10  20  32  51  77 103 132 164 207 260 310
#     4   9  18  35  59  82 104 135 173 208 245 302
#     4  10  20  36  55  75 103 139 178 217 264 321
#     4  10  20  35  55  77 103 138 179 224 276 328
#     4   9  17  31  52  73  95 131 176 215 251 304
#     4   8  15  31  55  78 100 132 174 213 250 302
#     4  12  25  38  53  75 106 144 186 232 278 321
#
# _framework density 20.428201000000001
#
# number of rings (size 3 to 8) (size 9 to 14) (size 15 to 20)
#    0.000    2.286    0.000    4.286    0.000    6.857 
#    0.000    6.429    0.000    0.000    0.000    0.000 
#    0.000    0.000    0.000    0.000    0.000    0.000 
#
# Total GULP energy -156293.591000 kJ/mol
# GULP energy per Si atom -5581.913964 kJ/mol
# Density = 2.038171 g / cm^3
# Si number density = 20.428201 Si / 1000 Ang^3
#
#
#
# Elastic Constant Matrix: (Units=GPa)
#
#
# Indices 1 2 3 4 5 6 
#
# 1 105.7198 -1.2041 25.8328 0.0000 -21.1606 0.0000
# 2 -1.2041 2.8562 -0.7053 0.0000 0.8014 0.0000
# 3 25.8328 -0.7053 88.0025 0.0000 -25.0837 0.0000
# 4 0.0000 0.0000 0.0000 17.5277 0.0000 -4.7051
# 5 -21.1606 0.8014 -25.0837 0.0000 25.2505 0.0000
# 6 0.0000 0.0000 0.0000 -4.7051 0.0000 18.5393
#
#
#
# Elastic Compliance Matrix: (Units=1/GPa)
#
#
# Indices 1 2 3 4 5 6 
#
# 1 0.011426 0.002178 -0.000875 0.000000 0.008638 0.000000
# 2 0.002178 0.353690 -0.000675 0.000000 -0.010071 0.000000
# 3 -0.000875 -0.000675 0.015919 0.000000 0.015103 0.000000
# 4 0.000000 0.000000 0.000000 0.061224 0.000000 0.015538
# 5 0.008638 -0.010071 0.015103 0.000000 0.062164 0.000000
# 6 0.000000 0.000000 0.000000 0.015538 0.000000 0.057883
#
#
# Mechanical properties :
#
#
# Convention : Reuss Voigt Hill
#
# Bulk Modulus (GPa) = 2.61581 27.15835 14.88708
# Shear Modulus (GPa) = 7.26236 23.77385 15.51810
#
# Velocity S-wave (km/s) = 1.88753 3.41512 2.75915
# Velocity P-wave (km/s) = 2.45635 5.37346 4.17778
#
# Compressibility (1/GPa) = 0.38229122
#
# Stress axis : x y z
#
# Youngs Moduli (GPa) = 87.51673 2.82733 62.81623
#
# Poissons Ratio (x) = -0.00616 0.05495
# Poissons Ratio (y) = -0.19058 0.04242
# Poissons Ratio (z) = 0.07655 0.00191
#
# Static dielectric constant tensor:
#      x y z
#    x 1.779630 0.000000 0.003750 
#    y 0.000000 1.730620 0.000000 
#    z 0.003750 0.000000 1.739390 
# 
# From -- ./inp_files/342491.got.cif
#   From: 2010.05.17/outbox.cif.g08.bks.cpg/sg12_172_cif.got.tgz:342491.got - 2010.06.03 13:09:07.
