data_PCOD9190738
_publ_section_title
;
Structure prediction by ZEFSAII (Michael W. Deem and Ramdas Pophale) SiO2 
 PCOD9190738
Probable space group: C 2/M
;
_chemical_formula_sum "Si O2"
_cell_formula_units_Z 48
_cell_length_a 18.238931
_cell_length_b 10.034642
_cell_length_c 13.385669
_cell_angle_alpha 90.000000
_cell_angle_beta 121.589389
_cell_angle_gamma 90.000000
_cell_volume 2086.849822
_symmetry_space_group_name_H-M "C 2/M"
_symmetry_group_IT_number 12
_symmetry_cell_setting 'monoclinic'
loop_
_space_group_symop_operation_xyz
x,y,z
-x,y,-z
-x,-y,-z
x,-y,z
1/2+x,1/2+y,z
1/2-x,1/2+y,-z
1/2-x,1/2-y,-z
1/2+x,1/2-y,z
loop_
_atom_site_type_symbol
_atom_site_label
_atom_site_fract_x
_atom_site_fract_y
_atom_site_fract_z
Si Si1 0.942200 0.854032 0.574598
Si Si2 0.047161 0.729970 0.944898
Si Si3 0.121685 0.855417 0.242033
Si Si4 0.731234 0.342966 0.081117
Si Si5 0.580244 0.849155 0.737410
Si Si6 0.256445 0.659332 0.404281
O O1 0.903052 0.858846 0.658367
O O2 0.857183 0.831815 0.447427
O O3 0.016355 0.746190 0.632726
O O4 0.979445 0.000000 0.584161
O O5 0.063687 0.666959 0.846686
O O6 0.972336 0.837503 0.872041
O O7 0.136961 0.793312 0.045549
O O8 0.000000 0.647972 0.000000
O O9 0.187719 0.731399 0.283207
O O10 0.160592 0.000000 0.241859
O O11 0.726289 0.500000 0.051719
O O12 0.818130 0.326019 0.207233
O O13 0.750000 0.250000 0.000000
O O14 0.559815 0.000000 0.696346
O O15 0.237741 0.500000 0.405482
O O16 0.250000 0.750000 0.500000
#
# Coordination Sequence:
#
# PCOD9190738 Si02
#       6
#     8   8   8   8   8   8
#     4   8  15  27  44  66  90 118 153 190 232 284
#     4  10  20  32  48  70  97 130 165 198 232 276
#     4   9  17  27  40  62  90 119 152 189 230 274
#     4   9  18  32  48  67  92 123 159 196 235 277
#     4   9  18  31  48  71  98 126 156 196 240 278
#     4   9  16  26  41  62  89 119 148 184 232 280
#
# _framework density 23.001176999999998
#
# number of rings (size 3 to 8) (size 9 to 14) (size 15 to 20)
#    0.000    3.000    0.000    2.000    0.000   12.333 
#    0.000    0.000    0.000    0.000    0.000    1.167 
#    0.000    6.667    0.000    2.000    0.000   10.167 
#
# Total GULP energy -133689.509754 kJ/mol
# GULP energy per Si atom -5570.396240 kJ/mol
# Density = 2.294882 g / cm^3
# Si number density = 23.001177 Si / 1000 Ang^3
#
#
#
# Elastic Constant Matrix: (Units=GPa)
#
#
# Indices 1 2 3 4 5 6 
#
# 1 126.0961 60.2386 41.6062 0.0000 23.2573 0.0000
# 2 60.2386 195.0197 91.5097 0.0000 54.2532 0.0000
# 3 41.6062 91.5097 126.7148 0.0000 40.9616 0.0000
# 4 0.0000 0.0000 0.0000 14.3951 0.0000 18.4803
# 5 23.2573 54.2532 40.9616 0.0000 50.3807 0.0000
# 6 0.0000 0.0000 0.0000 18.4803 0.0000 6.1806
#
#
#
# Elastic Compliance Matrix: (Units=1/GPa)
#
#
# Indices 1 2 3 4 5 6 
#
# 1 0.009536 -0.002006 -0.001299 0.000000 -0.001186 0.000000
# 2 -0.002006 0.009307 -0.004235 0.000000 -0.005653 0.000000
# 3 -0.001299 -0.004235 0.013170 0.000000 -0.005547 0.000000
# 4 0.000000 0.000000 0.000000 -0.024473 0.000000 0.073175
# 5 -0.001186 -0.005653 -0.005547 0.000000 0.030994 0.000000
# 6 0.000000 0.000000 0.000000 0.073175 0.000000 -0.056999
#
#
# Mechanical properties :
#
#
# Convention : Reuss Voigt Hill
#
# Bulk Modulus (GPa) = 59.05832 92.72661 75.89246
# Shear Modulus (GPa) = 2211.37689 31.15636 1121.26663
#
# Velocity S-wave (km/s) = 31.04040 3.68442 22.10295
# Velocity P-wave (km/s) = 36.19954 7.64862 26.16207
#
# Compressibility (1/GPa) = 0.01693242
#
# Stress axis : x y z
#
# Youngs Moduli (GPa) = 104.86400 107.44102 75.92931
#
# Poissons Ratio (x) = 0.21554 0.09864
# Poissons Ratio (y) = 0.21037 0.32159
# Poissons Ratio (z) = 0.13623 0.45505
#
# Static dielectric constant tensor:
#      x y z
#    x 1.926610 0.000000 -0.078510 
#    y 0.000000 1.826580 0.000000 
#    z -0.078510 0.000000 1.976600 
# 
# From -- ./inp_files/281803.got.cif
#   From: 2010.05.17/outbox.cif.g08.bks.cpg/sg12_141_cif.got.tgz:281803.got - 2010.06.03 13:09:07.
