data_PCOD9190490
_publ_section_title
;
Structure prediction by ZEFSAII (Michael W. Deem and Ramdas Pophale) SiO2 
 PCOD9190490
Probable space group: C 2/M
;
_chemical_formula_sum "Si O2"
_cell_formula_units_Z 48
_cell_length_a 9.661097
_cell_length_b 23.797922
_cell_length_c 13.146895
_cell_angle_alpha 90.000000
_cell_angle_beta 125.166861
_cell_angle_gamma 90.000000
_cell_volume 2470.954982
_symmetry_space_group_name_H-M "C 2/M"
_symmetry_group_IT_number 12
_symmetry_cell_setting 'monoclinic'
loop_
_space_group_symop_operation_xyz
x,y,z
-x,y,-z
-x,-y,-z
x,-y,z
1/2+x,1/2+y,z
1/2-x,1/2+y,-z
1/2-x,1/2-y,-z
1/2+x,1/2-y,z
loop_
_atom_site_type_symbol
_atom_site_label
_atom_site_fract_x
_atom_site_fract_y
_atom_site_fract_z
Si Si1 0.139385 0.342701 0.274610
Si Si2 0.142383 0.303255 0.985480
Si Si3 0.569622 0.123518 0.630469
Si Si4 0.593239 0.366473 0.765266
Si Si5 0.788775 0.221729 0.625379
Si Si6 0.595849 0.433091 0.145789
O O1 0.293256 0.376292 0.287460
O O2 0.187882 0.276808 0.295927
O O3 0.961038 0.340134 0.139218
O O4 0.089397 0.363712 0.364696
O O5 0.250000 0.250000 0.000000
O O6 0.266846 0.342719 0.099300
O O7 0.000000 0.280192 0.000000
O O8 0.500000 0.092764 0.500000
O O9 0.652569 0.181294 0.621965
O O10 0.717967 0.093021 0.756112
O O11 0.454448 0.317724 0.686400
O O12 0.503682 0.414871 0.793226
O O13 0.750000 0.250000 0.500000
O O14 0.608027 0.500000 0.144446
O O15 0.500000 0.413665 0.000000
#
# Coordination Sequence:
#
# PCOD9190490 Si02
#       6
#     8   8   8   8   8   8
#     4  11  21  34  55  85 127 159 195 237 294 354
#     4  10  20  31  49  78 114 152 187 230 285 342
#     4  11  23  38  60  91 122 161 203 250 293 360
#     4  10  22  37  57  87 118 155 200 249 290 358
#     4  11  21  35  53  83 126 171 203 226 282 358
#     4  10  23  46  70  86 110 154 206 260 314 363
#
# _framework density 19.425688000000001
#
# number of rings (size 3 to 8) (size 9 to 14) (size 15 to 20)
#    0.000    1.500    3.333    2.000    2.333    1.000 
#    0.000    0.833    0.000    7.500    0.000    0.000 
#    0.000    0.000    0.000    0.000    0.000    0.000 
#
# Total GULP energy -133765.174282 kJ/mol
# GULP energy per Si atom -5573.548928 kJ/mol
# Density = 1.938147 g / cm^3
# Si number density = 19.425688 Si / 1000 Ang^3
#
#
#
# Elastic Constant Matrix: (Units=GPa)
#
#
# Indices 1 2 3 4 5 6 
#
# 1 114.3976 29.8984 15.3785 0.0000 -17.0167 0.0000
# 2 29.8984 52.8498 26.3211 0.0000 -1.4731 0.0000
# 3 15.3785 26.3211 98.3374 0.0000 -1.0110 0.0000
# 4 0.0000 0.0000 0.0000 24.0632 0.0000 2.0481
# 5 -17.0167 -1.4731 -1.0110 0.0000 33.6126 0.0000
# 6 0.0000 0.0000 0.0000 2.0481 0.0000 4.0548
#
#
#
# Elastic Compliance Matrix: (Units=1/GPa)
#
#
# Indices 1 2 3 4 5 6 
#
# 1 0.011151 -0.006135 -0.000046 0.000000 0.005375 0.000000
# 2 -0.006135 0.025228 -0.005815 0.000000 -0.002175 0.000000
# 3 -0.000046 -0.005815 0.011734 0.000000 0.000075 0.000000
# 4 0.000000 0.000000 0.000000 0.043424 0.000000 -0.021933
# 5 0.005375 -0.002175 0.000075 0.000000 0.032379 0.000000
# 6 0.000000 0.000000 0.000000 -0.021933 0.000000 0.257698
#
#
# Mechanical properties :
#
#
# Convention : Reuss Voigt Hill
#
# Bulk Modulus (GPa) = 41.46251 45.42009 43.44130
# Shear Modulus (GPa) = 12.08761 25.27857 18.68309
#
# Velocity S-wave (km/s) = 2.49720 3.61126 3.10461
# Velocity P-wave (km/s) = 5.45024 6.38909 5.93825
#
# Compressibility (1/GPa) = 0.02411817
#
# Stress axis : x y z
#
# Youngs Moduli (GPa) = 89.68064 39.63835 85.22490
#
# Poissons Ratio (x) = 0.24319 0.00395
# Poissons Ratio (y) = 0.55022 0.49562
# Poissons Ratio (z) = 0.00416 0.23052
#
# Static dielectric constant tensor:
#      x y z
#    x 1.563690 0.000000 -0.033090 
#    y 0.000000 1.669180 0.000000 
#    z -0.033090 0.000000 1.773250 
# 
# From -- ./inp_files/123892.got.cif
#   From: 2010.05.17/outbox.cif.g08.bks.cpg/sg12_62_cif.got.tgz:123892.got - 2010.06.03 13:09:07.
