data_PCOD9190371
_publ_section_title
;
Structure prediction by ZEFSAII (Michael W. Deem and Ramdas Pophale) SiO2 
 PCOD9190371
Probable space group: C 2/M
;
_chemical_formula_sum "Si O2"
_cell_formula_units_Z 56
_cell_length_a 23.719423
_cell_length_b 7.600108
_cell_length_c 22.262014
_cell_angle_alpha 90.000000
_cell_angle_beta 49.771576
_cell_angle_gamma 90.000000
_cell_volume 3063.963379
_symmetry_space_group_name_H-M "C 2/M"
_symmetry_group_IT_number 12
_symmetry_cell_setting 'monoclinic'
loop_
_space_group_symop_operation_xyz
x,y,z
-x,y,-z
-x,-y,-z
x,-y,z
1/2+x,1/2+y,z
1/2-x,1/2+y,-z
1/2-x,1/2-y,-z
1/2+x,1/2-y,z
loop_
_atom_site_type_symbol
_atom_site_label
_atom_site_fract_x
_atom_site_fract_y
_atom_site_fract_z
Si Si1 0.987189 0.788040 0.762642
Si Si2 0.247174 0.700681 0.900360
Si Si3 0.857110 0.289897 0.931390
Si Si4 0.624443 0.712356 0.264463
Si Si5 0.309364 0.212577 0.541842
Si Si6 0.417958 0.789336 0.570231
Si Si7 0.851949 0.789909 0.377591
O O1 0.940784 0.742582 0.854059
O O2 0.938473 0.724896 0.739015
O O3 0.070700 0.720837 0.701042
O O4 0.989676 0.000000 0.757021
O O5 0.229461 0.500000 0.895562
O O6 0.306867 0.703362 0.913991
O O7 0.295487 0.780695 0.813295
O O8 0.174242 0.775283 0.982977
O O9 0.843823 0.500000 0.938003
O O10 0.626884 0.500000 0.257282
O O11 0.604899 0.755667 0.345741
O O12 0.358058 0.278454 0.563685
O O13 0.224883 0.279076 0.597078
O O14 0.346909 0.258158 0.452481
O O15 0.306122 0.000000 0.547206
O O16 0.500000 0.720000 0.500000
O O17 0.420671 0.000000 0.560121
O O18 0.851868 0.000000 0.368274
#
# Coordination Sequence:
#
# PCOD9190371 Si02
#       7
#     8   8   8   8   8   8   8
#     4   9  17  28  41  61  88 112 137 172 211 247
#     4   8  15  27  39  56  85 114 139 170 206 244
#     4   9  15  23  39  61  84 111 139 168 206 250
#     4   9  17  28  42  60  83 111 140 168 199 241
#     4   9  18  31  45  62  84 109 139 175 211 246
#     4  10  20  31  42  60  87 113 136 168 208 245
#     4   9  17  30  47  63  81 109 141 173 210 249
#
# _framework density 18.276979999999998
#
# number of rings (size 3 to 8) (size 9 to 14) (size 15 to 20)
#    0.000    3.000    0.000    2.143    0.000    4.286 
#    0.000    0.000    0.000    0.000    0.000    1.000 
#    0.000    8.000    0.000    0.000    0.000    0.000 
#
# Total GULP energy -155930.311221 kJ/mol
# GULP energy per Si atom -5568.939686 kJ/mol
# Density = 1.823538 g / cm^3
# Si number density = 18.276980 Si / 1000 Ang^3
#
#
#
# Elastic Constant Matrix: (Units=GPa)
#
#
# Indices 1 2 3 4 5 6 
#
# 1 79.8156 6.4487 81.9821 -0.0012 -14.9140 0.0003
# 2 6.4487 41.2562 -4.3108 -0.0043 -4.0025 0.0019
# 3 81.9821 -4.3108 195.4010 -0.0013 -30.9603 0.0009
# 4 -0.0012 -0.0043 -0.0013 19.5949 0.0012 3.5269
# 5 -14.9140 -4.0025 -30.9603 0.0012 27.8877 -0.0003
# 6 0.0003 0.0019 0.0009 3.5269 -0.0003 0.9756
#
#
#
# Elastic Compliance Matrix: (Units=1/GPa)
#
#
# Indices 1 2 3 4 5 6 
#
# 1 0.022873 -0.004474 -0.009536 -0.000007 0.001003 0.000036
# 2 -0.004474 0.025747 0.003218 0.000041 0.004875 -0.000196
# 3 -0.009536 0.003218 0.010259 0.000007 0.006752 -0.000034
# 4 -0.000007 0.000041 0.000007 0.146108 -0.000003 -0.528222
# 5 0.001003 0.004875 0.006752 -0.000003 0.044590 0.000012
# 6 0.000036 -0.000196 -0.000034 -0.528222 0.000012 2.934720
#
#
# Mechanical properties :
#
#
# Convention : Reuss Voigt Hill
#
# Bulk Modulus (GPa) = 26.81421 53.85696 40.33559
# Shear Modulus (GPa) = 1.55361 25.18182 13.36772
#
# Velocity S-wave (km/s) = 0.92297 3.71589 2.70737
# Velocity P-wave (km/s) = 3.97979 6.92398 5.64713
#
# Compressibility (1/GPa) = 0.03729366
#
# Stress axis : x y z
#
# Youngs Moduli (GPa) = 43.71969 38.83899 97.47070
#
# Poissons Ratio (x) = 0.17378 0.92951
# Poissons Ratio (y) = 0.19562 -0.31363
# Poissons Ratio (z) = 0.41693 -0.12497
#
# Static dielectric constant tensor:
#      x y z
#    x 1.612160 0.000000 -0.041120 
#    y 0.000000 1.737870 0.000000 
#    z -0.041120 0.000000 1.672390 
# 
# From -- ./inp_files/295153.got.cif
#   From: 2010.05.17/outbox.cif.g08.bks.cpg/sg12_148_cif.got.tgz:295153.got - 2010.06.03 13:09:07.
