data_PCOD9190355
_publ_section_title
;
Structure prediction by ZEFSAII (Michael W. Deem and Ramdas Pophale) SiO2 
 PCOD9190355
Probable space group: C 2/M
;
_chemical_formula_sum "Si O2"
_cell_formula_units_Z 48
_cell_length_a 14.874595
_cell_length_b 20.345108
_cell_length_c 13.701297
_cell_angle_alpha 90.000000
_cell_angle_beta 43.430520
_cell_angle_gamma 90.000000
_cell_volume 2850.515366
_symmetry_space_group_name_H-M "C 2/M"
_symmetry_group_IT_number 12
_symmetry_cell_setting 'monoclinic'
loop_
_space_group_symop_operation_xyz
x,y,z
-x,y,-z
-x,-y,-z
x,-y,z
1/2+x,1/2+y,z
1/2-x,1/2+y,-z
1/2-x,1/2-y,-z
1/2+x,1/2-y,z
loop_
_atom_site_type_symbol
_atom_site_label
_atom_site_fract_x
_atom_site_fract_y
_atom_site_fract_z
Si Si1 0.793997 0.926766 0.199606
Si Si2 0.265660 0.073556 0.523674
Si Si3 0.092611 0.257535 0.121975
Si Si4 0.054512 0.374729 0.282733
Si Si5 0.869431 0.203015 0.438801
Si Si6 0.500000 0.773150 0.500000
Si Si7 0.500000 0.688114 0.000000
O O1 0.749900 0.922460 0.346922
O O2 0.673753 0.920377 0.219617
O O3 0.852747 0.000000 0.140848
O O4 0.883200 0.863139 0.112893
O O5 0.417483 0.088522 0.385837
O O6 0.178741 0.129427 0.541730
O O7 0.230618 0.000000 0.520243
O O8 0.070822 0.332731 0.171755
O O9 0.039197 0.233314 0.060270
O O10 0.001040 0.217171 0.271639
O O11 0.250000 0.250000 0.000000
O O12 0.049922 0.321320 0.375303
O O13 0.750000 0.250000 0.500000
O O14 0.897606 0.225801 0.526929
#
# Coordination Sequence:
#
# PCOD9190355 Si02
#       7
#     8   8   8   8   8   4   4
#     4  11  21  34  54  80 116 152 180 226 290 347
#     4  11  21  35  57  87 116 147 186 236 290 344
#     4  11  23  35  55  81 117 146 189 233 280 328
#     4  11  19  35  55  86 113 141 185 237 287 338
#     4  11  20  37  59  84 112 148 187 240 283 336
#     4  10  20  30  58  84 110 134 190 234 284 322
#     4  12  23  36  54  80 113 150 192 232 270 344
#
# _framework density 16.839061000000001
#
# number of rings (size 3 to 8) (size 9 to 14) (size 15 to 20)
#    0.000    1.000    8.333    0.750    0.000    1.333 
#    0.000    0.417    0.000    0.000    0.000    2.333 
#    0.000    0.000    0.000    0.000    0.000    0.000 
#
# Total GULP energy -133746.801181 kJ/mol
# GULP energy per Si atom -5572.783383 kJ/mol
# Density = 1.680073 g / cm^3
# Si number density = 16.839061 Si / 1000 Ang^3
#
#
#
# Elastic Constant Matrix: (Units=GPa)
#
#
# Indices 1 2 3 4 5 6 
#
# 1 80.8545 40.1865 11.6062 0.0004 -1.8899 -0.0004
# 2 40.1865 116.5786 24.9156 0.0002 5.9522 -0.0001
# 3 11.6062 24.9156 54.8077 0.0004 -10.5928 -0.0005
# 4 0.0004 0.0002 0.0004 13.1961 -0.0004 19.7238
# 5 -1.8899 5.9522 -10.5928 -0.0004 31.2014 0.0004
# 6 -0.0004 -0.0001 -0.0005 19.7238 0.0004 11.1224
#
#
#
# Elastic Compliance Matrix: (Units=1/GPa)
#
#
# Indices 1 2 3 4 5 6 
#
# 1 0.015049 -0.005168 -0.000504 0.000000 0.001726 -0.000001
# 2 -0.005168 0.011649 -0.005021 0.000000 -0.004240 0.000000
# 3 -0.000504 -0.005021 0.022275 0.000001 0.008490 -0.000001
# 4 0.000000 0.000000 0.000001 -0.045912 -0.000001 0.081418
# 5 0.001726 -0.004240 0.008490 -0.000001 0.035845 0.000001
# 6 -0.000001 0.000000 -0.000001 0.081418 0.000001 -0.054472
#
#
# Mechanical properties :
#
#
# Convention : Reuss Voigt Hill
#
# Bulk Modulus (GPa) = 36.24686 45.07305 40.65995
# Shear Modulus (GPa) = 332.97385 22.80616 177.89000
#
# Velocity S-wave (km/s) = 14.07722 3.68416 10.28935
# Velocity P-wave (km/s) = 16.90552 6.70242 12.85922
#
# Compressibility (1/GPa) = 0.02758860
#
# Stress axis : x y z
#
# Youngs Moduli (GPa) = 66.44842 85.84456 44.89243
#
# Poissons Ratio (x) = 0.44366 0.02261
# Poissons Ratio (y) = 0.34342 0.22539
# Poissons Ratio (z) = 0.03347 0.43099
#
# Static dielectric constant tensor:
#      x y z
#    x 1.571350 0.000000 -0.022900 
#    y 0.000000 1.638330 0.000000 
#    z -0.022900 0.000000 1.616830 
# 
# From -- ./inp_files/133013.got.cif
#   From: 2010.05.17/outbox.cif.g08.bks.cpg/sg12_67_cif.got.tgz:133013.got - 2010.06.03 13:09:07.
