data_PCOD9190279
_publ_section_title
;
Structure prediction by ZEFSAII (Michael W. Deem and Ramdas Pophale) SiO2 
 PCOD9190279
Probable space group: C 2/M
;
_chemical_formula_sum "Si O2"
_cell_formula_units_Z 64
_cell_length_a 29.711020
_cell_length_b 14.097363
_cell_length_c 6.759377
_cell_angle_alpha 90.000000
_cell_angle_beta 126.239009
_cell_angle_gamma 90.000000
_cell_volume 2283.482712
_symmetry_space_group_name_H-M "C 2/M"
_symmetry_group_IT_number 12
_symmetry_cell_setting 'monoclinic'
loop_
_space_group_symop_operation_xyz
x,y,z
-x,y,-z
-x,-y,-z
x,-y,z
1/2+x,1/2+y,z
1/2-x,1/2+y,-z
1/2-x,1/2-y,-z
1/2+x,1/2-y,z
loop_
_atom_site_type_symbol
_atom_site_label
_atom_site_fract_x
_atom_site_fract_y
_atom_site_fract_z
Si Si1 0.274429 0.354638 0.309476
Si Si2 0.864735 0.148715 0.988028
Si Si3 0.036506 0.397432 0.897400
Si Si4 0.156383 0.367900 0.108234
Si Si5 0.127251 0.601138 0.567506
Si Si6 0.394893 0.321371 0.529732
Si Si7 0.248587 0.629464 0.788313
Si Si8 0.984041 0.175775 0.236454
O O1 0.221854 0.393292 0.299332
O O2 0.341438 0.362205 0.511714
O O3 0.261286 0.242189 0.266567
O O4 0.263437 0.388636 0.057246
O O5 0.879760 0.152698 0.262612
O O6 0.924036 0.127682 0.041781
O O7 0.849217 0.255438 0.887893
O O8 0.804429 0.099727 0.818939
O O9 0.024279 0.500000 0.765373
O O10 0.025467 0.291528 0.781838
O O11 0.103535 0.401805 0.096325
O O12 0.000000 0.396151 0.000000
O O13 0.140492 0.391767 0.838663
O O14 0.096965 0.500000 0.465960
O O15 0.104369 0.705983 0.460383
O O16 0.186147 0.593977 0.608617
O O17 0.459361 0.346943 0.735731
O O18 0.000000 0.147531 0.500000
#
# Coordination Sequence:
#
# PCOD9190279 Si02
#       8
#     8   8   8   8   8   8   8   8
#     4   7  10  18  32  47  62  83 110 143 178 204
#     4   7  11  20  32  47  65  86 113 144 174 200
#     4  10  20  30  37  48  71 101 125 143 167 202
#     4   8  13  22  35  46  60  88 123 148 167 196
#     4   9  14  18  28  49  74  95 114 140 171 203
#     4   8  13  20  31  50  73  88 105 140 180 210
#     4   7  10  17  28  43  66  90 111 139 173 202
#     4   9  16  25  39  56  71  90 118 148 173 203
#
# _framework density 28.027362
#
# number of rings (size 3 to 8) (size 9 to 14) (size 15 to 20)
#    0.000    3.875    0.000    4.125    0.000    0.750 
#    0.000    0.000    0.000    0.750    0.000    0.000 
#    0.000   25.500    0.000    0.000    0.000  160.375 
#
# Total GULP energy -178602.671967 kJ/mol
# GULP energy per Si atom -5581.333499 kJ/mol
# Density = 2.796357 g / cm^3
# Si number density = 28.027362 Si / 1000 Ang^3
#
#
#
# Elastic Constant Matrix: (Units=GPa)
#
#
# Indices 1 2 3 4 5 6 
#
# 1 303.8369 13.3896 100.3752 0.0000 67.1122 0.0000
# 2 13.3896 64.8493 -9.5041 0.0000 3.9130 0.0000
# 3 100.3752 -9.5041 139.7085 0.0000 51.9531 0.0000
# 4 0.0000 0.0000 0.0000 3.1634 0.0000 -11.7284
# 5 67.1122 3.9130 51.9531 0.0000 77.6739 0.0000
# 6 0.0000 0.0000 0.0000 -11.7284 0.0000 -23.3762
#
#
#
# Elastic Compliance Matrix: (Units=1/GPa)
#
#
# Indices 1 2 3 4 5 6 
#
# 1 0.004711 -0.001223 -0.002632 0.000000 -0.002249 0.000000
# 2 -0.001223 0.016127 0.002509 0.000000 -0.001434 0.000000
# 3 -0.002632 0.002509 0.011209 0.000000 -0.005349 0.000000
# 4 0.000000 0.000000 0.000000 0.110525 0.000000 -0.055453
# 5 -0.002249 -0.001434 -0.005349 0.000000 0.018468 0.000000
# 6 0.000000 0.000000 0.000000 -0.055453 0.000000 -0.014957
#
#
# Mechanical properties :
#
#
# Convention : Reuss Voigt Hill
#
# Bulk Modulus (GPa) = 34.06520 79.65735 56.86128
# Shear Modulus (GPa) = 31.53398 38.43448 34.98423
#
# Velocity S-wave (km/s) = 3.35791 3.70715 3.53684
# Velocity P-wave (km/s) = 5.21678 6.84156 6.08365
#
# Compressibility (1/GPa) = 0.02935547
#
# Stress axis : x y z
#
# Youngs Moduli (GPa) = 212.25670 62.00761 89.21743
#
# Poissons Ratio (x) = 0.07582 0.23480
# Poissons Ratio (y) = 0.25954 -0.22384
# Poissons Ratio (z) = 0.55862 -0.15557
#
# Static dielectric constant tensor:
#      x y z
#    x 2.194710 0.000000 -0.041360 
#    y 0.000000 2.093090 0.000000 
#    z -0.041360 0.000000 2.245580 
# 
# From -- ./inp_files/106260.got.cif
#   From: 2010.05.17/outbox.cif.g08.bks.cpg/sg12_54_cif.got.tgz:106260.got - 2010.06.03 13:09:07.
