data_PCOD9190600
_publ_section_title
;
Structure prediction by ZEFSAII (Michael W. Deem and Ramdas Pophale) SiO2 
 PCOD9190600
Probable space group: C 2/M
;
_chemical_formula_sum "Si O2"
_cell_formula_units_Z 56
_cell_length_a 24.762781
_cell_length_b 14.112256
_cell_length_c 11.758869
_cell_angle_alpha 90.000000
_cell_angle_beta 43.354449
_cell_angle_gamma 90.000000
_cell_volume 2821.032342
_symmetry_space_group_name_H-M "C 2/M"
_symmetry_group_IT_number 12
_symmetry_cell_setting 'monoclinic'
loop_
_space_group_symop_operation_xyz
x,y,z
-x,y,-z
-x,-y,-z
x,-y,z
1/2+x,1/2+y,z
1/2-x,1/2+y,-z
1/2-x,1/2-y,-z
1/2+x,1/2-y,z
loop_
_atom_site_type_symbol
_atom_site_label
_atom_site_fract_x
_atom_site_fract_y
_atom_site_fract_z
Si Si1 0.647115 0.730855 0.358146
Si Si2 0.216489 0.393207 0.536946
Si Si3 0.063900 0.608398 0.605229
Si Si4 0.195338 0.765118 0.760362
Si Si5 0.554958 0.389645 0.685285
Si Si6 0.520893 0.773528 0.087507
Si Si7 0.925564 0.895485 0.700602
O O1 0.591234 0.821985 0.462863
O O2 0.735821 0.758058 0.251635
O O3 0.617793 0.655655 0.500948
O O4 0.631958 0.683287 0.259994
O O5 0.230838 0.500000 0.551908
O O6 0.137825 0.389905 0.580132
O O7 0.205829 0.323673 0.658787
O O8 0.285152 0.354763 0.349706
O O9 0.048554 0.500000 0.596735
O O10 0.994760 0.658198 0.782103
O O11 0.109706 0.761344 0.944124
O O12 0.570946 0.500000 0.685914
O O13 0.540778 0.314240 0.806683
O O14 0.470205 0.384488 0.750752
O O15 0.500000 0.823250 0.000000
O O16 0.000000 0.894659 0.500000
O O17 0.888931 0.000000 0.750942
#
# Coordination Sequence:
#
# PCOD9190600 Si02
#       7
#     8   8   8   8   8   8   8
#     4   9  17  31  53  75  98 123 161 214 247 285
#     4   9  18  32  49  65  93 131 165 204 243 283
#     4   9  18  33  50  69  94 134 175 200 233 287
#     4  10  20  32  45  74 101 123 167 207 244 289
#     4   9  19  34  53  77 102 129 160 197 251 308
#     4  11  21  34  49  69 103 139 167 202 239 293
#     4   8  14  29  53  77  99 125 158 197 249 306
#
# _framework density 19.850888999999999
#
# number of rings (size 3 to 8) (size 9 to 14) (size 15 to 20)
#    0.000    2.714    1.429    1.286    2.000    2.857 
#    0.000    0.714    0.000   10.714    0.000    0.000 
#    0.000    0.000    0.000    0.000    0.000    0.000 
#
# Total GULP energy -156163.013122 kJ/mol
# GULP energy per Si atom -5577.250469 kJ/mol
# Density = 1.980571 g / cm^3
# Si number density = 19.850889 Si / 1000 Ang^3
#
#
#
# Elastic Constant Matrix: (Units=GPa)
#
#
# Indices 1 2 3 4 5 6 
#
# 1 23.6866 -12.7166 7.9755 0.0000 -0.7063 0.0000
# 2 -12.7166 103.9879 9.5216 0.0000 5.0910 0.0000
# 3 7.9755 9.5216 57.7416 0.0000 -22.7219 0.0000
# 4 0.0000 0.0000 0.0000 5.7084 0.0000 -2.0043
# 5 -0.7063 5.0910 -22.7219 0.0000 20.0529 0.0000
# 6 0.0000 0.0000 0.0000 -2.0043 0.0000 21.0098
#
#
#
# Elastic Compliance Matrix: (Units=1/GPa)
#
#
# Indices 1 2 3 4 5 6 
#
# 1 0.051599 0.008637 -0.015699 0.000000 -0.018164 0.000000
# 2 0.008637 0.011929 -0.007638 0.000000 -0.011379 0.000000
# 3 -0.015699 -0.007638 0.038425 0.000000 0.044925 0.000000
# 4 0.000000 0.000000 0.000000 0.181253 0.000000 0.017291
# 5 -0.018164 -0.011379 0.044925 0.000000 0.103022 0.000000
# 6 0.000000 0.000000 0.000000 0.017291 0.000000 0.049246
#
#
# Mechanical properties :
#
#
# Convention : Reuss Voigt Hill
#
# Bulk Modulus (GPa) = 13.78289 21.66412 17.72350
# Shear Modulus (GPa) = 10.22373 21.39657 15.81015
#
# Velocity S-wave (km/s) = 2.27188 3.28665 2.82520
# Velocity P-wave (km/s) = 3.72024 5.03387 4.42606
#
# Compressibility (1/GPa) = 0.07255372
#
# Stress axis : x y z
#
# Youngs Moduli (GPa) = 19.38012 83.82871 26.02477
#
# Poissons Ratio (x) = -0.72401 0.40856
# Poissons Ratio (y) = -0.16738 0.19877
# Poissons Ratio (z) = 0.30425 0.64025
#
# Static dielectric constant tensor:
#      x y z
#    x 1.756470 0.000000 0.008440 
#    y 0.000000 1.713650 0.000000 
#    z 0.008440 0.000000 1.685080 
# 
# From -- ./inp_files/183446.got.cif
#   From: 2010.05.17/outbox.cif.g08.bks.cpg/sg12_92_cif.got.tgz:183446.got - 2010.06.03 13:09:07.
