data_PCOD9190491
_publ_section_title
;
Structure prediction by ZEFSAII (Michael W. Deem and Ramdas Pophale) SiO2 
 PCOD9190491
Probable space group: C 2/M
;
_chemical_formula_sum "Si O2"
_cell_formula_units_Z 64
_cell_length_a 11.850779
_cell_length_b 18.741138
_cell_length_c 23.820773
_cell_angle_alpha 90.000000
_cell_angle_beta 40.056617
_cell_angle_gamma 90.000000
_cell_volume 3404.686531
_symmetry_space_group_name_H-M "C 2/M"
_symmetry_group_IT_number 12
_symmetry_cell_setting 'monoclinic'
loop_
_space_group_symop_operation_xyz
x,y,z
-x,y,-z
-x,-y,-z
x,-y,z
1/2+x,1/2+y,z
1/2-x,1/2+y,-z
1/2-x,1/2-y,-z
1/2+x,1/2-y,z
loop_
_atom_site_type_symbol
_atom_site_label
_atom_site_fract_x
_atom_site_fract_y
_atom_site_fract_z
Si Si1 0.808933 0.656679 0.246827
Si Si2 0.371510 0.419862 0.183673
Si Si3 0.862050 0.148670 0.989943
Si Si4 0.337992 0.314474 0.288867
Si Si5 0.358343 0.085000 0.827064
Si Si6 0.513998 0.191293 0.058866
Si Si7 0.457308 0.189997 0.452987
Si Si8 0.423327 0.674209 0.384785
O O1 0.827576 0.735202 0.267613
O O2 0.605145 0.634132 0.328597
O O3 0.948391 0.607780 0.226407
O O4 0.868571 0.665858 0.159076
O O5 0.353472 0.500000 0.211608
O O6 0.520578 0.413902 0.079569
O O7 0.429122 0.365534 0.209763
O O8 0.195177 0.398079 0.216789
O O9 0.970718 0.222497 0.947581
O O10 0.775868 0.127643 0.081746
O O11 0.696430 0.162819 0.013394
O O12 0.419458 0.311973 0.319534
O O13 0.140498 0.346736 0.368435
O O14 0.335983 0.000000 0.842595
O O15 0.500000 0.167551 0.000000
O O16 0.500000 0.219310 0.500000
O O17 0.435323 0.252887 0.416175
O O18 0.274043 0.147265 0.525702
#
# Coordination Sequence:
#
# PCOD9190491 Si02
#       8
#     8   8   8   8   8   8   8   8
#     4  10  21  32  55  82 108 148 178 226 277 327
#     4  11  22  36  55  79 110 149 192 232 268 323
#     4  10  20  33  53  76 102 146 193 234 273 316
#     4  10  20  32  55  85 115 137 182 224 277 324
#     4  10  22  38  54  75 109 148 192 236 272 314
#     4  10  20  31  49  79 115 140 175 231 283 324
#     4   8  16  33  53  85 117 138 172 224 274 324
#     4   9  18  32  56  82 115 142 171 221 275 329
#
# _framework density 18.797619000000001
#
# number of rings (size 3 to 8) (size 9 to 14) (size 15 to 20)
#    0.000    2.250    1.250    1.500    5.250    1.000 
#    0.000    0.625    0.000    6.000    0.000    1.750 
#    0.000    0.000    0.000    0.000    0.000    0.000 
#
# Total GULP energy -178189.930546 kJ/mol
# GULP energy per Si atom -5568.435330 kJ/mol
# Density = 1.875483 g / cm^3
# Si number density = 18.797619 Si / 1000 Ang^3
#
#
#
# Elastic Constant Matrix: (Units=GPa)
#
#
# Indices 1 2 3 4 5 6 
#
# 1 76.3698 24.0892 32.0783 -0.0013 12.0644 0.0000
# 2 24.0892 36.5253 -0.8837 -0.0015 2.8786 0.0000
# 3 32.0783 -0.8837 57.9244 -0.0040 -9.9896 0.0003
# 4 -0.0013 -0.0015 -0.0040 6.4354 0.0010 -6.7391
# 5 12.0644 2.8786 -9.9896 0.0010 37.1954 0.0002
# 6 0.0000 0.0000 0.0003 -6.7391 0.0002 18.9550
#
#
#
# Elastic Compliance Matrix: (Units=1/GPa)
#
#
# Indices 1 2 3 4 5 6 
#
# 1 0.028559 -0.018272 -0.018295 -0.000012 -0.012763 -0.000004
# 2 -0.018272 0.039237 0.011761 0.000018 0.006049 0.000006
# 3 -0.018295 0.011761 0.029823 0.000024 0.013034 0.000008
# 4 -0.000012 0.000018 0.000024 0.247558 0.000002 0.088014
# 5 -0.012763 0.006049 0.013034 0.000002 0.034057 0.000000
# 6 -0.000004 0.000006 0.000008 0.088014 0.000000 0.084048
#
#
# Mechanical properties :
#
#
# Convention : Reuss Voigt Hill
#
# Bulk Modulus (GPa) = 20.83111 31.26524 26.04817
# Shear Modulus (GPa) = 9.45365 20.21954 14.83660
#
# Velocity S-wave (km/s) = 2.24502 3.28326 2.81246
# Velocity P-wave (km/s) = 4.22208 5.57151 4.94306
#
# Compressibility (1/GPa) = 0.04800512
#
# Stress axis : x y z
#
# Youngs Moduli (GPa) = 35.01570 25.48625 33.53115
#
# Poissons Ratio (x) = 0.46568 0.61347
# Poissons Ratio (y) = 0.63980 -0.39435
# Poissons Ratio (z) = 0.64063 -0.29973
#
# Static dielectric constant tensor:
#      x y z
#    x 1.688960 0.000000 -0.019310 
#    y 0.000000 1.604440 0.000000 
#    z -0.019310 0.000000 1.705530 
# 
# From -- ./inp_files/336676.got.cif
#   From: 2010.05.17/outbox.cif.g08.bks.cpg/sg12_169_cif.got.tgz:336676.got - 2010.06.03 13:09:07.
