data_PCOD9190974
_publ_section_title
;
Structure prediction by ZEFSAII (Michael W. Deem and Ramdas Pophale) SiO2 
 PCOD9190974
Probable space group: C 2/M
;
_chemical_formula_sum "Si O2"
_cell_formula_units_Z 64
_cell_length_a 19.872653
_cell_length_b 17.594081
_cell_length_c 12.801717
_cell_angle_alpha 90.000000
_cell_angle_beta 141.408233
_cell_angle_gamma 90.000000
_cell_volume 2791.986130
_symmetry_space_group_name_H-M "C 2/M"
_symmetry_group_IT_number 12
_symmetry_cell_setting 'monoclinic'
loop_
_space_group_symop_operation_xyz
x,y,z
-x,y,-z
-x,-y,-z
x,-y,z
1/2+x,1/2+y,z
1/2-x,1/2+y,-z
1/2-x,1/2-y,-z
1/2+x,1/2-y,z
loop_
_atom_site_type_symbol
_atom_site_label
_atom_site_fract_x
_atom_site_fract_y
_atom_site_fract_z
Si Si1 0.010971 0.587067 0.174469
Si Si2 0.449456 0.412202 0.623129
Si Si3 0.166794 0.292361 0.060193
Si Si4 0.745436 0.159496 0.468127
Si Si5 0.429858 0.413266 0.007966
Si Si6 0.753388 0.831003 0.702940
Si Si7 0.390202 0.713099 0.218060
Si Si8 0.006607 0.634866 0.400030
O O1 0.013108 0.500000 0.141338
O O2 0.126209 0.628559 0.299840
O O3 0.990719 0.589283 0.275198
O O4 0.913771 0.638864 0.014230
O O5 0.444124 0.500000 0.580448
O O6 0.332686 0.373814 0.494732
O O7 0.525070 0.352781 0.654689
O O8 0.507269 0.412853 0.807269
O O9 0.199837 0.250805 0.207474
O O10 0.275545 0.311077 0.127083
O O11 0.109986 0.235203 0.906544
O O12 0.750000 0.250000 0.500000
O O13 0.782757 0.130343 0.628542
O O14 0.414595 0.500000 0.958724
O O15 0.308840 0.380667 0.860108
O O16 0.500000 0.374233 0.000000
O O17 0.625633 0.829155 0.540035
O O18 0.424372 0.794565 0.305612
O O19 0.000000 0.590548 0.500000
#
# Coordination Sequence:
#
# PCOD9190974 Si02
#       8
#     8   8   8   8   8   8   8   8
#     4  10  23  39  58  88 126 158 191 248 320 374
#     4  11  21  35  57  86 120 157 195 245 305 361
#     4  10  20  36  60  83 114 161 203 247 294 354
#     4  11  23  39  61  89 116 157 205 247 302 365
#     4  10  20  32  50  83 122 152 185 235 301 365
#     4  11  20  34  60  86 115 151 201 249 296 353
#     4  10  20  37  57  83 119 155 208 250 284 352
#     4  10  20  36  58  85 115 157 204 247 297 352
#
# _framework density 22.922749
#
# number of rings (size 3 to 8) (size 9 to 14) (size 15 to 20)
#    0.000    1.625    3.750    2.625    0.000    2.750 
#    0.000    1.250    0.000    4.875    0.000    0.000 
#    0.000    0.000    0.000    0.000    0.000    0.000 
#
# Total GULP energy -178542.801126 kJ/mol
# GULP energy per Si atom -5579.462535 kJ/mol
# Density = 2.287058 g / cm^3
# Si number density = 22.922749 Si / 1000 Ang^3
#
#
#
# Elastic Constant Matrix: (Units=GPa)
#
#
# Indices 1 2 3 4 5 6 
#
# 1 35.7625 19.3495 13.1992 0.0000 1.8614 0.0000
# 2 19.3495 139.9502 42.8206 0.0000 32.5844 0.0000
# 3 13.1992 42.8206 95.5697 0.0000 19.9388 0.0000
# 4 0.0000 0.0000 0.0000 17.8777 0.0000 2.5751
# 5 1.8614 32.5844 19.9388 0.0000 41.4573 0.0000
# 6 0.0000 0.0000 0.0000 2.5751 0.0000 0.5012
#
#
#
# Elastic Compliance Matrix: (Units=1/GPa)
#
#
# Indices 1 2 3 4 5 6 
#
# 1 0.031187 -0.004129 -0.003159 0.000000 0.003364 0.000000
# 2 -0.004129 0.010001 -0.002567 0.000000 -0.006441 0.000000
# 3 -0.003159 -0.002567 0.012893 0.000000 -0.004041 0.000000
# 4 0.000000 0.000000 0.000000 0.215247 0.000000 -1.106020
# 5 0.003364 -0.006441 -0.004041 0.000000 0.030976 0.000000
# 6 0.000000 0.000000 0.000000 -1.106020 0.000000 7.678546
#
#
# Mechanical properties :
#
#
# Convention : Reuss Voigt Hill
#
# Bulk Modulus (GPa) = 29.09387 46.89122 37.99255
# Shear Modulus (GPa) = 0.62422 25.02808 12.82615
#
# Velocity S-wave (km/s) = 0.52240 3.30789 2.36802
# Velocity P-wave (km/s) = 3.61712 5.92369 4.90784
#
# Compressibility (1/GPa) = 0.03437150
#
# Stress axis : x y z
#
# Youngs Moduli (GPa) = 32.06465 99.98720 77.55952
#
# Poissons Ratio (x) = 0.41280 0.24504
# Poissons Ratio (y) = 0.13238 0.19911
# Poissons Ratio (z) = 0.10130 0.25669
#
# Static dielectric constant tensor:
#      x y z
#    x 1.990750 0.000000 -0.010630 
#    y 0.000000 1.864870 0.000000 
#    z -0.010630 0.000000 1.900160 
# 
# From -- ./inp_files/290462.got.cif
#   From: 2010.05.17/outbox.cif.g08.bks.cpg/sg12_146_cif.got.tgz:290462.got - 2010.06.03 13:09:07.
