data_PCOD9190296
_publ_section_title
;
Structure prediction by ZEFSAII (Michael W. Deem and Ramdas Pophale) SiO2 
 PCOD9190296
Probable space group: C 2/M
;
_chemical_formula_sum "Si O2"
_cell_formula_units_Z 52
_cell_length_a 18.746376
_cell_length_b 21.756469
_cell_length_c 16.141596
_cell_angle_alpha 90.000000
_cell_angle_beta 155.740020
_cell_angle_gamma 90.000000
_cell_volume 2704.984236
_symmetry_space_group_name_H-M "C 2/M"
_symmetry_group_IT_number 12
_symmetry_cell_setting 'monoclinic'
loop_
_space_group_symop_operation_xyz
x,y,z
-x,y,-z
-x,-y,-z
x,-y,z
1/2+x,1/2+y,z
1/2-x,1/2+y,-z
1/2-x,1/2-y,-z
1/2+x,1/2-y,z
loop_
_atom_site_type_symbol
_atom_site_label
_atom_site_fract_x
_atom_site_fract_y
_atom_site_fract_z
Si Si1 0.855721 0.066426 0.750751
Si Si2 0.434415 0.173264 0.750648
Si Si3 0.811783 0.731695 0.324096
Si Si4 0.000000 0.677002 0.000000
Si Si5 0.035318 0.567821 0.743024
Si Si6 0.860646 0.808260 0.688715
Si Si7 0.188966 0.403107 0.738761
O O1 0.660113 0.069987 0.503460
O O2 0.944343 0.128825 0.811570
O O3 0.822115 0.069740 0.813661
O O4 0.927527 0.000000 0.802637
O O5 0.545597 0.127107 0.812568
O O6 0.244466 0.176052 0.506041
O O7 0.474009 0.246842 0.795414
O O8 0.442509 0.147212 0.852615
O O9 0.776367 0.710484 0.382262
O O10 0.795447 0.670202 0.252799
O O11 0.000000 0.757025 0.500000
O O12 0.662457 0.779975 0.149312
O O13 0.053102 0.500000 0.800768
O O14 0.172901 0.574160 0.814595
O O15 0.000000 0.418582 0.500000
#
# Coordination Sequence:
#
# PCOD9190296 Si02
#       7
#     8   8   8   4   8   8   8
#     4   8  12  19  35  61  88 114 146 179 220 280
#     4   9  16  28  41  60  90 121 155 196 233 269
#     4   9  16  29  46  67  95 123 150 186 230 279
#     4  10  20  30  45  66  93 124 160 196 230 272
#     4   9  15  23  38  61  89 118 150 192 234 273
#     4   8  15  26  42  61  90 124 148 186 235 270
#     4   8  13  22  38  62  90 115 142 180 224 276
#
# _framework density 19.223772
#
# number of rings (size 3 to 8) (size 9 to 14) (size 15 to 20)
#    0.000    3.385    0.000    3.231    0.000    1.846 
#    0.000    3.462    0.000    0.000    0.000   53.846 
#    0.000   54.769    0.000   13.231    0.000   29.846 
#
# Total GULP energy -144748.601597 kJ/mol
# GULP energy per Si atom -5567.253908 kJ/mol
# Density = 1.918002 g / cm^3
# Si number density = 19.223772 Si / 1000 Ang^3
#
#
#
# Elastic Constant Matrix: (Units=GPa)
#
#
# Indices 1 2 3 4 5 6 
#
# 1 77.5473 55.7397 38.9479 0.0000 -13.0725 0.0000
# 2 55.7397 135.9652 5.0116 0.0000 -3.5380 0.0000
# 3 38.9479 5.0116 60.0109 0.0000 -3.0917 0.0000
# 4 0.0000 0.0000 0.0000 7.0723 0.0000 -5.7075
# 5 -13.0725 -3.5380 -3.0917 0.0000 41.8937 0.0000
# 6 0.0000 0.0000 0.0000 -5.7075 0.0000 23.9831
#
#
#
# Elastic Compliance Matrix: (Units=1/GPa)
#
#
# Indices 1 2 3 4 5 6 
#
# 1 0.033736 -0.012872 -0.020412 0.000000 0.007934 0.000000
# 2 -0.012872 0.012303 0.007200 0.000000 -0.002446 0.000000
# 3 -0.020412 0.007200 0.029124 0.000000 -0.003612 0.000000
# 4 0.000000 0.000000 0.000000 0.175008 0.000000 0.041648
# 5 0.007934 -0.002446 -0.003612 0.000000 0.025872 0.000000
# 6 0.000000 0.000000 0.000000 0.041648 0.000000 0.051607
#
#
# Mechanical properties :
#
#
# Convention : Reuss Voigt Hill
#
# Bulk Modulus (GPa) = 43.48418 52.54687 48.01552
# Shear Modulus (GPa) = 12.90381 26.17811 19.54096
#
# Velocity S-wave (km/s) = 2.59364 3.69420 3.19172
# Velocity P-wave (km/s) = 5.62481 6.75202 6.21403
#
# Compressibility (1/GPa) = 0.02299687
#
# Stress axis : x y z
#
# Youngs Moduli (GPa) = 29.64151 81.28377 34.33623
#
# Poissons Ratio (x) = 1.04626 0.70086
# Poissons Ratio (y) = 0.38154 -0.24724
# Poissons Ratio (z) = 0.60504 -0.58528
#
# Static dielectric constant tensor:
#      x y z
#    x 1.675120 0.000000 -0.015940 
#    y 0.000000 1.700850 0.000000 
#    z -0.015940 0.000000 1.737090 
# 
# From -- ./inp_files/227915.got.cif
#   From: 2010.05.17/outbox.cif.g08.bks.cpg/sg12_114_cif.got.tgz:227915.got - 2010.06.03 13:09:07.
