data_PCOD9190462
_publ_section_title
;
Structure prediction by ZEFSAII (Michael W. Deem and Ramdas Pophale) SiO2 
 PCOD9190462
Probable space group: C 2/M
;
_chemical_formula_sum "Si O2"
_cell_formula_units_Z 50
_cell_length_a 28.331120
_cell_length_b 8.029302
_cell_length_c 12.524314
_cell_angle_alpha 90.000000
_cell_angle_beta 70.721566
_cell_angle_gamma 90.000000
_cell_volume 2689.261942
_symmetry_space_group_name_H-M "C 2/M"
_symmetry_group_IT_number 12
_symmetry_cell_setting 'monoclinic'
loop_
_space_group_symop_operation_xyz
x,y,z
-x,y,-z
-x,-y,-z
x,-y,z
1/2+x,1/2+y,z
1/2-x,1/2+y,-z
1/2-x,1/2-y,-z
1/2+x,1/2-y,z
loop_
_atom_site_type_symbol
_atom_site_label
_atom_site_fract_x
_atom_site_fract_y
_atom_site_fract_z
Si Si1 0.473297 0.194516 0.344765
Si Si2 0.693348 0.692835 0.548738
Si Si3 0.914355 0.810296 0.753796
Si Si4 0.000000 0.500000 0.000000
Si Si5 0.883985 0.692179 0.558095
Si Si6 0.606216 0.697974 0.761522
Si Si7 0.430036 0.698264 0.977670
O O1 0.525653 0.286817 0.298975
O O2 0.435688 0.256392 0.465750
O O3 0.440542 0.214904 0.261791
O O4 0.484491 0.000000 0.355240
O O5 0.696187 0.500000 0.571358
O O6 0.750000 0.750000 0.500000
O O7 0.662754 0.719537 0.462113
O O8 0.656514 0.764876 0.667975
O O9 0.888471 0.704984 0.681059
O O10 0.902108 0.777182 0.886312
O O11 0.901686 0.000000 0.738219
O O12 0.030422 0.348690 0.041724
O O13 0.880399 0.500000 0.527893
O O14 0.601022 0.500000 0.742405
O O15 0.602656 0.717370 0.890679
O O16 0.448052 0.500000 0.963057
#
# Coordination Sequence:
#
# PCOD9190462 Si02
#       7
#     8   8   8   2   8   8   8
#     4  10  20  31  48  75 106 142 185 230 266 314
#     4  10  20  37  62  87 108 136 174 225 293 345
#     4  11  22  34  50  73 109 150 187 227 268 323
#     4  12  22  32  56  78 106 164 202 228 276 316
#     4  10  21  36  53  76 108 141 180 229 274 329
#     4   9  19  36  54  75 110 146 180 230 281 328
#     4  10  23  37  50  79 114 150 197 240 273 324
#
# _framework density 18.592461
#
# number of rings (size 3 to 8) (size 9 to 14) (size 15 to 20)
#    0.000    1.920    0.000    3.600    5.600    7.040 
#    0.000    0.000    0.000    0.960    0.000    0.000 
#    0.000    0.000    0.000    0.000    0.000    0.000 
#
# Total GULP energy -139170.328665 kJ/mol
# GULP energy per Si atom -5566.813147 kJ/mol
# Density = 1.855014 g / cm^3
# Si number density = 18.592461 Si / 1000 Ang^3
#
#
#
# Elastic Constant Matrix: (Units=GPa)
#
#
# Indices 1 2 3 4 5 6 
#
# 1 59.3186 5.3573 42.0156 0.0000 -5.1030 0.0000
# 2 5.3573 53.2439 19.3891 0.0000 -3.8551 0.0000
# 3 42.0156 19.3891 102.5976 0.0000 16.8243 0.0000
# 4 0.0000 0.0000 0.0000 14.8721 0.0000 4.9945
# 5 -5.1030 -3.8551 16.8243 0.0000 19.8312 0.0000
# 6 0.0000 0.0000 0.0000 4.9945 0.0000 26.7955
#
#
#
# Elastic Compliance Matrix: (Units=1/GPa)
#
#
# Indices 1 2 3 4 5 6 
#
# 1 0.030793 0.004963 -0.017431 0.000000 0.023676 0.000000
# 2 0.004963 0.022222 -0.008305 0.000000 0.012643 0.000000
# 3 -0.017431 -0.008305 0.022599 0.000000 -0.025272 0.000000
# 4 0.000000 0.000000 0.000000 0.071730 0.000000 -0.013370
# 5 0.023676 0.012643 -0.025272 0.000000 0.080416 0.000000
# 6 0.000000 0.000000 0.000000 -0.013370 0.000000 0.039812
#
#
# Mechanical properties :
#
#
# Convention : Reuss Voigt Hill
#
# Bulk Modulus (GPa) = 29.35291 38.74270 34.04780
# Shear Modulus (GPa) = 15.60193 22.19296 18.89745
#
# Velocity S-wave (km/s) = 2.89996 3.45868 3.19157
# Velocity P-wave (km/s) = 5.19950 6.06902 5.65101
#
# Compressibility (1/GPa) = 0.03406818
#
# Stress axis : x y z
#
# Youngs Moduli (GPa) = 32.47503 45.00047 44.25015
#
# Poissons Ratio (x) = -0.22336 0.77131
# Poissons Ratio (y) = -0.16119 0.36752
# Poissons Ratio (z) = 0.56606 0.37375
#
# Static dielectric constant tensor:
#      x y z
#    x 1.611750 0.000000 -0.019940 
#    y 0.000000 1.666300 0.000000 
#    z -0.019940 0.000000 1.727530 
# 
# From -- ./inp_files/179779.got.cif
#   From: 2010.05.17/outbox.cif.g08.bks.cpg/sg12_90_cif.got.tgz:179779.got - 2010.06.03 13:09:07.
