data_PCOD9190658
_publ_section_title
;
Structure prediction by ZEFSAII (Michael W. Deem and Ramdas Pophale) SiO2 
 PCOD9190658
Probable space group: C 2/M
;
_chemical_formula_sum "Si O2"
_cell_formula_units_Z 60
_cell_length_a 27.772168
_cell_length_b 9.100784
_cell_length_c 17.401535
_cell_angle_alpha 90.000000
_cell_angle_beta 127.073709
_cell_angle_gamma 90.000000
_cell_volume 3509.160147
_symmetry_space_group_name_H-M "C 2/M"
_symmetry_group_IT_number 12
_symmetry_cell_setting 'monoclinic'
loop_
_space_group_symop_operation_xyz
x,y,z
-x,y,-z
-x,-y,-z
x,-y,z
1/2+x,1/2+y,z
1/2-x,1/2+y,-z
1/2-x,1/2-y,-z
1/2+x,1/2-y,z
loop_
_atom_site_type_symbol
_atom_site_label
_atom_site_fract_x
_atom_site_fract_y
_atom_site_fract_z
Si Si1 0.369453 0.166645 0.427404
Si Si2 0.289469 0.324453 0.605231
Si Si3 0.746198 0.324351 0.720120
Si Si4 0.401443 0.323349 0.615136
Si Si5 0.157553 0.822434 0.882021
Si Si6 0.283350 0.176009 0.922609
Si Si7 0.000000 0.745860 0.500000
Si Si8 0.969733 0.169257 0.300033
O O1 0.321869 0.263602 0.334627
O O2 0.373217 0.241608 0.514625
O O3 0.437148 0.166136 0.458974
O O4 0.347557 0.000000 0.411669
O O5 0.279122 0.500000 0.596080
O O6 0.250000 0.250000 0.500000
O O7 0.272352 0.252706 0.669631
O O8 0.358996 0.298670 0.647198
O O9 0.743800 0.500000 0.707624
O O10 0.784139 0.290651 0.833097
O O11 0.401371 0.500000 0.599599
O O12 0.470697 0.269878 0.684832
O O13 0.216573 0.781141 0.889240
O O14 0.095152 0.766502 0.784545
O O15 0.157207 0.000000 0.884228
O O16 0.169109 0.757798 0.977659
O O17 0.289559 0.000000 0.938118
O O18 0.015829 0.826639 0.595079
O O19 0.966206 0.000000 0.273213
#
# Coordination Sequence:
#
# PCOD9190658 Si02
#       8
#     8   8   8   8   8   8   4   8
#     4  11  21  32  47  70 103 137 170 208 252 304
#     4  11  21  34  53  77 105 137 173 215 263 312
#     4  11  22  35  53  75 102 135 175 218 260 309
#     4   9  19  34  51  71  99 134 172 206 248 309
#     4   9  17  32  54  77 102 131 169 213 256 304
#     4   9  19  34  51  75 103 133 169 211 260 311
#     4  10  20  32  46  72 109 140 169 204 249 308
#     4   9  17  31  52  76 100 135 174 209 250 306
#
# _framework density 17.098108
#
# number of rings (size 3 to 8) (size 9 to 14) (size 15 to 20)
#    0.000    2.133    1.333    2.400    0.000    4.267 
#    0.000    6.000    0.000    0.800    0.000    5.600 
#    0.000    0.000    0.000    0.000    0.000    0.000 
#
# Total GULP energy -167151.892775 kJ/mol
# GULP energy per Si atom -5571.729759 kJ/mol
# Density = 1.705919 g / cm^3
# Si number density = 17.098108 Si / 1000 Ang^3
#
#
#
# Elastic Constant Matrix: (Units=GPa)
#
#
# Indices 1 2 3 4 5 6 
#
# 1 94.4794 23.0414 42.2821 0.0000 -1.5466 0.0000
# 2 23.0414 41.3807 22.3113 0.0000 -5.3522 0.0000
# 3 42.2821 22.3113 108.4212 0.0000 1.6231 0.0000
# 4 0.0000 0.0000 0.0000 14.3308 0.0000 -4.2892
# 5 -1.5466 -5.3522 1.6231 0.0000 27.5201 0.0000
# 6 0.0000 0.0000 0.0000 -4.2892 0.0000 16.0947
#
#
#
# Elastic Compliance Matrix: (Units=1/GPa)
#
#
# Indices 1 2 3 4 5 6 
#
# 1 0.013812 -0.005387 -0.004278 0.000000 -0.000019 0.000000
# 2 -0.005387 0.030180 -0.004197 0.000000 0.005814 0.000000
# 3 -0.004278 -0.004197 0.011781 0.000000 -0.001751 0.000000
# 4 0.000000 0.000000 0.000000 0.075828 0.000000 0.020208
# 5 -0.000019 0.005814 -0.001751 0.000000 0.037570 0.000000
# 6 0.000000 0.000000 0.000000 0.020208 0.000000 0.067518
#
#
# Mechanical properties :
#
#
# Convention : Reuss Voigt Hill
#
# Bulk Modulus (GPa) = 35.64944 46.61676 41.13310
# Shear Modulus (GPa) = 18.26399 22.03221 20.14810
#
# Velocity S-wave (km/s) = 3.27186 3.59357 3.43648
# Velocity P-wave (km/s) = 5.93031 6.67396 6.31310
#
# Compressibility (1/GPa) = 0.02805093
#
# Stress axis : x y z
#
# Youngs Moduli (GPa) = 72.40034 33.13428 84.87993
#
# Poissons Ratio (x) = 0.17849 0.36308
# Poissons Ratio (y) = 0.39001 0.35623
# Poissons Ratio (z) = 0.30970 0.13906
#
# Static dielectric constant tensor:
#      x y z
#    x 1.614170 0.000000 0.027100 
#    y 0.000000 1.580550 0.000000 
#    z 0.027100 0.000000 1.576810 
# 
# From -- ./inp_files/292249.got.cif
#   From: 2010.05.17/outbox.cif.g08.bks.cpg/sg12_147_cif.got.tgz:292249.got - 2010.06.03 13:09:07.
