data_PCOD9190427
_publ_section_title
;
Structure prediction by ZEFSAII (Michael W. Deem and Ramdas Pophale) SiO2 
 PCOD9190427
Probable space group: C 2/M
;
_chemical_formula_sum "Si O2"
_cell_formula_units_Z 64
_cell_length_a 19.977838
_cell_length_b 7.424566
_cell_length_c 21.260316
_cell_angle_alpha 90.000000
_cell_angle_beta 90.245670
_cell_angle_gamma 90.000000
_cell_volume 3153.445157
_symmetry_space_group_name_H-M "C 2/M"
_symmetry_group_IT_number 12
_symmetry_cell_setting 'monoclinic'
loop_
_space_group_symop_operation_xyz
x,y,z
-x,y,-z
-x,-y,-z
x,-y,z
1/2+x,1/2+y,z
1/2-x,1/2+y,-z
1/2-x,1/2-y,-z
1/2+x,1/2-y,z
loop_
_atom_site_type_symbol
_atom_site_label
_atom_site_fract_x
_atom_site_fract_y
_atom_site_fract_z
Si Si1 0.421477 0.285667 0.132243
Si Si2 0.327968 0.719492 0.749421
Si Si3 0.679315 0.280310 0.393945
Si Si4 0.925290 0.790437 0.503746
Si Si5 0.581491 0.291207 0.003139
Si Si6 0.926193 0.221247 0.859348
Si Si7 0.667719 0.217906 0.612073
Si Si8 0.823236 0.284316 0.246320
O O1 0.428038 0.500000 0.122950
O O2 0.397092 0.212935 0.064177
O O3 0.496607 0.220504 0.146872
O O4 0.372501 0.258264 0.189969
O O5 0.329025 0.500000 0.750086
O O6 0.340279 0.772490 0.677168
O O7 0.380991 0.780503 0.801172
O O8 0.252615 0.778221 0.765637
O O9 0.680513 0.500000 0.395847
O O10 0.626138 0.214133 0.444730
O O11 0.756480 0.224500 0.405682
O O12 0.887197 0.781385 0.437294
O O13 0.000000 0.711979 0.500000
O O14 0.933944 0.000000 0.521661
O O15 0.603073 0.500000 0.004847
O O16 0.500000 0.287925 0.000000
O O17 0.599110 0.216761 0.071873
O O18 0.925563 0.000000 0.860068
O O19 0.655362 0.278115 0.683926
O O20 0.666780 0.000000 0.610792
O O21 0.819980 0.500000 0.250616
#
# Coordination Sequence:
#
# PCOD9190427 Si02
#       8
#     8   8   8   8   8   8   8   8
#     4   9  16  26  44  68  90 114 145 184 226 261
#     4   8  14  26  44  63  84 115 152 182 210 254
#     4   8  15  29  46  63  86 116 148 179 213 258
#     4  10  20  31  46  72  99 114 132 178 232 261
#     4   7  11  21  37  60  88 113 142 180 217 256
#     4   8  13  23  43  67  86 111 150 187 215 253
#     4   9  18  33  50  63  82 120 158 178 202 255
#     4   9  18  31  45  63  88 116 147 183 218 255
#
# _framework density 20.295264
#
# number of rings (size 3 to 8) (size 9 to 14) (size 15 to 20)
#    0.000    3.500    0.000    3.375    0.000    1.750 
#    0.000    3.125    0.000    4.875    0.000    0.000 
#    0.000    0.000    0.000    0.000    0.000    0.000 
#
# Total GULP energy -178331.576692 kJ/mol
# GULP energy per Si atom -5572.861772 kJ/mol
# Density = 2.024907 g / cm^3
# Si number density = 20.295264 Si / 1000 Ang^3
#
#
#
# Elastic Constant Matrix: (Units=GPa)
#
#
# Indices 1 2 3 4 5 6 
#
# 1 236.1485 -6.8883 268.1048 0.0000 18.1829 0.0000
# 2 -6.8883 61.1408 -13.9985 0.0000 -2.1781 0.0000
# 3 268.1048 -13.9985 370.2391 0.0000 21.6849 0.0000
# 4 0.0000 0.0000 0.0000 -14.5120 0.0000 -39.1667
# 5 18.1829 -2.1781 21.6849 0.0000 43.9492 0.0000
# 6 0.0000 0.0000 0.0000 -39.1667 0.0000 -46.0547
#
#
#
# Elastic Compliance Matrix: (Units=1/GPa)
#
#
# Indices 1 2 3 4 5 6 
#
# 1 0.023994 -0.001318 -0.017341 0.000000 -0.001436 0.000000
# 2 -0.001318 0.016583 0.001546 0.000000 0.000604 0.000000
# 3 -0.017341 0.001546 0.015335 0.000000 -0.000315 0.000000
# 4 0.000000 0.000000 0.000000 0.053200 0.000000 -0.045244
# 5 -0.001436 0.000604 -0.000315 0.000000 0.023533 0.000000
# 6 0.000000 0.000000 0.000000 -0.045244 0.000000 0.016764
#
#
# Mechanical properties :
#
#
# Convention : Reuss Voigt Hill
#
# Bulk Modulus (GPa) = 46.11231 129.10716 87.60973
# Shear Modulus (GPa) = 26.19660 24.69719 25.44690
#
# Velocity S-wave (km/s) = 3.59663 3.49219 3.54479
# Velocity P-wave (km/s) = 6.32596 8.94500 7.74696
#
# Compressibility (1/GPa) = 0.02168618
#
# Stress axis : x y z
#
# Youngs Moduli (GPa) = 41.67631 60.30378 65.20931
#
# Poissons Ratio (x) = 0.07949 1.13080
# Poissons Ratio (y) = 0.05494 -0.10082
# Poissons Ratio (z) = 0.72271 -0.09324
#
# Static dielectric constant tensor:
#      x y z
#    x 1.688100 0.000000 -0.013860 
#    y 0.000000 1.795950 0.000000 
#    z -0.013860 0.000000 1.734180 
# 
# From -- ./inp_files/282582.got.cif
#   From: 2010.05.17/outbox.cif.g08.bks.cpg/sg12_142_cif.got.tgz:282582.got - 2010.06.03 13:09:07.
