data_PCOD9190706
_publ_section_title
;
Structure prediction by ZEFSAII (Michael W. Deem and Ramdas Pophale) SiO2 
 PCOD9190706
Probable space group: C 2/M
;
_chemical_formula_sum "Si O2"
_cell_formula_units_Z 48
_cell_length_a 18.318129
_cell_length_b 16.693289
_cell_length_c 9.498427
_cell_angle_alpha 90.000000
_cell_angle_beta 121.233475
_cell_angle_gamma 90.000000
_cell_volume 2483.545067
_symmetry_space_group_name_H-M "C 2/M"
_symmetry_group_IT_number 12
_symmetry_cell_setting 'monoclinic'
loop_
_space_group_symop_operation_xyz
x,y,z
-x,y,-z
-x,-y,-z
x,-y,z
1/2+x,1/2+y,z
1/2-x,1/2+y,-z
1/2-x,1/2-y,-z
1/2+x,1/2-y,z
loop_
_atom_site_type_symbol
_atom_site_label
_atom_site_fract_x
_atom_site_fract_y
_atom_site_fract_z
Si Si1 0.149284 0.249987 0.743197
Si Si2 0.903134 0.411729 0.456354
Si Si3 0.850717 0.250013 0.944630
Si Si4 0.403134 0.588271 0.849915
Si Si5 0.849147 0.663528 0.676485
Si Si6 0.349147 0.663528 0.521809
O O1 0.141354 0.338100 0.667869
O O2 0.250000 0.231535 0.855746
O O3 0.115032 0.184986 0.596745
O O4 0.110425 0.250000 0.860425
O O5 0.866878 0.500000 0.390905
O O6 0.897463 0.394078 0.617549
O O7 0.000000 0.410307 0.500000
O O8 0.858647 0.161900 0.885163
O O9 0.884968 0.315015 0.866682
O O10 0.366877 0.500000 0.842851
O O11 0.397463 0.605922 0.677378
O O12 0.500000 0.589692 0.000000
O O13 0.750000 0.636911 0.587494
O O14 0.847898 0.750000 0.597899
#
# Coordination Sequence:
#
# PCOD9190706 Si02
#       6
#     8   8   8   8   8   8
#     4   9  18  33  53  76  99 125 163 208 251 299
#     4  10  20  32  47  71 101 132 168 206 245 292
#     4   9  18  33  53  76  99 125 163 208 251 299
#     4  10  20  32  47  71 101 132 168 206 245 292
#     4   8  15  30  51  71  92 123 163 203 244 293
#     4   8  15  30  51  71  92 123 163 203 244 293
#
# _framework density 19.327210999999998
#
# number of rings (size 3 to 8) (size 9 to 14) (size 15 to 20)
#    0.000    3.000    0.000    3.000    0.000    6.667 
#    0.000    1.667    0.000   10.000    0.000    0.000 
#    0.000    0.000    0.000    0.000    0.000    0.000 
#
# Total GULP energy -133609.743426 kJ/mol
# GULP energy per Si atom -5567.072643 kJ/mol
# Density = 1.928322 g / cm^3
# Si number density = 19.327211 Si / 1000 Ang^3
#
#
#
# Elastic Constant Matrix: (Units=GPa)
#
#
# Indices 1 2 3 4 5 6 
#
# 1 43.9936 10.8509 39.3255 0.0000 -18.6799 0.0000
# 2 10.8509 63.8732 34.5814 0.0000 -16.8195 0.0000
# 3 39.3255 34.5814 131.4938 0.0000 -43.3385 0.0000
# 4 0.0000 0.0000 0.0000 14.4922 0.0000 -1.5457
# 5 -18.6799 -16.8195 -43.3385 0.0000 32.9892 0.0000
# 6 0.0000 0.0000 0.0000 -1.5457 0.0000 12.3119
#
#
#
# Elastic Compliance Matrix: (Units=1/GPa)
#
#
# Indices 1 2 3 4 5 6 
#
# 1 0.032831 0.000709 -0.006629 0.000000 0.010243 0.000000
# 2 0.000709 0.018810 -0.003290 0.000000 0.005669 0.000000
# 3 -0.006629 -0.003290 0.015278 0.000000 0.014639 0.000000
# 4 0.000000 0.000000 0.000000 0.069939 0.000000 0.008781
# 5 0.010243 0.005669 0.014639 0.000000 0.058235 0.000000
# 6 0.000000 0.000000 0.000000 0.008781 0.000000 0.082325
#
#
# Mechanical properties :
#
#
# Convention : Reuss Voigt Hill
#
# Bulk Modulus (GPa) = 20.61984 45.43068 33.02526
# Shear Modulus (GPa) = 16.02545 22.26550 19.14548
#
# Velocity S-wave (km/s) = 2.88265 3.39784 3.15079
# Velocity P-wave (km/s) = 4.66599 6.24106 5.51010
#
# Compressibility (1/GPa) = 0.04849698
#
# Stress axis : x y z
#
# Youngs Moduli (GPa) = 30.45938 53.16371 65.45477
#
# Poissons Ratio (x) = -0.03769 0.43391
# Poissons Ratio (y) = -0.02159 0.21537
# Poissons Ratio (z) = 0.20192 0.17493
#
# Static dielectric constant tensor:
#      x y z
#    x 1.706180 0.000000 -0.022530 
#    y 0.000000 1.670020 0.000000 
#    z -0.022530 0.000000 1.737980 
# 
# From -- ./inp_files/87455.got.cif
#   From: 2010.05.17/outbox.cif.g08.bks.cpg/sg12_44_cif.got.tgz:87455.got - 2010.06.03 13:09:07.
