data_PCOD9190133
_publ_section_title
;
Structure prediction by ZEFSAII (Michael W. Deem and Ramdas Pophale) SiO2 
 PCOD9190133
Probable space group: C 2/M
;
_chemical_formula_sum "Si O2"
_cell_formula_units_Z 48
_cell_length_a 20.179811
_cell_length_b 28.134991
_cell_length_c 8.878303
_cell_angle_alpha 90.000000
_cell_angle_beta 30.085647
_cell_angle_gamma 90.000000
_cell_volume 2526.890017
_symmetry_space_group_name_H-M "C 2/M"
_symmetry_group_IT_number 12
_symmetry_cell_setting 'monoclinic'
loop_
_space_group_symop_operation_xyz
x,y,z
-x,y,-z
-x,-y,-z
x,-y,z
1/2+x,1/2+y,z
1/2-x,1/2+y,-z
1/2-x,1/2-y,-z
1/2+x,1/2-y,z
loop_
_atom_site_type_symbol
_atom_site_label
_atom_site_fract_x
_atom_site_fract_y
_atom_site_fract_z
Si Si1 0.736900 0.096065 0.199077
Si Si2 0.866228 0.811711 0.846225
Si Si3 0.390683 0.794533 0.846240
Si Si4 0.983353 0.944033 0.866039
Si Si5 0.239296 0.057396 0.185304
Si Si6 0.036893 0.383725 0.102166
O O1 0.591974 0.099651 0.551929
O O2 0.806753 0.147565 0.066935
O O3 0.836275 0.062954 0.095443
O O4 0.733840 0.078809 0.032423
O O5 0.894397 0.761656 0.873446
O O6 0.000000 0.826701 0.500000
O O7 0.752978 0.803444 0.943358
O O8 0.500000 0.802628 0.500000
O O9 0.420553 0.831957 0.918145
O O10 0.094187 0.927296 0.529674
O O11 0.010126 0.000000 0.825446
O O12 0.000000 0.922698 0.000000
O O13 0.248066 0.000000 0.161011
O O14 0.345742 0.079704 0.089822
O O15 0.000000 0.382252 0.000000
#
# Coordination Sequence:
#
# PCOD9190133 Si02
#       6
#     8   8   8   8   8   8
#     4  12  22  39  62  92 115 159 205 250 296 355
#     4  10  20  34  66  92 113 147 200 248 294 349
#     4  10  19  40  62  86 119 156 196 243 297 358
#     4  10  22  40  60  88 127 160 191 243 306 357
#     4  11  23  40  64  91 118 157 208 251 292 354
#     4  12  25  41  59  85 126 162 197 250 310 361
#
# _framework density 18.995681999999999
#
# number of rings (size 3 to 8) (size 9 to 14) (size 15 to 20)
#    0.000    1.167    3.333    3.500    0.000    3.667 
#    0.000    1.667    0.000    0.000    0.000    0.000 
#    0.000    0.000    0.000    0.000    0.000    0.000 
#
# Total GULP energy -134031.039418 kJ/mol
# GULP energy per Si atom -5584.626642 kJ/mol
# Density = 1.895245 g / cm^3
# Si number density = 18.995682 Si / 1000 Ang^3
#
#
#
# Elastic Constant Matrix: (Units=GPa)
#
#
# Indices 1 2 3 4 5 6 
#
# 1 101.2810 20.7284 15.4169 0.0002 6.3950 0.0000
# 2 20.7284 68.7938 18.7869 0.0001 11.2798 -0.0001
# 3 15.4169 18.7869 67.3878 0.0003 -19.0174 0.0001
# 4 0.0002 0.0001 0.0003 15.9089 -0.0001 -7.5836
# 5 6.3950 11.2798 -19.0174 -0.0001 33.3067 0.0000
# 6 0.0000 -0.0001 0.0001 -7.5836 0.0000 29.7349
#
#
#
# Elastic Compliance Matrix: (Units=1/GPa)
#
#
# Indices 1 2 3 4 5 6 
#
# 1 0.010900 -0.002040 -0.002766 0.000000 -0.002982 0.000000
# 2 -0.002040 0.018998 -0.007790 0.000000 -0.010490 0.000000
# 3 -0.002766 -0.007790 0.022100 0.000000 0.015788 0.000000
# 4 0.000000 0.000000 0.000000 0.071558 0.000000 0.018250
# 5 -0.002982 -0.010490 0.015788 0.000000 0.043164 0.000000
# 6 0.000000 0.000000 0.000000 0.018250 0.000000 0.038285
#
#
# Mechanical properties :
#
#
# Convention : Reuss Voigt Hill
#
# Bulk Modulus (GPa) = 37.30665 38.59190 37.94927
# Shear Modulus (GPa) = 20.90884 27.95880 24.43382
#
# Velocity S-wave (km/s) = 3.32130 3.84063 3.59037
# Velocity P-wave (km/s) = 5.86432 6.32673 6.09991
#
# Compressibility (1/GPa) = 0.02680487
#
# Stress axis : x y z
#
# Youngs Moduli (GPa) = 91.73966 52.63605 45.24955
#
# Poissons Ratio (x) = 0.10738 0.12518
# Poissons Ratio (y) = 0.18715 0.35251
# Poissons Ratio (z) = 0.25379 0.41005
#
# Static dielectric constant tensor:
#      x y z
#    x 1.639800 0.000000 -0.003390 
#    y 0.000000 1.701170 0.000000 
#    z -0.003390 0.000000 1.654400 
# 
# From -- ./inp_files/91169.got.cif
#   From: 2010.05.17/outbox.cif.g08.bks.cpg/sg12_46_cif.got.tgz:91169.got - 2010.06.03 13:09:07.
