data_PCOD9190740
_publ_section_title
;
Structure prediction by ZEFSAII (Michael W. Deem and Ramdas Pophale) SiO2 
 PCOD9190740
Probable space group: C 2/M
;
_chemical_formula_sum "Si O2"
_cell_formula_units_Z 64
_cell_length_a 25.329426
_cell_length_b 8.274299
_cell_length_c 16.566325
_cell_angle_alpha 90.000000
_cell_angle_beta 81.478687
_cell_angle_gamma 90.000000
_cell_volume 3433.695813
_symmetry_space_group_name_H-M "C 2/M"
_symmetry_group_IT_number 12
_symmetry_cell_setting 'monoclinic'
loop_
_space_group_symop_operation_xyz
x,y,z
-x,y,-z
-x,-y,-z
x,-y,z
1/2+x,1/2+y,z
1/2-x,1/2+y,-z
1/2-x,1/2-y,-z
1/2+x,1/2-y,z
loop_
_atom_site_type_symbol
_atom_site_label
_atom_site_fract_x
_atom_site_fract_y
_atom_site_fract_z
Si Si1 0.100564 0.684624 0.980163
Si Si2 0.457346 0.194249 0.856228
Si Si3 0.011396 0.197315 0.407027
Si Si4 0.153650 0.191681 0.803313
Si Si5 0.888036 0.196354 0.719558
Si Si6 0.274297 0.683926 0.768215
Si Si7 0.444301 0.695460 0.270052
Si Si8 0.303779 0.314795 0.949188
O O1 0.086814 0.500000 0.963272
O O2 0.054750 0.754167 0.049791
O O3 0.150200 0.697524 0.030905
O O4 0.124229 0.761714 0.893785
O O5 0.413806 0.252331 0.799651
O O6 0.513636 0.251650 0.808031
O O7 0.455971 0.000000 0.858918
O O8 0.068816 0.245049 0.357599
O O9 0.000000 0.253732 0.500000
O O10 0.967702 0.250429 0.350653
O O11 0.010688 0.000000 0.408248
O O12 0.214841 0.246046 0.781090
O O13 0.114304 0.253203 0.741720
O O14 0.154602 0.000000 0.799878
O O15 0.827927 0.258249 0.716542
O O16 0.885577 0.000000 0.722115
O O17 0.269096 0.500000 0.740163
O O18 0.293176 0.682699 0.856957
O O19 0.444354 0.500000 0.271411
O O20 0.315863 0.500000 0.972260
O O21 0.250000 0.250000 0.000000
#
# Coordination Sequence:
#
# PCOD9190740 Si02
#       8
#     8   8   8   8   8   8   8   8
#     4  11  22  33  46  68  98 132 174 218 255 294
#     4  10  20  32  50  73  97 130 169 211 257 293
#     4   8  14  29  58  87 103 119 151 199 248 297
#     4  11  23  35  49  68  95 137 178 212 248 292
#     4   9  17  31  51  77 106 130 160 203 249 294
#     4  10  20  32  48  70  99 135 170 208 250 292
#     4   9  20  37  53  73 101 130 165 204 248 302
#     4  11  20  30  46  67  94 130 173 218 257 288
#
# _framework density 18.638807
#
# number of rings (size 3 to 8) (size 9 to 14) (size 15 to 20)
#    0.000    2.125    2.500    2.250    0.000    4.000 
#    0.000    2.500    0.000    6.750    0.000    0.000 
#    0.000    0.000    0.000    0.000    0.000    0.125 
#
# Total GULP energy -178299.410072 kJ/mol
# GULP energy per Si atom -5571.856565 kJ/mol
# Density = 1.859638 g / cm^3
# Si number density = 18.638807 Si / 1000 Ang^3
#
#
#
# Elastic Constant Matrix: (Units=GPa)
#
#
# Indices 1 2 3 4 5 6 
#
# 1 128.2770 13.4130 70.1601 0.0000 3.0872 0.0000
# 2 13.4130 19.9212 12.0800 0.0000 0.1562 0.0000
# 3 70.1601 12.0800 102.1343 0.0000 -12.8027 0.0000
# 4 0.0000 0.0000 0.0000 8.1453 0.0000 -5.3806
# 5 3.0872 0.1562 -12.8027 0.0000 15.0843 0.0000
# 6 0.0000 0.0000 0.0000 -5.3806 0.0000 12.7451
#
#
#
# Elastic Compliance Matrix: (Units=1/GPa)
#
#
# Indices 1 2 3 4 5 6 
#
# 1 0.014518 -0.002892 -0.011190 0.000000 -0.012439 0.000000
# 2 -0.002892 0.055264 -0.005089 0.000000 -0.004299 0.000000
# 3 -0.011190 -0.005089 0.020561 0.000000 0.019794 0.000000
# 4 0.000000 0.000000 0.000000 0.170249 0.000000 0.071874
# 5 -0.012439 -0.004299 0.019794 0.000000 0.085684 0.000000
# 6 0.000000 0.000000 0.000000 0.071874 0.000000 0.108805
#
#
# Mechanical properties :
#
#
# Convention : Reuss Voigt Hill
#
# Bulk Modulus (GPa) = 19.23016 49.07098 34.15057
# Shear Modulus (GPa) = 9.78943 17.50691 13.64817
#
# Velocity S-wave (km/s) = 2.29425 3.06808 2.70894
# Velocity P-wave (km/s) = 4.16627 6.23981 5.30533
#
# Compressibility (1/GPa) = 0.05200165
#
# Stress axis : x y z
#
# Youngs Moduli (GPa) = 68.88204 18.09487 48.63610
#
# Poissons Ratio (x) = 0.05233 0.54423
# Poissons Ratio (y) = 0.19919 0.24750
# Poissons Ratio (z) = 0.77078 0.09208
#
# Static dielectric constant tensor:
#      x y z
#    x 1.696700 0.000000 -0.019590 
#    y 0.000000 1.663910 0.000000 
#    z -0.019590 0.000000 1.644080 
# 
# From -- ./inp_files/287579.got.cif
#   From: 2010.05.17/outbox.cif.g08.bks.cpg/sg12_144_cif.got.tgz:287579.got - 2010.06.03 13:09:07.
