data_PCOD9190819
_publ_section_title
;
Structure prediction by ZEFSAII (Michael W. Deem and Ramdas Pophale) SiO2 
 PCOD9190819
Probable space group: C 2/M
;
_chemical_formula_sum "Si O2"
_cell_formula_units_Z 56
_cell_length_a 16.603237
_cell_length_b 23.896881
_cell_length_c 8.697407
_cell_angle_alpha 90.000000
_cell_angle_beta 115.153630
_cell_angle_gamma 90.000000
_cell_volume 3123.593985
_symmetry_space_group_name_H-M "C 2/M"
_symmetry_group_IT_number 12
_symmetry_cell_setting 'monoclinic'
loop_
_space_group_symop_operation_xyz
x,y,z
-x,y,-z
-x,-y,-z
x,-y,z
1/2+x,1/2+y,z
1/2-x,1/2+y,-z
1/2-x,1/2-y,-z
1/2+x,1/2-y,z
loop_
_atom_site_type_symbol
_atom_site_label
_atom_site_fract_x
_atom_site_fract_y
_atom_site_fract_z
Si Si1 0.722262 0.836863 0.430919
Si Si2 0.043080 0.436592 0.791446
Si Si3 0.133676 0.657504 0.690549
Si Si4 0.299049 0.692577 0.991380
Si Si5 0.146122 0.563725 0.195361
Si Si6 0.374857 0.276508 0.728474
Si Si7 0.051397 0.219563 0.688750
O O1 0.670451 0.848639 0.548748
O O2 0.713310 0.889347 0.310823
O O3 0.671762 0.784118 0.315414
O O4 0.818981 0.814933 0.562872
O O5 0.056162 0.500000 0.744681
O O6 0.066095 0.389652 0.687901
O O7 0.942717 0.431597 0.771775
O O8 0.107390 0.428714 0.992184
O O9 0.218659 0.653406 0.874093
O O10 0.091310 0.719414 0.675477
O O11 0.357152 0.701364 0.884621
O O12 0.250000 0.750000 0.000000
O O13 0.368124 0.681809 0.183787
O O14 0.179991 0.500000 0.235906
O O15 0.476269 0.272374 0.758060
O O16 0.000000 0.196761 0.500000
#
# Coordination Sequence:
#
# PCOD9190819 Si02
#       7
#     8   8   8   8   8   8   8
#     4  10  20  32  49  70 102 132 165 208 246 292
#     4   9  19  33  49  69  97 131 172 209 244 293
#     4  10  20  34  47  72 101 131 168 205 245 298
#     4   9  21  34  47  68  98 133 165 201 244 304
#     4   9  19  33  48  71  97 131 173 208 246 295
#     4  10  20  33  48  71 100 134 165 202 251 300
#     4  11  20  32  49  73 100 127 169 206 240 299
#
# _framework density 17.928066000000001
#
# number of rings (size 3 to 8) (size 9 to 14) (size 15 to 20)
#    0.000    2.286    1.429    2.143    6.000    0.571 
#    0.000    1.429    0.000    0.000    0.000    1.000 
#    0.000    8.000    0.000    0.000    0.000    0.000 
#
# Total GULP energy -156231.611699 kJ/mol
# GULP energy per Si atom -5579.700418 kJ/mol
# Density = 1.788726 g / cm^3
# Si number density = 17.928066 Si / 1000 Ang^3
#
#
#
# Elastic Constant Matrix: (Units=GPa)
#
#
# Indices 1 2 3 4 5 6 
#
# 1 42.2300 -6.7241 12.3008 0.0000 2.5549 0.0000
# 2 -6.7241 58.6703 30.0151 0.0000 7.2389 0.0000
# 3 12.3008 30.0151 81.1813 0.0000 27.5774 0.0000
# 4 0.0000 0.0000 0.0000 15.1986 0.0000 -0.0072
# 5 2.5549 7.2389 27.5774 0.0000 25.7698 0.0000
# 6 0.0000 0.0000 0.0000 -0.0072 0.0000 20.3824
#
#
#
# Elastic Compliance Matrix: (Units=1/GPa)
#
#
# Indices 1 2 3 4 5 6 
#
# 1 0.026765 0.006580 -0.007792 0.000000 0.003836 0.000000
# 2 0.006580 0.022876 -0.011078 0.000000 0.004776 0.000000
# 3 -0.007792 -0.011078 0.025571 0.000000 -0.023480 0.000000
# 4 0.000000 0.000000 0.000000 0.065796 0.000000 0.000023
# 5 0.003836 0.004776 -0.023480 0.000000 0.062210 0.000000
# 6 0.000000 0.000000 0.000000 0.000023 0.000000 0.049062
#
#
# Mechanical properties :
#
#
# Convention : Reuss Voigt Hill
#
# Bulk Modulus (GPa) = 19.74947 28.14059 23.94503
# Shear Modulus (GPa) = 17.02211 22.03614 19.52913
#
# Velocity S-wave (km/s) = 3.08469 3.50972 3.30404
# Velocity P-wave (km/s) = 4.87103 5.67050 5.28590
#
# Compressibility (1/GPa) = 0.05063428
#
# Stress axis : x y z
#
# Youngs Moduli (GPa) = 37.36221 43.71311 39.10744
#
# Poissons Ratio (x) = -0.28764 0.30471
# Poissons Ratio (y) = -0.24585 0.43322
# Poissons Ratio (z) = 0.29111 0.48424
#
# Static dielectric constant tensor:
#      x y z
#    x 1.631790 0.000000 0.001030 
#    y 0.000000 1.584410 0.000000 
#    z 0.001030 0.000000 1.672630 
# 
# From -- ./inp_files/66559.got.cif
#   From: 2010.05.17/outbox.cif.g08.bks.cpg/sg12_34_cif.got.tgz:66559.got - 2010.06.03 13:09:07.
