data_PCOD9190334
_publ_section_title
;
Structure prediction by ZEFSAII (Michael W. Deem and Ramdas Pophale) SiO2 
 PCOD9190334
Probable space group: C 2/M
;
_chemical_formula_sum "Si O2"
_cell_formula_units_Z 48
_cell_length_a 13.458855
_cell_length_b 16.149922
_cell_length_c 10.067051
_cell_angle_alpha 90.000000
_cell_angle_beta 90.257866
_cell_angle_gamma 90.000000
_cell_volume 2188.146592
_symmetry_space_group_name_H-M "C 2/M"
_symmetry_group_IT_number 12
_symmetry_cell_setting 'monoclinic'
loop_
_space_group_symop_operation_xyz
x,y,z
-x,y,-z
-x,-y,-z
x,-y,z
1/2+x,1/2+y,z
1/2-x,1/2+y,-z
1/2-x,1/2-y,-z
1/2+x,1/2-y,z
loop_
_atom_site_type_symbol
_atom_site_label
_atom_site_fract_x
_atom_site_fract_y
_atom_site_fract_z
Si Si1 0.710066 0.677363 0.313050
Si Si2 0.917882 0.500000 0.163546
Si Si3 0.880443 0.000000 0.982468
Si Si4 0.420363 0.181677 0.170156
Si Si5 0.657681 0.314244 0.012588
Si Si6 0.414968 0.177061 0.610239
Si Si7 0.211356 0.000000 0.311953
Si Si8 0.917745 0.500000 0.616264
O O1 0.825312 0.686135 0.269722
O O2 0.665142 0.751720 0.394770
O O3 0.692464 0.587880 0.377710
O O4 0.650608 0.678212 0.171469
O O5 0.908841 0.591118 0.097471
O O6 0.826968 0.500000 0.267686
O O7 0.019639 0.500000 0.246796
O O8 0.838806 0.089253 0.034703
O O9 0.848360 0.000000 0.827765
O O10 0.000000 0.000000 0.000000
O O11 0.417197 0.262018 0.078355
O O12 0.520988 0.179338 0.254057
O O13 0.750000 0.250000 0.000000
O O14 0.500000 0.184708 0.500000
O O15 0.364373 0.087018 0.602670
O O16 0.000000 0.500000 0.500000
#
# Coordination Sequence:
#
# PCOD9190334 Si02
#       8
#     8   4   4   8   8   8   4   4
#     4   9  18  33  51  74  99 130 167 210 257 307
#     4   8  14  30  51  72  97 134 171 207 259 314
#     4  10  20  30  51  81 106 145 184 211 255 326
#     4   9  18  32  53  76 102 133 171 215 261 314
#     4   9  19  34  52  79 106 137 173 218 262 316
#     4  10  20  33  52  73  98 132 173 214 257 309
#     4   8  16  30  49  69  97 132 169 202 248 317
#     4   8  16  32  50  70  92 125 174 215 247 303
#
# _framework density 21.936374000000001
#
# number of rings (size 3 to 8) (size 9 to 14) (size 15 to 20)
#    0.000    3.000    0.000    1.000    4.667    0.667 
#    0.000    4.583    0.000    3.000    0.000    0.000 
#    0.000    0.000    0.000    0.000    0.000    0.000 
#
# Total GULP energy -133630.255758 kJ/mol
# GULP energy per Si atom -5567.927323 kJ/mol
# Density = 2.188645 g / cm^3
# Si number density = 21.936374 Si / 1000 Ang^3
#
#
#
# Elastic Constant Matrix: (Units=GPa)
#
#
# Indices 1 2 3 4 5 6 
#
# 1 65.0150 72.3269 17.0221 0.0000 0.7724 0.0000
# 2 72.3269 271.9768 26.8117 0.0000 -8.5015 0.0000
# 3 17.0221 26.8117 29.8140 0.0000 17.7650 0.0000
# 4 0.0000 0.0000 0.0000 3.1301 0.0000 -1.7335
# 5 0.7724 -8.5015 17.7650 0.0000 32.0436 0.0000
# 6 0.0000 0.0000 0.0000 -1.7335 0.0000 2.2583
#
#
#
# Elastic Compliance Matrix: (Units=1/GPa)
#
#
# Indices 1 2 3 4 5 6 
#
# 1 0.024128 -0.005083 -0.012029 0.000000 0.004739 0.000000
# 2 -0.005083 0.005617 -0.004645 0.000000 0.004188 0.000000
# 3 -0.012029 -0.004645 0.067420 0.000000 -0.038320 0.000000
# 4 0.000000 0.000000 0.000000 0.555726 0.000000 0.426577
# 5 0.004739 0.004188 -0.038320 0.000000 0.053449 0.000000
# 6 0.000000 0.000000 0.000000 0.426577 0.000000 0.770250
#
#
# Mechanical properties :
#
#
# Convention : Reuss Voigt Hill
#
# Bulk Modulus (GPa) = 18.63847 66.56967 42.60407
# Shear Modulus (GPa) = 3.25100 24.19607 13.72354
#
# Velocity S-wave (km/s) = 1.21870 3.32476 2.50393
# Velocity P-wave (km/s) = 3.23965 6.71947 5.27478
#
# Compressibility (1/GPa) = 0.05365246
#
# Stress axis : x y z
#
# Youngs Moduli (GPa) = 41.44526 178.02348 14.83236
#
# Poissons Ratio (x) = 0.90480 0.17841
# Poissons Ratio (y) = 0.21065 0.06890
# Poissons Ratio (z) = 0.49853 0.82698
#
# Static dielectric constant tensor:
#      x y z
#    x 1.839180 0.000000 0.042360 
#    y 0.000000 1.888420 0.000000 
#    z 0.042360 0.000000 1.856460 
# 
# From -- ./inp_files/143040.got.cif
#   From: 2010.05.17/outbox.cif.g08.bks.cpg/sg12_72_cif.got.tgz:143040.got - 2010.06.03 13:09:07.
