data_PCOD9190730
_publ_section_title
;
Structure prediction by ZEFSAII (Michael W. Deem and Ramdas Pophale) SiO2 
 PCOD9190730
Probable space group: C 2/M
;
_chemical_formula_sum "Si O2"
_cell_formula_units_Z 56
_cell_length_a 19.882010
_cell_length_b 7.349271
_cell_length_c 25.271242
_cell_angle_alpha 90.000000
_cell_angle_beta 136.232374
_cell_angle_gamma 90.000000
_cell_volume 2554.294927
_symmetry_space_group_name_H-M "C 2/M"
_symmetry_group_IT_number 12
_symmetry_cell_setting 'monoclinic'
loop_
_space_group_symop_operation_xyz
x,y,z
-x,y,-z
-x,-y,-z
x,-y,z
1/2+x,1/2+y,z
1/2-x,1/2+y,-z
1/2-x,1/2-y,-z
1/2+x,1/2-y,z
loop_
_atom_site_type_symbol
_atom_site_label
_atom_site_fract_x
_atom_site_fract_y
_atom_site_fract_z
Si Si1 0.252699 0.785945 0.635049
Si Si2 0.016887 0.278618 0.070626
Si Si3 0.833781 0.777975 0.191616
Si Si4 0.809399 0.716505 0.980942
Si Si5 0.450202 0.280119 0.683490
Si Si6 0.650616 0.716563 0.475911
Si Si7 0.775188 0.722497 0.766414
O O1 0.360317 0.772023 0.670042
O O2 0.175217 0.710555 0.548258
O O3 0.253266 0.712669 0.694733
O O4 0.231350 0.000000 0.627273
O O5 0.021643 0.500000 0.073856
O O6 0.920013 0.217046 0.045895
O O7 0.118173 0.217854 0.153128
O O8 0.000000 0.226020 0.000000
O O9 0.801936 0.725058 0.232506
O O10 0.942692 0.719500 0.238894
O O11 0.833489 0.000000 0.190077
O O12 0.752673 0.714348 0.104077
O O13 0.816924 0.500000 0.977486
O O14 0.750000 0.750000 0.000000
O O15 0.449453 0.500000 0.682277
O O16 0.429375 0.216593 0.611230
O O17 0.635566 0.500000 0.472641
O O18 0.750000 0.750000 0.500000
O O19 0.776569 0.500000 0.765893
#
# Coordination Sequence:
#
# PCOD9190730 Si02
#       7
#     8   8   8   8   8   8   8
#     4   9  17  28  46  70  90 111 147 191 222 250
#     4   9  15  27  46  66  86 114 151 183 213 256
#     4   9  17  30  45  65  92 120 147 179 222 267
#     4  10  20  32  48  69  92 116 147 186 223 261
#     4   9  17  29  46  65  90 122 148 174 218 272
#     4   8  14  26  42  63  89 115 144 177 216 261
#     4   9  16  27  44  66  90 114 146 187 222 254
#
# _framework density 21.923857000000002
#
# number of rings (size 3 to 8) (size 9 to 14) (size 15 to 20)
#    0.000    3.000    1.429    0.000    2.000    0.000 
#    0.000    0.714    0.000    6.429    0.000    0.000 
#    0.000   11.429    0.000    0.000    0.000    0.000 
#
# Total GULP energy -156177.092795 kJ/mol
# GULP energy per Si atom -5577.753314 kJ/mol
# Density = 2.187396 g / cm^3
# Si number density = 21.923857 Si / 1000 Ang^3
#
#
#
# Elastic Constant Matrix: (Units=GPa)
#
#
# Indices 1 2 3 4 5 6 
#
# 1 58.1566 -11.1639 -6.7452 0.0000 -19.5659 0.0000
# 2 -11.1639 82.1932 -0.9571 0.0000 -0.9828 -0.0001
# 3 -6.7452 -0.9571 47.7884 0.0000 -27.4246 0.0000
# 4 0.0000 0.0000 0.0000 -6.5051 0.0000 2.1523
# 5 -19.5659 -0.9828 -27.4246 0.0000 41.4697 0.0000
# 6 0.0000 -0.0001 0.0000 2.1523 0.0000 7.2530
#
#
#
# Elastic Compliance Matrix: (Units=1/GPa)
#
#
# Indices 1 2 3 4 5 6 
#
# 1 0.029503 0.004563 0.019833 0.000000 0.027144 0.000000
# 2 0.004563 0.012888 0.003728 0.000000 0.004923 0.000000
# 3 0.019833 0.003728 0.047093 0.000000 0.040589 0.000000
# 4 0.000000 0.000000 0.000000 -0.139982 0.000000 0.041540
# 5 0.027144 0.004923 0.040589 0.000000 0.063880 0.000000
# 6 0.000000 0.000000 0.000000 0.041540 0.000000 0.125547
#
#
# Mechanical properties :
#
#
# Convention : Reuss Voigt Hill
#
# Bulk Modulus (GPa) = 6.86194 16.71176 11.78685
# Shear Modulus (GPa) = 38.09263 22.24383 30.16823
#
# Velocity S-wave (km/s) = 4.17285 3.18873 3.71353
# Velocity P-wave (km/s) = 5.13358 4.60396 4.87597
#
# Compressibility (1/GPa) = 0.14573132
#
# Stress axis : x y z
#
# Youngs Moduli (GPa) = 33.89437 77.58875 21.23475
#
# Poissons Ratio (x) = -0.35402 -0.42115
# Poissons Ratio (y) = -0.15465 -0.07915
# Poissons Ratio (z) = -0.67223 -0.28921
#
# Static dielectric constant tensor:
#      x y z
#    x 1.866320 0.000000 0.028890 
#    y 0.000000 1.834560 0.000000 
#    z 0.028890 0.000000 1.821170 
# 
# From -- ./inp_files/276085.got.cif
#   From: 2010.05.17/outbox.cif.g08.bks.cpg/sg12_139_cif.got.tgz:276085.got - 2010.06.03 13:09:07.
