data_PCOD9190623
_publ_section_title
;
Structure prediction by ZEFSAII (Michael W. Deem and Ramdas Pophale) SiO2 
 PCOD9190623
Probable space group: C 2/M
;
_chemical_formula_sum "Si O2"
_cell_formula_units_Z 56
_cell_length_a 5.242807
_cell_length_b 27.258731
_cell_length_c 18.618373
_cell_angle_alpha 90.000000
_cell_angle_beta 111.179328
_cell_angle_gamma 90.000000
_cell_volume 2481.068452
_symmetry_space_group_name_H-M "C 2/M"
_symmetry_group_IT_number 12
_symmetry_cell_setting 'monoclinic'
loop_
_space_group_symop_operation_xyz
x,y,z
-x,y,-z
-x,-y,-z
x,-y,z
1/2+x,1/2+y,z
1/2-x,1/2+y,-z
1/2-x,1/2-y,-z
1/2+x,1/2-y,z
loop_
_atom_site_type_symbol
_atom_site_label
_atom_site_fract_x
_atom_site_fract_y
_atom_site_fract_z
Si Si1 0.166356 0.556411 0.372702
Si Si2 0.012458 0.420464 0.803194
Si Si3 0.719302 0.945118 0.971475
Si Si4 0.687496 0.620454 0.383557
Si Si5 0.342789 0.271926 0.585146
Si Si6 0.497055 0.637531 0.205043
Si Si7 0.879168 0.281131 0.909316
O O1 0.197695 0.500000 0.399952
O O2 0.452124 0.584770 0.390136
O O3 0.028093 0.556218 0.279036
O O4 0.962397 0.589004 0.400410
O O5 0.136585 0.449791 0.881334
O O6 0.232146 0.376649 0.812071
O O7 0.713815 0.407137 0.803285
O O8 0.764014 0.000000 0.008122
O O9 0.500000 0.920521 0.000000
O O10 0.000000 0.916402 0.000000
O O11 0.702558 0.670390 0.428849
O O12 0.601837 0.643986 0.297310
O O13 0.250000 0.250000 0.500000
O O14 0.653891 0.254274 0.625115
O O15 0.300230 0.677941 0.149862
O O16 0.651919 0.238119 0.897138
O O17 0.000000 0.296006 0.000000
#
# Coordination Sequence:
#
# PCOD9190623 Si02
#       7
#     8   8   8   8   8   8   8
#     4  10  20  36  58  84 119 162 198 243 302 348
#     4  10  20  34  50  73 103 136 181 230 287 350
#     4  10  20  32  46  66  93 128 172 222 275 331
#     4  10  21  36  57  91 123 150 203 251 286 361
#     4  10  21  38  62  94 126 163 196 232 295 351
#     4  10  21  34  52  76 103 136 176 236 291 333
#     4  10  21  36  51  68  94 134 182 230 289 361
#
# _framework density 22.570921999999999
#
# number of rings (size 3 to 8) (size 9 to 14) (size 15 to 20)
#    0.000    2.000    0.000    3.429    0.000    2.857 
#    0.000    4.286    0.000    0.000    0.000   40.000 
#    0.000    0.000    0.000    0.000    0.000    0.000 
#
# Total GULP energy -156102.274686 kJ/mol
# GULP energy per Si atom -5575.081239 kJ/mol
# Density = 2.251955 g / cm^3
# Si number density = 22.570922 Si / 1000 Ang^3
#
#
#
# Elastic Constant Matrix: (Units=GPa)
#
#
# Indices 1 2 3 4 5 6 
#
# 1 176.1369 37.9249 -0.9038 0.0000 -10.6099 0.0000
# 2 37.9249 127.7688 21.5266 0.0000 -11.2292 0.0000
# 3 -0.9038 21.5266 28.9784 0.0000 -0.4252 0.0000
# 4 0.0000 0.0000 0.0000 25.2392 0.0000 4.6333
# 5 -10.6099 -11.2292 -0.4252 0.0000 10.7538 0.0000
# 6 0.0000 0.0000 0.0000 4.6333 0.0000 69.3792
#
#
#
# Elastic Compliance Matrix: (Units=1/GPa)
#
#
# Indices 1 2 3 4 5 6 
#
# 1 0.006332 -0.001749 0.001562 0.000000 0.004483 0.000000
# 2 -0.001749 0.010414 -0.007661 0.000000 0.008846 0.000000
# 3 0.001562 -0.007661 0.040176 0.000000 -0.004869 0.000000
# 4 0.000000 0.000000 0.000000 0.040113 0.000000 -0.002679
# 5 0.004483 0.008846 -0.004869 0.000000 0.106458 0.000000
# 6 0.000000 0.000000 0.000000 -0.002679 0.000000 0.014592
#
#
# Mechanical properties :
#
#
# Convention : Reuss Voigt Hill
#
# Bulk Modulus (GPa) = 24.25528 49.99771 37.12649
# Shear Modulus (GPa) = 20.20018 39.36352 29.78185
#
# Velocity S-wave (km/s) = 2.99484 4.18064 3.63640
# Velocity P-wave (km/s) = 4.76743 6.74560 5.84087
#
# Compressibility (1/GPa) = 0.04122814
#
# Stress axis : x y z
#
# Youngs Moduli (GPa) = 157.92830 96.02629 24.89022
#
# Poissons Ratio (x) = 0.16792 -0.03889
# Poissons Ratio (y) = 0.27617 0.19068
# Poissons Ratio (z) = -0.24673 0.73562
#
# Static dielectric constant tensor:
#      x y z
#    x 1.477540 0.000000 -0.114120 
#    y 0.000000 1.877090 0.000000 
#    z -0.114120 0.000000 1.828290 
# 
# From -- ./inp_files/298110.got.cif
#   From: 2010.05.17/outbox.cif.g08.bks.cpg/sg12_150_cif.got.tgz:298110.got - 2010.06.03 13:09:07.
