data_PCOD9190203
_publ_section_title
;
Structure prediction by ZEFSAII (Michael W. Deem and Ramdas Pophale) SiO2 
 PCOD9190203
Probable space group: C 2/M
;
_chemical_formula_sum "Si O2"
_cell_formula_units_Z 44
_cell_length_a 15.532593
_cell_length_b 25.797599
_cell_length_c 6.648293
_cell_angle_alpha 90.000000
_cell_angle_beta 125.615932
_cell_angle_gamma 90.000000
_cell_volume 2165.665042
_symmetry_space_group_name_H-M "C 2/M"
_symmetry_group_IT_number 12
_symmetry_cell_setting 'monoclinic'
loop_
_space_group_symop_operation_xyz
x,y,z
-x,y,-z
-x,-y,-z
x,-y,z
1/2+x,1/2+y,z
1/2-x,1/2+y,-z
1/2-x,1/2-y,-z
1/2+x,1/2-y,z
loop_
_atom_site_type_symbol
_atom_site_label
_atom_site_fract_x
_atom_site_fract_y
_atom_site_fract_z
Si Si1 0.781361 0.307259 0.108385
Si Si2 0.390146 0.347286 0.831337
Si Si3 0.000000 0.640748 0.500000
Si Si4 0.720944 0.392704 0.695495
Si Si5 0.872593 0.439627 0.570087
Si Si6 0.335496 0.556494 0.993443
O O1 0.709988 0.318836 0.207643
O O2 0.901719 0.321914 0.320291
O O3 0.750000 0.250000 0.000000
O O4 0.753778 0.347132 0.891793
O O5 0.360604 0.367738 0.572307
O O6 0.500000 0.316903 0.000000
O O7 0.402774 0.397568 0.991188
O O8 0.962929 0.600537 0.624464
O O9 0.814150 0.418102 0.689118
O O10 0.674600 0.435601 0.782723
O O11 0.905982 0.500000 0.636407
O O12 0.781171 0.438468 0.270772
O O13 0.376574 0.500000 0.997579
#
# Coordination Sequence:
#
# PCOD9190203 Si02
#       6
#     8   8   4   8   8   8
#     4  11  26  45  65  92 127 169 216 276 324 371
#     4  10  22  42  62  89 126 166 218 270 313 374
#     4  12  21  46  64  98 138 162 215 274 312 396
#     4  10  19  41  63  91 128 169 218 256 325 391
#     4  10  20  37  64 100 137 169 203 265 330 391
#     4   9  18  35  59  93 131 168 209 255 314 384
#
# _framework density 20.317083
#
# number of rings (size 3 to 8) (size 9 to 14) (size 15 to 20)
#    0.000    1.818    5.455    0.818    0.000    6.909 
#    3.273    1.818    0.000    0.000    0.000    0.000 
#    0.000    0.000    0.000    0.000    0.000    0.000 
#
# Total GULP energy -122734.299263 kJ/mol
# GULP energy per Si atom -5578.831785 kJ/mol
# Density = 2.027084 g / cm^3
# Si number density = 20.317083 Si / 1000 Ang^3
#
#
#
# Elastic Constant Matrix: (Units=GPa)
#
#
# Indices 1 2 3 4 5 6 
#
# 1 82.2971 4.7214 42.2604 0.0000 18.3245 0.0000
# 2 4.7214 95.4827 14.7956 0.0000 19.3601 0.0000
# 3 42.2604 14.7956 80.8516 0.0000 -3.6243 0.0000
# 4 0.0000 0.0000 0.0000 21.1435 0.0000 2.6341
# 5 18.3245 19.3601 -3.6243 0.0000 34.0389 0.0000
# 6 0.0000 0.0000 0.0000 2.6341 0.0000 7.3368
#
#
#
# Elastic Compliance Matrix: (Units=1/GPa)
#
#
# Indices 1 2 3 4 5 6 
#
# 1 0.022039 0.004074 -0.012963 0.000000 -0.015562 0.000000
# 2 0.004074 0.013108 -0.004985 0.000000 -0.010179 0.000000
# 3 -0.012963 -0.004985 0.020594 0.000000 0.012006 0.000000
# 4 0.000000 0.000000 0.000000 0.049510 0.000000 -0.017776
# 5 -0.015562 -0.010179 0.012006 0.000000 0.044824 0.000000
# 6 0.000000 0.000000 0.000000 -0.017776 0.000000 0.142682
#
#
# Mechanical properties :
#
#
# Convention : Reuss Voigt Hill
#
# Bulk Modulus (GPa) = 35.72076 42.46513 39.09295
# Shear Modulus (GPa) = 15.15912 25.62743 20.39328
#
# Velocity S-wave (km/s) = 2.73450 3.55544 3.17164
# Velocity P-wave (km/s) = 5.25260 6.14828 5.71800
#
# Compressibility (1/GPa) = 0.02799492
#
# Stress axis : x y z
#
# Youngs Moduli (GPa) = 45.37441 76.28929 48.55745
#
# Poissons Ratio (x) = -0.31082 0.62943
# Poissons Ratio (y) = -0.18486 0.24204
# Poissons Ratio (z) = 0.58817 0.38027
#
# Static dielectric constant tensor:
#      x y z
#    x 1.751260 0.000000 0.015020 
#    y 0.000000 1.729670 0.000000 
#    z 0.015020 0.000000 1.731130 
# 
# From -- ./inp_files/12457.got.cif
#   From: 2010.05.17/outbox.cif.g08.bks.cpg/sg12_7_cif.got.tgz:12457.got - 2010.06.03 13:09:07.
