data_PCOD9190185
_publ_section_title
;
Structure prediction by ZEFSAII (Michael W. Deem and Ramdas Pophale) SiO2 
 PCOD9190185
Probable space group: C 2/M
;
_chemical_formula_sum "Si O2"
_cell_formula_units_Z 52
_cell_length_a 32.440776
_cell_length_b 7.581609
_cell_length_c 17.095849
_cell_angle_alpha 90.000000
_cell_angle_beta 35.294992
_cell_angle_gamma 90.000000
_cell_volume 2429.464294
_symmetry_space_group_name_H-M "C 2/M"
_symmetry_group_IT_number 12
_symmetry_cell_setting 'monoclinic'
loop_
_space_group_symop_operation_xyz
x,y,z
-x,y,-z
-x,-y,-z
x,-y,z
1/2+x,1/2+y,z
1/2-x,1/2+y,-z
1/2-x,1/2-y,-z
1/2+x,1/2-y,z
loop_
_atom_site_type_symbol
_atom_site_label
_atom_site_fract_x
_atom_site_fract_y
_atom_site_fract_z
Si Si1 0.639480 0.000000 0.145659
Si Si2 0.782730 0.290266 0.365069
Si Si3 0.941236 0.205233 0.149771
Si Si4 0.233812 0.795881 0.278414
Si Si5 0.031498 0.500000 0.596488
Si Si6 0.469185 0.294281 0.277979
Si Si7 0.342593 0.000000 0.702815
Si Si8 0.140398 0.205156 0.019927
O O1 0.553241 0.000000 0.284093
O O2 0.659491 0.171766 0.063899
O O3 0.668968 0.000000 0.187076
O O4 0.788906 0.500000 0.347274
O O5 0.750000 0.250000 0.500000
O O6 0.862279 0.214727 0.237717
O O7 0.734116 0.231755 0.367625
O O8 0.940243 0.275698 0.239862
O O9 0.961757 0.000000 0.129371
O O10 0.000000 0.283046 0.000000
O O11 0.190903 0.670629 0.287004
O O12 0.211708 0.000000 0.308028
O O13 0.315453 0.777587 0.121828
O O14 0.074687 0.500000 0.449688
O O15 0.051230 0.670606 0.618301
O O16 0.448551 0.500000 0.321973
O O17 0.555496 0.284811 0.138205
O O18 0.158423 0.000000 0.004372
#
# Coordination Sequence:
#
# PCOD9190185 Si02
#       8
#     4   8   8   8   4   8   4   8
#     4  10  23  44  68  98 124 156 209 267 317 375
#     4  11  26  41  61  88 128 171 215 262 312 370
#     4  10  21  37  59  90 122 162 211 263 310 370
#     4  11  25  43  61  94 128 170 208 260 313 375
#     4  10  23  42  65  90 126 159 209 253 311 381
#     4   9  20  36  62  92 121 163 207 261 312 363
#     4  12  27  42  68  90 127 173 204 255 321 389
#     4  10  19  40  68  94 129 163 202 258 324 375
#
# _framework density 21.403894000000001
#
# number of rings (size 3 to 8) (size 9 to 14) (size 15 to 20)
#    0.000    1.692    1.538    1.615    5.385    3.385 
#    0.000    0.000    0.000    4.615    0.000    0.000 
#    0.000    0.000    0.000    0.000    0.000    0.000 
#
# Total GULP energy -145353.550674 kJ/mol
# GULP energy per Si atom -5590.521180 kJ/mol
# Density = 2.135518 g / cm^3
# Si number density = 21.403894 Si / 1000 Ang^3
#
#
#
# Elastic Constant Matrix: (Units=GPa)
#
#
# Indices 1 2 3 4 5 6 
#
# 1 115.5093 35.8058 13.0473 0.0010 32.7853 -0.0012
# 2 35.8058 98.4625 -0.3304 0.0022 13.3983 -0.0021
# 3 13.0473 -0.3304 62.4410 0.0024 10.3800 -0.0029
# 4 0.0010 0.0022 0.0024 9.2022 0.0001 6.2173
# 5 32.7853 13.3983 10.3800 0.0001 34.5992 0.0006
# 6 -0.0012 -0.0021 -0.0029 6.2173 0.0006 16.3881
#
#
#
# Elastic Compliance Matrix: (Units=1/GPa)
#
#
# Indices 1 2 3 4 5 6 
#
# 1 0.012754 -0.003203 -0.000925 -0.000001 -0.010568 0.000001
# 2 -0.003203 0.011562 0.001021 -0.000005 -0.001749 0.000003
# 3 -0.000925 0.001021 0.016981 -0.000009 -0.004613 0.000007
# 4 -0.000001 -0.000005 -0.000009 0.146124 0.000006 -0.055437
# 5 -0.010568 -0.001749 -0.004613 0.000006 0.040977 -0.000006
# 6 0.000001 0.000003 0.000007 -0.055437 -0.000006 0.082052
#
#
# Mechanical properties :
#
#
# Convention : Reuss Voigt Hill
#
# Bulk Modulus (GPa) = 28.50410 41.49537 34.99973
# Shear Modulus (GPa) = 15.22724 27.23059 21.22892
#
# Velocity S-wave (km/s) = 2.67015 3.57070 3.15274
# Velocity P-wave (km/s) = 4.78042 6.03562 5.44432
#
# Compressibility (1/GPa) = 0.03508267
#
# Stress axis : x y z
#
# Youngs Moduli (GPa) = 78.40583 86.48767 58.89034
#
# Poissons Ratio (x) = 0.27703 0.05449
# Poissons Ratio (y) = 0.25115 -0.06014
# Poissons Ratio (z) = 0.07255 -0.08832
#
# Static dielectric constant tensor:
#      x y z
#    x 1.755840 0.000000 -0.013750 
#    y 0.000000 1.768960 0.000000 
#    z -0.013750 0.000000 1.789150 
# 
# From -- ./inp_files/249631.got.cif
#   From: 2010.05.17/outbox.cif.g08.bks.cpg/sg12_125_cif.got.tgz:249631.got - 2010.06.03 13:09:07.
