data_PCOD9190342
_publ_section_title
;
Structure prediction by ZEFSAII (Michael W. Deem and Ramdas Pophale) SiO2 
 PCOD9190342
Probable space group: C 2/M
;
_chemical_formula_sum "Si O2"
_cell_formula_units_Z 48
_cell_length_a 22.708602
_cell_length_b 24.575308
_cell_length_c 10.165275
_cell_angle_alpha 90.000000
_cell_angle_beta 27.854680
_cell_angle_gamma 90.000000
_cell_volume 2650.573189
_symmetry_space_group_name_H-M "C 2/M"
_symmetry_group_IT_number 12
_symmetry_cell_setting 'monoclinic'
loop_
_space_group_symop_operation_xyz
x,y,z
-x,y,-z
-x,-y,-z
x,-y,z
1/2+x,1/2+y,z
1/2-x,1/2+y,-z
1/2-x,1/2-y,-z
1/2+x,1/2-y,z
loop_
_atom_site_type_symbol
_atom_site_label
_atom_site_fract_x
_atom_site_fract_y
_atom_site_fract_z
Si Si1 0.236519 0.176145 0.287794
Si Si2 0.592549 0.767364 0.702447
Si Si3 0.078909 0.746169 0.213979
Si Si4 0.610170 0.564783 0.885353
Si Si5 0.527467 0.632160 0.297370
Si Si6 0.141237 0.384451 0.725936
O O1 0.202768 0.224864 0.456017
O O2 0.322111 0.133831 0.198322
O O3 0.107924 0.148968 0.495396
O O4 0.302407 0.207059 0.037206
O O5 0.509217 0.768030 0.735768
O O6 0.633259 0.827925 0.659685
O O7 0.500000 0.746787 0.000000
O O8 0.104306 0.810881 0.156653
O O9 0.000000 0.736265 0.500000
O O10 0.600355 0.500000 0.918807
O O11 0.745017 0.580788 0.557657
O O12 0.500000 0.582780 0.000000
O O13 0.589995 0.592999 0.066739
O O14 0.500000 0.611521 0.500000
O O15 0.000000 0.408416 0.000000
#
# Coordination Sequence:
#
# PCOD9190342 Si02
#       6
#     8   8   8   8   8   8
#     4  11  20  34  55  85 124 156 189 239 279 337
#     4  10  20  30  52  85 117 156 194 226 280 347
#     4  10  21  34  51  84 125 161 191 227 274 344
#     4  11  24  42  65  87 111 148 198 256 301 339
#     4  10  23  38  59  87 117 159 195 235 287 348
#     4  11  21  36  60  90 113 151 195 241 292 345
#
# _framework density 18.109290000000001
#
# number of rings (size 3 to 8) (size 9 to 14) (size 15 to 20)
#    0.000    1.500    5.000    1.500    4.667    8.000 
#    0.000    0.000    0.000    0.000    0.000    1.167 
#    0.000    0.000    0.000    0.000    0.000    0.000 
#
# Total GULP energy -133997.042264 kJ/mol
# GULP energy per Si atom -5583.210094 kJ/mol
# Density = 1.806807 g / cm^3
# Si number density = 18.109290 Si / 1000 Ang^3
#
#
#
# Elastic Constant Matrix: (Units=GPa)
#
#
# Indices 1 2 3 4 5 6 
#
# 1 75.3666 20.2612 36.6816 -0.0001 12.3295 0.0002
# 2 20.2612 44.0854 49.1395 -0.0003 10.8071 0.0002
# 3 36.6816 49.1395 122.6757 -0.0004 10.6183 0.0003
# 4 -0.0001 -0.0003 -0.0004 18.8399 0.0003 -3.1570
# 5 12.3295 10.8071 10.6183 0.0003 40.9648 -0.0005
# 6 0.0002 0.0002 0.0003 -3.1570 -0.0005 18.6616
#
#
#
# Elastic Compliance Matrix: (Units=1/GPa)
#
#
# Indices 1 2 3 4 5 6 
#
# 1 0.016235 -0.002832 -0.003439 0.000000 -0.003248 0.000000
# 2 -0.002832 0.043359 -0.015963 0.000000 -0.006449 0.000000
# 3 -0.003439 -0.015963 0.015467 0.000000 0.001237 0.000000
# 4 0.000000 0.000000 0.000000 0.054627 0.000000 0.009241
# 5 -0.003248 -0.006449 0.001237 0.000000 0.026769 0.000001
# 6 0.000000 0.000000 0.000000 0.009241 0.000001 0.055149
#
#
# Mechanical properties :
#
#
# Convention : Reuss Voigt Hill
#
# Bulk Modulus (GPa) = 32.68763 50.47695 41.58229
# Shear Modulus (GPa) = 18.77781 24.76295 21.77038
#
# Velocity S-wave (km/s) = 3.22361 3.70187 3.47099
# Velocity P-wave (km/s) = 5.65199 6.79749 6.25103
#
# Compressibility (1/GPa) = 0.03059262
#
# Stress axis : x y z
#
# Youngs Moduli (GPa) = 61.59568 23.06350 64.65410
#
# Poissons Ratio (x) = 0.06532 0.22234
# Poissons Ratio (y) = 0.17445 1.03207
# Poissons Ratio (z) = 0.21182 0.36816
#
# Static dielectric constant tensor:
#      x y z
#    x 1.650760 0.000000 -0.009390 
#    y 0.000000 1.606640 0.000000 
#    z -0.009390 0.000000 1.642430 
# 
# From -- ./inp_files/52049.got.cif
#   From: 2010.05.17/outbox.cif.g08.bks.cpg/sg12_27_cif.got.tgz:52049.got - 2010.06.03 13:09:07.
