data_PCOD9190547
_publ_section_title
;
Structure prediction by ZEFSAII (Michael W. Deem and Ramdas Pophale) SiO2 
 PCOD9190547
Probable space group: C 2/M
;
_chemical_formula_sum "Si O2"
_cell_formula_units_Z 56
_cell_length_a 23.373500
_cell_length_b 11.454288
_cell_length_c 11.933546
_cell_angle_alpha 90.000000
_cell_angle_beta 101.215104
_cell_angle_gamma 90.000000
_cell_volume 3133.919444
_symmetry_space_group_name_H-M "C 2/M"
_symmetry_group_IT_number 12
_symmetry_cell_setting 'monoclinic'
loop_
_space_group_symop_operation_xyz
x,y,z
-x,y,-z
-x,-y,-z
x,-y,z
1/2+x,1/2+y,z
1/2-x,1/2+y,-z
1/2-x,1/2-y,-z
1/2+x,1/2-y,z
loop_
_atom_site_type_symbol
_atom_site_label
_atom_site_fract_x
_atom_site_fract_y
_atom_site_fract_z
Si Si1 0.610049 0.637424 0.313942
Si Si2 0.430612 0.243889 0.479165
Si Si3 0.763509 0.140443 0.092300
Si Si4 0.184590 0.376276 0.538888
Si Si5 0.393899 0.638126 0.234645
Si Si6 0.723755 0.789692 0.320753
Si Si7 0.502691 0.357978 0.126401
O O1 0.616944 0.500000 0.304687
O O2 0.584949 0.665898 0.427350
O O3 0.670988 0.697810 0.310102
O O4 0.560474 0.682229 0.210987
O O5 0.500000 0.220106 0.500000
O O6 0.385043 0.140433 0.488476
O O7 0.408447 0.295674 0.353897
O O8 0.831097 0.155023 0.154507
O O9 0.729380 0.158944 0.198116
O O10 0.755918 0.000000 0.054210
O O11 0.750000 0.250000 0.000000
O O12 0.200179 0.500000 0.596845
O O13 0.216475 0.274475 0.619952
O O14 0.208853 0.371868 0.421021
O O15 0.399367 0.500000 0.260027
O O16 0.444437 0.674205 0.168648
O O17 0.504931 0.500000 0.126038
O O18 0.500000 0.314772 0.000000
#
# Coordination Sequence:
#
# PCOD9190547 Si02
#       7
#     8   8   8   8   8   8   8
#     4  10  20  31  53  86 116 150 194 244 299 360
#     4  11  20  34  55  84 117 154 199 243 303 367
#     4  11  25  43  64  90 121 161 205 253 306 364
#     4  10  21  37  57  82 116 155 198 247 301 365
#     4  10  20  36  57  83 117 152 190 244 307 355
#     4  10  21  38  58  84 112 155 196 245 303 359
#     4   9  18  31  49  77 111 150 189 241 299 348
#
# _framework density 17.868998000000001
#
# number of rings (size 3 to 8) (size 9 to 14) (size 15 to 20)
#    0.000    1.857    2.857    1.286    2.000    2.000 
#    0.000    0.000    0.000    0.000    0.000    1.000 
#    0.000    0.000    0.000    0.000    0.000    0.000 
#
# Total GULP energy -155897.809682 kJ/mol
# GULP energy per Si atom -5567.778917 kJ/mol
# Density = 1.782833 g / cm^3
# Si number density = 17.868998 Si / 1000 Ang^3
#
#
#
# Elastic Constant Matrix: (Units=GPa)
#
#
# Indices 1 2 3 4 5 6 
#
# 1 132.9881 30.4675 29.7573 0.0000 3.7412 0.0000
# 2 30.4675 75.4200 31.8313 0.0000 2.5053 0.0000
# 3 29.7573 31.8313 105.8264 0.0000 -3.8932 0.0000
# 4 0.0000 0.0000 0.0000 15.3805 0.0000 8.8681
# 5 3.7412 2.5053 -3.8932 0.0000 19.0959 0.0000
# 6 0.0000 0.0000 0.0000 8.8681 0.0000 3.5127
#
#
#
# Elastic Compliance Matrix: (Units=1/GPa)
#
#
# Indices 1 2 3 4 5 6 
#
# 1 0.008555 -0.002703 -0.001654 0.000000 -0.001659 0.000000
# 2 -0.002703 0.016207 -0.004205 0.000000 -0.002454 0.000000
# 3 -0.001654 -0.004205 0.011296 0.000000 0.003179 0.000000
# 4 0.000000 0.000000 0.000000 -0.142704 0.000000 0.360266
# 5 -0.001659 -0.002454 0.003179 0.000000 0.053662 0.000000
# 6 0.000000 0.000000 0.000000 0.360266 0.000000 -0.624836
#
#
# Mechanical properties :
#
#
# Convention : Reuss Voigt Hill
#
# Bulk Modulus (GPa) = 52.81182 55.37185 54.09183
# Shear Modulus (GPa) = -7.64079 22.40971 7.38446
#
# Velocity S-wave (km/s) = -2.07009 3.54519 2.03507
# Velocity P-wave (km/s) = 4.88932 6.91467 5.98825
#
# Compressibility (1/GPa) = 0.01893516
#
# Stress axis : x y z
#
# Youngs Moduli (GPa) = 116.88481 61.70022 88.52505
#
# Poissons Ratio (x) = 0.16678 0.14639
# Poissons Ratio (y) = 0.31595 0.37226
# Poissons Ratio (z) = 0.19329 0.25946
#
# Static dielectric constant tensor:
#      x y z
#    x 1.615270 0.000000 -0.004820 
#    y 0.000000 1.618730 0.000000 
#    z -0.004820 0.000000 1.612580 
# 
# From -- ./inp_files/173975.got.cif
#   From: 2010.05.17/outbox.cif.g08.bks.cpg/sg12_87_cif.got.tgz:173975.got - 2010.06.03 13:09:07.
