data_PCOD9190337
_publ_section_title
;
Structure prediction by ZEFSAII (Michael W. Deem and Ramdas Pophale) SiO2 
 PCOD9190337
Probable space group: C 2/M
;
_chemical_formula_sum "Si O2"
_cell_formula_units_Z 64
_cell_length_a 29.312472
_cell_length_b 19.469060
_cell_length_c 6.504864
_cell_angle_alpha 90.000000
_cell_angle_beta 68.271308
_cell_angle_gamma 90.000000
_cell_volume 3448.472167
_symmetry_space_group_name_H-M "C 2/M"
_symmetry_group_IT_number 12
_symmetry_cell_setting 'monoclinic'
loop_
_space_group_symop_operation_xyz
x,y,z
-x,y,-z
-x,-y,-z
x,-y,z
1/2+x,1/2+y,z
1/2-x,1/2+y,-z
1/2-x,1/2-y,-z
1/2+x,1/2-y,z
loop_
_atom_site_type_symbol
_atom_site_label
_atom_site_fract_x
_atom_site_fract_y
_atom_site_fract_z
Si Si1 0.818495 0.577312 0.536561
Si Si2 0.112117 0.919339 0.647564
Si Si3 0.777016 0.921632 0.595375
Si Si4 0.772305 0.349557 0.960402
Si Si5 0.608300 0.679333 0.285450
Si Si6 0.867596 0.279265 0.382111
Si Si7 0.192293 0.774335 0.861713
Si Si8 0.054928 0.802794 0.987544
O O1 0.837964 0.500000 0.476318
O O2 0.769718 0.583596 0.476080
O O3 0.800091 0.589475 0.800537
O O4 0.854416 0.641047 0.428994
O O5 0.170353 0.909417 0.597285
O O6 0.105852 0.888794 0.427723
O O7 0.078892 0.871436 0.846815
O O8 0.100891 0.000000 0.680620
O O9 0.779272 0.000000 0.667565
O O10 0.766868 0.873949 0.806621
O O11 0.744632 0.306576 0.829056
O O12 0.808140 0.298940 0.021588
O O13 0.619472 0.740249 0.428838
O O14 0.651727 0.679942 0.044527
O O15 0.560911 0.692106 0.222875
O O16 0.821160 0.241845 0.349451
O O17 0.912021 0.260185 0.153860
O O18 0.000000 0.796221 0.000000
#
# Coordination Sequence:
#
# PCOD9190337 Si02
#       8
#     8   8   8   8   8   8   8   8
#     4  11  23  35  53  83 123 160 193 234 278 335
#     4  10  22  38  59  85 117 158 194 230 280 339
#     4  10  21  35  50  77 121 162 193 226 270 328
#     4  11  20  31  52  78 112 154 194 233 272 318
#     4  10  20  38  59  81 109 147 184 240 290 338
#     4  10  21  38  59  83 113 148 196 236 290 343
#     4  10  20  30  52  80 109 149 195 236 268 321
#     4  10  24  42  62  88 111 139 188 248 300 349
#
# _framework density 18.558942999999999
#
# number of rings (size 3 to 8) (size 9 to 14) (size 15 to 20)
#    0.000    1.750    3.750    0.375    5.250    3.250 
#    0.000    0.625    0.000    0.375    0.000    0.875 
#    0.000    0.000    0.000    0.000    0.000    0.000 
#
# Total GULP energy -178547.648639 kJ/mol
# GULP energy per Si atom -5579.614020 kJ/mol
# Density = 1.851670 g / cm^3
# Si number density = 18.558943 Si / 1000 Ang^3
#
#
#
# Elastic Constant Matrix: (Units=GPa)
#
#
# Indices 1 2 3 4 5 6 
#
# 1 89.4378 31.2222 26.3501 0.0000 17.9364 0.0000
# 2 31.2222 107.9323 37.3209 0.0000 11.0750 0.0000
# 3 26.3501 37.3209 62.2452 0.0000 14.4503 0.0000
# 4 0.0000 0.0000 0.0000 25.3285 0.0000 2.0614
# 5 17.9364 11.0750 14.4503 0.0000 24.7968 0.0000
# 6 0.0000 0.0000 0.0000 2.0614 0.0000 13.0013
#
#
#
# Elastic Compliance Matrix: (Units=1/GPa)
#
#
# Indices 1 2 3 4 5 6 
#
# 1 0.014401 -0.002380 -0.002889 0.000000 -0.007671 0.000000
# 2 -0.002380 0.012119 -0.006247 0.000000 -0.000051 0.000000
# 3 -0.002889 -0.006247 0.023015 0.000000 -0.008532 0.000000
# 4 0.000000 0.000000 0.000000 0.039997 0.000000 -0.006342
# 5 -0.007671 -0.000051 -0.008532 0.000000 0.050871 0.000000
# 6 0.000000 0.000000 0.000000 -0.006342 0.000000 0.077921
#
#
# Mechanical properties :
#
#
# Convention : Reuss Voigt Hill
#
# Bulk Modulus (GPa) = 37.73091 49.93351 43.83221
# Shear Modulus (GPa) = 19.98484 23.60678 21.79581
#
# Velocity S-wave (km/s) = 3.28507 3.57037 3.43068
# Velocity P-wave (km/s) = 5.89605 6.63027 6.27391
#
# Compressibility (1/GPa) = 0.02650347
#
# Stress axis : x y z
#
# Youngs Moduli (GPa) = 69.43892 82.51641 43.45060
#
# Poissons Ratio (x) = 0.19639 0.12552
# Poissons Ratio (y) = 0.16526 0.27143
# Poissons Ratio (z) = 0.20059 0.51547
#
# Static dielectric constant tensor:
#      x y z
#    x 1.666530 0.000000 0.020200 
#    y 0.000000 1.653220 0.000000 
#    z 0.020200 0.000000 1.678500 
# 
# From -- ./inp_files/32338.got.cif
#   From: 2010.05.17/outbox.cif.g08.bks.cpg/sg12_17_cif.got.tgz:32338.got - 2010.06.03 13:09:07.
