data_PCOD9190812
_publ_section_title
;
Structure prediction by ZEFSAII (Michael W. Deem and Ramdas Pophale) SiO2 
 PCOD9190812
Probable space group: C 2/M
;
_chemical_formula_sum "Si O2"
_cell_formula_units_Z 48
_cell_length_a 14.367009
_cell_length_b 22.375517
_cell_length_c 12.033658
_cell_angle_alpha 90.000000
_cell_angle_beta 140.458789
_cell_angle_gamma 90.000000
_cell_volume 2462.783838
_symmetry_space_group_name_H-M "C 2/M"
_symmetry_group_IT_number 12
_symmetry_cell_setting 'monoclinic'
loop_
_space_group_symop_operation_xyz
x,y,z
-x,y,-z
-x,-y,-z
x,-y,z
1/2+x,1/2+y,z
1/2-x,1/2+y,-z
1/2-x,1/2-y,-z
1/2+x,1/2-y,z
loop_
_atom_site_type_symbol
_atom_site_label
_atom_site_fract_x
_atom_site_fract_y
_atom_site_fract_z
Si Si1 0.829949 0.852517 0.150406
Si Si2 0.284137 0.633268 0.361708
Si Si3 0.032039 0.750814 0.404545
Si Si4 0.385778 0.070251 0.485844
Si Si5 0.588440 0.570669 0.312060
Si Si6 0.994995 0.358757 0.777432
O O1 0.832196 0.876774 0.279782
O O2 0.895959 0.786318 0.225208
O O3 0.939050 0.891468 0.174568
O O4 0.664652 0.852097 0.957747
O O5 0.350294 0.696342 0.467184
O O6 0.344201 0.584541 0.503672
O O7 0.110167 0.637516 0.213647
O O8 0.000000 0.729474 0.500000
O O9 0.063411 0.695779 0.353461
O O10 0.500000 0.094203 0.500000
O O11 0.217446 0.092026 0.346216
O O12 0.463737 0.083123 0.674499
O O13 0.370371 0.000000 0.451345
O O14 0.563256 0.500000 0.274419
#
# Coordination Sequence:
#
# PCOD9190812 Si02
#       6
#     8   8   8   8   8   8
#     4  10  20  32  48  76 108 130 159 208 255 291
#     4   9  19  33  50  73 102 136 169 203 244 295
#     4   9  18  33  51  71  97 134 173 204 244 298
#     4   9  19  36  55  74  97 128 168 208 245 294
#     4   9  18  34  55  74  96 133 170 198 243 305
#     4  11  19  31  52  75 101 132 168 208 250 292
#
# _framework density 19.490138999999999
#
# number of rings (size 3 to 8) (size 9 to 14) (size 15 to 20)
#    0.000    2.500    0.000    3.500    0.000    2.000 
#    0.000    0.833    0.000    8.000    0.000    0.000 
#    0.000    0.000    0.000    0.000    0.000    0.000 
#
# Total GULP energy -133653.722021 kJ/mol
# GULP energy per Si atom -5568.905084 kJ/mol
# Density = 1.944578 g / cm^3
# Si number density = 19.490139 Si / 1000 Ang^3
#
#
#
# Elastic Constant Matrix: (Units=GPa)
#
#
# Indices 1 2 3 4 5 6 
#
# 1 132.1653 16.0986 23.7292 0.0000 28.3949 0.0000
# 2 16.0986 37.4662 1.7014 0.0000 12.0379 0.0000
# 3 23.7292 1.7014 58.9198 0.0000 31.2622 0.0000
# 4 0.0000 0.0000 0.0000 8.3856 0.0000 -6.7514
# 5 28.3949 12.0379 31.2622 0.0000 31.6416 0.0000
# 6 0.0000 0.0000 0.0000 -6.7514 0.0000 5.2584
#
#
#
# Elastic Compliance Matrix: (Units=1/GPa)
#
#
# Indices 1 2 3 4 5 6 
#
# 1 0.009475 -0.001209 0.001022 0.000000 -0.009053 0.000000
# 2 -0.001209 0.034423 0.012329 0.000000 -0.024193 0.000000
# 3 0.001022 0.012329 0.040313 0.000000 -0.045438 0.000000
# 4 0.000000 0.000000 0.000000 -3.536797 0.000000 -4.540975
# 5 -0.009053 -0.024193 -0.045438 0.000000 0.093825 0.000000
# 6 0.000000 0.000000 0.000000 -4.540975 0.000000 -5.640091
#
#
# Mechanical properties :
#
#
# Convention : Reuss Voigt Hill
#
# Bulk Modulus (GPa) = 9.21689 34.62332 21.92010
# Shear Modulus (GPa) = -0.55636 21.52527 10.48445
#
# Velocity S-wave (km/s) = -0.53486 3.32688 2.32186
# Velocity P-wave (km/s) = 2.08754 5.70619 4.29642
#
# Compressibility (1/GPa) = 0.10849652
#
# Stress axis : x y z
#
# Youngs Moduli (GPa) = 105.54157 29.05008 24.80576
#
# Poissons Ratio (x) = 0.03512 -0.02536
# Poissons Ratio (y) = 0.12760 -0.30583
# Poissons Ratio (z) = -0.10790 -0.35816
#
# Static dielectric constant tensor:
#      x y z
#    x 1.741740 0.000000 0.018190 
#    y 0.000000 1.685300 0.000000 
#    z 0.018190 0.000000 1.673850 
# 
# From -- ./inp_files/64845.got.cif
#   From: 2010.05.17/outbox.cif.g08.bks.cpg/sg12_33_cif.got.tgz:64845.got - 2010.06.03 13:09:07.
