data_PCOD9190493
_publ_section_title
;
Structure prediction by ZEFSAII (Michael W. Deem and Ramdas Pophale) SiO2 
 PCOD9190493
Probable space group: C 2/M
;
_chemical_formula_sum "Si O2"
_cell_formula_units_Z 64
_cell_length_a 16.174057
_cell_length_b 18.270951
_cell_length_c 17.994926
_cell_angle_alpha 90.000000
_cell_angle_beta 42.095201
_cell_angle_gamma 90.000000
_cell_volume 3564.849301
_symmetry_space_group_name_H-M "C 2/M"
_symmetry_group_IT_number 12
_symmetry_cell_setting 'monoclinic'
loop_
_space_group_symop_operation_xyz
x,y,z
-x,y,-z
-x,-y,-z
x,-y,z
1/2+x,1/2+y,z
1/2-x,1/2+y,-z
1/2-x,1/2-y,-z
1/2+x,1/2-y,z
loop_
_atom_site_type_symbol
_atom_site_label
_atom_site_fract_x
_atom_site_fract_y
_atom_site_fract_z
Si Si1 0.704321 0.189127 0.137546
Si Si2 0.855642 0.578191 0.082881
Si Si3 0.514971 0.308009 0.312138
Si Si4 0.146631 0.914975 0.332903
Si Si5 0.617461 0.703007 0.756712
Si Si6 0.625698 0.278109 0.453149
Si Si7 0.096788 0.295292 0.058684
Si Si8 0.365745 0.414035 0.128291
O O1 0.628200 0.249550 0.235628
O O2 0.613269 0.172008 0.130083
O O3 0.760114 0.124392 0.148835
O O4 0.820120 0.225034 0.016895
O O5 0.810971 0.500000 0.081189
O O6 0.783579 0.588404 0.207413
O O7 0.846672 0.645028 0.033642
O O8 0.000000 0.573541 0.000000
O O9 0.565279 0.380829 0.319592
O O10 0.463970 0.313628 0.262623
O O11 0.405402 0.281812 0.439198
O O12 0.137013 0.859118 0.408093
O O13 0.117702 0.000000 0.368031
O O14 0.751131 0.734068 0.646586
O O15 0.542142 0.765093 0.853685
O O16 0.629408 0.631523 0.798981
O O17 0.500000 0.246657 0.500000
O O18 0.342613 0.500000 0.153761
O O19 0.500000 0.405751 0.000000
#
# Coordination Sequence:
#
# PCOD9190493 Si02
#       8
#     8   8   8   8   8   8   8   8
#     4  10  20  37  54  81 107 141 185 223 267 321
#     4  10  20  31  49  81 118 147 175 214 266 332
#     4  10  21  37  57  82 111 142 188 229 273 319
#     4  10  20  34  54  82 114 146 179 221 276 328
#     4  11  22  37  59  83 108 145 184 233 273 322
#     4  10  21  36  58  83 109 144 185 230 272 325
#     4  10  20  33  58  80 107 145 181 219 268 324
#     4  11  23  36  54  82 114 147 182 225 278 330
#
# _framework density 17.953074000000001
#
# number of rings (size 3 to 8) (size 9 to 14) (size 15 to 20)
#    0.000    1.750    2.500    2.625    1.750    3.250 
#    0.000    2.500    0.000    4.125    0.000    3.500 
#    0.000    0.000    0.000    0.000    0.000    0.000 
#
# Total GULP energy -178298.070654 kJ/mol
# GULP energy per Si atom -5571.814708 kJ/mol
# Density = 1.791221 g / cm^3
# Si number density = 17.953074 Si / 1000 Ang^3
#
#
#
# Elastic Constant Matrix: (Units=GPa)
#
#
# Indices 1 2 3 4 5 6 
#
# 1 52.6919 52.0950 20.2297 0.0000 2.8612 0.0000
# 2 52.0950 108.9324 40.9711 0.0000 3.8115 0.0000
# 3 20.2297 40.9711 121.6003 0.0001 -6.2007 0.0000
# 4 0.0000 0.0000 0.0001 154.6158 -0.0001 22.7434
# 5 2.8612 3.8115 -6.2007 -0.0001 31.4395 0.0000
# 6 0.0000 0.0000 0.0000 22.7434 0.0000 -14.2890
#
#
#
# Elastic Compliance Matrix: (Units=1/GPa)
#
#
# Indices 1 2 3 4 5 6 
#
# 1 0.036054 -0.017082 -0.000307 0.000000 -0.001271 0.000000
# 2 -0.017082 0.018731 -0.003541 0.000000 -0.001415 0.000000
# 3 -0.000307 -0.003541 0.009588 0.000000 0.002348 0.000000
# 4 0.000000 0.000000 0.000000 0.005241 0.000000 0.008341
# 5 -0.001271 -0.001415 0.002348 0.000000 0.032557 0.000000
# 6 0.000000 0.000000 0.000000 0.008341 0.000000 -0.056707
#
#
# Mechanical properties :
#
#
# Convention : Reuss Voigt Hill
#
# Bulk Modulus (GPa) = 44.42304 56.64625 50.53464
# Shear Modulus (GPa) = 52.72716 45.68184 49.20450
#
# Velocity S-wave (km/s) = 5.42524 5.04979 5.24088
# Velocity P-wave (km/s) = 8.00262 8.10070 8.05181
#
# Compressibility (1/GPa) = 0.02251084
#
# Stress axis : x y z
#
# Youngs Moduli (GPa) = 27.73638 53.38859 104.30029
#
# Poissons Ratio (x) = 0.91198 0.03205
# Poissons Ratio (y) = 0.47379 0.36936
# Poissons Ratio (z) = 0.00852 0.18906
#
# Static dielectric constant tensor:
#      x y z
#    x 1.597840 0.000000 -0.103620 
#    y 0.000000 1.661210 0.000000 
#    z -0.103620 0.000000 1.463490 
# 
# From -- ./inp_files/271689.got.cif
#   From: 2010.05.17/outbox.cif.g08.bks.cpg/sg12_136_cif.got.tgz:271689.got - 2010.06.03 13:09:07.
