data_PCOD9190177
_publ_section_title
;
Structure prediction by ZEFSAII (Michael W. Deem and Ramdas Pophale) SiO2 
 PCOD9190177
Probable space group: C 2/M
;
_chemical_formula_sum "Si O2"
_cell_formula_units_Z 44
_cell_length_a 11.232974
_cell_length_b 20.452100
_cell_length_c 8.948048
_cell_angle_alpha 90.000000
_cell_angle_beta 109.125804
_cell_angle_gamma 90.000000
_cell_volume 1942.233841
_symmetry_space_group_name_H-M "C 2/M"
_symmetry_group_IT_number 12
_symmetry_cell_setting 'monoclinic'
loop_
_space_group_symop_operation_xyz
x,y,z
-x,y,-z
-x,-y,-z
x,-y,z
1/2+x,1/2+y,z
1/2-x,1/2+y,-z
1/2-x,1/2-y,-z
1/2+x,1/2-y,z
loop_
_atom_site_type_symbol
_atom_site_label
_atom_site_fract_x
_atom_site_fract_y
_atom_site_fract_z
Si Si1 0.031865 0.000000 0.701067
Si Si2 0.534165 0.871719 0.340904
Si Si3 0.177099 0.426403 0.914325
Si Si4 0.274704 0.617724 0.265464
Si Si5 0.524940 0.726356 0.685922
Si Si6 0.597342 0.379638 0.178922
O O1 0.126119 0.058380 0.671773
O O2 0.945653 0.057645 0.744003
O O3 0.500000 0.881460 0.500000
O O4 0.461351 0.923784 0.209613
O O5 0.682363 0.873774 0.367314
O O6 0.480629 0.801107 0.266706
O O7 0.229633 0.500000 0.943326
O O8 0.266580 0.388184 0.836564
O O9 0.191706 0.399509 0.086164
O O10 0.348789 0.683505 0.250519
O O11 0.500000 0.727666 0.500000
O O12 0.420079 0.684728 0.729712
O O13 0.500000 0.375785 0.000000
#
# Coordination Sequence:
#
# PCOD9190177 Si02
#       6
#     4   8   8   8   8   8
#     4  10  19  40  67  98 134 164 206 278 328 374
#     4  11  29  46  63  95 134 181 220 264 327 392
#     4  12  24  43  71  97 134 173 213 276 327 385
#     4  11  23  44  70  96 134 171 220 269 328 390
#     4  10  25  44  67  95 134 174 212 275 330 380
#     4  11  19  39  69 103 128 160 223 273 324 386
#
# _framework density 22.654326999999999
#
# number of rings (size 3 to 8) (size 9 to 14) (size 15 to 20)
#    0.000    1.091    5.455    0.818    6.364    4.727 
#    0.000    7.273    0.000    0.000    0.000    0.000 
#    0.000    0.000    0.000    0.000    0.000    0.000 
#
# Total GULP energy -122550.613194 kJ/mol
# GULP energy per Si atom -5570.482418 kJ/mol
# Density = 2.260277 g / cm^3
# Si number density = 22.654327 Si / 1000 Ang^3
#
#
#
# Elastic Constant Matrix: (Units=GPa)
#
#
# Indices 1 2 3 4 5 6 
#
# 1 112.7251 13.1436 6.2055 0.0000 -40.0144 0.0000
# 2 13.1436 96.5179 18.5500 0.0000 -10.3437 0.0000
# 3 6.2055 18.5500 43.5020 0.0000 -19.4290 0.0000
# 4 0.0000 0.0000 0.0000 17.3313 0.0000 7.4991
# 5 -40.0144 -10.3437 -19.4290 0.0000 38.1202 0.0000
# 6 0.0000 0.0000 0.0000 7.4991 0.0000 8.6381
#
#
#
# Elastic Compliance Matrix: (Units=1/GPa)
#
#
# Indices 1 2 3 4 5 6 
#
# 1 0.015619 -0.001394 0.007146 0.000000 0.019659 0.000000
# 2 -0.001394 0.011428 -0.005105 0.000000 -0.000964 0.000000
# 3 0.007146 -0.005105 0.034798 0.000000 0.023852 0.000000
# 4 0.000000 0.000000 0.000000 0.092414 0.000000 -0.080229
# 5 0.019659 -0.000964 0.023852 0.000000 0.058764 0.000000
# 6 0.000000 0.000000 0.000000 -0.080229 0.000000 0.185418
#
#
# Mechanical properties :
#
#
# Convention : Reuss Voigt Hill
#
# Bulk Modulus (GPa) = 15.83768 36.50480 26.17124
# Shear Modulus (GPa) = 11.95627 27.14096 19.54862
#
# Velocity S-wave (km/s) = 2.29982 3.46504 2.94072
# Velocity P-wave (km/s) = 3.74945 5.67075 4.80707
#
# Compressibility (1/GPa) = 0.06314058
#
# Stress axis : x y z
#
# Youngs Moduli (GPa) = 64.02613 87.50138 28.73762
#
# Poissons Ratio (x) = 0.12194 -0.20537
# Poissons Ratio (y) = 0.08922 0.14670
# Poissons Ratio (z) = -0.45756 0.44668
#
# Static dielectric constant tensor:
#      x y z
#    x 1.883230 0.000000 0.063920 
#    y 0.000000 1.790010 0.000000 
#    z 0.063920 0.000000 1.880590 
# 
# From -- ./inp_files/49398.got.cif
#   From: 2010.05.17/outbox.cif.g08.bks.cpg/sg12_25_cif.got.tgz:49398.got - 2010.06.03 13:09:07.
