data_PCOD9190754
_publ_section_title
;
Structure prediction by ZEFSAII (Michael W. Deem and Ramdas Pophale) SiO2 
 PCOD9190754
Probable space group: C 2/M
;
_chemical_formula_sum "Si O2"
_cell_formula_units_Z 48
_cell_length_a 15.852461
_cell_length_b 26.401176
_cell_length_c 9.503748
_cell_angle_alpha 90.000000
_cell_angle_beta 141.282581
_cell_angle_gamma 90.000000
_cell_volume 2487.873138
_symmetry_space_group_name_H-M "C 2/M"
_symmetry_group_IT_number 12
_symmetry_cell_setting 'monoclinic'
loop_
_space_group_symop_operation_xyz
x,y,z
-x,y,-z
-x,-y,-z
x,-y,z
1/2+x,1/2+y,z
1/2-x,1/2+y,-z
1/2-x,1/2-y,-z
1/2+x,1/2-y,z
loop_
_atom_site_type_symbol
_atom_site_label
_atom_site_fract_x
_atom_site_fract_y
_atom_site_fract_z
Si Si1 0.257017 0.795085 0.162548
Si Si2 0.434171 0.556423 0.565492
Si Si3 0.522238 0.343929 0.196796
Si Si4 0.386542 0.805884 0.035501
Si Si5 0.182949 0.324262 0.450508
Si Si6 0.854452 0.592780 0.808139
O O1 0.358494 0.804056 0.166416
O O2 0.308618 0.820562 0.371390
O O3 0.217042 0.737359 0.149644
O O4 0.111737 0.816501 0.923663
O O5 0.500000 0.566454 0.500000
O O6 0.473988 0.500000 0.665122
O O7 0.468423 0.601683 0.716505
O O8 0.273823 0.558976 0.333641
O O9 0.663919 0.314027 0.403003
O O10 0.500000 0.348842 0.000000
O O11 0.546978 0.796097 0.221196
O O12 0.355310 0.859163 0.918158
O O13 0.160182 0.380895 0.363519
O O14 0.000000 0.567699 0.000000
#
# Coordination Sequence:
#
# PCOD9190754 Si02
#       6
#     8   8   8   8   8   8
#     4  10  20  32  48  71  99 132 167 203 244 290
#     4  10  20  34  53  76 101 129 161 203 255 304
#     4   9  19  34  52  72  96 128 165 205 247 292
#     4  10  20  32  48  71  99 132 167 203 244 290
#     4   9  19  33  47  66  94 126 163 201 241 285
#     4   9  19  34  52  72  96 128 165 205 247 292
#
# _framework density 19.293589000000001
#
# number of rings (size 3 to 8) (size 9 to 14) (size 15 to 20)
#    0.000    2.500    0.000    1.500    0.000   10.667 
#    0.000    3.333    0.000    0.000    0.000    0.000 
#    0.000   32.000    0.000    0.000    0.000    0.000 
#
# Total GULP energy -133706.644626 kJ/mol
# GULP energy per Si atom -5571.110193 kJ/mol
# Density = 1.924968 g / cm^3
# Si number density = 19.293589 Si / 1000 Ang^3
#
#
#
# Elastic Constant Matrix: (Units=GPa)
#
#
# Indices 1 2 3 4 5 6 
#
# 1 87.2209 23.6829 28.1920 0.0000 5.0814 0.0000
# 2 23.6829 54.4567 7.0205 0.0000 -5.5041 0.0000
# 3 28.1920 7.0205 75.5551 0.0000 2.9824 0.0000
# 4 0.0000 0.0000 0.0000 17.7031 0.0000 8.6002
# 5 5.0814 -5.5041 2.9824 0.0000 29.3635 0.0000
# 6 0.0000 0.0000 0.0000 8.6002 0.0000 -22.4928
#
#
#
# Elastic Compliance Matrix: (Units=1/GPa)
#
#
# Indices 1 2 3 4 5 6 
#
# 1 0.014903 -0.006183 -0.004858 0.000000 -0.003245 0.000000
# 2 -0.006183 0.021554 0.000103 0.000000 0.005100 0.000000
# 3 -0.004858 0.000103 0.015065 0.000000 -0.000670 0.000000
# 4 0.000000 0.000000 0.000000 0.047638 0.000000 0.018215
# 5 -0.003245 0.005100 -0.000670 0.000000 0.035641 0.000000
# 6 0.000000 0.000000 0.000000 0.018215 0.000000 -0.037494
#
#
# Mechanical properties :
#
#
# Convention : Reuss Voigt Hill
#
# Bulk Modulus (GPa) = 33.73133 37.22484 35.47808
# Shear Modulus (GPa) = 38.73958 15.47060 27.10509
#
# Velocity S-wave (km/s) = 4.48582 2.83477 3.75223
# Velocity P-wave (km/s) = 6.65967 5.48182 6.09925
#
# Compressibility (1/GPa) = 0.02964603
#
# Stress axis : x y z
#
# Youngs Moduli (GPa) = 67.09903 46.39440 66.37885
#
# Poissons Ratio (x) = 0.28686 0.32249
# Poissons Ratio (y) = 0.41487 -0.00683
# Poissons Ratio (z) = 0.32599 -0.00478
#
# Static dielectric constant tensor:
#      x y z
#    x 1.677580 0.000000 0.030360 
#    y 0.000000 1.656880 0.000000 
#    z 0.030360 0.000000 1.707330 
# 
# From -- ./inp_files/67299.got.cif
#   From: 2010.05.17/outbox.cif.g08.bks.cpg/sg12_34_cif.got.tgz:67299.got - 2010.06.03 13:09:07.
