data_PCOD9190885
_publ_section_title
;
Structure prediction by ZEFSAII (Michael W. Deem and Ramdas Pophale) SiO2 
 PCOD9190885
Probable space group: C 2/M
;
_chemical_formula_sum "Si O2"
_cell_formula_units_Z 56
_cell_length_a 25.130639
_cell_length_b 9.757038
_cell_length_c 13.985439
_cell_angle_alpha 90.000000
_cell_angle_beta 130.497169
_cell_angle_gamma 90.000000
_cell_volume 2607.723094
_symmetry_space_group_name_H-M "C 2/M"
_symmetry_group_IT_number 12
_symmetry_cell_setting 'monoclinic'
loop_
_space_group_symop_operation_xyz
x,y,z
-x,y,-z
-x,-y,-z
x,-y,z
1/2+x,1/2+y,z
1/2-x,1/2+y,-z
1/2-x,1/2-y,-z
1/2+x,1/2-y,z
loop_
_atom_site_type_symbol
_atom_site_label
_atom_site_fract_x
_atom_site_fract_y
_atom_site_fract_z
Si Si1 0.649902 0.347178 0.894771
Si Si2 0.536308 0.159465 0.842540
Si Si3 0.793387 0.648112 0.176463
Si Si4 0.921568 0.843332 0.793981
Si Si5 0.722133 0.658292 0.298822
Si Si6 0.340914 0.342833 0.496547
Si Si7 0.956335 0.657266 0.545212
O O1 0.619229 0.500000 0.851838
O O2 0.605621 0.249498 0.912017
O O3 0.658027 0.269893 0.803307
O O4 0.727477 0.359534 0.028023
O O5 0.483407 0.235265 0.853171
O O6 0.502109 0.166190 0.695769
O O7 0.547801 0.000000 0.879090
O O8 0.830712 0.500000 0.214970
O O9 0.757435 0.664740 0.236392
O O10 0.860474 0.810541 0.798275
O O11 0.878779 0.840770 0.643627
O O12 0.946954 0.000000 0.838004
O O13 0.728462 0.500000 0.340622
O O14 0.767780 0.763118 0.413154
O O15 0.331215 0.500000 0.456233
O O16 0.392822 0.261279 0.486627
O O17 0.929985 0.500000 0.510223
O O18 0.000000 0.683586 0.500000
#
# Coordination Sequence:
#
# PCOD9190885 Si02
#       7
#     8   8   8   8   8   8   8
#     4  10  20  36  57  79 106 136 169 215 269 315
#     4  10  20  34  55  78 103 139 176 212 260 313
#     4   9  20  37  56  79 104 135 176 217 257 311
#     4   9  19  36  54  76 106 141 178 216 255 304
#     4  10  20  35  56  77 103 140 181 217 254 306
#     4  10  20  32  49  77 109 138 171 213 263 306
#     4   9  19  34  50  71 101 138 177 212 249 305
#
# _framework density 21.474672000000002
#
# number of rings (size 3 to 8) (size 9 to 14) (size 15 to 20)
#    0.000    2.429    0.000    1.714    2.000    3.143 
#    0.000    0.714    0.000    4.286    0.000    0.000 
#    0.000    0.000    0.000    0.000    0.000    0.000 
#
# Total GULP energy -156374.495301 kJ/mol
# GULP energy per Si atom -5584.803404 kJ/mol
# Density = 2.142580 g / cm^3
# Si number density = 21.474672 Si / 1000 Ang^3
#
#
#
# Elastic Constant Matrix: (Units=GPa)
#
#
# Indices 1 2 3 4 5 6 
#
# 1 86.3026 69.2355 -6.3948 0.0000 7.6056 0.0000
# 2 69.2355 150.5409 9.7721 0.0000 18.5048 0.0000
# 3 -6.3948 9.7721 20.8513 0.0000 -2.5041 0.0000
# 4 0.0000 0.0000 0.0000 12.6195 0.0000 11.0108
# 5 7.6056 18.5048 -2.5041 0.0000 25.1332 0.0000
# 6 0.0000 0.0000 0.0000 11.0108 0.0000 32.7394
#
#
#
# Elastic Compliance Matrix: (Units=1/GPa)
#
#
# Indices 1 2 3 4 5 6 
#
# 1 0.020740 -0.010629 0.011668 0.000000 0.002712 0.000000
# 2 -0.010629 0.013118 -0.010305 0.000000 -0.007469 0.000000
# 3 0.011668 -0.010305 0.057542 0.000000 0.009789 0.000000
# 4 0.000000 0.000000 0.000000 0.112154 0.000000 -0.037719
# 5 0.002712 -0.007469 0.009789 0.000000 0.045441 0.000000
# 6 0.000000 0.000000 0.000000 -0.037719 0.000000 0.043230
#
#
# Mechanical properties :
#
#
# Convention : Reuss Voigt Hill
#
# Bulk Modulus (GPa) = 13.72350 44.76894 29.24622
# Shear Modulus (GPa) = 14.92330 26.43722 20.68026
#
# Velocity S-wave (km/s) = 2.63900 3.51249 3.10660
# Velocity P-wave (km/s) = 3.96109 6.11087 5.14941
#
# Compressibility (1/GPa) = 0.07286768
#
# Stress axis : x y z
#
# Youngs Moduli (GPa) = 48.21603 76.22965 17.37865
#
# Poissons Ratio (x) = 0.81027 -0.20277
# Poissons Ratio (y) = 0.51251 0.17908
# Poissons Ratio (z) = -0.56258 0.78552
#
# Static dielectric constant tensor:
#      x y z
#    x 1.781420 0.000000 -0.010270 
#    y 0.000000 1.771630 0.000000 
#    z -0.010270 0.000000 1.823200 
# 
# From -- ./inp_files/288384.got.cif
#   From: 2010.05.17/outbox.cif.g08.bks.cpg/sg12_145_cif.got.tgz:288384.got - 2010.06.03 13:09:07.
