data_PCOD9190959
_publ_section_title
;
Structure prediction by ZEFSAII (Michael W. Deem and Ramdas Pophale) SiO2 
 PCOD9190959
Probable space group: C 2/M
;
_chemical_formula_sum "Si O2"
_cell_formula_units_Z 56
_cell_length_a 20.345703
_cell_length_b 9.521558
_cell_length_c 14.852536
_cell_angle_alpha 90.000000
_cell_angle_beta 118.381229
_cell_angle_gamma 90.000000
_cell_volume 2531.438817
_symmetry_space_group_name_H-M "C 2/M"
_symmetry_group_IT_number 12
_symmetry_cell_setting 'monoclinic'
loop_
_space_group_symop_operation_xyz
x,y,z
-x,y,-z
-x,-y,-z
x,-y,z
1/2+x,1/2+y,z
1/2-x,1/2+y,-z
1/2-x,1/2-y,-z
1/2+x,1/2-y,z
loop_
_atom_site_type_symbol
_atom_site_label
_atom_site_fract_x
_atom_site_fract_y
_atom_site_fract_z
Si Si1 0.147789 0.150590 0.404750
Si Si2 0.098961 0.831317 0.804027
Si Si3 0.461957 0.162964 0.764023
Si Si4 0.281976 0.245623 0.371410
Si Si5 0.241382 0.333906 0.143488
Si Si6 0.582417 0.833815 0.067287
Si Si7 0.931637 0.656209 0.389259
O O1 0.087847 0.272221 0.348060
O O2 0.212977 0.166959 0.372985
O O3 0.186829 0.158142 0.527276
O O4 0.109604 0.000000 0.368307
O O5 0.186041 0.783108 0.864394
O O6 0.074501 0.777466 0.688866
O O7 0.038594 0.750108 0.825121
O O8 0.095083 0.000000 0.810404
O O9 0.411767 0.172619 0.820862
O O10 0.478540 0.000000 0.762767
O O11 0.258754 0.314698 0.261510
O O12 0.353959 0.155193 0.392140
O O13 0.236909 0.500000 0.123523
O O14 0.158295 0.272707 0.074610
O O15 0.578221 0.000000 0.038099
O O16 0.500000 0.771655 0.000000
O O17 0.941175 0.500000 0.355263
O O18 0.000000 0.682606 0.500000
#
# Coordination Sequence:
#
# PCOD9190959 Si02
#       7
#     8   8   8   8   8   8   8
#     4  11  22  33  51  80 116 154 193 232 278 332
#     4  10  21  35  55  80 112 148 183 227 280 337
#     4  11  22  37  58  83 114 148 187 237 283 332
#     4  10  20  32  50  78 113 152 189 231 274 321
#     4   9  17  34  56  81 111 146 186 230 277 328
#     4   9  18  35  61  87 108 139 187 236 282 337
#     4  10  20  34  51  73 106 148 193 232 270 318
#
# _framework density 22.121804000000001
#
# number of rings (size 3 to 8) (size 9 to 14) (size 15 to 20)
#    0.000    2.000    1.429    2.571    0.000    4.857 
#    0.000    0.714    0.000    1.714    0.000    0.000 
#    0.000    0.000    0.000    0.000    0.000    0.000 
#
# Total GULP energy -156126.627612 kJ/mol
# GULP energy per Si atom -5575.950986 kJ/mol
# Density = 2.207145 g / cm^3
# Si number density = 22.121804 Si / 1000 Ang^3
#
#
#
# Elastic Constant Matrix: (Units=GPa)
#
#
# Indices 1 2 3 4 5 6 
#
# 1 153.3193 24.2736 20.9407 0.0000 30.6129 0.0000
# 2 24.2736 77.9488 5.5364 0.0000 11.2732 0.0000
# 3 20.9407 5.5364 45.9002 0.0000 23.7655 0.0000
# 4 0.0000 0.0000 0.0000 7.4531 0.0000 30.2765
# 5 30.6129 11.2732 23.7655 0.0000 45.5986 0.0000
# 6 0.0000 0.0000 0.0000 30.2765 0.0000 124.7310
#
#
#
# Elastic Compliance Matrix: (Units=1/GPa)
#
#
# Indices 1 2 3 4 5 6 
#
# 1 0.007795 -0.001738 -0.001177 0.000000 -0.004190 0.000000
# 2 -0.001738 0.013693 0.000397 0.000000 -0.002425 0.000000
# 3 -0.001177 0.000397 0.030017 0.000000 -0.014953 0.000000
# 4 0.000000 0.000000 0.000000 9.621902 0.000000 -2.335569
# 5 -0.004190 -0.002425 -0.014953 0.000000 0.033136 0.000000
# 6 0.000000 0.000000 0.000000 -2.335569 0.000000 0.574941
#
#
# Mechanical properties :
#
#
# Convention : Reuss Voigt Hill
#
# Bulk Modulus (GPa) = 21.51965 42.07443 31.79704
# Shear Modulus (GPa) = 0.48534 50.65105 25.56820
#
# Velocity S-wave (km/s) = 0.46890 4.79021 3.40338
# Velocity P-wave (km/s) = 3.16892 7.04667 5.46341
#
# Compressibility (1/GPa) = 0.04646916
#
# Stress axis : x y z
#
# Youngs Moduli (GPa) = 128.28996 73.03179 33.31392
#
# Poissons Ratio (x) = 0.12691 0.03922
# Poissons Ratio (y) = 0.22294 -0.01323
# Poissons Ratio (z) = 0.15102 -0.02900
#
# Static dielectric constant tensor:
#      x y z
#    x 1.864920 0.000000 0.003050 
#    y 0.000000 1.779680 0.000000 
#    z 0.003050 0.000000 1.841470 
# 
# From -- ./inp_files/281633.got.cif
#   From: 2010.05.17/outbox.cif.g08.bks.cpg/sg12_141_cif.got.tgz:281633.got - 2010.06.03 13:09:07.
