data_PCOD9190913
_publ_section_title
;
Structure prediction by ZEFSAII (Michael W. Deem and Ramdas Pophale) SiO2 
 PCOD9190913
Probable space group: C 2/M
;
_chemical_formula_sum "Si O2"
_cell_formula_units_Z 64
_cell_length_a 25.779845
_cell_length_b 8.075622
_cell_length_c 20.066060
_cell_angle_alpha 90.000000
_cell_angle_beta 63.055844
_cell_angle_gamma 90.000000
_cell_volume 3724.043046
_symmetry_space_group_name_H-M "C 2/M"
_symmetry_group_IT_number 12
_symmetry_cell_setting 'monoclinic'
loop_
_space_group_symop_operation_xyz
x,y,z
-x,y,-z
-x,-y,-z
x,-y,z
1/2+x,1/2+y,z
1/2-x,1/2+y,-z
1/2-x,1/2-y,-z
1/2+x,1/2-y,z
loop_
_atom_site_type_symbol
_atom_site_label
_atom_site_fract_x
_atom_site_fract_y
_atom_site_fract_z
Si Si1 0.377261 0.807115 0.598475
Si Si2 0.758610 0.700681 0.159685
Si Si3 0.811493 0.699584 0.996803
Si Si4 0.085093 0.807501 0.565144
Si Si5 0.753534 0.304339 0.310895
Si Si6 0.302506 0.199198 0.420689
Si Si7 0.635684 0.200181 0.165779
Si Si8 0.957668 0.299199 0.674481
O O1 0.405427 0.789130 0.509527
O O2 0.315323 0.717335 0.636761
O O3 0.421058 0.747467 0.630315
O O4 0.365177 0.000000 0.619025
O O5 0.760075 0.500000 0.160344
O O6 0.805207 0.757949 0.076730
O O7 0.767562 0.764407 0.229355
O O8 0.694256 0.748947 0.171208
O O9 0.815282 0.500000 0.996678
O O10 0.750000 0.750000 0.000000
O O11 0.857993 0.758348 0.914673
O O12 0.137336 0.763555 0.584469
O O13 0.022603 0.767266 0.632293
O O14 0.088676 0.000000 0.546019
O O15 0.766049 0.500000 0.301353
O O16 0.787447 0.236802 0.355338
O O17 0.250000 0.250000 0.500000
O O18 0.304619 0.000000 0.418196
O O19 0.579629 0.255847 0.239738
O O20 0.634838 0.000000 0.165724
O O21 0.960531 0.500000 0.672715
#
# Coordination Sequence:
#
# PCOD9190913 Si02
#       8
#     8   8   8   8   8   8   8   8
#     4  11  21  34  53  73  98 131 164 201 243 291
#     4   9  16  27  44  70 101 129 158 195 237 284
#     4   8  14  24  41  65  96 130 159 189 229 280
#     4  12  25  38  52  71  95 128 167 210 251 292
#     4  10  20  32  50  74 100 129 163 200 244 291
#     4  11  22  37  55  73  95 127 165 208 251 293
#     4   9  16  28  45  68  98 132 164 192 231 285
#     4  10  21  35  50  72 100 132 167 202 242 290
#
# _framework density 17.185624000000001
#
# number of rings (size 3 to 8) (size 9 to 14) (size 15 to 20)
#    0.000    2.000    2.500    2.250    0.000    3.500 
#    0.000    0.000    0.000    0.000    0.000    0.875 
#    0.000    7.000    0.000    0.000    0.000    0.000 
#
# Total GULP energy -178440.976676 kJ/mol
# GULP energy per Si atom -5576.280521 kJ/mol
# Density = 1.714651 g / cm^3
# Si number density = 17.185624 Si / 1000 Ang^3
#
#
#
# Elastic Constant Matrix: (Units=GPa)
#
#
# Indices 1 2 3 4 5 6 
#
# 1 81.0865 -1.1616 63.9450 -0.0001 -5.7684 0.0000
# 2 -1.1616 13.7633 -4.7284 -0.0002 1.7553 0.0010
# 3 63.9450 -4.7284 163.0928 0.0000 14.3765 0.0003
# 4 -0.0001 -0.0002 0.0000 10.9791 -0.0002 -2.0341
# 5 -5.7684 1.7553 14.3765 -0.0002 14.8800 -0.0003
# 6 0.0000 0.0010 0.0003 -2.0341 -0.0003 18.2498
#
#
#
# Elastic Compliance Matrix: (Units=1/GPa)
#
#
# Indices 1 2 3 4 5 6 
#
# 1 0.021747 -0.004114 -0.010310 0.000001 0.018876 0.000001
# 2 -0.004114 0.076082 0.005193 0.000000 -0.015587 -0.000004
# 3 -0.010310 0.005193 0.011729 0.000000 -0.015942 -0.000001
# 4 0.000001 0.000000 0.000000 0.093003 0.000002 0.010366
# 5 0.018876 -0.015587 -0.015942 0.000002 0.091763 0.000003
# 6 0.000001 -0.000004 -0.000001 0.010366 0.000003 0.055951
#
#
# Mechanical properties :
#
#
# Convention : Reuss Voigt Hill
#
# Bulk Modulus (GPa) = 10.97740 41.56141 26.26941
# Shear Modulus (GPa) = 12.52815 22.14760 17.33787
#
# Velocity S-wave (km/s) = 2.70291 3.59378 3.17970
# Velocity P-wave (km/s) = 4.01776 6.43869 5.36652
#
# Compressibility (1/GPa) = 0.09109624
#
# Stress axis : x y z
#
# Youngs Moduli (GPa) = 45.98439 13.14375 85.25593
#
# Poissons Ratio (x) = 0.05407 0.87895
# Poissons Ratio (y) = 0.18918 -0.44271
# Poissons Ratio (z) = 0.47408 -0.06825
#
# Static dielectric constant tensor:
#      x y z
#    x 1.538060 0.000000 0.023460 
#    y 0.000000 1.616470 0.000000 
#    z 0.023460 0.000000 1.629390 
# 
# From -- ./inp_files/323695.got.cif
#   From: 2010.05.17/outbox.cif.g08.bks.cpg/sg12_162_cif.got.tgz:323695.got - 2010.06.03 13:09:07.
