data_PCOD9190298
_publ_section_title
;
Structure prediction by ZEFSAII (Michael W. Deem and Ramdas Pophale) SiO2 
 PCOD9190298
Probable space group: C 2/M
;
_chemical_formula_sum "Si O2"
_cell_formula_units_Z 28
_cell_length_a 22.023624
_cell_length_b 5.656120
_cell_length_c 10.889675
_cell_angle_alpha 90.000000
_cell_angle_beta 60.861608
_cell_angle_gamma 90.000000
_cell_volume 1184.836575
_symmetry_space_group_name_H-M "C 2/M"
_symmetry_group_IT_number 12
_symmetry_cell_setting 'monoclinic'
loop_
_space_group_symop_operation_xyz
x,y,z
-x,y,-z
-x,-y,-z
x,-y,z
1/2+x,1/2+y,z
1/2-x,1/2+y,-z
1/2-x,1/2-y,-z
1/2+x,1/2-y,z
loop_
_atom_site_type_symbol
_atom_site_label
_atom_site_fract_x
_atom_site_fract_y
_atom_site_fract_z
Si Si1 0.561120 0.000000 0.689762
Si Si2 0.368763 0.000000 0.623245
Si Si3 0.240552 0.250198 0.656582
Si Si4 0.100403 0.500000 0.120849
Si Si5 0.908891 0.000000 0.958898
Si Si6 0.433397 0.500000 0.222594
O O1 0.568727 0.000000 0.535436
O O2 0.594505 0.752280 0.701298
O O3 0.483120 0.000000 0.819574
O O4 0.317251 0.782778 0.639924
O O5 0.388637 0.000000 0.744208
O O6 0.210482 0.500000 0.725583
O O7 0.250000 0.250000 0.500000
O O8 0.205802 0.000000 0.724672
O O9 0.126735 0.751122 0.041828
O O10 0.984843 0.000000 0.816496
O O11 0.929179 0.000000 0.080881
#
# Coordination Sequence:
#
# PCOD9190298 Si02
#       6
#     4   4   8   4   4   4
#     4  10  20  30  45  69  96 126 151 179 226 278
#     4  10  21  28  48  68 106 120 141 178 240 284
#     4   8  16  29  44  61  88 122 150 184 213 265
#     4  10  20  30  45  69  96 126 151 179 226 278
#     4   9  18  33  48  61  84 123 168 200 214 240
#     4   9  18  33  48  61  84 123 168 200 214 240
#
# _framework density 23.631948999999999
#
# number of rings (size 3 to 8) (size 9 to 14) (size 15 to 20)
#    0.857    2.000    0.000    1.286    4.000    3.429 
#    0.000    4.286    0.000    0.000    0.000    0.000 
#    0.000   22.857    0.000    0.000    0.000    0.000 
#
# Total GULP energy -78048.576743 kJ/mol
# GULP energy per Si atom -5574.898339 kJ/mol
# Density = 2.357816 g / cm^3
# Si number density = 23.631949 Si / 1000 Ang^3
#
#
#
# Elastic Constant Matrix: (Units=GPa)
#
#
# Indices 1 2 3 4 5 6 
#
# 1 27.0402 16.8770 -3.3290 0.0000 -8.5054 0.0000
# 2 16.8770 281.4526 49.7220 0.0000 18.7296 0.0000
# 3 -3.3290 49.7220 74.3952 0.0000 26.3890 0.0000
# 4 0.0000 0.0000 0.0000 28.1486 0.0000 0.0360
# 5 -8.5054 18.7296 26.3890 0.0000 36.0567 0.0000
# 6 0.0000 0.0000 0.0000 0.0360 0.0000 16.3188
#
#
#
# Elastic Compliance Matrix: (Units=1/GPa)
#
#
# Indices 1 2 3 4 5 6 
#
# 1 0.042799 -0.003346 -0.000063 0.000000 0.011880 0.000000
# 2 -0.003346 0.004291 -0.002630 0.000000 -0.001094 0.000000
# 3 -0.000063 -0.002630 0.019877 0.000000 -0.013197 0.000000
# 4 0.000000 0.000000 0.000000 0.035526 0.000000 -0.000078
# 5 0.011880 -0.001094 -0.013197 0.000000 0.040763 0.000000
# 6 0.000000 0.000000 0.000000 -0.000078 0.000000 0.061279
#
#
# Mechanical properties :
#
#
# Convention : Reuss Voigt Hill
#
# Bulk Modulus (GPa) = 18.21772 56.60311 37.41042
# Shear Modulus (GPa) = 21.28485 37.41269 29.34877
#
# Velocity S-wave (km/s) = 3.00439 3.98319 3.52790
# Velocity P-wave (km/s) = 4.44531 6.71999 5.69733
#
# Compressibility (1/GPa) = 0.05489161
#
# Stress axis : x y z
#
# Youngs Moduli (GPa) = 23.36485 233.04757 50.30814
#
# Poissons Ratio (x) = 0.77976 0.00314
# Poissons Ratio (y) = 0.07818 0.13229
# Poissons Ratio (z) = 0.00146 0.61284
#
# Static dielectric constant tensor:
#      x y z
#    x 1.943270 0.000000 -0.046480 
#    y 0.000000 1.977930 0.000000 
#    z -0.046480 0.000000 1.816250 
# 
# From -- ./inp_files/107092.got.cif
#   From: 2010.05.17/outbox.cif.g08.bks.cpg/sg12_54_cif.got.tgz:107092.got - 2010.06.03 13:09:07.
