data_PCOD9190551
_publ_section_title
;
Structure prediction by ZEFSAII (Michael W. Deem and Ramdas Pophale) SiO2 
 PCOD9190551
Probable space group: C 2/M
;
_chemical_formula_sum "Si O2"
_cell_formula_units_Z 56
_cell_length_a 14.557061
_cell_length_b 15.071509
_cell_length_c 12.971829
_cell_angle_alpha 90.000000
_cell_angle_beta 102.803165
_cell_angle_gamma 90.000000
_cell_volume 2775.219513
_symmetry_space_group_name_H-M "C 2/M"
_symmetry_group_IT_number 12
_symmetry_cell_setting 'monoclinic'
loop_
_space_group_symop_operation_xyz
x,y,z
-x,y,-z
-x,-y,-z
x,-y,z
1/2+x,1/2+y,z
1/2-x,1/2+y,-z
1/2-x,1/2-y,-z
1/2+x,1/2-y,z
loop_
_atom_site_type_symbol
_atom_site_label
_atom_site_fract_x
_atom_site_fract_y
_atom_site_fract_z
Si Si1 0.339374 0.190710 0.558155
Si Si2 0.512882 0.760473 0.124323
Si Si3 0.690878 0.900805 0.650836
Si Si4 0.935657 0.905879 0.383997
Si Si5 0.598828 0.352101 0.304230
Si Si6 0.335019 0.729087 0.227288
Si Si7 0.665452 0.105345 0.222153
O O1 0.250000 0.250000 0.500000
O O2 0.364158 0.133752 0.464103
O O3 0.407927 0.265565 0.622186
O O4 0.321600 0.128023 0.652609
O O5 0.585924 0.687439 0.187640
O O6 0.415138 0.739473 0.160179
O O7 0.563506 0.853658 0.166082
O O8 0.500000 0.754731 0.000000
O O9 0.802455 0.898543 0.651237
O O10 0.685167 0.827904 0.738713
O O11 0.662397 0.000000 0.672037
O O12 0.875000 0.821965 0.338714
O O13 0.000000 0.897172 0.500000
O O14 0.010077 0.909997 0.309853
O O15 0.882766 0.000000 0.378451
O O16 0.244423 0.666207 0.182664
O O17 0.673107 0.000000 0.205142
#
# Coordination Sequence:
#
# PCOD9190551 Si02
#       7
#     8   8   8   8   8   8   8
#     4   9  16  32  56  87 126 166 197 236 296 364
#     4  10  23  43  68  86 116 165 209 264 331 375
#     4  11  20  33  58  88 120 163 201 236 295 372
#     4  10  20  31  53  89 123 159 201 244 296 366
#     4   9  18  36  55  82 119 154 193 253 300 358
#     4  11  22  40  62  88 127 162 206 260 314 370
#     4  11  22  40  65  97 129 164 210 261 310 370
#
# _framework density 20.178584000000001
#
# number of rings (size 3 to 8) (size 9 to 14) (size 15 to 20)
#    0.000    1.857    4.286    2.143    2.000    1.429 
#    0.000    0.000    0.000   23.571    0.000    0.000 
#    0.000    0.000    0.000    0.000    0.000    0.000 
#
# Total GULP energy -155947.310652 kJ/mol
# GULP energy per Si atom -5569.546809 kJ/mol
# Density = 2.013266 g / cm^3
# Si number density = 20.178584 Si / 1000 Ang^3
#
#
#
# Elastic Constant Matrix: (Units=GPa)
#
#
# Indices 1 2 3 4 5 6 
#
# 1 53.0821 29.9445 17.8700 0.0000 -11.7321 0.0000
# 2 29.9445 164.3526 40.2218 0.0000 -7.4384 0.0000
# 3 17.8700 40.2218 95.4963 0.0000 2.0506 0.0000
# 4 0.0000 0.0000 0.0000 -243.8160 0.0000 -113.2498
# 5 -11.7321 -7.4384 2.0506 0.0000 22.6864 0.0000
# 6 0.0000 0.0000 0.0000 -113.2498 0.0000 -32.8213
#
#
#
# Elastic Compliance Matrix: (Units=1/GPa)
#
#
# Indices 1 2 3 4 5 6 
#
# 1 0.024380 -0.003036 -0.003540 0.000000 0.011933 0.000000
# 2 -0.003036 0.007305 -0.002531 0.000000 0.001054 0.000000
# 3 -0.003540 -0.002531 0.012281 0.000000 -0.003771 0.000000
# 4 0.000000 0.000000 0.000000 0.006805 0.000000 -0.023480
# 5 0.011933 0.001054 -0.003771 0.000000 0.050937 0.000000
# 6 0.000000 0.000000 0.000000 -0.023480 0.000000 0.050551
#
#
# Mechanical properties :
#
#
# Convention : Reuss Voigt Hill
#
# Bulk Modulus (GPa) = 38.83106 54.33374 46.58240
# Shear Modulus (GPa) = 27.92417 -35.79721 -3.93652
#
# Velocity S-wave (km/s) = 3.72405 -4.21648 -1.39824
# Velocity P-wave (km/s) = 6.14629 1.81106 4.53083
#
# Compressibility (1/GPa) = 0.02575258
#
# Stress axis : x y z
#
# Youngs Moduli (GPa) = 41.01684 136.89760 81.42583
#
# Poissons Ratio (x) = 0.41557 0.28824
# Poissons Ratio (y) = 0.12451 0.20611
# Poissons Ratio (z) = 0.14519 0.34652
#
# Static dielectric constant tensor:
#      x y z
#    x 1.787610 0.000000 -0.010690 
#    y 0.000000 1.762600 0.000000 
#    z -0.010690 0.000000 1.740470 
# 
# From -- ./inp_files/143761.got.cif
#   From: 2010.05.17/outbox.cif.g08.bks.cpg/sg12_72_cif.got.tgz:143761.got - 2010.06.03 13:09:07.
