data_PCOD9190369
_publ_section_title
;
Structure prediction by ZEFSAII (Michael W. Deem and Ramdas Pophale) SiO2 
 PCOD9190369
Probable space group: C 2/M
;
_chemical_formula_sum "Si O2"
_cell_formula_units_Z 48
_cell_length_a 29.699479
_cell_length_b 7.429119
_cell_length_c 11.378744
_cell_angle_alpha 90.000000
_cell_angle_beta 101.531605
_cell_angle_gamma 90.000000
_cell_volume 2459.939188
_symmetry_space_group_name_H-M "C 2/M"
_symmetry_group_IT_number 12
_symmetry_cell_setting 'monoclinic'
loop_
_space_group_symop_operation_xyz
x,y,z
-x,y,-z
-x,-y,-z
x,-y,z
1/2+x,1/2+y,z
1/2-x,1/2+y,-z
1/2-x,1/2-y,-z
1/2+x,1/2-y,z
loop_
_atom_site_type_symbol
_atom_site_label
_atom_site_fract_x
_atom_site_fract_y
_atom_site_fract_z
Si Si1 0.857293 0.283743 0.961787
Si Si2 0.929918 0.780367 0.400971
Si Si3 0.976051 0.782481 0.666486
Si Si4 0.660538 0.284670 0.772397
Si Si5 0.741089 0.215116 0.133527
Si Si6 0.953784 0.709107 0.919714
O O1 0.856878 0.500000 0.946896
O O2 0.810626 0.215580 0.874123
O O3 0.905397 0.212661 0.937702
O O4 0.852798 0.247360 0.098437
O O5 0.944765 0.725805 0.539706
O O6 0.880689 0.716013 0.330240
O O7 0.971686 0.726264 0.336514
O O8 0.929454 0.000000 0.399851
O O9 0.958841 0.717220 0.782515
O O10 0.975761 0.000000 0.669156
O O11 0.662345 0.500000 0.757266
O O12 0.712563 0.214942 0.780461
O O13 0.740143 0.000000 0.151319
O O14 0.750000 0.250000 0.000000
O O15 0.952804 0.500000 0.957112
O O16 0.000000 0.789976 0.000000
#
# Coordination Sequence:
#
# PCOD9190369 Si02
#       6
#     8   8   8   8   8   8
#     4   9  17  28  40  58  87 114 133 162 205 243
#     4   8  15  28  45  64  84 104 130 170 210 239
#     4   9  17  30  46  62  82 108 136 166 203 242
#     4   9  15  25  44  66  83 102 135 171 201 240
#     4   8  14  24  39  59  81 106 133 163 201 240
#     4  10  20  31  42  59  85 113 138 165 198 239
#
# _framework density 19.512678000000001
#
# number of rings (size 3 to 8) (size 9 to 14) (size 15 to 20)
#    0.000    3.167    0.000    2.000    0.000    1.000 
#    0.000    2.500    0.000    1.000    0.000    0.000 
#    0.000    0.000    0.000    0.000    0.000    0.000 
#
# Total GULP energy -133726.682134 kJ/mol
# GULP energy per Si atom -5571.945089 kJ/mol
# Density = 1.946827 g / cm^3
# Si number density = 19.512678 Si / 1000 Ang^3
#
#
#
# Elastic Constant Matrix: (Units=GPa)
#
#
# Indices 1 2 3 4 5 6 
#
# 1 202.6753 13.1697 72.9135 0.0000 44.0783 0.0000
# 2 13.1697 63.8091 -5.0227 0.0000 5.2532 0.0000
# 3 72.9135 -5.0227 61.7648 0.0000 22.1588 0.0000
# 4 0.0000 0.0000 0.0000 14.1003 0.0000 -7.4430
# 5 44.0783 5.2532 22.1588 0.0000 37.6954 0.0000
# 6 0.0000 0.0000 0.0000 -7.4430 0.0000 2.5753
#
#
#
# Elastic Compliance Matrix: (Units=1/GPa)
#
#
# Indices 1 2 3 4 5 6 
#
# 1 0.009782 -0.002353 -0.009825 0.000000 -0.005335 0.000000
# 2 -0.002353 0.016766 0.005059 0.000000 -0.002559 0.000000
# 3 -0.009825 0.005059 0.030834 0.000000 -0.007342 0.000000
# 4 0.000000 0.000000 0.000000 -0.134930 0.000000 -0.389969
# 5 -0.005335 -0.002559 -0.007342 0.000000 0.037439 0.000000
# 6 0.000000 0.000000 0.000000 -0.389969 0.000000 -0.738771
#
#
# Mechanical properties :
#
#
# Convention : Reuss Voigt Hill
#
# Bulk Modulus (GPa) = 23.17761 54.48560 38.83161
# Shear Modulus (GPa) = -6.66434 27.35345 10.34455
#
# Velocity S-wave (km/s) = -1.85008 3.74816 2.30499
# Velocity P-wave (km/s) = 2.70929 6.83487 5.19883
#
# Compressibility (1/GPa) = 0.04314508
#
# Stress axis : x y z
#
# Youngs Moduli (GPa) = 102.23336 59.64345 32.43179
#
# Poissons Ratio (x) = 0.14034 0.31863
# Poissons Ratio (y) = 0.24055 -0.16408
# Poissons Ratio (z) = 1.00440 -0.30175
#
# Static dielectric constant tensor:
#      x y z
#    x 1.736680 0.000000 0.049690 
#    y 0.000000 1.704040 0.000000 
#    z 0.049690 0.000000 1.636570 
# 
# From -- ./inp_files/101949.got.cif
#   From: 2010.05.17/outbox.cif.g08.bks.cpg/sg12_51_cif.got.tgz:101949.got - 2010.06.03 13:09:07.
