data_PCOD9190014
_publ_section_title
;
Structure prediction by ZEFSAII (Michael W. Deem and Ramdas Pophale) SiO2 
 PCOD9190014
Probable space group: C 2/M
;
_chemical_formula_sum "Si O2"
_cell_formula_units_Z 56
_cell_length_a 11.182564
_cell_length_b 14.088457
_cell_length_c 22.826903
_cell_angle_alpha 90.000000
_cell_angle_beta 45.173426
_cell_angle_gamma 90.000000
_cell_volume 2550.629592
_symmetry_space_group_name_H-M "C 2/M"
_symmetry_group_IT_number 12
_symmetry_cell_setting 'monoclinic'
loop_
_space_group_symop_operation_xyz
x,y,z
-x,y,-z
-x,-y,-z
x,-y,z
1/2+x,1/2+y,z
1/2-x,1/2+y,-z
1/2-x,1/2-y,-z
1/2+x,1/2-y,z
loop_
_atom_site_type_symbol
_atom_site_label
_atom_site_fract_x
_atom_site_fract_y
_atom_site_fract_z
Si Si1 0.709179 0.793026 0.792933
Si Si2 0.802068 0.705045 0.075992
Si Si3 0.772012 0.898221 0.337289
Si Si4 0.472010 0.147356 0.679359
Si Si5 0.194420 0.771858 0.451679
Si Si6 0.090285 0.606811 0.166327
Si Si7 0.501787 0.607397 0.854184
O O1 0.732203 0.838108 0.847813
O O2 0.885192 0.753182 0.707547
O O3 0.593508 0.856145 0.791405
O O4 0.602211 0.696897 0.845079
O O5 0.717281 0.809666 0.102193
O O6 0.692945 0.636087 0.072627
O O7 0.000000 0.707174 0.000000
O O8 0.611261 0.897930 0.348910
O O9 0.748105 0.816135 0.391905
O O10 0.925184 0.887300 0.238005
O O11 0.787250 0.000000 0.361578
O O12 0.672201 0.146601 0.610274
O O13 0.413543 0.106783 0.761720
O O14 0.250000 0.750000 0.500000
O O15 0.000000 0.790646 0.500000
O O16 0.126225 0.500000 0.133141
O O17 0.534389 0.500000 0.863656
#
# Coordination Sequence:
#
# PCOD9190014 Si02
#       7
#     8   8   8   8   8   8   8
#     4   9  19  36  58  81 113 152 199 247 305 359
#     4  10  21  36  54  81 121 160 197 244 303 366
#     4  10  20  38  63  88 114 155 206 253 295 365
#     4  10  19  39  63  85 115 155 202 248 302 366
#     4  12  24  40  63  91 124 164 202 245 308 373
#     4  10  21  36  58  87 117 154 201 253 307 358
#     4   9  19  36  59  84 109 146 201 249 294 352
#
# _framework density 21.955362999999998
#
# number of rings (size 3 to 8) (size 9 to 14) (size 15 to 20)
#    0.000    2.000    1.429    3.857    0.000    7.143 
#    0.000    2.143    0.000    2.143    0.000    0.000 
#    0.000    0.000    0.000    0.000    0.000    0.000 
#
# Total GULP energy -156048.275263 kJ/mol
# GULP energy per Si atom -5573.152688 kJ/mol
# Density = 2.190539 g / cm^3
# Si number density = 21.955363 Si / 1000 Ang^3
#
#
#
# Elastic Constant Matrix: (Units=GPa)
#
#
# Indices 1 2 3 4 5 6 
#
# 1 110.5189 24.7270 24.7725 0.0000 -24.0291 0.0000
# 2 24.7270 52.0689 7.3472 0.0000 -8.7288 0.0000
# 3 24.7725 7.3472 65.4384 0.0000 -41.0238 0.0000
# 4 0.0000 0.0000 0.0000 -31.1020 0.0000 -23.9072
# 5 -24.0291 -8.7288 -41.0238 0.0000 51.3435 0.0000
# 6 0.0000 0.0000 0.0000 -23.9072 0.0000 -14.7487
#
#
#
# Elastic Compliance Matrix: (Units=1/GPa)
#
#
# Indices 1 2 3 4 5 6 
#
# 1 0.011117 -0.004523 -0.001845 0.000000 0.002960 0.000000
# 2 -0.004523 0.021611 0.000525 0.000000 0.001977 0.000000
# 3 -0.001845 0.000525 0.030927 0.000000 0.023937 0.000000
# 4 0.000000 0.000000 0.000000 0.130703 0.000000 -0.211865
# 5 0.002960 0.001977 0.023937 0.000000 0.040323 0.000000
# 6 0.000000 0.000000 0.000000 -0.211865 0.000000 0.275625
#
#
# Mechanical properties :
#
#
# Convention : Reuss Voigt Hill
#
# Bulk Modulus (GPa) = 19.24243 37.96886 28.60565
# Shear Modulus (GPa) = 9.27100 12.51054 10.89077
#
# Velocity S-wave (km/s) = 2.05714 2.38967 2.22962
# Velocity P-wave (km/s) = 3.79813 4.99452 4.43684
#
# Compressibility (1/GPa) = 0.05196849
#
# Stress axis : x y z
#
# Youngs Moduli (GPa) = 89.95009 46.27376 32.33388
#
# Poissons Ratio (x) = 0.20929 0.05967
# Poissons Ratio (y) = 0.40684 -0.01698
# Poissons Ratio (z) = 0.16599 -0.02430
#
# Static dielectric constant tensor:
#      x y z
#    x 1.862470 0.000000 -0.013850 
#    y 0.000000 1.825590 0.000000 
#    z -0.013850 0.000000 1.859220 
# 
# From -- ./inp_files/373969.got.cif
#   From: 2010.05.17/outbox.cif.g08.bks.cpg/sg12_187_cif.got.tgz:373969.got - 2010.06.03 13:09:07.
