data_PCOD9190930
_publ_section_title
;
Structure prediction by ZEFSAII (Michael W. Deem and Ramdas Pophale) SiO2 
 PCOD9190930
Probable space group: C 2/M
;
_chemical_formula_sum "Si O2"
_cell_formula_units_Z 56
_cell_length_a 20.039549
_cell_length_b 7.394414
_cell_length_c 18.440355
_cell_angle_alpha 90.000000
_cell_angle_beta 60.567322
_cell_angle_gamma 90.000000
_cell_volume 2379.830755
_symmetry_space_group_name_H-M "C 2/M"
_symmetry_group_IT_number 12
_symmetry_cell_setting 'monoclinic'
loop_
_space_group_symop_operation_xyz
x,y,z
-x,y,-z
-x,-y,-z
x,-y,z
1/2+x,1/2+y,z
1/2-x,1/2+y,-z
1/2-x,1/2-y,-z
1/2+x,1/2-y,z
loop_
_atom_site_type_symbol
_atom_site_label
_atom_site_fract_x
_atom_site_fract_y
_atom_site_fract_z
Si Si1 0.853078 0.285198 0.722516
Si Si2 0.565035 0.780188 0.064081
Si Si3 0.784707 0.282949 0.294280
Si Si4 0.104824 0.720352 0.886867
Si Si5 0.486549 0.778624 0.423621
Si Si6 0.333924 0.216079 0.422748
Si Si7 0.807927 0.715768 0.901547
O O1 0.859440 0.500000 0.728667
O O2 0.803449 0.256374 0.676119
O O3 0.808165 0.213212 0.818403
O O4 0.939519 0.219581 0.662978
O O5 0.477801 0.724742 0.100039
O O6 0.610053 0.722451 0.110431
O O7 0.564769 0.000000 0.064630
O O8 0.609710 0.722119 0.967506
O O9 0.791488 0.500000 0.292381
O O10 0.830432 0.212658 0.200460
O O11 0.824399 0.214095 0.345794
O O12 0.106074 0.500000 0.887003
O O13 0.500000 0.723484 0.500000
O O14 0.406060 0.717262 0.431173
O O15 0.485662 0.000000 0.424288
O O16 0.250000 0.250000 0.500000
O O17 0.344376 0.000000 0.413121
O O18 0.805791 0.500000 0.896890
O O19 0.750000 0.750000 0.000000
#
# Coordination Sequence:
#
# PCOD9190930 Si02
#       7
#     8   8   8   8   8   8   8
#     4  10  21  35  54  80 110 147 185 221 269 328
#     4   8  14  25  43  68  97 129 168 212 258 303
#     4  10  20  33  53  79 107 137 175 223 269 313
#     4   8  14  25  44  70  98 129 165 212 262 302
#     4   9  18  34  56  80 108 142 178 220 269 322
#     4  10  21  36  57  83 109 140 177 219 269 323
#     4  10  20  32  50  75 106 143 183 225 268 318
#
# _framework density 23.531085999999998
#
# number of rings (size 3 to 8) (size 9 to 14) (size 15 to 20)
#    0.000    2.714    0.000    2.571    2.000    3.429 
#    0.000    0.714    0.000    3.429    0.000    4.000 
#    0.000    0.000    0.000    0.000    0.000    0.000 
#
# Total GULP energy -156238.508548 kJ/mol
# GULP energy per Si atom -5579.946734 kJ/mol
# Density = 2.347753 g / cm^3
# Si number density = 23.531086 Si / 1000 Ang^3
#
#
#
# Elastic Constant Matrix: (Units=GPa)
#
#
# Indices 1 2 3 4 5 6 
#
# 1 195.2081 0.6493 84.7965 0.0001 18.3270 0.0004
# 2 0.6493 83.8523 4.5409 0.0006 2.8761 0.0022
# 3 84.7965 4.5409 111.8263 0.0000 3.8439 -0.0002
# 4 0.0001 0.0006 0.0000 7.5766 -0.0001 -2.2714
# 5 18.3270 2.8761 3.8439 -0.0001 32.4249 0.0003
# 6 0.0004 0.0022 -0.0002 -2.2714 0.0003 8.8114
#
#
#
# Elastic Compliance Matrix: (Units=1/GPa)
#
#
# Indices 1 2 3 4 5 6 
#
# 1 0.008107 0.000398 -0.006029 0.000000 -0.003903 -0.000001
# 2 0.000398 0.012004 -0.000748 -0.000002 -0.001201 -0.000004
# 3 -0.006029 -0.000748 0.013480 0.000000 0.001876 0.000001
# 4 0.000000 -0.000002 0.000000 0.143040 0.000001 0.036873
# 5 -0.003903 -0.001201 0.001876 0.000001 0.032930 0.000000
# 6 -0.000001 -0.000004 0.000001 0.036873 0.000000 0.122995
#
#
# Mechanical properties :
#
#
# Convention : Reuss Voigt Hill
#
# Bulk Modulus (GPa) = 48.00155 63.42892 55.71524
# Shear Modulus (GPa) = 14.19409 29.82257 22.00833
#
# Velocity S-wave (km/s) = 2.45869 3.56387 3.06156
# Velocity P-wave (km/s) = 5.33889 6.62939 6.01883
#
# Compressibility (1/GPa) = 0.02083266
#
# Stress axis : x y z
#
# Youngs Moduli (GPa) = 123.35153 83.30331 74.18233
#
# Poissons Ratio (x) = -0.03312 0.44727
# Poissons Ratio (y) = -0.04904 0.05546
# Poissons Ratio (z) = 0.74373 0.06228
#
# Static dielectric constant tensor:
#      x y z
#    x 1.848830 0.000000 -0.037430 
#    y 0.000000 1.880550 0.000000 
#    z -0.037430 0.000000 1.861140 
# 
# From -- ./inp_files/276381.got.cif
#   From: 2010.05.17/outbox.cif.g08.bks.cpg/sg12_139_cif.got.tgz:276381.got - 2010.06.03 13:09:07.
