data_PCOD9190147
_publ_section_title
;
Structure prediction by ZEFSAII (Michael W. Deem and Ramdas Pophale) SiO2 
 PCOD9190147
Probable space group: C 2/M
;
_chemical_formula_sum "Si O2"
_cell_formula_units_Z 44
_cell_length_a 11.821642
_cell_length_b 25.628407
_cell_length_c 8.245291
_cell_angle_alpha 90.000000
_cell_angle_beta 52.057824
_cell_angle_gamma 90.000000
_cell_volume 1970.060792
_symmetry_space_group_name_H-M "C 2/M"
_symmetry_group_IT_number 12
_symmetry_cell_setting 'monoclinic'
loop_
_space_group_symop_operation_xyz
x,y,z
-x,y,-z
-x,-y,-z
x,-y,z
1/2+x,1/2+y,z
1/2-x,1/2+y,-z
1/2-x,1/2-y,-z
1/2+x,1/2-y,z
loop_
_atom_site_type_symbol
_atom_site_label
_atom_site_fract_x
_atom_site_fract_y
_atom_site_fract_z
Si Si1 0.951739 0.911523 0.222972
Si Si2 0.500000 0.115406 0.000000
Si Si3 0.243513 0.939373 0.071237
Si Si4 0.073407 0.195656 0.599924
Si Si5 0.899742 0.310723 0.363856
Si Si6 0.840957 0.596394 0.637673
O O1 0.956540 0.848764 0.241561
O O2 0.782367 0.925730 0.374588
O O3 0.000000 0.927607 0.000000
O O4 0.071471 0.933077 0.240132
O O5 0.646377 0.082632 0.892797
O O6 0.485211 0.151622 0.170023
O O7 0.280482 0.909231 0.871292
O O8 0.274758 0.000000 0.019305
O O9 0.027501 0.254716 0.679176
O O10 0.243932 0.198726 0.422018
O O11 0.000000 0.178166 0.500000
O O12 0.863804 0.344048 0.556825
O O13 0.000000 0.571975 0.500000
#
# Coordination Sequence:
#
# PCOD9190147 Si02
#       6
#     8   4   8   8   8   8
#     4   9  21  38  62  91 126 159 208 256 303 370
#     4  12  23  40  62  90 126 164 209 262 308 378
#     4  11  24  42  64  89 124 165 210 267 314 355
#     4  10  20  37  60  87 126 167 201 246 311 376
#     4  10  22  37  59  91 124 163 203 254 307 367
#     4  10  19  40  63  89 120 159 205 255 302 372
#
# _framework density 22.334336
#
# number of rings (size 3 to 8) (size 9 to 14) (size 15 to 20)
#    0.000    1.818    1.818    1.909    1.273    3.636 
#    0.000    1.818    0.000    4.909    0.000    0.000 
#    0.000    0.000    0.000    0.000    0.000    0.000 
#
# Total GULP energy -122651.084367 kJ/mol
# GULP energy per Si atom -5575.049289 kJ/mol
# Density = 2.228350 g / cm^3
# Si number density = 22.334336 Si / 1000 Ang^3
#
#
#
# Elastic Constant Matrix: (Units=GPa)
#
#
# Indices 1 2 3 4 5 6 
#
# 1 148.5424 18.8452 20.3857 0.0000 -39.2657 0.0000
# 2 18.8452 93.0253 18.0039 0.0000 7.9138 0.0000
# 3 20.3857 18.0039 33.5533 0.0000 -6.5840 0.0000
# 4 0.0000 0.0000 0.0000 -5.1345 0.0000 -13.3407
# 5 -39.2657 7.9138 -6.5840 0.0000 37.5264 0.0000
# 6 0.0000 0.0000 0.0000 -13.3407 0.0000 6.7028
#
#
#
# Elastic Compliance Matrix: (Units=1/GPa)
#
#
# Indices 1 2 3 4 5 6 
#
# 1 0.010279 -0.002455 -0.002813 0.000000 0.010780 0.000000
# 2 -0.002455 0.013126 -0.006834 0.000000 -0.006536 0.000000
# 3 -0.002813 -0.006834 0.036128 0.000000 0.004837 0.000000
# 4 0.000000 0.000000 0.000000 -0.031559 0.000000 -0.062812
# 5 0.010780 -0.006536 0.004837 0.000000 0.040154 0.000000
# 6 0.000000 0.000000 0.000000 -0.062812 0.000000 0.024175
#
#
# Mechanical properties :
#
#
# Convention : Reuss Voigt Hill
#
# Bulk Modulus (GPa) = 28.30459 43.28784 35.79621
# Shear Modulus (GPa) = 38.97633 22.34469 30.66051
#
# Velocity S-wave (km/s) = 4.18201 3.16644 3.70915
# Velocity P-wave (km/s) = 6.00163 5.72646 5.86566
#
# Compressibility (1/GPa) = 0.03532996
#
# Stress axis : x y z
#
# Youngs Moduli (GPa) = 97.28502 76.18622 27.67925
#
# Poissons Ratio (x) = 0.18704 0.07785
# Poissons Ratio (y) = 0.23884 0.18916
# Poissons Ratio (z) = 0.27362 0.52064
#
# Static dielectric constant tensor:
#      x y z
#    x 1.926170 0.000000 -0.029460 
#    y 0.000000 1.825650 0.000000 
#    z -0.029460 0.000000 1.823960 
# 
# From -- ./inp_files/53003.got.cif
#   From: 2010.05.17/outbox.cif.g08.bks.cpg/sg12_27_cif.got.tgz:53003.got - 2010.06.03 13:09:07.
