data_PCOD9190643
_publ_section_title
;
Structure prediction by ZEFSAII (Michael W. Deem and Ramdas Pophale) SiO2 
 PCOD9190643
Probable space group: C 2/M
;
_chemical_formula_sum "Si O2"
_cell_formula_units_Z 56
_cell_length_a 15.760012
_cell_length_b 7.661757
_cell_length_c 17.553519
_cell_angle_alpha 90.000000
_cell_angle_beta 106.859965
_cell_angle_gamma 90.000000
_cell_volume 2028.469706
_symmetry_space_group_name_H-M "C 2/M"
_symmetry_group_IT_number 12
_symmetry_cell_setting 'monoclinic'
loop_
_space_group_symop_operation_xyz
x,y,z
-x,y,-z
-x,-y,-z
x,-y,z
1/2+x,1/2+y,z
1/2-x,1/2+y,-z
1/2-x,1/2-y,-z
1/2+x,1/2-y,z
loop_
_atom_site_type_symbol
_atom_site_label
_atom_site_fract_x
_atom_site_fract_y
_atom_site_fract_z
Si Si1 0.740591 0.214481 0.880776
Si Si2 0.528927 0.791832 0.685054
Si Si3 0.536776 0.795602 0.173192
Si Si4 0.401853 0.708107 0.451452
Si Si5 0.828421 0.205692 0.583806
Si Si6 0.729225 0.701363 0.272652
Si Si7 0.395726 0.702255 0.021275
O O1 0.724746 0.276298 0.790714
O O2 0.671317 0.277280 0.924841
O O3 0.737646 0.000000 0.879526
O O4 0.836443 0.276686 0.937164
O O5 0.529710 0.744955 0.774420
O O6 0.601108 0.740223 0.639793
O O7 0.433581 0.720833 0.632507
O O8 0.526364 0.000000 0.681231
O O9 0.627194 0.696195 0.214526
O O10 0.487151 0.770629 0.080249
O O11 0.556895 0.000000 0.187328
O O12 0.500000 0.777320 0.500000
O O13 0.402380 0.500000 0.461659
O O14 0.332454 0.776981 0.497333
O O15 0.780718 0.286664 0.646144
O O16 0.810442 0.000000 0.578398
O O17 0.757993 0.500000 0.289938
O O18 0.408213 0.500000 0.007679
#
# Coordination Sequence:
#
# PCOD9190643 Si02
#       7
#     8   8   8   8   8   8   8
#     4   9  19  35  53  72  93 119 153 192 231 275
#     4   9  16  24  36  57  85 117 150 184 223 263
#     4  10  20  32  46  68  98 126 155 193 233 272
#     4   8  13  21  34  54  82 115 148 180 216 262
#     4   8  14  24  38  58  85 117 149 180 218 265
#     4   9  17  31  50  70  95 125 155 188 229 277
#     4  10  20  34  52  71  92 121 156 191 230 278
#
# _framework density 27.607019000000001
#
# number of rings (size 3 to 8) (size 9 to 14) (size 15 to 20)
#    0.000    3.000    0.000    2.143    0.000    6.000 
#    0.000    2.857    0.000    0.000    0.000    1.000 
#    0.000    0.000    0.000    0.000    0.000    0.000 
#
# Total GULP energy -156560.471073 kJ/mol
# GULP energy per Si atom -5591.445395 kJ/mol
# Density = 2.754418 g / cm^3
# Si number density = 27.607019 Si / 1000 Ang^3
#
#
#
# Elastic Constant Matrix: (Units=GPa)
#
#
# Indices 1 2 3 4 5 6 
#
# 1 96.1880 7.8953 11.2944 0.0000 -23.8277 0.0000
# 2 7.8953 52.8243 -11.2083 0.0000 -1.2780 0.0000
# 3 11.2944 -11.2083 222.6612 0.0000 -6.5738 0.0000
# 4 0.0000 0.0000 0.0000 32.4874 0.0000 -13.5892
# 5 -23.8277 -1.2780 -6.5738 0.0000 59.9913 0.0000
# 6 0.0000 0.0000 0.0000 -13.5892 0.0000 48.5822
#
#
#
# Elastic Compliance Matrix: (Units=1/GPa)
#
#
# Indices 1 2 3 4 5 6 
#
# 1 0.011736 -0.001760 -0.000549 0.000000 0.004564 0.000000
# 2 -0.001760 0.019415 0.001062 0.000000 -0.000169 0.000000
# 3 -0.000549 0.001062 0.004581 0.000000 0.000307 0.000000
# 4 0.000000 0.000000 0.000000 0.034860 0.000000 0.009751
# 5 0.004564 -0.000169 0.000307 0.000000 0.018512 0.000000
# 6 0.000000 0.000000 0.000000 0.009751 0.000000 0.023311
#
#
# Mechanical properties :
#
#
# Convention : Reuss Voigt Hill
#
# Bulk Modulus (GPa) = 30.08727 43.07071 36.57899
# Shear Modulus (GPa) = 39.68593 52.45832 46.07213
#
# Velocity S-wave (km/s) = 3.79559 4.36384 4.08959
# Velocity P-wave (km/s) = 5.48915 6.40515 5.96476
#
# Compressibility (1/GPa) = 0.03323665
#
# Stress axis : x y z
#
# Youngs Moduli (GPa) = 85.20963 51.50675 218.27046
#
# Poissons Ratio (x) = 0.09066 0.11987
# Poissons Ratio (y) = 0.14999 -0.23172
# Poissons Ratio (z) = 0.04679 -0.05468
#
# Static dielectric constant tensor:
#      x y z
#    x 2.313670 0.000000 0.009430 
#    y 0.000000 1.986170 0.000000 
#    z 0.009430 0.000000 2.207480 
# 
# From -- ./inp_files/280377.got.cif
#   From: 2010.05.17/outbox.cif.g08.bks.cpg/sg12_141_cif.got.tgz:280377.got - 2010.06.03 13:09:07.
