data_PCOD9190722
_publ_section_title
;
Structure prediction by ZEFSAII (Michael W. Deem and Ramdas Pophale) SiO2 
 PCOD9190722
Probable space group: C 2/M
;
_chemical_formula_sum "Si O2"
_cell_formula_units_Z 64
_cell_length_a 25.303196
_cell_length_b 8.036025
_cell_length_c 17.294781
_cell_angle_alpha 90.000000
_cell_angle_beta 106.496927
_cell_angle_gamma 90.000000
_cell_volume 3371.907009
_symmetry_space_group_name_H-M "C 2/M"
_symmetry_group_IT_number 12
_symmetry_cell_setting 'monoclinic'
loop_
_space_group_symop_operation_xyz
x,y,z
-x,y,-z
-x,-y,-z
x,-y,z
1/2+x,1/2+y,z
1/2-x,1/2+y,-z
1/2-x,1/2-y,-z
1/2+x,1/2-y,z
loop_
_atom_site_type_symbol
_atom_site_label
_atom_site_fract_x
_atom_site_fract_y
_atom_site_fract_z
Si Si1 0.811990 0.199370 0.043321
Si Si2 0.418669 0.805646 0.007429
Si Si3 0.980212 0.806269 0.184435
Si Si4 0.190815 0.196591 0.309503
Si Si5 0.316889 0.301323 0.357380
Si Si6 0.590796 0.194536 0.168120
Si Si7 0.685788 0.299596 0.475196
Si Si8 0.872980 0.796774 0.225268
O O1 0.854605 0.286138 0.002914
O O2 0.818196 0.000000 0.038594
O O3 0.750000 0.250000 0.000000
O O4 0.831716 0.247217 0.137978
O O5 0.425833 0.739827 0.923710
O O6 0.435372 0.000000 0.017895
O O7 0.451406 0.712917 0.088509
O O8 0.934129 0.741062 0.225148
O O9 0.039047 0.719834 0.202995
O O10 0.989860 0.000000 0.204497
O O11 0.251143 0.273333 0.320582
O O12 0.146084 0.228423 0.225333
O O13 0.166226 0.257488 0.382324
O O14 0.200227 0.000000 0.320281
O O15 0.325384 0.500000 0.361648
O O16 0.334504 0.235869 0.449762
O O17 0.350212 0.235027 0.297589
O O18 0.601534 0.000000 0.162007
O O19 0.680383 0.500000 0.475208
O O20 0.750000 0.250000 0.500000
O O21 0.874627 0.000000 0.227573
#
# Coordination Sequence:
#
# PCOD9190722 Si02
#       8
#     8   8   8   8   8   8   8   8
#     4  10  20  33  48  70 102 137 168 205 251 294
#     4  10  21  36  52  71  96 130 173 212 248 297
#     4  10  20  36  55  75  99 129 166 212 258 297
#     4  10  20  32  47  76 108 130 161 206 252 296
#     4   9  16  31  54  76 101 134 165 196 242 304
#     4  11  23  36  52  73  98 133 172 211 252 300
#     4   8  15  28  48  72 100 131 161 196 242 296
#     4   8  17  32  51  73  97 127 165 202 241 295
#
# _framework density 18.980359
#
# number of rings (size 3 to 8) (size 9 to 14) (size 15 to 20)
#    0.000    2.500    0.000    3.000    1.750    4.000 
#    0.000    3.125    0.000    0.750    0.000    5.250 
#    0.000    0.000    0.000    0.000    0.000    0.000 
#
# Total GULP energy -178371.310940 kJ/mol
# GULP energy per Si atom -5574.103467 kJ/mol
# Density = 1.893716 g / cm^3
# Si number density = 18.980359 Si / 1000 Ang^3
#
#
#
# Elastic Constant Matrix: (Units=GPa)
#
#
# Indices 1 2 3 4 5 6 
#
# 1 67.3210 -6.9142 28.8009 0.0000 -25.7631 0.0000
# 2 -6.9142 16.5708 2.1112 0.0000 -5.3202 0.0000
# 3 28.8009 2.1112 65.0821 0.0000 -37.4026 0.0000
# 4 0.0000 0.0000 0.0000 10.0453 0.0000 0.4570
# 5 -25.7631 -5.3202 -37.4026 0.0000 32.3298 0.0000
# 6 0.0000 0.0000 0.0000 0.4570 0.0000 22.6652
#
#
#
# Elastic Compliance Matrix: (Units=1/GPa)
#
#
# Indices 1 2 3 4 5 6 
#
# 1 0.026219 0.019894 0.004896 0.000000 0.029831 0.000000
# 2 0.019894 0.082004 0.016120 0.000000 0.047996 0.000000
# 3 0.004896 0.016120 0.049063 0.000000 0.063315 0.000000
# 4 0.000000 0.000000 0.000000 0.099641 0.000000 -0.002009
# 5 0.029831 0.047996 0.063315 0.000000 0.135851 0.000000
# 6 0.000000 0.000000 0.000000 -0.002009 0.000000 0.044161
#
#
# Mechanical properties :
#
#
# Convention : Reuss Voigt Hill
#
# Bulk Modulus (GPa) = 4.18228 21.88551 13.03389
# Shear Modulus (GPa) = 11.49898 21.33978 16.41938
#
# Velocity S-wave (km/s) = 2.46404 3.35671 2.94440
# Velocity P-wave (km/s) = 3.20992 5.15548 4.29433
#
# Compressibility (1/GPa) = 0.23910421
#
# Stress axis : x y z
#
# Youngs Moduli (GPa) = 38.14039 12.19456 20.38203
#
# Poissons Ratio (x) = -0.24259 -0.09979
# Poissons Ratio (y) = -0.75875 -0.32856
# Poissons Ratio (z) = -0.18673 -0.19657
#
# Static dielectric constant tensor:
#      x y z
#    x 1.643230 0.000000 -0.041840 
#    y 0.000000 1.678910 0.000000 
#    z -0.041840 0.000000 1.700730 
# 
# From -- ./inp_files/244248.got.cif
#   From: 2010.05.17/outbox.cif.g08.bks.cpg/sg12_123_cif.got.tgz:244248.got - 2010.06.03 13:09:07.
