data_PCOD9190519
_publ_section_title
;
Structure prediction by ZEFSAII (Michael W. Deem and Ramdas Pophale) SiO2 
 PCOD9190519
Probable space group: C 2/M
;
_chemical_formula_sum "Si O2"
_cell_formula_units_Z 60
_cell_length_a 8.822931
_cell_length_b 25.547392
_cell_length_c 23.687579
_cell_angle_alpha 90.000000
_cell_angle_beta 40.245399
_cell_angle_gamma 90.000000
_cell_volume 3449.489207
_symmetry_space_group_name_H-M "C 2/M"
_symmetry_group_IT_number 12
_symmetry_cell_setting 'monoclinic'
loop_
_space_group_symop_operation_xyz
x,y,z
-x,y,-z
-x,-y,-z
x,-y,z
1/2+x,1/2+y,z
1/2-x,1/2+y,-z
1/2-x,1/2-y,-z
1/2+x,1/2-y,z
loop_
_atom_site_type_symbol
_atom_site_label
_atom_site_fract_x
_atom_site_fract_y
_atom_site_fract_z
Si Si1 0.537906 0.780913 0.590720
Si Si2 0.430792 0.060627 0.653867
Si Si3 0.750132 0.942446 0.461829
Si Si4 0.000000 0.736170 0.000000
Si Si5 0.997527 0.213702 0.121690
Si Si6 0.266181 0.196929 0.256011
Si Si7 0.532903 0.849201 0.280640
Si Si8 0.671010 0.639223 0.648630
O O1 0.750000 0.750000 0.500000
O O2 0.370971 0.736332 0.663394
O O3 0.587155 0.817037 0.632524
O O4 0.383814 0.818911 0.593816
O O5 0.669977 0.064506 0.548861
O O6 0.464048 0.090782 0.702231
O O7 0.237707 0.094284 0.674321
O O8 0.369442 0.000000 0.674783
O O9 0.500000 0.945670 0.500000
O O10 0.857918 0.891089 0.402832
O O11 0.864108 0.000000 0.422009
O O12 0.985228 0.772963 0.059192
O O13 0.764681 0.701809 0.061775
O O14 0.936426 0.268113 0.170358
O O15 0.795672 0.174085 0.199145
O O16 0.404721 0.159512 0.258379
O O17 0.069697 0.169552 0.273577
#
# Coordination Sequence:
#
# PCOD9190519 Si02
#       8
#     8   8   8   4   8   8   8   8
#     4  10  22  33  46  71 106 151 191 212 252 314
#     4   9  19  35  55  73  94 139 190 235 275 309
#     4   8  15  30  50  70  91 124 191 244 267 296
#     4  10  20  34  64  80 114 140 172 204 252 336
#     4  10  20  37  54  87 113 142 170 209 259 319
#     4  11  22  33  48  76 118 142 173 217 262 317
#     4  10  21  36  51  74 115 142 172 227 264 313
#     4  10  20  31  52  71  98 147 180 237 264 304
#
# _framework density 17.393878999999998
#
# number of rings (size 3 to 8) (size 9 to 14) (size 15 to 20)
#    0.000    2.267    1.333    2.800   11.200    1.600 
#    0.000    1.333    0.000    1.600    0.000    0.933 
#    0.000    0.000    0.000    0.000    0.000    0.000 
#
# Total GULP energy -167185.545464 kJ/mol
# GULP energy per Si atom -5572.851515 kJ/mol
# Density = 1.735429 g / cm^3
# Si number density = 17.393879 Si / 1000 Ang^3
#
#
#
# Elastic Constant Matrix: (Units=GPa)
#
#
# Indices 1 2 3 4 5 6 
#
# 1 64.2781 28.6864 27.8842 0.0000 0.4726 0.0000
# 2 28.6864 92.6257 23.3508 0.0000 0.4135 0.0000
# 3 27.8842 23.3508 71.6792 0.0000 4.1547 0.0000
# 4 0.0000 0.0000 0.0000 9.7154 0.0000 7.5435
# 5 0.4726 0.4135 4.1547 0.0000 24.8703 0.0000
# 6 0.0000 0.0000 0.0000 7.5435 0.0000 5.5007
#
#
#
# Elastic Compliance Matrix: (Units=1/GPa)
#
#
# Indices 1 2 3 4 5 6 
#
# 1 0.020460 -0.004709 -0.006470 0.000001 0.000770 -0.000002
# 2 -0.004709 0.012851 -0.002370 0.000000 0.000272 0.000000
# 3 -0.006470 -0.002370 0.017399 0.000000 -0.002744 0.000000
# 4 0.000001 0.000000 0.000000 -1.588402 -0.000001 2.178292
# 5 0.000770 0.000272 -0.002744 -0.000001 0.040648 0.000002
# 6 -0.000002 0.000000 0.000000 2.178292 0.000002 -2.805458
#
#
# Mechanical properties :
#
#
# Convention : Reuss Voigt Hill
#
# Bulk Modulus (GPa) = 42.35169 43.15840 42.75504
# Shear Modulus (GPa) = -1.17164 17.92806 8.37821
#
# Velocity S-wave (km/s) = -0.82162 3.21395 2.19709
# Velocity P-wave (km/s) = 4.84782 6.21602 5.57406
#
# Compressibility (1/GPa) = 0.02361181
#
# Stress axis : x y z
#
# Youngs Moduli (GPa) = 48.87611 77.81603 57.47415
#
# Poissons Ratio (x) = 0.36643 0.37185
# Poissons Ratio (y) = 0.23015 0.13623
# Poissons Ratio (z) = 0.31622 0.18445
#
# Static dielectric constant tensor:
#      x y z
#    x 1.652620 0.000000 0.015680 
#    y 0.000000 1.606960 0.000000 
#    z 0.015680 0.000000 1.608510 
# 
# From -- ./inp_files/334156.got.cif
#   From: 2010.05.17/outbox.cif.g08.bks.cpg/sg12_168_cif.got.tgz:334156.got - 2010.06.03 13:09:07.
