data_PCOD9190799
_publ_section_title
;
Structure prediction by ZEFSAII (Michael W. Deem and Ramdas Pophale) SiO2 
 PCOD9190799
Probable space group: C 2/M
;
_chemical_formula_sum "Si O2"
_cell_formula_units_Z 48
_cell_length_a 29.924699
_cell_length_b 21.768753
_cell_length_c 8.170369
_cell_angle_alpha 90.000000
_cell_angle_beta 31.783480
_cell_angle_gamma 90.000000
_cell_volume 2803.349047
_symmetry_space_group_name_H-M "C 2/M"
_symmetry_group_IT_number 12
_symmetry_cell_setting 'monoclinic'
loop_
_space_group_symop_operation_xyz
x,y,z
-x,y,-z
-x,-y,-z
x,-y,z
1/2+x,1/2+y,z
1/2-x,1/2+y,-z
1/2-x,1/2-y,-z
1/2+x,1/2-y,z
loop_
_atom_site_type_symbol
_atom_site_label
_atom_site_fract_x
_atom_site_fract_y
_atom_site_fract_z
Si Si1 0.705171 0.433187 0.699879
Si Si2 0.745899 0.804126 0.381518
Si Si3 0.598236 0.432969 0.369436
Si Si4 0.900633 0.898374 0.285111
Si Si5 0.595198 0.254600 0.661855
Si Si6 0.922596 0.200849 0.639276
O O1 0.746766 0.500000 0.550995
O O2 0.762448 0.372339 0.518707
O O3 0.638651 0.424977 0.757760
O O4 0.658974 0.433967 0.021627
O O5 0.750000 0.750000 0.500000
O O6 0.668684 0.787956 0.502448
O O7 0.837060 0.803304 0.008749
O O8 0.554301 0.500000 0.507189
O O9 0.640555 0.423464 0.417073
O O10 0.548650 0.368536 0.503648
O O11 0.893633 0.824183 0.302072
O O12 0.000000 0.914078 0.000000
O O13 0.598486 0.262408 0.457583
O O14 0.500000 0.234141 0.000000
O O15 0.000000 0.227919 0.500000
#
# Coordination Sequence:
#
# PCOD9190799 Si02
#       6
#     8   8   8   8   8   8
#     4  10  21  35  51  74 106 139 175 217 260 313
#     4  11  20  35  55  76 105 142 179 218 265 315
#     4   9  20  31  44  68 104 143 175 200 243 307
#     4  10  20  32  48  74 106 140 176 211 253 311
#     4  10  20  35  55  76 104 138 179 226 266 308
#     4  10  21  33  50  77 107 137 176 220 262 316
#
# _framework density 17.122378000000001
#
# number of rings (size 3 to 8) (size 9 to 14) (size 15 to 20)
#    0.000    2.000    1.667    2.000   11.667    1.667 
#    0.000    0.000    0.000    0.500    0.000    0.000 
#    0.000    2.667    0.000    0.000    0.000    0.000 
#
# Total GULP energy -133760.806570 kJ/mol
# GULP energy per Si atom -5573.366940 kJ/mol
# Density = 1.708341 g / cm^3
# Si number density = 17.122378 Si / 1000 Ang^3
#
#
#
# Elastic Constant Matrix: (Units=GPa)
#
#
# Indices 1 2 3 4 5 6 
#
# 1 109.6736 64.9468 35.1339 0.0000 -5.4727 0.0000
# 2 64.9468 115.8246 25.8639 0.0000 -10.1911 0.0000
# 3 35.1339 25.8639 54.2326 0.0000 -1.9925 0.0000
# 4 0.0000 0.0000 0.0000 20.6643 0.0000 1.6963
# 5 -5.4727 -10.1911 -1.9925 0.0000 28.0438 0.0000
# 6 0.0000 0.0000 0.0000 1.6963 0.0000 -17.5044
#
#
#
# Elastic Compliance Matrix: (Units=1/GPa)
#
#
# Indices 1 2 3 4 5 6 
#
# 1 0.015511 -0.007229 -0.006603 0.000000 -0.000069 0.000000
# 2 -0.007229 0.013326 -0.001550 0.000000 0.003322 0.000000
# 3 -0.006603 -0.001550 0.023449 0.000000 -0.000186 0.000000
# 4 0.000000 0.000000 0.000000 0.048011 0.000000 0.004653
# 5 -0.000069 0.003322 -0.000186 0.000000 0.036839 0.000000
# 6 0.000000 0.000000 0.000000 0.004653 0.000000 -0.056678
#
#
# Mechanical properties :
#
#
# Convention : Reuss Voigt Hill
#
# Bulk Modulus (GPa) = 46.46577 59.06890 52.76734
# Shear Modulus (GPa) = 42.23112 16.49315 29.36213
#
# Velocity S-wave (km/s) = 4.97170 3.10700 4.14555
# Velocity P-wave (km/s) = 7.75587 6.88797 7.33477
#
# Compressibility (1/GPa) = 0.02152122
#
# Stress axis : x y z
#
# Youngs Moduli (GPa) = 64.47126 75.04341 42.64503
#
# Poissons Ratio (x) = 0.54249 0.28161
# Poissons Ratio (y) = 0.46606 0.06609
# Poissons Ratio (z) = 0.42573 0.11631
#
# Static dielectric constant tensor:
#      x y z
#    x 1.608040 0.000000 0.013980 
#    y 0.000000 1.625600 0.000000 
#    z 0.013980 0.000000 1.476900 
# 
# From -- ./inp_files/113159.got.cif
#   From: 2010.05.17/outbox.cif.g08.bks.cpg/sg12_57_cif.got.tgz:113159.got - 2010.06.03 13:09:07.
