data_PCOD9190017
_publ_section_title
;
Structure prediction by ZEFSAII (Michael W. Deem and Ramdas Pophale) SiO2 
 PCOD9190017
Probable space group: C 2/M
;
_chemical_formula_sum "Si O2"
_cell_formula_units_Z 58
_cell_length_a 27.628052
_cell_length_b 17.707620
_cell_length_c 10.662435
_cell_angle_alpha 90.000000
_cell_angle_beta 148.545255
_cell_angle_gamma 90.000000
_cell_volume 2722.022376
_symmetry_space_group_name_H-M "C 2/M"
_symmetry_group_IT_number 12
_symmetry_cell_setting 'monoclinic'
loop_
_space_group_symop_operation_xyz
x,y,z
-x,y,-z
-x,-y,-z
x,-y,z
1/2+x,1/2+y,z
1/2-x,1/2+y,-z
1/2-x,1/2-y,-z
1/2+x,1/2-y,z
loop_
_atom_site_type_symbol
_atom_site_label
_atom_site_fract_x
_atom_site_fract_y
_atom_site_fract_z
Si Si1 0.139297 0.739558 0.744608
Si Si2 0.151880 0.586358 0.667025
Si Si3 0.884052 0.803850 0.582799
Si Si4 0.232328 0.086650 0.534729
Si Si5 0.447417 0.583913 0.041011
Si Si6 0.602450 0.860541 0.279512
Si Si7 0.128105 0.881300 0.853396
Si Si8 0.500000 0.500000 0.500000
O O1 0.114651 0.651622 0.677931
O O2 0.113739 0.776453 0.555156
O O3 0.104491 0.793744 0.778251
O O4 0.250000 0.750000 0.000000
O O5 0.134383 0.500000 0.664677
O O6 0.115747 0.601333 0.445579
O O7 0.262658 0.602042 0.905829
O O8 0.794213 0.854974 0.414552
O O9 0.882531 0.728925 0.664292
O O10 0.975055 0.853737 0.807709
O O11 0.321266 0.109641 0.649676
O O12 0.240999 0.000000 0.596320
O O13 0.143052 0.091719 0.244993
O O14 0.488006 0.500000 0.113030
O O15 0.411594 0.589215 0.103600
O O16 0.500000 0.873731 0.000000
O O17 0.077139 0.933638 0.640380
#
# Coordination Sequence:
#
# PCOD9190017 Si02
#       8
#     8   8   8   8   8   8   8   2
#     4   9  22  39  58  88 128 167 212 256 304 370
#     4  10  19  39  63  88 122 166 214 262 318 363
#     4  11  23  40  60  94 130 165 203 255 328 386
#     4  11  23  40  63  91 128 165 200 258 323 382
#     4  11  21  37  63  96 132 164 200 250 325 401
#     4  11  23  40  63  93 117 167 224 265 303 368
#     4  11  20  36  58  97 129 168 202 254 313 384
#     4  12  20  28  60  96 126 152 210 248 306 392
#
# _framework density 21.307686
#
# number of rings (size 3 to 8) (size 9 to 14) (size 15 to 20)
#    0.000    1.379    2.759    3.310    0.000    2.207 
#    1.241    0.000    0.000    0.000    0.000    5.310 
#    0.000    0.000    0.000    0.000    0.000    0.000 
#
# Total GULP energy -161814.979021 kJ/mol
# GULP energy per Si atom -5579.826863 kJ/mol
# Density = 2.125919 g / cm^3
# Si number density = 21.307686 Si / 1000 Ang^3
#
#
#
# Elastic Constant Matrix: (Units=GPa)
#
#
# Indices 1 2 3 4 5 6 
#
# 1 38.8631 35.6633 -1.1428 0.0000 4.0215 0.0000
# 2 35.6633 190.3594 30.4553 0.0000 0.3958 0.0000
# 3 -1.1428 30.4553 97.2422 0.0000 9.4368 0.0000
# 4 0.0000 0.0000 0.0000 19.4808 0.0000 13.6014
# 5 4.0215 0.3958 9.4368 0.0000 20.2813 0.0000
# 6 0.0000 0.0000 0.0000 13.6014 0.0000 49.5323
#
#
#
# Elastic Compliance Matrix: (Units=1/GPa)
#
#
# Indices 1 2 3 4 5 6 
#
# 1 0.032724 -0.006630 0.003224 0.000000 -0.007859 0.000000
# 2 -0.006630 0.006884 -0.002460 0.000000 0.002325 0.000000
# 3 0.003224 -0.002460 0.011676 0.000000 -0.006024 0.000000
# 4 0.000000 0.000000 0.000000 0.063509 0.000000 -0.017439
# 5 -0.007859 0.002325 -0.006024 0.000000 0.053622 0.000000
# 6 0.000000 0.000000 0.000000 -0.017439 0.000000 0.024978
#
#
# Mechanical properties :
#
#
# Convention : Reuss Voigt Hill
#
# Bulk Modulus (GPa) = 25.28301 50.71293 37.99797
# Shear Modulus (GPa) = 22.90338 35.29149 29.09744
#
# Velocity S-wave (km/s) = 3.28211 4.07416 3.69939
# Velocity P-wave (km/s) = 5.12390 6.78112 6.00991
#
# Compressibility (1/GPa) = 0.03955225
#
# Stress axis : x y z
#
# Youngs Moduli (GPa) = 30.55899 145.26405 85.64288
#
# Poissons Ratio (x) = 0.96312 -0.27609
# Poissons Ratio (y) = 0.20261 0.21064
# Poissons Ratio (z) = -0.09851 0.35728
#
# Static dielectric constant tensor:
#      x y z
#    x 1.740610 0.000000 -0.030230 
#    y 0.000000 1.812710 0.000000 
#    z -0.030230 0.000000 1.801090 
# 
# From -- ./inp_files/189960.got.cif
#   From: 2010.05.17/outbox.cif.g08.bks.cpg/sg12_95_cif.got.tgz:189960.got - 2010.06.03 13:09:07.
