data_PCOD9190715
_publ_section_title
;
Structure prediction by ZEFSAII (Michael W. Deem and Ramdas Pophale) SiO2 
 PCOD9190715
Probable space group: C 2/M
;
_chemical_formula_sum "Si O2"
_cell_formula_units_Z 56
_cell_length_a 24.467634
_cell_length_b 7.358511
_cell_length_c 17.557593
_cell_angle_alpha 90.000000
_cell_angle_beta 44.674646
_cell_angle_gamma 90.000000
_cell_volume 2222.550823
_symmetry_space_group_name_H-M "C 2/M"
_symmetry_group_IT_number 12
_symmetry_cell_setting 'monoclinic'
loop_
_space_group_symop_operation_xyz
x,y,z
-x,y,-z
-x,-y,-z
x,-y,z
1/2+x,1/2+y,z
1/2-x,1/2+y,-z
1/2-x,1/2-y,-z
1/2+x,1/2-y,z
loop_
_atom_site_type_symbol
_atom_site_label
_atom_site_fract_x
_atom_site_fract_y
_atom_site_fract_z
Si Si1 0.918092 0.217900 0.830737
Si Si2 0.338864 0.279534 0.644537
Si Si3 0.381711 0.216166 0.026350
Si Si4 0.159475 0.715795 0.603646
Si Si5 0.835572 0.278483 0.232452
Si Si6 0.456952 0.296660 0.409418
Si Si7 0.286192 0.279682 0.860271
O O1 0.832861 0.284053 0.887960
O O2 0.976532 0.289120 0.708655
O O3 0.919077 0.000000 0.823988
O O4 0.938031 0.256614 0.898792
O O5 0.340095 0.500000 0.637244
O O6 0.254568 0.224479 0.694016
O O7 0.413796 0.211985 0.524588
O O8 0.336920 0.234341 0.735208
O O9 0.386868 0.280821 0.108538
O O10 0.299385 0.288859 0.075580
O O11 0.375504 0.000000 0.040005
O O12 0.144572 0.500000 0.613624
O O13 0.250000 0.750000 0.500000
O O14 0.139605 0.781262 0.708501
O O15 0.112219 0.808577 0.583721
O O16 0.835963 0.500000 0.234392
O O17 0.484058 0.500000 0.405182
O O18 0.281127 0.500000 0.868545
#
# Coordination Sequence:
#
# PCOD9190715 Si02
#       7
#     8   8   8   8   8   8   8
#     4  10  20  32  47  73 106 134 165 207 252 293
#     4   8  13  26  48  72  98 125 161 206 245 288
#     4   9  17  32  54  73  94 129 171 208 245 292
#     4  11  20  33  55  79 102 127 162 205 249 299
#     4   8  15  29  51  75  95 121 162 208 244 285
#     4  10  20  33  49  72 105 138 165 200 248 299
#     4   8  15  28  50  76  97 126 170 212 246 287
#
# _framework density 25.196276000000001
#
# number of rings (size 3 to 8) (size 9 to 14) (size 15 to 20)
#    0.000    2.857    1.429    2.571    0.000    1.143 
#    0.000    5.000    0.000    5.143    0.000    2.000 
#    0.000    0.000    0.000    0.000    0.000    0.000 
#
# Total GULP energy -156310.428265 kJ/mol
# GULP energy per Si atom -5582.515295 kJ/mol
# Density = 2.513893 g / cm^3
# Si number density = 25.196276 Si / 1000 Ang^3
#
#
#
# Elastic Constant Matrix: (Units=GPa)
#
#
# Indices 1 2 3 4 5 6 
#
# 1 33.4885 -6.4559 0.6603 0.0014 13.1563 -0.0060
# 2 -6.4559 102.9822 -2.4807 -0.0017 3.4255 0.0040
# 3 0.6603 -2.4807 126.5799 0.0008 32.5370 -0.0012
# 4 0.0014 -0.0017 0.0008 7.3845 -0.0005 5.7299
# 5 13.1563 3.4255 32.5370 -0.0005 45.3944 0.0003
# 6 -0.0060 0.0040 -0.0012 5.7299 0.0003 3.9068
#
#
#
# Elastic Compliance Matrix: (Units=1/GPa)
#
#
# Indices 1 2 3 4 5 6 
#
# 1 0.035302 0.002710 0.003128 0.000350 -0.012678 -0.000461
# 2 0.002710 0.009965 0.000707 -0.000044 -0.002044 0.000059
# 3 0.003128 0.000707 0.009984 0.000058 -0.008116 -0.000077
# 4 0.000350 -0.000044 0.000058 -0.981325 -0.000159 1.439231
# 5 -0.012678 -0.002044 -0.008116 -0.000159 0.031675 0.000211
# 6 -0.000461 0.000059 -0.000077 1.439231 0.000211 -1.854845
#
#
# Mechanical properties :
#
#
# Convention : Reuss Voigt Hill
#
# Bulk Modulus (GPa) = 14.63266 27.38867 21.01067
# Shear Modulus (GPa) = -1.82512 29.42561 13.80025
#
# Velocity S-wave (km/s) = -0.85202 3.42110 2.34286
# Velocity P-wave (km/s) = 2.20276 5.14771 3.95924
#
# Compressibility (1/GPa) = 0.06834026
#
# Stress axis : x y z
#
# Youngs Moduli (GPa) = 28.32679 100.34801 100.16194
#
# Poissons Ratio (x) = -0.27196 -0.31328
# Poissons Ratio (y) = -0.07677 -0.07077
# Poissons Ratio (z) = -0.08860 -0.07090
#
# Static dielectric constant tensor:
#      x y z
#    x 1.945960 -0.000010 -0.026470 
#    y -0.000010 2.012190 0.000000 
#    z -0.026470 0.000000 2.086520 
# 
# From -- ./inp_files/287872.got.cif
#   From: 2010.05.17/outbox.cif.g08.bks.cpg/sg12_144_cif.got.tgz:287872.got - 2010.06.03 13:09:07.
