data_PCOD9190489
_publ_section_title
;
Structure prediction by ZEFSAII (Michael W. Deem and Ramdas Pophale) SiO2 
 PCOD9190489
Probable space group: C 2/M
;
_chemical_formula_sum "Si O2"
_cell_formula_units_Z 48
_cell_length_a 22.250449
_cell_length_b 11.101148
_cell_length_c 9.573274
_cell_angle_alpha 90.000000
_cell_angle_beta 73.757275
_cell_angle_gamma 90.000000
_cell_volume 2270.267417
_symmetry_space_group_name_H-M "C 2/M"
_symmetry_group_IT_number 12
_symmetry_cell_setting 'monoclinic'
loop_
_space_group_symop_operation_xyz
x,y,z
-x,y,-z
-x,-y,-z
x,-y,z
1/2+x,1/2+y,z
1/2-x,1/2+y,-z
1/2-x,1/2-y,-z
1/2+x,1/2-y,z
loop_
_atom_site_type_symbol
_atom_site_label
_atom_site_fract_x
_atom_site_fract_y
_atom_site_fract_z
Si Si1 0.306072 0.000000 0.104907
Si Si2 0.825436 0.246735 0.980512
Si Si3 0.179767 0.245227 0.485828
Si Si4 0.723592 0.500000 0.401307
Si Si5 0.564278 0.642357 0.630023
Si Si6 0.793027 0.000000 0.064728
Si Si7 0.297150 0.000000 0.627777
Si Si8 0.074651 0.143862 0.287729
O O1 0.288958 0.000000 0.278454
O O2 0.338370 0.124360 0.040787
O O3 0.237333 0.000000 0.071548
O O4 0.872122 0.221807 0.821949
O O5 0.750000 0.250000 0.000000
O O6 0.830500 0.122656 0.064738
O O7 0.250000 0.250000 0.500000
O O8 0.187357 0.122160 0.390496
O O9 0.125412 0.217499 0.632613
O O10 0.168434 0.373956 0.422173
O O11 0.739116 0.500000 0.555562
O O12 0.574148 0.500000 0.647377
O O13 0.566228 0.662523 0.459710
O O14 0.495047 0.673385 0.726634
O O15 0.731904 0.000000 0.200981
O O16 0.084877 0.000000 0.258036
#
# Coordination Sequence:
#
# PCOD9190489 Si02
#       8
#     4   8   8   4   8   4   4   8
#     4  10  22  30  49  81 105 149 179 222 284 336
#     4  10  20  31  49  78 113 146 177 222 277 339
#     4  10  20  33  54  81 107 150 186 237 273 322
#     4  10  20  36  53  75 111 149 191 224 270 334
#     4   9  18  31  56  78 113 151 190 233 271 343
#     4  10  20  32  49  79 109 145 175 232 286 318
#     4  10  22  34  49  81 117 139 181 238 284 322
#     4   9  18  33  51  83 113 152 187 223 289 337
#
# _framework density 21.142885
#
# number of rings (size 3 to 8) (size 9 to 14) (size 15 to 20)
#    0.000    2.333    1.667    2.000    9.333    0.000 
#    0.000    0.833    0.000    2.000    0.000   28.000 
#    0.000    0.000    0.000    0.000    0.000    0.000 
#
# Total GULP energy -133676.722998 kJ/mol
# GULP energy per Si atom -5569.863458 kJ/mol
# Density = 2.109476 g / cm^3
# Si number density = 21.142885 Si / 1000 Ang^3
#
#
#
# Elastic Constant Matrix: (Units=GPa)
#
#
# Indices 1 2 3 4 5 6 
#
# 1 73.0169 11.8584 28.2524 0.0000 -30.4592 0.0000
# 2 11.8584 181.0184 29.4969 0.0000 -15.9536 0.0000
# 3 28.2524 29.4969 61.5207 0.0000 -30.0395 0.0000
# 4 0.0000 0.0000 0.0000 30.0927 0.0000 -12.5519
# 5 -30.4592 -15.9536 -30.0395 0.0000 30.7944 0.0000
# 6 0.0000 0.0000 0.0000 -12.5519 0.0000 19.2149
#
#
#
# Elastic Compliance Matrix: (Units=1/GPa)
#
#
# Indices 1 2 3 4 5 6 
#
# 1 0.023387 0.000462 0.000860 0.000000 0.024211 0.000000
# 2 0.000462 0.006007 -0.002577 0.000000 0.001055 0.000000
# 3 0.000860 -0.002577 0.032193 0.000000 0.030919 0.000000
# 4 0.000000 0.000000 0.000000 0.045676 0.000000 0.029837
# 5 0.024211 0.001055 0.030919 0.000000 0.087129 0.000000
# 6 0.000000 0.000000 0.000000 0.029837 0.000000 0.071533
#
#
# Mechanical properties :
#
#
# Convention : Reuss Voigt Hill
#
# Bulk Modulus (GPa) = 16.92723 50.53017 33.72870
# Shear Modulus (GPa) = 17.35340 32.41695 24.88518
#
# Velocity S-wave (km/s) = 2.86801 3.91990 3.43447
# Velocity P-wave (km/s) = 4.35785 6.66624 5.63159
#
# Compressibility (1/GPa) = 0.05907640
#
# Stress axis : x y z
#
# Youngs Moduli (GPa) = 42.75803 166.47380 31.06305
#
# Poissons Ratio (x) = -0.07683 -0.02673
# Poissons Ratio (y) = -0.01973 0.08005
# Poissons Ratio (z) = -0.03679 0.42903
#
# Static dielectric constant tensor:
#      x y z
#    x 1.949420 0.000000 0.021050 
#    y 0.000000 1.840210 0.000000 
#    z 0.021050 0.000000 1.780360 
# 
# From -- ./inp_files/173792.got.cif
#   From: 2010.05.17/outbox.cif.g08.bks.cpg/sg12_87_cif.got.tgz:173792.got - 2010.06.03 13:09:07.
