data_PCOD9190292
_publ_section_title
;
Structure prediction by ZEFSAII (Michael W. Deem and Ramdas Pophale) SiO2 
 PCOD9190292
Probable space group: C 2/M
;
_chemical_formula_sum "Si O2"
_cell_formula_units_Z 52
_cell_length_a 24.130145
_cell_length_b 30.958650
_cell_length_c 8.300742
_cell_angle_alpha 90.000000
_cell_angle_beta 34.407863
_cell_angle_gamma 90.000000
_cell_volume 3504.039368
_symmetry_space_group_name_H-M "C 2/M"
_symmetry_group_IT_number 12
_symmetry_cell_setting 'monoclinic'
loop_
_space_group_symop_operation_xyz
x,y,z
-x,y,-z
-x,-y,-z
x,-y,z
1/2+x,1/2+y,z
1/2-x,1/2+y,-z
1/2-x,1/2-y,-z
1/2+x,1/2-y,z
loop_
_atom_site_type_symbol
_atom_site_label
_atom_site_fract_x
_atom_site_fract_y
_atom_site_fract_z
Si Si1 0.211726 0.291961 0.188152
Si Si2 0.881672 0.870369 0.277553
Si Si3 0.500000 0.411681 0.500000
Si Si4 0.529886 0.261580 0.614834
Si Si5 0.432473 0.548356 0.997830
Si Si6 0.652043 0.351185 0.294854
Si Si7 0.824364 0.783876 0.245488
O O1 0.101175 0.277869 0.491270
O O2 0.278285 0.296142 0.185150
O O3 0.250000 0.250000 0.000000
O O4 0.241851 0.333669 0.012623
O O5 0.863014 0.911301 0.207903
O O6 0.845812 0.877289 0.544537
O O7 0.835414 0.826552 0.324170
O O8 0.000000 0.863979 0.000000
O O9 0.592761 0.379980 0.308870
O O10 0.483633 0.438753 0.704601
O O11 0.500000 0.255728 0.500000
O O12 0.586985 0.307698 0.485329
O O13 0.432301 0.264791 0.954661
O O14 0.391615 0.500000 0.079068
O O15 0.500000 0.547114 0.000000
O O16 0.750000 0.750000 0.500000
#
# Coordination Sequence:
#
# PCOD9190292 Si02
#       7
#     8   8   4   8   8   8   8
#     4  10  20  30  44  64  87 123 170 206 243 290
#     4  11  20  32  48  66  96 131 163 209 245 291
#     4  12  17  30  52  68  94 130 162 206 252 292
#     4  11  19  31  45  62  93 127 165 213 246 285
#     4  10  20  32  45  70  97 128 167 206 248 297
#     4  11  18  31  47  67  88 126 172 198 240 296
#     4  12  22  31  48  70  93 129 171 210 251 293
#
# _framework density 14.840017
#
# number of rings (size 3 to 8) (size 9 to 14) (size 15 to 20)
#    0.000    1.077    8.462    3.000    0.000    0.000 
#    0.000    0.000    0.000    0.000    0.000    0.000 
#    0.000    0.000    0.000   15.231    0.000    1.538 
#
# Total GULP energy -144811.394992 kJ/mol
# GULP energy per Si atom -5569.669038 kJ/mol
# Density = 1.480624 g / cm^3
# Si number density = 14.840017 Si / 1000 Ang^3
#
#
#
# Elastic Constant Matrix: (Units=GPa)
#
#
# Indices 1 2 3 4 5 6 
#
# 1 58.1881 20.1704 11.9311 0.0000 11.1919 0.0000
# 2 20.1704 89.9539 32.1668 0.0000 0.8086 0.0000
# 3 11.9311 32.1668 68.0925 0.0000 2.0650 0.0000
# 4 0.0000 0.0000 0.0000 12.4078 0.0000 3.2082
# 5 11.1919 0.8086 2.0650 0.0000 21.8983 0.0000
# 6 0.0000 0.0000 0.0000 3.2082 0.0000 15.7286
#
#
#
# Elastic Compliance Matrix: (Units=1/GPa)
#
#
# Indices 1 2 3 4 5 6 
#
# 1 0.020891 -0.004085 -0.001416 0.000000 -0.010393 0.000000
# 2 -0.004085 0.014175 -0.006045 0.000000 0.002134 0.000000
# 3 -0.001416 -0.006045 0.017812 0.000000 -0.000733 0.000000
# 4 0.000000 0.000000 0.000000 0.085082 0.000000 -0.017354
# 5 -0.010393 0.002134 -0.000733 0.000000 0.050968 0.000000
# 6 0.000000 0.000000 0.000000 -0.017354 0.000000 0.067118
#
#
# Mechanical properties :
#
#
# Convention : Reuss Voigt Hill
#
# Bulk Modulus (GPa) = 33.57219 38.30789 35.94004
# Shear Modulus (GPa) = 17.29708 20.13801 18.71755
#
# Velocity S-wave (km/s) = 3.41775 3.68775 3.55532
# Velocity P-wave (km/s) = 6.18438 6.63345 6.41285
#
# Compressibility (1/GPa) = 0.02978656
#
# Stress axis : x y z
#
# Youngs Moduli (GPa) = 47.86804 70.54509 56.14184
#
# Poissons Ratio (x) = 0.28815 0.07948
# Poissons Ratio (y) = 0.19553 0.33940
# Poissons Ratio (z) = 0.06777 0.42647
#
# Static dielectric constant tensor:
#      x y z
#    x 1.628510 0.000000 -0.045020 
#    y 0.000000 1.655450 0.000000 
#    z -0.045020 0.000000 1.629110 
# 
# From -- ./inp_files/100163.got.cif
#   From: 2010.05.17/outbox.cif.g08.bks.cpg/sg12_51_cif.got.tgz:100163.got - 2010.06.03 13:09:07.
