data_PCOD9190511
_publ_section_title
;
Structure prediction by ZEFSAII (Michael W. Deem and Ramdas Pophale) SiO2 
 PCOD9190511
Probable space group: C 2/M
;
_chemical_formula_sum "Si O2"
_cell_formula_units_Z 58
_cell_length_a 29.468154
_cell_length_b 7.582635
_cell_length_c 12.025549
_cell_angle_alpha 90.000000
_cell_angle_beta 80.957130
_cell_angle_gamma 90.000000
_cell_volume 2653.666426
_symmetry_space_group_name_H-M "C 2/M"
_symmetry_group_IT_number 12
_symmetry_cell_setting 'monoclinic'
loop_
_space_group_symop_operation_xyz
x,y,z
-x,y,-z
-x,-y,-z
x,-y,z
1/2+x,1/2+y,z
1/2-x,1/2+y,-z
1/2-x,1/2-y,-z
1/2+x,1/2-y,z
loop_
_atom_site_type_symbol
_atom_site_label
_atom_site_fract_x
_atom_site_fract_y
_atom_site_fract_z
Si Si1 0.387076 0.785906 0.356815
Si Si2 0.562403 0.214489 0.193997
Si Si3 0.117236 0.285518 0.390416
Si Si4 0.345870 0.784749 0.970300
Si Si5 0.706518 0.788102 0.224422
Si Si6 0.000000 0.500000 0.000000
Si Si7 0.536472 0.691225 0.851932
Si Si8 0.688211 0.790143 0.779449
O O1 0.391722 0.723300 0.481571
O O2 0.427018 0.725314 0.258973
O O3 0.339439 0.727292 0.317648
O O4 0.388567 0.000000 0.359385
O O5 0.579116 0.255977 0.312325
O O6 0.604970 0.266347 0.099275
O O7 0.514143 0.297755 0.182868
O O8 0.555291 0.000000 0.183923
O O9 0.118705 0.500000 0.392360
O O10 0.166454 0.225639 0.323071
O O11 0.307691 0.728249 0.894202
O O12 0.345689 0.000000 0.971862
O O13 0.334152 0.719945 0.097607
O O14 0.757636 0.741123 0.239524
O O15 0.703790 0.000000 0.224076
O O16 0.035404 0.346448 0.941260
O O17 0.544453 0.500000 0.899248
O O18 0.681448 0.000000 0.784807
#
# Coordination Sequence:
#
# PCOD9190511 Si02
#       8
#     8   8   8   8   8   2   8   8
#     4  10  21  39  58  83 121 163 208 259 313 371
#     4   9  17  36  63  86 116 160 209 257 310 367
#     4   8  17  35  61  85 112 163 213 251 311 378
#     4   8  16  30  53  78 108 152 201 246 310 376
#     4   9  17  33  53  78 108 148 204 260 303 371
#     4  12  26  48  68  88 136 176 190 256 310 366
#     4  12  26  42  66  98 126 163 214 249 304 375
#     4  10  20  31  51  78 112 155 198 250 320 380
#
# _framework density 21.856552000000001
#
# number of rings (size 3 to 8) (size 9 to 14) (size 15 to 20)
#    0.000    2.483    1.379    2.276    1.931    1.655 
#    0.000    7.586    0.000    0.000    0.000    0.000 
#    0.000    0.000    0.000    0.000    0.000    0.000 
#
# Total GULP energy -161833.893499 kJ/mol
# GULP energy per Si atom -5580.479086 kJ/mol
# Density = 2.180681 g / cm^3
# Si number density = 21.856552 Si / 1000 Ang^3
#
#
#
# Elastic Constant Matrix: (Units=GPa)
#
#
# Indices 1 2 3 4 5 6 
#
# 1 105.5022 5.4321 20.0262 0.0000 17.8386 0.0000
# 2 5.4321 83.7758 27.3418 0.0000 6.8773 0.0000
# 3 20.0262 27.3418 99.9287 0.0000 6.9647 0.0000
# 4 0.0000 0.0000 0.0000 -22.2451 0.0000 2.9455
# 5 17.8386 6.8773 6.9647 0.0000 16.7302 0.0000
# 6 0.0000 0.0000 0.0000 2.9455 0.0000 22.0476
#
#
#
# Elastic Compliance Matrix: (Units=1/GPa)
#
#
# Indices 1 2 3 4 5 6 
#
# 1 0.011834 0.000804 -0.001740 0.000000 -0.012225 0.000000
# 2 0.000804 0.013428 -0.003492 0.000000 -0.004923 0.000000
# 3 -0.001740 -0.003492 0.011413 0.000000 -0.001461 0.000000
# 4 0.000000 0.000000 0.000000 -0.044172 0.000000 0.005901
# 5 -0.012225 -0.004923 -0.001461 0.000000 0.075439 0.000000
# 6 0.000000 0.000000 0.000000 0.005901 0.000000 0.044568
#
#
# Mechanical properties :
#
#
# Convention : Reuss Voigt Hill
#
# Bulk Modulus (GPa) = 35.94524 43.86744 39.90634
# Shear Modulus (GPa) = 38.27334 19.06697 28.67015
#
# Velocity S-wave (km/s) = 4.18917 2.95679 3.62573
# Velocity P-wave (km/s) = 6.31511 5.63658 5.98547
#
# Compressibility (1/GPa) = 0.02782009
#
# Stress axis : x y z
#
# Youngs Moduli (GPa) = 84.50052 74.46907 87.61880
#
# Poissons Ratio (x) = -0.05987 0.15242
# Poissons Ratio (y) = -0.06793 0.30598
# Poissons Ratio (z) = 0.14700 0.26006
#
# Static dielectric constant tensor:
#      x y z
#    x 1.798460 0.000000 0.059260 
#    y 0.000000 1.841600 0.000000 
#    z 0.059260 0.000000 1.818530 
# 
# From -- ./inp_files/186520.got.cif
#   From: 2010.05.17/outbox.cif.g08.bks.cpg/sg12_94_cif.got.tgz:186520.got - 2010.06.03 13:09:07.
