data_PCOD9190539
_publ_section_title
;
Structure prediction by ZEFSAII (Michael W. Deem and Ramdas Pophale) SiO2 
 PCOD9190539
Probable space group: C 2/M
;
_chemical_formula_sum "Si O2"
_cell_formula_units_Z 48
_cell_length_a 27.551186
_cell_length_b 23.852476
_cell_length_c 11.749870
_cell_angle_alpha 90.000000
_cell_angle_beta 162.928033
_cell_angle_gamma 90.000000
_cell_volume 2266.848116
_symmetry_space_group_name_H-M "C 2/M"
_symmetry_group_IT_number 12
_symmetry_cell_setting 'monoclinic'
loop_
_space_group_symop_operation_xyz
x,y,z
-x,y,-z
-x,-y,-z
x,-y,z
1/2+x,1/2+y,z
1/2-x,1/2+y,-z
1/2-x,1/2-y,-z
1/2+x,1/2-y,z
loop_
_atom_site_type_symbol
_atom_site_label
_atom_site_fract_x
_atom_site_fract_y
_atom_site_fract_z
Si Si1 0.222687 0.671464 0.119333
Si Si2 0.801816 0.810656 0.062819
Si Si3 0.952563 0.751974 0.113859
Si Si4 0.669713 0.829829 0.510405
Si Si5 0.198505 0.936669 0.304980
Si Si6 0.192242 0.063829 0.563446
O O1 0.226958 0.652975 0.997830
O O2 0.395690 0.704763 0.531863
O O3 0.210558 0.615274 0.164742
O O4 0.091805 0.717923 0.869346
O O5 0.000000 0.816108 0.500000
O O6 0.750000 0.750000 0.000000
O O7 0.730843 0.825922 0.780109
O O8 0.997589 0.702633 0.128096
O O9 0.798600 0.789490 0.735235
O O10 0.689586 0.891114 0.506235
O O11 0.209366 0.932391 0.465666
O O12 0.242783 0.000000 0.370941
O O13 0.002384 0.928165 0.840773
O O14 0.237834 0.000000 0.698708
#
# Coordination Sequence:
#
# PCOD9190539 Si02
#       6
#     8   8   8   8   8   8
#     4  11  19  34  50  80 105 136 173 207 253 308
#     4  12  18  28  51  75 108 138 165 203 252 307
#     4  10  20  31  53  74 110 138 165 209 260 300
#     4  11  19  34  50  80 105 136 173 207 253 308
#     4   9  18  35  57  75  98 136 176 213 252 301
#     4   9  18  35  57  75  98 136 176 213 252 301
#
# _framework density 21.174776000000001
#
# number of rings (size 3 to 8) (size 9 to 14) (size 15 to 20)
#    0.000    1.667    6.667    1.000    0.000    0.000 
#    0.000    7.500    0.000    5.000    0.000    2.333 
#    0.000    0.000    0.000    0.000    0.000    0.000 
#
# Total GULP energy -133963.394910 kJ/mol
# GULP energy per Si atom -5581.808121 kJ/mol
# Density = 2.112658 g / cm^3
# Si number density = 21.174776 Si / 1000 Ang^3
#
#
#
# Elastic Constant Matrix: (Units=GPa)
#
#
# Indices 1 2 3 4 5 6 
#
# 1 66.9629 49.6928 16.4388 0.0000 10.5050 0.0000
# 2 49.6928 146.7691 16.2147 0.0000 1.9143 0.0000
# 3 16.4388 16.2147 41.2362 0.0000 7.1510 0.0000
# 4 0.0000 0.0000 0.0000 93.6950 0.0000 111.6436
# 5 10.5050 1.9143 7.1510 0.0000 28.0128 0.0000
# 6 0.0000 0.0000 0.0000 111.6436 0.0000 200.6192
#
#
#
# Elastic Compliance Matrix: (Units=1/GPa)
#
#
# Indices 1 2 3 4 5 6 
#
# 1 0.022347 -0.006923 -0.005038 0.000000 -0.006621 0.000000
# 2 -0.006923 0.009269 -0.001282 0.000000 0.002290 0.000000
# 3 -0.005038 -0.001282 0.027644 0.000000 -0.005080 0.000000
# 4 0.000000 0.000000 0.000000 0.031680 0.000000 -0.017630
# 5 -0.006621 0.002290 -0.005080 0.000000 0.039321 0.000000
# 6 0.000000 0.000000 0.000000 -0.017630 0.000000 0.014795
#
#
# Mechanical properties :
#
#
# Convention : Reuss Voigt Hill
#
# Bulk Modulus (GPa) = 30.51246 46.62899 38.57072
# Shear Modulus (GPa) = 27.40218 75.97354 51.68786
#
# Velocity S-wave (km/s) = 3.60126 5.99643 4.94602
# Velocity P-wave (km/s) = 5.63322 8.36730 7.13249
#
# Compressibility (1/GPa) = 0.03277350
#
# Stress axis : x y z
#
# Youngs Moduli (GPa) = 44.74920 107.88395 36.17423
#
# Poissons Ratio (x) = 0.74690 0.18225
# Poissons Ratio (y) = 0.30981 0.04638
# Poissons Ratio (z) = 0.22545 0.13831
#
# Static dielectric constant tensor:
#      x y z
#    x 1.860070 0.000000 -0.015960 
#    y 0.000000 1.757080 0.000000 
#    z -0.015960 0.000000 1.847020 
# 
# From -- ./inp_files/121950.got.cif
#   From: 2010.05.17/outbox.cif.g08.bks.cpg/sg12_61_cif.got.tgz:121950.got - 2010.06.03 13:09:07.
