data_PCOD9190307
_publ_section_title
;
Structure prediction by ZEFSAII (Michael W. Deem and Ramdas Pophale) SiO2 
 PCOD9190307
Probable space group: C 2/M
;
_chemical_formula_sum "Si O2"
_cell_formula_units_Z 52
_cell_length_a 25.944074
_cell_length_b 15.654212
_cell_length_c 5.468542
_cell_angle_alpha 90.000000
_cell_angle_beta 70.781631
_cell_angle_gamma 90.000000
_cell_volume 2097.188838
_symmetry_space_group_name_H-M "C 2/M"
_symmetry_group_IT_number 12
_symmetry_cell_setting 'monoclinic'
loop_
_space_group_symop_operation_xyz
x,y,z
-x,y,-z
-x,-y,-z
x,-y,z
1/2+x,1/2+y,z
1/2-x,1/2+y,-z
1/2-x,1/2-y,-z
1/2+x,1/2-y,z
loop_
_atom_site_type_symbol
_atom_site_label
_atom_site_fract_x
_atom_site_fract_y
_atom_site_fract_z
Si Si1 0.000000 0.273463 0.500000
Si Si2 0.239190 0.652268 0.318032
Si Si3 0.098627 0.139485 0.318367
Si Si4 0.562794 0.902433 0.203634
Si Si5 0.776236 0.843553 0.760700
Si Si6 0.387176 0.835974 0.355182
Si Si7 0.934520 0.145265 0.140245
O O1 0.051768 0.212821 0.388793
O O2 0.010481 0.339944 0.264051
O O3 0.253462 0.752157 0.240181
O O4 0.272966 0.616392 0.494915
O O5 0.177127 0.656500 0.500689
O O6 0.248238 0.611413 0.036878
O O7 0.160777 0.168398 0.259516
O O8 0.080018 0.093511 0.593234
O O9 0.091828 0.104416 0.058491
O O10 0.590626 0.870950 0.415643
O O11 0.452985 0.000000 0.748956
O O12 0.597994 0.890856 0.906230
O O13 0.406769 0.739663 0.237215
O O14 0.000000 0.152595 0.000000
#
# Coordination Sequence:
#
# PCOD9190307 Si02
#       7
#     4   8   8   8   8   8   8
#     4  12  21  38  52  68  96 136 168 200 273 292
#     4  10  20  32  49  68  94 116 148 192 260 315
#     4  12  20  32  50  68  94 124 161 200 247 300
#     4  12  25  37  52  72  93 121 174 225 255 302
#     4  10  20  30  46  75  93 112 150 203 241 295
#     4  12  21  38  53  66  90 128 153 204 272 310
#     4  12  19  32  46  68  85 124 161 196 238 302
#
# _framework density 24.795096000000001
#
# number of rings (size 3 to 8) (size 9 to 14) (size 15 to 20)
#    0.000    0.615    6.154    2.538    4.308    0.000 
#    0.000    1.538    0.000    0.000    0.000    0.000 
#    0.000    0.000    0.000    0.000    0.000    0.000 
#
# Total GULP energy -144925.627189 kJ/mol
# GULP energy per Si atom -5574.062584 kJ/mol
# Density = 2.473866 g / cm^3
# Si number density = 24.795096 Si / 1000 Ang^3
#
#
#
# Elastic Constant Matrix: (Units=GPa)
#
#
# Indices 1 2 3 4 5 6 
#
# 1 134.5365 6.0060 75.3227 0.0000 9.3444 0.0000
# 2 6.0060 88.2613 22.1892 0.0000 0.3740 0.0000
# 3 75.3227 22.1892 267.7969 0.0000 29.1547 0.0000
# 4 0.0000 0.0000 0.0000 -16.4851 0.0000 -0.4986
# 5 9.3444 0.3740 29.1547 0.0000 65.3629 0.0000
# 6 0.0000 0.0000 0.0000 -0.4986 0.0000 -8.3637
#
#
#
# Elastic Compliance Matrix: (Units=1/GPa)
#
#
# Indices 1 2 3 4 5 6 
#
# 1 0.008824 0.000020 -0.002466 0.000000 -0.000162 0.000000
# 2 0.000020 0.011580 -0.001007 0.000000 0.000380 0.000000
# 3 -0.002466 -0.001007 0.004700 0.000000 -0.001738 0.000000
# 4 0.000000 0.000000 0.000000 -0.060770 0.000000 0.003622
# 5 -0.000162 0.000380 -0.001738 0.000000 0.016096 0.000000
# 6 0.000000 0.000000 0.000000 0.003622 0.000000 -0.119780
#
#
# Mechanical properties :
#
#
# Convention : Reuss Voigt Hill
#
# Bulk Modulus (GPa) = 54.94580 77.51450 66.23015
# Shear Modulus (GPa) = -39.56324 33.90794 -2.82765
#
# Velocity S-wave (km/s) = -3.99884 3.70202 -1.06906
# Velocity P-wave (km/s) = 0.94186 7.04295 5.02445
#
# Compressibility (1/GPa) = 0.01819975
#
# Stress axis : x y z
#
# Youngs Moduli (GPa) = 113.32915 86.35535 212.74745
#
# Poissons Ratio (x) = -0.00174 0.52462
# Poissons Ratio (y) = -0.00229 0.21414
# Poissons Ratio (z) = 0.27946 0.08692
#
# Static dielectric constant tensor:
#      x y z
#    x 2.153500 0.000000 0.128680 
#    y 0.000000 1.968000 0.000000 
#    z 0.128680 0.000000 2.156820 
# 
# From -- ./inp_files/29416.got.cif
#   From: 2010.05.17/outbox.cif.g08.bks.cpg/sg12_15_cif.got.tgz:29416.got - 2010.06.03 13:09:07.
