data_PCOD9190675
_publ_section_title
;
Structure prediction by ZEFSAII (Michael W. Deem and Ramdas Pophale) SiO2 
 PCOD9190675
Probable space group: C 2/M
;
_chemical_formula_sum "Si O2"
_cell_formula_units_Z 56
_cell_length_a 13.577507
_cell_length_b 12.959773
_cell_length_c 22.288837
_cell_angle_alpha 90.000000
_cell_angle_beta 121.102890
_cell_angle_gamma 90.000000
_cell_volume 3358.156045
_symmetry_space_group_name_H-M "C 2/M"
_symmetry_group_IT_number 12
_symmetry_cell_setting 'monoclinic'
loop_
_space_group_symop_operation_xyz
x,y,z
-x,y,-z
-x,-y,-z
x,-y,z
1/2+x,1/2+y,z
1/2-x,1/2+y,-z
1/2-x,1/2-y,-z
1/2+x,1/2-y,z
loop_
_atom_site_type_symbol
_atom_site_label
_atom_site_fract_x
_atom_site_fract_y
_atom_site_fract_z
Si Si1 0.907529 0.306112 0.422579
Si Si2 0.337056 0.382123 0.686362
Si Si3 0.365634 0.265063 0.951201
Si Si4 0.588844 0.245111 0.390917
Si Si5 0.097273 0.877354 0.160210
Si Si6 0.683612 0.621591 0.530508
Si Si7 0.165686 0.878732 0.935064
O O1 0.790766 0.369171 0.380904
O O2 0.874920 0.191749 0.436545
O O3 0.000000 0.347706 0.500000
O O4 0.969876 0.295924 0.378930
O O5 0.376895 0.500000 0.691267
O O6 0.412517 0.300569 0.673222
O O7 0.337356 0.358478 0.757034
O O8 0.357623 0.315156 0.882937
O O9 0.269435 0.179320 0.934443
O O10 0.500000 0.230969 0.000000
O O11 0.341313 0.347202 0.996860
O O12 0.634617 0.331155 0.453072
O O13 0.682694 0.153914 0.423542
O O14 0.962346 0.851426 0.128553
O O15 0.102184 0.000000 0.148189
O O16 0.665014 0.500000 0.529571
O O17 0.181863 0.000000 0.934268
#
# Coordination Sequence:
#
# PCOD9190675 Si02
#       7
#     8   8   8   8   8   8   8
#     4   9  19  32  46  68  92 117 153 196 242 285
#     4  10  20  32  47  68  92 121 158 195 232 276
#     4   9  17  30  50  74  99 126 152 186 228 267
#     4   9  18  30  45  66  89 114 148 190 233 277
#     4   9  18  32  48  67  94 127 159 190 226 272
#     4   9  17  30  47  66  88 114 146 187 236 287
#     4   9  17  30  50  75  98 123 157 190 224 267
#
# _framework density 16.675819000000001
#
# number of rings (size 3 to 8) (size 9 to 14) (size 15 to 20)
#    0.000    2.857    0.000    1.714    0.000    7.143 
#    0.000    0.000    0.000    3.429    0.000    0.000 
#    0.000    0.000    0.000    0.000    0.000    0.000 
#
# Total GULP energy -155953.073064 kJ/mol
# GULP energy per Si atom -5569.752609 kJ/mol
# Density = 1.663786 g / cm^3
# Si number density = 16.675819 Si / 1000 Ang^3
#
#
#
# Elastic Constant Matrix: (Units=GPa)
#
#
# Indices 1 2 3 4 5 6 
#
# 1 90.7805 8.9614 16.1165 0.0000 -14.2618 0.0000
# 2 8.9614 34.5468 14.3819 0.0000 -0.0700 0.0000
# 3 16.1165 14.3819 60.8141 0.0000 -5.4727 0.0000
# 4 0.0000 0.0000 0.0000 16.9144 0.0000 -1.0910
# 5 -14.2618 -0.0700 -5.4727 0.0000 16.4437 0.0000
# 6 0.0000 0.0000 0.0000 -1.0910 0.0000 10.8733
#
#
#
# Elastic Compliance Matrix: (Units=1/GPa)
#
#
# Indices 1 2 3 4 5 6 
#
# 1 0.013332 -0.002633 -0.001929 0.000000 0.010910 0.000000
# 2 -0.002633 0.032725 -0.007457 0.000000 -0.004627 0.000000
# 3 -0.001929 -0.007457 0.019138 0.000000 0.004665 0.000000
# 4 0.000000 0.000000 0.000000 0.059506 0.000000 0.005971
# 5 0.010910 -0.004627 0.004665 0.000000 0.071808 0.000000
# 6 0.000000 0.000000 0.000000 0.005971 0.000000 0.092567
#
#
# Mechanical properties :
#
#
# Convention : Reuss Voigt Hill
#
# Bulk Modulus (GPa) = 24.29798 29.45123 26.87461
# Shear Modulus (GPa) = 15.29829 18.62506 16.96167
#
# Velocity S-wave (km/s) = 3.03214 3.34562 3.19273
# Velocity P-wave (km/s) = 5.18275 5.71171 5.45364
#
# Compressibility (1/GPa) = 0.04115568
#
# Stress axis : x y z
#
# Youngs Moduli (GPa) = 75.00830 30.55809 52.25188
#
# Poissons Ratio (x) = 0.08047 0.10077
# Poissons Ratio (y) = 0.19752 0.38967
# Poissons Ratio (z) = 0.14466 0.22789
#
# Static dielectric constant tensor:
#      x y z
#    x 1.585660 0.000000 0.006140 
#    y 0.000000 1.539430 0.000000 
#    z 0.006140 0.000000 1.570900 
# 
# From -- ./inp_files/309505.got.cif
#   From: 2010.05.17/outbox.cif.g08.bks.cpg/sg12_155_cif.got.tgz:309505.got - 2010.06.03 13:09:07.
