data_PCOD9190486
_publ_section_title
;
Structure prediction by ZEFSAII (Michael W. Deem and Ramdas Pophale) SiO2 
 PCOD9190486
Probable space group: C 2/M
;
_chemical_formula_sum "Si O2"
_cell_formula_units_Z 64
_cell_length_a 24.731752
_cell_length_b 7.405772
_cell_length_c 21.822126
_cell_angle_alpha 90.000000
_cell_angle_beta 137.718401
_cell_angle_gamma 90.000000
_cell_volume 2689.007947
_symmetry_space_group_name_H-M "C 2/M"
_symmetry_group_IT_number 12
_symmetry_cell_setting 'monoclinic'
loop_
_space_group_symop_operation_xyz
x,y,z
-x,y,-z
-x,-y,-z
x,-y,z
1/2+x,1/2+y,z
1/2-x,1/2+y,-z
1/2-x,1/2-y,-z
1/2+x,1/2-y,z
loop_
_atom_site_type_symbol
_atom_site_label
_atom_site_fract_x
_atom_site_fract_y
_atom_site_fract_z
Si Si1 0.888759 0.714966 0.867470
Si Si2 0.540702 0.780131 0.597864
Si Si3 0.862159 0.718714 0.632427
Si Si4 0.050246 0.279191 0.947728
Si Si5 0.797558 0.705812 0.448259
Si Si6 0.796264 0.284024 0.315409
Si Si7 0.155274 0.715864 0.920269
Si Si8 0.473915 0.219840 0.278881
O O1 0.898402 0.500000 0.876674
O O2 0.795869 0.748494 0.776445
O O3 0.956554 0.778127 0.875717
O O4 0.911323 0.777143 0.954894
O O5 0.500000 0.720702 0.500000
O O6 0.634777 0.727758 0.673500
O O7 0.508944 0.718993 0.637366
O O8 0.534145 0.000000 0.592204
O O9 0.856410 0.500000 0.631949
O O10 0.829133 0.783152 0.538297
O O11 0.799338 0.792667 0.628396
O O12 0.954919 0.769126 0.708383
O O13 0.050975 0.500000 0.945332
O O14 0.104964 0.216485 0.937084
O O15 0.827920 0.500000 0.474042
O O16 0.818777 0.789850 0.401480
O O17 0.803156 0.500000 0.325746
O O18 0.146580 0.500000 0.913623
O O19 0.109832 0.779507 0.820707
O O20 0.250000 0.750000 0.000000
O O21 0.474395 0.000000 0.282076
#
# Coordination Sequence:
#
# PCOD9190486 Si02
#       8
#     8   8   8   8   8   8   8   8
#     4   9  18  34  56  76  96 131 173 209 250 305
#     4   9  17  31  51  74 103 138 172 208 253 302
#     4   9  17  31  52  74  97 131 171 205 240 294
#     4   8  17  35  55  74 100 133 169 209 253 300
#     4   9  18  31  46  72 108 134 156 198 256 303
#     4  10  20  31  49  77 106 131 162 210 259 300
#     4  10  21  36  54  77 106 135 169 213 257 302
#     4   9  18  31  51  76  98 129 175 214 243 292
#
# _framework density 23.800598999999998
#
# number of rings (size 3 to 8) (size 9 to 14) (size 15 to 20)
#    0.000    2.875    0.000    1.500    3.500    3.500 
#    0.000    2.500    0.000    1.125    0.000    0.000 
#    0.000    0.000    0.000    0.000    0.000    0.000 
#
# Total GULP energy -178601.090388 kJ/mol
# GULP energy per Si atom -5581.284075 kJ/mol
# Density = 2.374643 g / cm^3
# Si number density = 23.800599 Si / 1000 Ang^3
#
#
#
# Elastic Constant Matrix: (Units=GPa)
#
#
# Indices 1 2 3 4 5 6 
#
# 1 133.6571 -1.0696 35.5888 0.0000 7.4161 0.0000
# 2 -1.0696 76.1899 -4.8672 0.0001 -4.0803 0.0003
# 3 35.5888 -4.8672 90.8739 0.0000 19.0966 0.0000
# 4 0.0000 0.0001 0.0000 15.8856 0.0000 11.1397
# 5 7.4161 -4.0803 19.0966 0.0000 35.8397 0.0000
# 6 0.0000 0.0003 0.0000 11.1397 0.0000 6.6175
#
#
#
# Elastic Compliance Matrix: (Units=1/GPa)
#
#
# Indices 1 2 3 4 5 6 
#
# 1 0.008354 -0.000092 -0.003278 0.000000 0.000008 0.000000
# 2 -0.000092 0.013222 0.000477 -0.000002 0.001270 0.000003
# 3 -0.003278 0.000477 0.013693 0.000000 -0.006563 0.000000
# 4 0.000000 -0.000002 0.000000 -0.348820 0.000000 0.587196
# 5 0.000008 0.001270 -0.006563 0.000000 0.031542 0.000000
# 6 0.000000 0.000003 0.000000 0.587196 0.000000 -0.837358
#
#
# Mechanical properties :
#
#
# Convention : Reuss Voigt Hill
#
# Bulk Modulus (GPa) = 33.91709 40.00276 36.95992
# Shear Modulus (GPa) = -4.53000 29.73981 12.60491
#
# Velocity S-wave (km/s) = -1.38110 3.53872 2.30381
# Velocity P-wave (km/s) = 3.42611 5.79143 4.75809
#
# Compressibility (1/GPa) = 0.02948366
#
# Stress axis : x y z
#
# Youngs Moduli (GPa) = 119.71026 75.62969 73.03096
#
# Poissons Ratio (x) = 0.00694 0.23939
# Poissons Ratio (y) = 0.01098 -0.03485
# Poissons Ratio (z) = 0.39241 -0.03609
#
# Static dielectric constant tensor:
#      x y z
#    x 1.894990 0.000000 0.017040 
#    y 0.000000 1.990460 0.000000 
#    z 0.017040 0.000000 1.913070 
# 
# From -- ./inp_files/324990.got.cif
#   From: 2010.05.17/outbox.cif.g08.bks.cpg/sg12_163_cif.got.tgz:324990.got - 2010.06.03 13:09:07.
