data_PCOD9190386
_publ_section_title
;
Structure prediction by ZEFSAII (Michael W. Deem and Ramdas Pophale) SiO2 
 PCOD9190386
Probable space group: C 2/M
;
_chemical_formula_sum "Si O2"
_cell_formula_units_Z 56
_cell_length_a 24.144864
_cell_length_b 7.599624
_cell_length_c 15.573070
_cell_angle_alpha 90.000000
_cell_angle_beta 90.910373
_cell_angle_gamma 90.000000
_cell_volume 2857.171316
_symmetry_space_group_name_H-M "C 2/M"
_symmetry_group_IT_number 12
_symmetry_cell_setting 'monoclinic'
loop_
_space_group_symop_operation_xyz
x,y,z
-x,y,-z
-x,-y,-z
x,-y,z
1/2+x,1/2+y,z
1/2-x,1/2+y,-z
1/2-x,1/2-y,-z
1/2+x,1/2-y,z
loop_
_atom_site_type_symbol
_atom_site_label
_atom_site_fract_x
_atom_site_fract_y
_atom_site_fract_z
Si Si1 0.601772 0.709071 0.726017
Si Si2 0.327458 0.710012 0.832443
Si Si3 0.702623 0.210973 0.828897
Si Si4 0.977495 0.300584 0.121789
Si Si5 0.123011 0.287103 0.980796
Si Si6 0.568013 0.704846 0.255232
Si Si7 0.988058 0.785040 0.403858
O O1 0.592905 0.500000 0.737019
O O2 0.665709 0.748281 0.744444
O O3 0.567734 0.800867 0.801790
O O4 0.572027 0.761138 0.636979
O O5 0.323894 0.500000 0.817957
O O6 0.265011 0.780489 0.827643
O O7 0.372459 0.783261 0.766453
O O8 0.353558 0.736907 0.926864
O O9 0.666805 0.276469 0.909656
O O10 0.705500 0.000000 0.838208
O O11 0.994275 0.500000 0.101756
O O12 0.939550 0.225430 0.043956
O O13 0.029888 0.213223 0.168543
O O14 0.120381 0.500000 0.975855
O O15 0.576130 0.500000 0.275517
O O16 0.532802 0.777840 0.334106
O O17 0.000000 0.722914 0.500000
O O18 0.990313 0.000000 0.405501
#
# Coordination Sequence:
#
# PCOD9190386 Si02
#       7
#     8   8   8   8   8   8   8
#     4   9  16  27  47  72  91 112 147 185 219 259
#     4  10  20  31  44  63  89 121 154 190 225 257
#     4   9  18  32  46  62  89 123 155 185 221 260
#     4   9  17  30  46  64  90 121 149 182 226 269
#     4   9  18  30  44  63  85 115 157 194 222 259
#     4   9  18  31  46  67  91 116 150 184 220 268
#     4   8  14  27  49  73  92 109 136 179 224 266
#
# _framework density 19.599803999999999
#
# number of rings (size 3 to 8) (size 9 to 14) (size 15 to 20)
#    0.000    3.000    0.000    3.000    0.000    4.571 
#    0.000    2.857    0.000   11.571    0.000    0.000 
#    0.000    0.000    0.000    0.000    0.000    0.571 
#
# Total GULP energy -156065.911873 kJ/mol
# GULP energy per Si atom -5573.782567 kJ/mol
# Density = 1.955519 g / cm^3
# Si number density = 19.599804 Si / 1000 Ang^3
#
#
#
# Elastic Constant Matrix: (Units=GPa)
#
#
# Indices 1 2 3 4 5 6 
#
# 1 146.3875 -1.1891 65.4459 0.0000 5.2011 0.0000
# 2 -1.1891 42.4193 -6.1706 0.0000 -5.7894 0.0000
# 3 65.4459 -6.1706 115.1632 0.0000 12.5637 0.0000
# 4 0.0000 0.0000 0.0000 -11.9133 0.0000 0.0456
# 5 5.2011 -5.7894 12.5637 0.0000 17.3783 0.0000
# 6 0.0000 0.0000 0.0000 0.0456 0.0000 9.5131
#
#
#
# Elastic Compliance Matrix: (Units=1/GPa)
#
#
# Indices 1 2 3 4 5 6 
#
# 1 0.009184 -0.000385 -0.005348 0.000000 0.000989 0.000000
# 2 -0.000385 0.024736 0.000687 0.000000 0.007859 0.000000
# 3 -0.005348 0.000687 0.012549 0.000000 -0.007243 0.000000
# 4 0.000000 0.000000 0.000000 -0.083938 0.000000 0.000402
# 5 0.000989 0.007859 -0.007243 0.000000 0.065102 0.000000
# 6 0.000000 0.000000 0.000000 0.000402 0.000000 0.105116
#
#
# Mechanical properties :
#
#
# Convention : Reuss Voigt Hill
#
# Bulk Modulus (GPa) = 27.48991 46.68249 37.08620
# Shear Modulus (GPa) = 32.26520 19.38788 25.82654
#
# Velocity S-wave (km/s) = 4.06174 3.14855 3.63394
# Velocity P-wave (km/s) = 6.00442 6.08994 6.04733
#
# Compressibility (1/GPa) = 0.03637698
#
# Stress axis : x y z
#
# Youngs Moduli (GPa) = 108.88924 40.42703 79.68587
#
# Poissons Ratio (x) = 0.01558 0.42612
# Poissons Ratio (y) = 0.04197 -0.05475
# Poissons Ratio (z) = 0.58229 -0.02777
#
# Static dielectric constant tensor:
#      x y z
#    x 1.735860 0.000000 0.001640 
#    y 0.000000 1.743400 0.000000 
#    z 0.001640 0.000000 1.680940 
# 
# From -- ./inp_files/287068.got.cif
#   From: 2010.05.17/outbox.cif.g08.bks.cpg/sg12_144_cif.got.tgz:287068.got - 2010.06.03 13:09:07.
