data_PCOD9190918
_publ_section_title
;
Structure prediction by ZEFSAII (Michael W. Deem and Ramdas Pophale) SiO2 
 PCOD9190918
Probable space group: C 2/M
;
_chemical_formula_sum "Si O2"
_cell_formula_units_Z 48
_cell_length_a 22.508565
_cell_length_b 7.420508
_cell_length_c 21.817295
_cell_angle_alpha 90.000000
_cell_angle_beta 33.688454
_cell_angle_gamma 90.000000
_cell_volume 2021.260659
_symmetry_space_group_name_H-M "C 2/M"
_symmetry_group_IT_number 12
_symmetry_cell_setting 'monoclinic'
loop_
_space_group_symop_operation_xyz
x,y,z
-x,y,-z
-x,-y,-z
x,-y,z
1/2+x,1/2+y,z
1/2-x,1/2+y,-z
1/2-x,1/2-y,-z
1/2+x,1/2-y,z
loop_
_atom_site_type_symbol
_atom_site_label
_atom_site_fract_x
_atom_site_fract_y
_atom_site_fract_z
Si Si1 0.207173 0.219997 0.166854
Si Si2 0.659309 0.287176 0.627464
Si Si3 0.892496 0.779910 0.624992
Si Si4 0.578315 0.717687 0.163566
Si Si5 0.437609 0.207435 0.965305
Si Si6 0.327503 0.792453 0.243041
O O1 0.120721 0.267597 0.292477
O O2 0.168494 0.281160 0.133292
O O3 0.212451 0.000000 0.160336
O O4 0.325327 0.284961 0.084975
O O5 0.656445 0.500000 0.640391
O O6 0.750000 0.250000 0.500000
O O7 0.539674 0.234431 0.709442
O O8 0.678788 0.205713 0.677707
O O9 0.783011 0.715395 0.687064
O O10 0.000000 0.716295 0.500000
O O11 0.893903 0.000000 0.620051
O O12 0.585490 0.500000 0.153253
O O13 0.580144 0.789928 0.093157
O O14 0.555803 0.287113 0.874722
O O15 0.442419 0.000000 0.981388
O O16 0.330205 0.000000 0.219402
#
# Coordination Sequence:
#
# PCOD9190918 Si02
#       6
#     8   8   8   8   8   8
#     4   9  17  29  47  73 100 130 165 203 246 288
#     4  10  20  32  50  74  99 131 166 204 246 293
#     4   9  18  30  48  72  98 131 171 210 242 286
#     4   9  18  31  49  73 100 128 163 202 242 297
#     4   9  17  30  49  74 104 127 155 205 255 294
#     4   9  18  32  50  73  99 129 164 205 249 292
#
# _framework density 23.747554999999998
#
# number of rings (size 3 to 8) (size 9 to 14) (size 15 to 20)
#    0.000    2.833    0.000    1.000    2.333    1.333 
#    0.000    3.333    0.000    2.500    0.000    4.667 
#    0.000    0.000    0.000    0.000    0.000    0.000 
#
# Total GULP energy -134027.027748 kJ/mol
# GULP energy per Si atom -5584.459489 kJ/mol
# Density = 2.369350 g / cm^3
# Si number density = 23.747555 Si / 1000 Ang^3
#
#
#
# Elastic Constant Matrix: (Units=GPa)
#
#
# Indices 1 2 3 4 5 6 
#
# 1 107.2220 3.7263 37.7415 -0.0048 -21.9031 0.0004
# 2 3.7263 79.5010 4.0057 -0.0065 -5.5603 0.0010
# 3 37.7415 4.0057 165.2284 -0.0089 -11.5162 0.0077
# 4 -0.0048 -0.0065 -0.0089 -3.7655 0.0048 -1.5595
# 5 -21.9031 -5.5603 -11.5162 0.0048 32.0743 -0.0015
# 6 0.0004 0.0010 0.0077 -1.5595 -0.0015 0.7847
#
#
#
# Elastic Compliance Matrix: (Units=1/GPa)
#
#
# Indices 1 2 3 4 5 6 
#
# 1 0.011531 0.000065 -0.002139 -0.000007 0.007118 0.000015
# 2 0.000065 0.012737 -0.000171 -0.000008 0.002191 -0.000026
# 3 -0.002139 -0.000171 0.006607 0.000008 0.000881 -0.000046
# 4 -0.000007 -0.000008 0.000008 -0.145672 0.000004 -0.289496
# 5 0.007118 0.002191 0.000881 0.000004 0.036734 0.000066
# 6 0.000015 -0.000026 -0.000046 -0.289496 0.000066 0.698991
#
#
# Mechanical properties :
#
#
# Convention : Reuss Voigt Hill
#
# Bulk Modulus (GPa) = 37.90109 49.21091 43.55600
# Shear Modulus (GPa) = 7.88378 26.25058 17.06718
#
# Velocity S-wave (km/s) = 1.82402 3.32836 2.68375
# Velocity P-wave (km/s) = 4.52003 5.96139 5.29003
#
# Compressibility (1/GPa) = 0.02638446
#
# Stress axis : x y z
#
# Youngs Moduli (GPa) = 86.72096 78.50979 151.36601
#
# Poissons Ratio (x) = -0.00511 0.32384
# Poissons Ratio (y) = -0.00565 0.02588
# Poissons Ratio (z) = 0.18554 0.01342
#
# Static dielectric constant tensor:
#      x y z
#    x 1.889700 -0.000010 -0.009790 
#    y -0.000010 1.909400 0.000000 
#    z -0.009790 0.000000 1.918910 
# 
# From -- ./inp_files/348744.got.cif
#   From: 2010.05.17/outbox.cif.g08.bks.cpg/sg12_175_cif.got.tgz:348744.got - 2010.06.03 13:09:07.
