data_PCOD9190308
_publ_section_title
;
Structure prediction by ZEFSAII (Michael W. Deem and Ramdas Pophale) SiO2 
 PCOD9190308
Probable space group: C 2/M
;
_chemical_formula_sum "Si O2"
_cell_formula_units_Z 64
_cell_length_a 18.488772
_cell_length_b 16.722492
_cell_length_c 11.789407
_cell_angle_alpha 90.000000
_cell_angle_beta 78.651616
_cell_angle_gamma 90.000000
_cell_volume 3573.764757
_symmetry_space_group_name_H-M "C 2/M"
_symmetry_group_IT_number 12
_symmetry_cell_setting 'monoclinic'
loop_
_space_group_symop_operation_xyz
x,y,z
-x,y,-z
-x,-y,-z
x,-y,z
1/2+x,1/2+y,z
1/2-x,1/2+y,-z
1/2-x,1/2-y,-z
1/2+x,1/2-y,z
loop_
_atom_site_type_symbol
_atom_site_label
_atom_site_fract_x
_atom_site_fract_y
_atom_site_fract_z
Si Si1 0.799841 0.596176 0.262407
Si Si2 0.414291 0.903670 0.046566
Si Si3 0.290128 0.403385 0.229150
Si Si4 0.850055 0.149579 0.815413
Si Si5 0.774304 0.097584 0.490191
Si Si6 0.307733 0.192741 0.913406
Si Si7 0.416730 0.595976 0.032369
Si Si8 0.576878 0.596101 0.429424
O O1 0.794014 0.500000 0.265426
O O2 0.877709 0.616140 0.180301
O O3 0.731448 0.624854 0.204441
O O4 0.784609 0.623899 0.396033
O O5 0.406738 0.000000 0.032701
O O6 0.500000 0.883781 0.000000
O O7 0.362417 0.855403 0.976909
O O8 0.287576 0.500000 0.228874
O O9 0.270023 0.375140 0.361746
O O10 0.235347 0.367716 0.153581
O O11 0.370910 0.378222 0.157575
O O12 0.852122 0.244641 0.823328
O O13 0.906714 0.117653 0.705027
O O14 0.871287 0.117044 0.932830
O O15 0.853361 0.121965 0.517179
O O16 0.772085 0.000000 0.487571
O O17 0.250000 0.250000 0.000000
O O18 0.421251 0.500000 0.035968
O O19 0.500000 0.628348 0.000000
O O20 0.500000 0.627628 0.500000
O O21 0.575387 0.500000 0.436908
#
# Coordination Sequence:
#
# PCOD9190308 Si02
#       8
#     8   8   8   8   8   8   8   8
#     4   9  16  32  57  80 104 135 182 230 272 327
#     4  10  21  38  62  85 105 137 188 242 282 321
#     4  10  20  36  55  76 106 143 186 228 272 329
#     4  11  20  33  52  75 110 147 183 223 273 333
#     4   8  16  30  51  79 103 135 181 226 265 314
#     4  12  22  37  55  81 111 145 182 224 284 340
#     4  10  20  30  46  76 112 145 176 215 268 328
#     4   9  18  32  54  79 109 148 189 228 266 322
#
# _framework density 17.908287000000001
#
# number of rings (size 3 to 8) (size 9 to 14) (size 15 to 20)
#    0.000    2.125    2.500    2.250    1.750    2.500 
#    0.000    2.500    2.750    0.000    0.000    4.375 
#    0.000    0.000    0.000    0.000    0.000    0.000 
#
# Total GULP energy -178311.857165 kJ/mol
# GULP energy per Si atom -5572.245536 kJ/mol
# Density = 1.786753 g / cm^3
# Si number density = 17.908287 Si / 1000 Ang^3
#
#
#
# Elastic Constant Matrix: (Units=GPa)
#
#
# Indices 1 2 3 4 5 6 
#
# 1 97.9879 22.2700 80.1643 0.0000 -21.9000 0.0000
# 2 22.2700 9.3702 19.4416 0.0000 -3.7795 0.0000
# 3 80.1643 19.4416 152.7504 0.0000 -12.2608 0.0000
# 4 0.0000 0.0000 0.0000 -3.9214 0.0000 -9.0253
# 5 -21.9000 -3.7795 -12.2608 0.0000 27.8711 0.0000
# 6 0.0000 0.0000 0.0000 -9.0253 0.0000 9.4839
#
#
#
# Elastic Compliance Matrix: (Units=1/GPa)
#
#
# Indices 1 2 3 4 5 6 
#
# 1 0.033698 -0.054169 -0.009593 0.000000 0.014913 0.000000
# 2 -0.054169 0.236052 -0.002553 0.000000 -0.011677 0.000000
# 3 -0.009593 -0.002553 0.011686 0.000000 -0.002743 0.000000
# 4 0.000000 0.000000 0.000000 -0.079934 0.000000 -0.076069
# 5 0.014913 -0.011677 -0.002743 0.000000 0.044807 0.000000
# 6 0.000000 0.000000 0.000000 -0.076069 0.000000 0.033051
#
#
# Mechanical properties :
#
#
# Convention : Reuss Voigt Hill
#
# Bulk Modulus (GPa) = 6.72023 55.98448 31.35235
# Shear Modulus (GPa) = 10.83208 15.90223 13.36716
#
# Velocity S-wave (km/s) = 2.46207 2.98314 2.73504
# Velocity P-wave (km/s) = 3.44138 6.57230 5.24586
#
# Compressibility (1/GPa) = 0.14880439
#
# Stress axis : x y z
#
# Youngs Moduli (GPa) = 29.67558 4.23636 85.57298
#
# Poissons Ratio (x) = 0.22948 0.82092
# Poissons Ratio (y) = 1.60751 0.21845
# Poissons Ratio (z) = 0.28469 0.01081
#
# Static dielectric constant tensor:
#      x y z
#    x 1.621930 0.000000 -0.035880 
#    y 0.000000 1.575790 0.000000 
#    z -0.035880 0.000000 1.647480 
# 
# From -- ./inp_files/157803.got.cif
#   From: 2010.05.17/outbox.cif.g08.bks.cpg/sg12_79_cif.got.tgz:157803.got - 2010.06.03 13:09:07.
