data_PCOD9190677
_publ_section_title
;
Structure prediction by ZEFSAII (Michael W. Deem and Ramdas Pophale) SiO2 
 PCOD9190677
Probable space group: C 2/M
;
_chemical_formula_sum "Si O2"
_cell_formula_units_Z 36
_cell_length_a 7.017101
_cell_length_b 25.244241
_cell_length_c 7.794161
_cell_angle_alpha 90.000000
_cell_angle_beta 75.824052
_cell_angle_gamma 90.000000
_cell_volume 1338.624720
_symmetry_space_group_name_H-M "C 2/M"
_symmetry_group_IT_number 12
_symmetry_cell_setting 'monoclinic'
loop_
_space_group_symop_operation_xyz
x,y,z
-x,y,-z
-x,-y,-z
x,-y,z
1/2+x,1/2+y,z
1/2-x,1/2+y,-z
1/2-x,1/2-y,-z
1/2+x,1/2-y,z
loop_
_atom_site_type_symbol
_atom_site_label
_atom_site_fract_x
_atom_site_fract_y
_atom_site_fract_z
Si Si1 0.239733 0.169541 0.287288
Si Si2 0.265589 0.675404 0.340668
Si Si3 0.272770 0.557166 0.835025
Si Si4 0.750000 0.250000 0.000000
Si Si5 0.748871 0.441723 0.758693
O O1 0.307423 0.192275 0.454452
O O2 0.288351 0.107825 0.258651
O O3 0.313458 0.202357 0.111372
O O4 0.003289 0.173912 0.313773
O O5 0.237720 0.710511 0.177838
O O6 0.195844 0.614929 0.330085
O O7 0.213408 0.500000 0.777632
O O8 0.510669 0.557766 0.791121
O O9 0.207860 0.560858 0.047198
O O10 0.813073 0.500000 0.680106
#
# Coordination Sequence:
#
# PCOD9190677 Si02
#       5
#     8   8   8   4   8
#     4  10  20  32  47  68  93 124 159 191 226 269
#     4  10  20  32  47  68  93 124 159 191 226 269
#     4   8  13  24  43  65  90 120 148 175 217 274
#     4  12  20  32  46  62  92 130 160 194 228 258
#     4   8  13  24  43  65  90 120 148 175 217 274
#
# _framework density 26.893272
#
# number of rings (size 3 to 8) (size 9 to 14) (size 15 to 20)
#    0.000    2.667    2.222    2.667    0.000    0.889 
#    0.000    4.444    0.000    0.000    0.000    0.000 
#    0.000   14.222    0.000   37.333    0.000    1.778 
#
# Total GULP energy -100254.252980 kJ/mol
# GULP energy per Si atom -5569.680721 kJ/mol
# Density = 2.683206 g / cm^3
# Si number density = 26.893272 Si / 1000 Ang^3
#
#
#
# Elastic Constant Matrix: (Units=GPa)
#
#
# Indices 1 2 3 4 5 6 
#
# 1 115.4302 3.2146 43.8200 0.0000 21.9032 0.0000
# 2 3.2146 194.4065 117.5837 0.0000 23.5286 0.0000
# 3 43.8200 117.5837 255.1742 0.0000 30.7874 0.0000
# 4 0.0000 0.0000 0.0000 33.0761 0.0000 34.2011
# 5 21.9032 23.5286 30.7874 0.0000 31.4736 0.0000
# 6 0.0000 0.0000 0.0000 34.2011 0.0000 -4.9903
#
#
#
# Elastic Compliance Matrix: (Units=1/GPa)
#
#
# Indices 1 2 3 4 5 6 
#
# 1 0.010611 0.001747 -0.001790 0.000000 -0.006939 0.000000
# 2 0.001747 0.007583 -0.003360 0.000000 -0.003598 0.000000
# 3 -0.001790 -0.003360 0.006033 0.000000 -0.002144 0.000000
# 4 0.000000 0.000000 0.000000 0.003739 0.000000 0.025623
# 5 -0.006939 -0.003598 -0.002144 0.000000 0.041389 0.000000
# 6 0.000000 0.000000 0.000000 0.025623 0.000000 -0.024780
#
#
# Mechanical properties :
#
#
# Convention : Reuss Voigt Hill
#
# Bulk Modulus (GPa) = 57.40227 99.36085 78.38156
# Shear Modulus (GPa) = 87.43280 38.60472 63.01876
#
# Velocity S-wave (km/s) = 5.70803 3.79288 4.84601
# Velocity P-wave (km/s) = 8.05189 7.49719 7.77949
#
# Compressibility (1/GPa) = 0.01742091
#
# Stress axis : x y z
#
# Youngs Moduli (GPa) = 94.24303 131.88045 165.74787
#
# Poissons Ratio (x) = -0.23040 0.29668
# Poissons Ratio (y) = -0.16464 0.55692
# Poissons Ratio (z) = 0.16869 0.44312
#
# Static dielectric constant tensor:
#      x y z
#    x 2.289820 0.000000 -0.076420 
#    y 0.000000 2.024470 0.000000 
#    z -0.076420 0.000000 1.957490 
# 
# From -- ./inp_files/49681.got.cif
#   From: 2010.05.17/outbox.cif.g08.bks.cpg/sg12_25_cif.got.tgz:49681.got - 2010.06.03 13:09:07.
