data_PCOD9190596
_publ_section_title
;
Structure prediction by ZEFSAII (Michael W. Deem and Ramdas Pophale) SiO2 
 PCOD9190596
Probable space group: C 2/M
;
_chemical_formula_sum "Si O2"
_cell_formula_units_Z 64
_cell_length_a 22.059976
_cell_length_b 25.640524
_cell_length_c 9.492966
_cell_angle_alpha 90.000000
_cell_angle_beta 47.961175
_cell_angle_gamma 90.000000
_cell_volume 3987.880689
_symmetry_space_group_name_H-M "C 2/M"
_symmetry_group_IT_number 12
_symmetry_cell_setting 'monoclinic'
loop_
_space_group_symop_operation_xyz
x,y,z
-x,y,-z
-x,-y,-z
x,-y,z
1/2+x,1/2+y,z
1/2-x,1/2+y,-z
1/2-x,1/2-y,-z
1/2+x,1/2-y,z
loop_
_atom_site_type_symbol
_atom_site_label
_atom_site_fract_x
_atom_site_fract_y
_atom_site_fract_z
Si Si1 0.751687 0.652819 0.524871
Si Si2 0.086592 0.681285 0.886646
Si Si3 0.602954 0.723345 0.654413
Si Si4 0.537491 0.330361 0.285927
Si Si5 0.805284 0.286410 0.709205
Si Si6 0.148724 0.270101 0.061023
Si Si7 0.369625 0.441328 0.279317
Si Si8 0.459275 0.559670 0.838033
O O1 0.833797 0.654367 0.304379
O O2 0.686539 0.695271 0.569454
O O3 0.774082 0.669633 0.649958
O O4 0.702122 0.599623 0.593384
O O5 0.081550 0.736265 0.810068
O O6 0.098151 0.695616 0.031145
O O7 0.000000 0.653538 0.000000
O O8 0.531042 0.684199 0.724784
O O9 0.622774 0.757190 0.485334
O O10 0.500000 0.326937 0.500000
O O11 0.605189 0.285200 0.163160
O O12 0.564602 0.390066 0.216930
O O13 0.833921 0.300268 0.821117
O O14 0.732241 0.245596 0.852309
O O15 0.338570 0.500000 0.341409
O O16 0.444750 0.435324 0.271505
O O17 0.410576 0.436005 0.061179
O O18 0.446368 0.500000 0.804002
#
# Coordination Sequence:
#
# PCOD9190596 Si02
#       8
#     8   8   8   8   8   8   8   8
#     4  11  19  34  51  71  98 130 168 206 253 298
#     4  11  21  31  49  72 100 132 168 204 243 297
#     4  11  19  32  47  70  97 133 173 202 239 300
#     4  12  22  30  47  70 101 143 170 201 250 292
#     4  10  20  32  45  67  98 132 167 202 245 289
#     4  11  20  31  45  68 101 132 167 204 238 293
#     4   9  18  33  55  76  93 122 166 217 255 293
#     4   9  19  33  50  74  98 125 172 214 246 290
#
# _framework density 16.048625000000001
#
# number of rings (size 3 to 8) (size 9 to 14) (size 15 to 20)
#    0.000    1.500    6.250    2.250    0.000    0.250 
#    0.000    0.000    0.000    0.375    0.000    0.000 
#    0.000    1.000    0.000    0.000    0.000    0.000 
#
# Total GULP energy -178416.084294 kJ/mol
# GULP energy per Si atom -5575.502634 kJ/mol
# Density = 1.601210 g / cm^3
# Si number density = 16.048625 Si / 1000 Ang^3
#
#
#
# Elastic Constant Matrix: (Units=GPa)
#
#
# Indices 1 2 3 4 5 6 
#
# 1 63.5919 12.5356 16.9986 0.0000 3.5531 0.0000
# 2 12.5356 62.5550 20.4050 0.0000 -4.5983 0.0000
# 3 16.9986 20.4050 48.5372 0.0000 -3.6053 0.0000
# 4 0.0000 0.0000 0.0000 13.7388 0.0000 -5.0796
# 5 3.5531 -4.5983 -3.6053 0.0000 29.4419 0.0000
# 6 0.0000 0.0000 0.0000 -5.0796 0.0000 20.8351
#
#
#
# Elastic Compliance Matrix: (Units=1/GPa)
#
#
# Indices 1 2 3 4 5 6 
#
# 1 0.017795 -0.001956 -0.005643 0.000000 -0.003144 0.000000
# 2 -0.001956 0.018854 -0.007069 0.000000 0.002315 0.000000
# 3 -0.005643 -0.007069 0.025754 0.000000 0.002731 0.000000
# 4 0.000000 0.000000 0.000000 0.079997 0.000000 0.019503
# 5 -0.003144 0.002315 0.002731 0.000000 0.035041 0.000000
# 6 0.000000 0.000000 0.000000 0.019503 0.000000 0.052751
#
#
# Mechanical properties :
#
#
# Convention : Reuss Voigt Hill
#
# Bulk Modulus (GPa) = 30.24300 30.50694 30.37497
# Shear Modulus (GPa) = 18.48085 21.11952 19.80018
#
# Velocity S-wave (km/s) = 3.39714 3.63157 3.51631
# Velocity P-wave (km/s) = 5.85431 6.05266 5.95431
#
# Compressibility (1/GPa) = 0.03306551
#
# Stress axis : x y z
#
# Youngs Moduli (GPa) = 56.19535 53.03903 38.82930
#
# Poissons Ratio (x) = 0.10376 0.21912
# Poissons Ratio (y) = 0.10994 0.27449
# Poissons Ratio (z) = 0.31712 0.37494
#
# Static dielectric constant tensor:
#      x y z
#    x 1.571180 0.000000 -0.001910 
#    y 0.000000 1.525210 0.000000 
#    z -0.001910 0.000000 1.543030 
# 
# From -- ./inp_files/91090.got.cif
#   From: 2010.05.17/outbox.cif.g08.bks.cpg/sg12_46_cif.got.tgz:91090.got - 2010.06.03 13:09:07.
