data_PCOD9190233
_publ_section_title
;
Structure prediction by ZEFSAII (Michael W. Deem and Ramdas Pophale) SiO2 
 PCOD9190233
Probable space group: C 2/M
;
_chemical_formula_sum "Si O2"
_cell_formula_units_Z 42
_cell_length_a 18.470561
_cell_length_b 17.063214
_cell_length_c 8.096772
_cell_angle_alpha 90.000000
_cell_angle_beta 124.259125
_cell_angle_gamma 90.000000
_cell_volume 2109.093082
_symmetry_space_group_name_H-M "C 2/M"
_symmetry_group_IT_number 12
_symmetry_cell_setting 'monoclinic'
loop_
_space_group_symop_operation_xyz
x,y,z
-x,y,-z
-x,-y,-z
x,-y,z
1/2+x,1/2+y,z
1/2-x,1/2+y,-z
1/2-x,1/2-y,-z
1/2+x,1/2-y,z
loop_
_atom_site_type_symbol
_atom_site_label
_atom_site_fract_x
_atom_site_fract_y
_atom_site_fract_z
Si Si1 0.121674 0.640623 0.230161
Si Si2 0.464370 0.412708 0.767305
Si Si3 0.274978 0.585896 0.663286
Si Si4 0.055409 0.752472 0.417269
Si Si5 0.500000 0.000000 0.000000
Si Si6 0.247356 0.754929 0.191740
O O1 0.188720 0.601281 0.446164
O O2 0.058902 0.695904 0.262281
O O3 0.073918 0.569815 0.080067
O O4 0.178150 0.695797 0.183704
O O5 0.491587 0.500000 0.742875
O O6 0.359394 0.412004 0.653987
O O7 0.485200 0.336535 0.686334
O O8 0.500000 0.404058 0.000000
O O9 0.272472 0.500000 0.739204
O O10 0.281239 0.657483 0.795997
O O11 0.156540 0.760349 0.606047
O O12 0.000000 0.719875 0.500000
O O13 0.250000 0.750000 0.000000
#
# Coordination Sequence:
#
# PCOD9190233 Si02
#       6
#     8   8   8   8   2   8
#     4  11  23  46  63  95 134 175 225 277 334 396
#     4  10  21  37  64  93 125 167 212 265 330 392
#     4  10  19  42  66  90 130 174 212 269 335 389
#     4  11  24  40  67  97 132 174 217 277 333 398
#     4  12  28  40  78 100 122 180 232 282 338 380
#     4  11  24  43  66  97 131 183 223 267 341 400
#
# _framework density 19.913772000000002
#
# number of rings (size 3 to 8) (size 9 to 14) (size 15 to 20)
#    0.000    1.333    4.762    1.143    6.667    0.381 
#    1.714    0.476    0.000    0.000    0.000    0.000 
#    0.000    0.000    0.000    0.000    0.000    0.000 
#
# Total GULP energy -117002.344650 kJ/mol
# GULP energy per Si atom -5571.540221 kJ/mol
# Density = 1.986845 g / cm^3
# Si number density = 19.913772 Si / 1000 Ang^3
#
#
#
# Elastic Constant Matrix: (Units=GPa)
#
#
# Indices 1 2 3 4 5 6 
#
# 1 91.1755 51.5753 5.0029 0.0000 -13.0148 0.0000
# 2 51.5753 170.5355 39.1770 0.0000 -13.8094 0.0000
# 3 5.0029 39.1770 24.2138 0.0000 -8.3015 0.0000
# 4 0.0000 0.0000 0.0000 5.8797 0.0000 10.2479
# 5 -13.0148 -13.8094 -8.3015 0.0000 29.9703 0.0000
# 6 0.0000 0.0000 0.0000 10.2479 0.0000 10.7961
#
#
#
# Elastic Compliance Matrix: (Units=1/GPa)
#
#
# Indices 1 2 3 4 5 6 
#
# 1 0.014724 -0.005954 0.008665 0.000000 0.006051 0.000000
# 2 -0.005954 0.011741 -0.018560 0.000000 -0.002317 0.000000
# 3 0.008665 -0.018560 0.075020 0.000000 0.015991 0.000000
# 4 0.000000 0.000000 0.000000 -0.259881 0.000000 0.246686
# 5 0.006051 -0.002317 0.015991 0.000000 0.039356 0.000000
# 6 0.000000 0.000000 0.000000 0.246686 0.000000 -0.141534
#
#
# Mechanical properties :
#
#
# Convention : Reuss Voigt Hill
#
# Bulk Modulus (GPa) = 14.32922 53.04836 33.68879
# Shear Modulus (GPa) = -24.31734 22.00718 -1.15508
#
# Velocity S-wave (km/s) = -3.49826 3.32795 -0.76243
# Velocity P-wave (km/s) = 3.01759 6.43924 4.02231
#
# Compressibility (1/GPa) = 0.06978749
#
# Stress axis : x y z
#
# Youngs Moduli (GPa) = 67.91673 85.17436 13.32975
#
# Poissons Ratio (x) = 0.50709 -0.11550
# Poissons Ratio (y) = 0.40435 0.24740
# Poissons Ratio (z) = -0.58850 1.58084
#
# Static dielectric constant tensor:
#      x y z
#    x 1.696800 0.000000 0.030430 
#    y 0.000000 1.720690 0.000000 
#    z 0.030430 0.000000 1.723760 
# 
# From -- ./inp_files/73738.got.cif
#   From: 2010.05.17/outbox.cif.g08.bks.cpg/sg12_37_cif.got.tgz:73738.got - 2010.06.03 13:09:07.
