data_PCOD9190773
_publ_section_title
;
Structure prediction by ZEFSAII (Michael W. Deem and Ramdas Pophale) SiO2 
 PCOD9190773
Probable space group: C 2/M
;
_chemical_formula_sum "Si O2"
_cell_formula_units_Z 56
_cell_length_a 27.835099
_cell_length_b 10.411140
_cell_length_c 13.607236
_cell_angle_alpha 90.000000
_cell_angle_beta 122.548543
_cell_angle_gamma 90.000000
_cell_volume 3323.958071
_symmetry_space_group_name_H-M "C 2/M"
_symmetry_group_IT_number 12
_symmetry_cell_setting 'monoclinic'
loop_
_space_group_symop_operation_xyz
x,y,z
-x,y,-z
-x,-y,-z
x,-y,z
1/2+x,1/2+y,z
1/2-x,1/2+y,-z
1/2-x,1/2-y,-z
1/2+x,1/2-y,z
loop_
_atom_site_type_symbol
_atom_site_label
_atom_site_fract_x
_atom_site_fract_y
_atom_site_fract_z
Si Si1 0.445159 0.153627 0.162204
Si Si2 0.134676 0.351332 0.101487
Si Si3 0.540504 0.272641 0.129439
Si Si4 0.717773 0.647670 0.286785
Si Si5 0.647266 0.848786 0.550222
Si Si6 0.636805 0.640779 0.373865
Si Si7 0.442266 0.155737 0.382779
O O1 0.498762 0.211687 0.163799
O O2 0.439520 0.201420 0.267442
O O3 0.452753 0.000000 0.172676
O O4 0.389971 0.178000 0.033741
O O5 0.152360 0.500000 0.126833
O O6 0.080784 0.328440 0.115478
O O7 0.183461 0.252398 0.186543
O O8 0.585581 0.357116 0.238411
O O9 0.500000 0.332129 0.000000
O O10 0.705054 0.500000 0.241993
O O11 0.785324 0.665908 0.358395
O O12 0.693639 0.659652 0.371221
O O13 0.629841 0.756002 0.442235
O O14 0.611193 0.813265 0.607047
O O15 0.636048 0.000000 0.515236
O O16 0.639101 0.500000 0.424153
O O17 0.500000 0.199466 0.500000
O O18 0.444439 0.000000 0.380743
#
# Coordination Sequence:
#
# PCOD9190773 Si02
#       7
#     8   8   8   8   8   8   8
#     4   9  16  28  47  73 101 125 158 202 239 275
#     4   9  17  29  49  76 100 124 156 197 241 280
#     4   9  17  29  47  72 101 129 156 190 236 287
#     4   9  19  34  49  69  98 128 157 192 238 291
#     4  10  20  34  52  71  93 126 164 198 235 281
#     4  10  20  32  48  72  99 126 157 196 241 284
#     4   9  17  29  48  72  95 122 158 199 238 276
#
# _framework density 16.847384000000002
#
# number of rings (size 3 to 8) (size 9 to 14) (size 15 to 20)
#    0.000    2.714    0.000    1.714    0.000    6.571 
#    0.000    2.857    0.000    4.714    0.000    0.000 
#    0.000    0.000    0.000    0.000    0.000    0.000 
#
# Total GULP energy -155966.591736 kJ/mol
# GULP energy per Si atom -5570.235419 kJ/mol
# Density = 1.680904 g / cm^3
# Si number density = 16.847384 Si / 1000 Ang^3
#
#
#
# Elastic Constant Matrix: (Units=GPa)
#
#
# Indices 1 2 3 4 5 6 
#
# 1 99.1459 33.4404 64.9787 0.0000 -9.9695 0.0000
# 2 33.4404 67.5234 58.9047 0.0000 -3.6137 0.0000
# 3 64.9787 58.9047 102.4993 0.0000 -16.1348 0.0000
# 4 0.0000 0.0000 0.0000 11.2483 0.0000 -2.4999
# 5 -9.9695 -3.6137 -16.1348 0.0000 24.0963 0.0000
# 6 0.0000 0.0000 0.0000 -2.4999 0.0000 10.9579
#
#
#
# Elastic Compliance Matrix: (Units=1/GPa)
#
#
# Indices 1 2 3 4 5 6 
#
# 1 0.017403 0.002147 -0.012388 0.000000 -0.000773 0.000000
# 2 0.002147 0.031334 -0.020667 0.000000 -0.008251 0.000000
# 3 -0.012388 -0.020667 0.031513 0.000000 0.012876 0.000000
# 4 0.000000 0.000000 0.000000 0.093651 0.000000 0.021366
# 5 -0.000773 -0.008251 0.012876 0.000000 0.048565 0.000000
# 6 0.000000 0.000000 0.000000 0.021366 0.000000 0.096133
#
#
# Mechanical properties :
#
#
# Convention : Reuss Voigt Hill
#
# Bulk Modulus (GPa) = 54.24708 64.86845 59.55777
# Shear Modulus (GPa) = 12.93458 16.71680 14.82569
#
# Velocity S-wave (km/s) = 2.77384 3.15342 2.96970
# Velocity P-wave (km/s) = 6.52134 7.20041 6.86927
#
# Compressibility (1/GPa) = 0.01843417
#
# Stress axis : x y z
#
# Youngs Moduli (GPa) = 57.46035 31.91435 31.73281
#
# Poissons Ratio (x) = -0.06851 0.39310
# Poissons Ratio (y) = -0.12334 0.65581
# Poissons Ratio (z) = 0.71181 0.65956
#
# Static dielectric constant tensor:
#      x y z
#    x 1.559210 0.000000 0.006170 
#    y 0.000000 1.564750 0.000000 
#    z 0.006170 0.000000 1.581560 
# 
# From -- ./inp_files/174805.got.cif
#   From: 2010.05.17/outbox.cif.g08.bks.cpg/sg12_88_cif.got.tgz:174805.got - 2010.06.03 13:09:07.
