data_PCOD9190188
_publ_section_title
;
Structure prediction by ZEFSAII (Michael W. Deem and Ramdas Pophale) SiO2 
 PCOD9190188
Probable space group: C 2/M
;
_chemical_formula_sum "Si O2"
_cell_formula_units_Z 32
_cell_length_a 9.884191
_cell_length_b 26.089783
_cell_length_c 6.915942
_cell_angle_alpha 90.000000
_cell_angle_beta 132.816147
_cell_angle_gamma 90.000000
_cell_volume 1308.235007
_symmetry_space_group_name_H-M "C 2/M"
_symmetry_group_IT_number 12
_symmetry_cell_setting 'monoclinic'
loop_
_space_group_symop_operation_xyz
x,y,z
-x,y,-z
-x,-y,-z
x,-y,z
1/2+x,1/2+y,z
1/2-x,1/2+y,-z
1/2-x,1/2-y,-z
1/2+x,1/2-y,z
loop_
_atom_site_type_symbol
_atom_site_label
_atom_site_fract_x
_atom_site_fract_y
_atom_site_fract_z
Si Si1 0.763924 0.162978 0.072939
Si Si2 0.407929 0.881952 0.597092
Si Si3 0.145827 0.196693 0.398612
Si Si4 0.716539 0.443013 0.757051
O O1 0.806244 0.174977 0.339980
O O2 0.785255 0.101197 0.083595
O O3 0.927163 0.197668 0.144784
O O4 0.549971 0.163292 0.808245
O O5 0.500000 0.907351 0.500000
O O6 0.235501 0.848045 0.357346
O O7 0.339348 0.920830 0.696749
O O8 0.250000 0.250000 0.500000
O O9 0.500000 0.446300 0.500000
O O10 0.779395 0.500000 0.871841
#
# Coordination Sequence:
#
# PCOD9190188 Si02
#       4
#     8   8   8   8
#     4  10  21  42  64  90 126 168 212 257 313 384
#     4  11  24  40  60  94 132 163 207 266 314 375
#     4  10  21  40  62  89 121 162 217 261 311 369
#     4  10  19  40  70  92 122 168 212 258 320 387
#
# _framework density 24.460439000000001
#
# number of rings (size 3 to 8) (size 9 to 14) (size 15 to 20)
#    0.000    1.750    5.000    3.000    3.500    4.500 
#    4.500    0.000    0.000    3.000    0.000    0.000 
#    0.000    0.000    0.000    0.000    0.000    0.000 
#
# Total GULP energy -89117.682087 kJ/mol
# GULP energy per Si atom -5569.855130 kJ/mol
# Density = 2.440477 g / cm^3
# Si number density = 24.460439 Si / 1000 Ang^3
#
#
#
# Elastic Constant Matrix: (Units=GPa)
#
#
# Indices 1 2 3 4 5 6 
#
# 1 118.7887 36.5125 20.8571 0.0000 30.1456 0.0000
# 2 36.5125 150.7576 7.7019 0.0000 10.0206 0.0000
# 3 20.8571 7.7019 100.8507 0.0000 18.4490 0.0000
# 4 0.0000 0.0000 0.0000 28.0007 0.0000 16.5185
# 5 30.1456 10.0206 18.4490 0.0000 33.7261 0.0000
# 6 0.0000 0.0000 0.0000 16.5185 0.0000 17.5584
#
#
#
# Elastic Compliance Matrix: (Units=1/GPa)
#
#
# Indices 1 2 3 4 5 6 
#
# 1 0.011556 -0.002147 -0.000503 0.000000 -0.009416 0.000000
# 2 -0.002147 0.007168 -0.000072 0.000000 -0.000171 0.000000
# 3 -0.000503 -0.000072 0.011044 0.000000 -0.005570 0.000000
# 4 0.000000 0.000000 0.000000 0.080254 0.000000 -0.075500
# 5 -0.009416 -0.000171 -0.005570 0.000000 0.041165 0.000000
# 6 0.000000 0.000000 0.000000 -0.075500 0.000000 0.127982
#
#
# Mechanical properties :
#
#
# Convention : Reuss Voigt Hill
#
# Bulk Modulus (GPa) = 41.11311 55.61556 48.36433
# Shear Modulus (GPa) = 17.08106 36.21206 26.64656
#
# Velocity S-wave (km/s) = 2.64543 3.85181 3.30415
# Velocity P-wave (km/s) = 5.11620 6.52444 5.86276
#
# Compressibility (1/GPa) = 0.02432314
#
# Stress axis : x y z
#
# Youngs Moduli (GPa) = 86.53312 139.50358 90.54514
#
# Poissons Ratio (x) = 0.29955 0.04559
# Poissons Ratio (y) = 0.18581 0.00652
# Poissons Ratio (z) = 0.04357 0.01005
#
# Static dielectric constant tensor:
#      x y z
#    x 2.250970 0.000000 0.070900 
#    y 0.000000 1.930910 0.000000 
#    z 0.070900 0.000000 2.207660 
# 
# From -- ./inp_files/52163.got.cif
#   From: 2010.05.17/outbox.cif.g08.bks.cpg/sg12_27_cif.got.tgz:52163.got - 2010.06.03 13:09:07.
