data_PCOD9190595
_publ_section_title
;
Structure prediction by ZEFSAII (Michael W. Deem and Ramdas Pophale) SiO2 
 PCOD9190595
Probable space group: C 2/M
;
_chemical_formula_sum "Si O2"
_cell_formula_units_Z 64
_cell_length_a 29.352726
_cell_length_b 7.891802
_cell_length_c 14.945752
_cell_angle_alpha 90.000000
_cell_angle_beta 106.898700
_cell_angle_gamma 90.000000
_cell_volume 3312.628385
_symmetry_space_group_name_H-M "C 2/M"
_symmetry_group_IT_number 12
_symmetry_cell_setting 'monoclinic'
loop_
_space_group_symop_operation_xyz
x,y,z
-x,y,-z
-x,-y,-z
x,-y,z
1/2+x,1/2+y,z
1/2-x,1/2+y,-z
1/2-x,1/2-y,-z
1/2+x,1/2-y,z
loop_
_atom_site_type_symbol
_atom_site_label
_atom_site_fract_x
_atom_site_fract_y
_atom_site_fract_z
Si Si1 0.302939 0.703995 0.500107
Si Si2 0.681334 0.702221 0.194478
Si Si3 0.565817 0.792583 0.615550
Si Si4 0.542414 0.202780 0.408051
Si Si5 0.303865 0.797199 0.002035
Si Si6 0.381662 0.296255 0.684696
Si Si7 0.856905 0.305250 0.199494
Si Si8 0.785500 0.800860 0.296210
O O1 0.306080 0.500000 0.500086
O O2 0.250000 0.750000 0.500000
O O3 0.342004 0.768518 0.591493
O O4 0.308286 0.763701 0.401348
O O5 0.684969 0.500000 0.205065
O O6 0.683244 0.745448 0.091180
O O7 0.635759 0.759712 0.226977
O O8 0.728957 0.778005 0.265795
O O9 0.512560 0.743655 0.615825
O O10 0.569574 0.734715 0.513885
O O11 0.604360 0.729941 0.709644
O O12 0.568883 0.000000 0.616164
O O13 0.568452 0.248906 0.331315
O O14 0.541956 0.000000 0.413953
O O15 0.305668 0.000000 0.007340
O O16 0.250000 0.750000 0.000000
O O17 0.342200 0.727650 0.095946
O O18 0.380021 0.500000 0.683970
O O19 0.871557 0.500000 0.192233
O O20 0.807783 0.298890 0.226853
O O21 0.795814 0.000000 0.290129
#
# Coordination Sequence:
#
# PCOD9190595 Si02
#       8
#     8   8   8   8   8   8   8   8
#     4  10  20  32  45  67 100 136 170 206 245 297
#     4  11  22  36  52  69  99 142 178 213 259 307
#     4   8  16  33  55  82 108 133 169 210 256 312
#     4   9  17  32  57  82 106 135 170 211 252 308
#     4  11  22  35  53  76 103 136 177 222 263 309
#     4  10  21  35  50  72 105 140 174 212 260 313
#     4  10  20  34  54  75 102 137 168 208 266 317
#     4  11  21  31  48  74 103 133 171 215 253 303
#
# _framework density 19.320005999999999
#
# number of rings (size 3 to 8) (size 9 to 14) (size 15 to 20)
#    0.000    2.000    2.500    2.625    0.000    2.500 
#    0.000    1.875    0.000    0.750    0.000    5.250 
#    0.000    0.000    0.000    0.000    0.000    0.000 
#
# Total GULP energy -178501.365815 kJ/mol
# GULP energy per Si atom -5578.167682 kJ/mol
# Density = 1.927603 g / cm^3
# Si number density = 19.320006 Si / 1000 Ang^3
#
#
#
# Elastic Constant Matrix: (Units=GPa)
#
#
# Indices 1 2 3 4 5 6 
#
# 1 84.9598 -0.6688 45.5625 0.0000 -15.3147 0.0000
# 2 -0.6688 28.7016 9.7681 0.0000 1.7238 0.0000
# 3 45.5625 9.7681 126.4328 0.0000 -14.6702 0.0000
# 4 0.0000 0.0000 0.0000 17.4797 0.0000 -4.7908
# 5 -15.3147 1.7238 -14.6702 0.0000 33.4440 0.0000
# 6 0.0000 0.0000 0.0000 -4.7908 0.0000 19.7149
#
#
#
# Elastic Compliance Matrix: (Units=1/GPa)
#
#
# Indices 1 2 3 4 5 6 
#
# 1 0.015389 0.001826 -0.005142 0.000000 0.004697 0.000000
# 2 0.001826 0.036331 -0.003778 0.000000 -0.002693 0.000000
# 3 -0.005142 -0.003778 0.010329 0.000000 0.002371 0.000000
# 4 0.000000 0.000000 0.000000 0.061291 0.000000 0.014894
# 5 0.004697 -0.002693 0.002371 0.000000 0.033231 0.000000
# 6 0.000000 0.000000 0.000000 0.014894 0.000000 0.054342
#
#
# Mechanical properties :
#
#
# Convention : Reuss Voigt Hill
#
# Bulk Modulus (GPa) = 20.89284 38.82422 29.85853
# Shear Modulus (GPa) = 20.74226 26.48987 23.61607
#
# Velocity S-wave (km/s) = 3.28016 3.70687 3.50002
# Velocity P-wave (km/s) = 5.01832 6.20162 5.64108
#
# Compressibility (1/GPa) = 0.04786328
#
# Stress axis : x y z
#
# Youngs Moduli (GPa) = 64.98236 27.52456 96.81253
#
# Poissons Ratio (x) = -0.05027 0.49778
# Poissons Ratio (y) = -0.11868 0.36572
# Poissons Ratio (z) = 0.33412 0.10398
#
# Static dielectric constant tensor:
#      x y z
#    x 1.625370 0.000000 0.054410 
#    y 0.000000 1.703540 0.000000 
#    z 0.054410 0.000000 1.653750 
# 
# From -- ./inp_files/248496.got.cif
#   From: 2010.05.17/outbox.cif.g08.bks.cpg/sg12_125_cif.got.tgz:248496.got - 2010.06.03 13:09:07.
