data_PCOD9190507
_publ_section_title
;
Structure prediction by ZEFSAII (Michael W. Deem and Ramdas Pophale) SiO2 
 PCOD9190507
Probable space group: C 2/M
;
_chemical_formula_sum "Si O2"
_cell_formula_units_Z 58
_cell_length_a 26.903485
_cell_length_b 15.035125
_cell_length_c 7.352266
_cell_angle_alpha 90.000000
_cell_angle_beta 83.723405
_cell_angle_gamma 90.000000
_cell_volume 2956.144569
_symmetry_space_group_name_H-M "C 2/M"
_symmetry_group_IT_number 12
_symmetry_cell_setting 'monoclinic'
loop_
_space_group_symop_operation_xyz
x,y,z
-x,y,-z
-x,-y,-z
x,-y,z
1/2+x,1/2+y,z
1/2-x,1/2+y,-z
1/2-x,1/2-y,-z
1/2+x,1/2-y,z
loop_
_atom_site_type_symbol
_atom_site_label
_atom_site_fract_x
_atom_site_fract_y
_atom_site_fract_z
Si Si1 0.713672 0.102155 0.823702
Si Si2 0.000000 0.500000 0.000000
Si Si3 0.188902 0.398325 0.256545
Si Si4 0.453440 0.815467 0.913409
Si Si5 0.367536 0.760826 0.221843
Si Si6 0.325297 0.399268 0.706592
Si Si7 0.895433 0.742895 0.616826
Si Si8 0.300916 0.398955 0.287838
O O1 0.676949 0.167200 0.730847
O O2 0.771658 0.131040 0.806442
O O3 0.713454 0.000000 0.753898
O O4 0.693533 0.101558 0.036722
O O5 0.033964 0.420218 0.081114
O O6 0.181057 0.500000 0.320807
O O7 0.144579 0.335340 0.333204
O O8 0.243566 0.368076 0.301691
O O9 0.443988 0.782543 0.713076
O O10 0.500000 0.771065 0.000000
O O11 0.404384 0.794671 0.051652
O O12 0.397937 0.748373 0.397943
O O13 0.338771 0.670023 0.181970
O O14 0.335529 0.500000 0.764042
O O15 0.370150 0.330964 0.711804
O O16 0.315848 0.401419 0.493040
O O17 0.302494 0.500000 0.213511
#
# Coordination Sequence:
#
# PCOD9190507 Si02
#       8
#     8   2   8   8   8   8   8   8
#     4  10  20  31  50  81 121 157 190 228 272 324
#     4   8  24  48  66  80 118 142 168 244 294 336
#     4  10  20  31  50  81 121 157 190 228 272 324
#     4  10  24  44  62  81 113 137 178 239 288 337
#     4  11  22  36  60  85 110 150 193 229 278 336
#     4   9  19  35  52  80 119 154 190 229 268 322
#     4  11  22  36  60  85 110 150 193 229 278 336
#     4   9  19  35  52  80 119 154 190 229 268 322
#
# _framework density 19.620151
#
# number of rings (size 3 to 8) (size 9 to 14) (size 15 to 20)
#    0.414    1.655    1.379    1.655    3.862    5.517 
#    0.000    0.690    0.000    1.655    0.000    3.862 
#    0.000    0.000    0.000    0.000    0.000    0.000 
#
# Total GULP energy -161600.241007 kJ/mol
# GULP energy per Si atom -5572.422104 kJ/mol
# Density = 1.957549 g / cm^3
# Si number density = 19.620151 Si / 1000 Ang^3
#
#
#
# Elastic Constant Matrix: (Units=GPa)
#
#
# Indices 1 2 3 4 5 6 
#
# 1 62.9311 24.3957 -2.7236 0.0000 26.0920 0.0000
# 2 24.3957 53.4402 -2.9304 0.0000 8.8258 0.0000
# 3 -2.7236 -2.9304 37.5877 0.0000 12.7541 0.0000
# 4 0.0000 0.0000 0.0000 17.5114 0.0000 11.5252
# 5 26.0920 8.8258 12.7541 0.0000 26.8912 0.0000
# 6 0.0000 0.0000 0.0000 11.5252 0.0000 80.7802
#
#
#
# Elastic Compliance Matrix: (Units=1/GPa)
#
#
# Indices 1 2 3 4 5 6 
#
# 1 0.036722 -0.009324 0.015476 0.000000 -0.039911 0.000000
# 2 -0.009324 0.022801 0.000681 0.000000 0.001240 0.000000
# 3 0.015476 0.000681 0.039270 0.000000 -0.033865 0.000000
# 4 0.000000 0.000000 0.000000 0.063024 0.000000 -0.008992
# 5 -0.039911 0.001240 -0.033865 0.000000 0.091567 0.000000
# 6 0.000000 0.000000 0.000000 -0.008992 0.000000 0.013662
#
#
# Mechanical properties :
#
#
# Convention : Reuss Voigt Hill
#
# Bulk Modulus (GPa) = 8.89193 21.27137 15.08165
# Shear Modulus (GPa) = 17.19009 34.05103 25.62056
#
# Velocity S-wave (km/s) = 2.96319 4.17047 3.61755
# Velocity P-wave (km/s) = 4.03103 5.83571 5.01521
#
# Compressibility (1/GPa) = 0.11246150
#
# Stress axis : x y z
#
# Youngs Moduli (GPa) = 27.23151 43.85692 25.46470
#
# Poissons Ratio (x) = 0.40891 -0.39410
# Poissons Ratio (y) = 0.25390 -0.01735
# Poissons Ratio (z) = -0.42145 -0.02988
#
# Static dielectric constant tensor:
#      x y z
#    x 1.682100 0.000000 0.030910 
#    y 0.000000 1.707610 0.000000 
#    z 0.030910 0.000000 1.740510 
# 
# From -- ./inp_files/104026.got.cif
#   From: 2010.05.17/outbox.cif.g08.bks.cpg/sg12_53_cif.got.tgz:104026.got - 2010.06.03 13:09:07.
