data_PCOD9190066
_publ_section_title
;
Structure prediction by ZEFSAII (Michael W. Deem and Ramdas Pophale) SiO2 
 PCOD9190066
Probable space group: C 2/M
;
_chemical_formula_sum "Si O2"
_cell_formula_units_Z 40
_cell_length_a 9.893952
_cell_length_b 15.014364
_cell_length_c 17.678895
_cell_angle_alpha 90.000000
_cell_angle_beta 47.058660
_cell_angle_gamma 90.000000
_cell_volume 1922.531762
_symmetry_space_group_name_H-M "C 2/M"
_symmetry_group_IT_number 12
_symmetry_cell_setting 'monoclinic'
loop_
_space_group_symop_operation_xyz
x,y,z
-x,y,-z
-x,-y,-z
x,-y,z
1/2+x,1/2+y,z
1/2-x,1/2+y,-z
1/2-x,1/2-y,-z
1/2+x,1/2-y,z
loop_
_atom_site_type_symbol
_atom_site_label
_atom_site_fract_x
_atom_site_fract_y
_atom_site_fract_z
Si Si1 0.000000 0.151485 0.000000
Si Si2 0.714981 0.500000 0.008198
Si Si3 0.406188 0.500000 0.238075
Si Si4 0.005373 0.000000 0.368908
Si Si5 0.000000 0.146944 0.500000
Si Si6 0.212484 0.190140 0.777047
Si Si7 0.595461 0.811813 0.690890
Si Si8 0.926226 0.500000 0.218099
O O1 0.125689 0.203648 0.893059
O O2 0.131517 0.086430 0.997968
O O3 0.928762 0.500000 0.905518
O O4 0.618916 0.500000 0.126706
O O5 0.394629 0.500000 0.333111
O O6 0.313319 0.587623 0.237917
O O7 0.978395 0.084176 0.434209
O O8 0.220050 0.000000 0.265646
O O9 0.803715 0.195620 0.580413
O O10 0.429181 0.212837 0.698544
O O11 0.098279 0.248563 0.762249
O O12 0.557354 0.912338 0.735325
#
# Coordination Sequence:
#
# PCOD9190066 Si02
#       8
#     4   4   4   4   4   8   8   4
#     4   9  18  38  62  91 130 170 208 247 312 379
#     4   9  16  35  65  90 120 177 205 248 312 384
#     4  10  23  42  65  93 133 161 216 260 308 381
#     4   9  20  40  66  94 122 163 213 271 313 372
#     4   9  22  44  66  85 128 170 206 265 334 367
#     4  11  24  41  66  96 130 169 211 259 312 380
#     4  11  24  42  67  93 125 171 214 263 315 376
#     4  10  19  39  66  88 127 172 207 248 326 372
#
# _framework density 20.805897000000002
#
# number of rings (size 3 to 8) (size 9 to 14) (size 15 to 20)
#    0.000    2.000    2.000    1.800    5.600    2.000 
#    0.000    1.000    0.000    0.000    0.000    0.000 
#    0.000    0.000    0.000    0.000    0.000    0.000 
#
# Total GULP energy -111653.742059 kJ/mol
# GULP energy per Si atom -5582.687103 kJ/mol
# Density = 2.075854 g / cm^3
# Si number density = 20.805897 Si / 1000 Ang^3
#
#
#
# Elastic Constant Matrix: (Units=GPa)
#
#
# Indices 1 2 3 4 5 6 
#
# 1 91.8182 13.4952 33.1398 0.0000 3.9165 0.0000
# 2 13.4952 58.0985 -2.0786 0.0000 0.9882 0.0000
# 3 33.1398 -2.0786 111.2489 0.0000 -3.9823 0.0000
# 4 0.0000 0.0000 0.0000 17.2495 0.0000 -2.5445
# 5 3.9165 0.9882 -3.9823 0.0000 31.8851 0.0000
# 6 0.0000 0.0000 0.0000 -2.5445 0.0000 5.5141
#
#
#
# Elastic Compliance Matrix: (Units=1/GPa)
#
#
# Indices 1 2 3 4 5 6 
#
# 1 0.012859 -0.003095 -0.003959 0.000000 -0.001978 0.000000
# 2 -0.003095 0.017976 0.001257 0.000000 -0.000020 0.000000
# 3 -0.003959 0.001257 0.010254 0.000000 0.001728 0.000000
# 4 0.000000 0.000000 0.000000 0.062207 0.000000 0.028706
# 5 -0.001978 -0.000020 0.001728 0.000000 0.031822 0.000000
# 6 0.000000 0.000000 0.000000 0.028706 0.000000 0.194598
#
#
# Mechanical properties :
#
#
# Convention : Reuss Voigt Hill
#
# Bulk Modulus (GPa) = 33.90402 38.91982 36.41192
# Shear Modulus (GPa) = 14.23921 25.37036 19.80478
#
# Velocity S-wave (km/s) = 2.61891 3.49575 3.08861
# Velocity P-wave (km/s) = 5.04734 5.91950 5.50074
#
# Compressibility (1/GPa) = 0.02949503
#
# Stress axis : x y z
#
# Youngs Moduli (GPa) = 77.76423 55.62862 97.52645
#
# Poissons Ratio (x) = 0.17217 0.38614
# Poissons Ratio (y) = 0.24068 -0.12260
# Poissons Ratio (z) = 0.30789 -0.06993
#
# Static dielectric constant tensor:
#      x y z
#    x 1.720580 0.000000 -0.015530 
#    y 0.000000 1.745930 0.000000 
#    z -0.015530 0.000000 1.781230 
# 
# From -- ./inp_files/256431.got.cif
#   From: 2010.05.17/outbox.cif.g08.bks.cpg/sg12_129_cif.got.tgz:256431.got - 2010.06.03 13:09:07.
