data_PCOD9190867
_publ_section_title
;
Structure prediction by ZEFSAII (Michael W. Deem and Ramdas Pophale) SiO2 
 PCOD9190867
Probable space group: C 2/M
;
_chemical_formula_sum "Si O2"
_cell_formula_units_Z 64
_cell_length_a 20.974241
_cell_length_b 7.802064
_cell_length_c 24.374661
_cell_angle_alpha 90.000000
_cell_angle_beta 123.002852
_cell_angle_gamma 90.000000
_cell_volume 3345.120058
_symmetry_space_group_name_H-M "C 2/M"
_symmetry_group_IT_number 12
_symmetry_cell_setting 'monoclinic'
loop_
_space_group_symop_operation_xyz
x,y,z
-x,y,-z
-x,-y,-z
x,-y,z
1/2+x,1/2+y,z
1/2-x,1/2+y,-z
1/2-x,1/2-y,-z
1/2+x,1/2-y,z
loop_
_atom_site_type_symbol
_atom_site_label
_atom_site_fract_x
_atom_site_fract_y
_atom_site_fract_z
Si Si1 0.519719 0.795198 0.924136
Si Si2 0.970214 0.293844 0.672407
Si Si3 0.377934 0.210151 0.927157
Si Si4 0.088402 0.709575 0.543717
Si Si5 0.662622 0.206277 0.465659
Si Si6 0.291919 0.704635 0.174005
Si Si7 0.121466 0.292947 0.679464
Si Si8 0.441244 0.297109 0.181452
O O1 0.437411 0.734801 0.907657
O O2 0.539771 0.756567 0.871131
O O3 0.517993 0.000000 0.928794
O O4 0.583599 0.735017 0.997425
O O5 0.969708 0.500000 0.669978
O O6 0.891992 0.230918 0.609063
O O7 0.040796 0.235290 0.667492
O O8 0.991975 0.245847 0.744309
O O9 0.291888 0.271824 0.879077
O O10 0.375688 0.000000 0.925519
O O11 0.089403 0.500000 0.544033
O O12 0.130592 0.769280 0.508934
O O13 0.125310 0.765598 0.618465
O O14 0.000000 0.759766 0.500000
O O15 0.750000 0.250000 0.500000
O O16 0.656138 0.000000 0.463335
O O17 0.289794 0.500000 0.164524
O O18 0.314725 0.735720 0.247872
O O19 0.362006 0.774782 0.169874
O O20 0.121142 0.500000 0.679148
O O21 0.433117 0.500000 0.177327
#
# Coordination Sequence:
#
# PCOD9190867 Si02
#       8
#     8   8   8   8   8   8   8   8
#     4   9  17  33  56  75  94 129 174 204 230 285
#     4   9  17  32  53  72  94 131 173 204 234 288
#     4   8  16  33  55  74  95 130 169 203 238 283
#     4   9  15  29  54  76  93 123 167 210 245 282
#     4  10  20  34  52  74 101 131 163 204 252 295
#     4   9  18  33  50  71 103 133 158 198 251 295
#     4   9  16  29  52  77  96 121 166 211 244 285
#     4  10  20  32  49  75 104 131 158 198 255 299
#
# _framework density 19.132346999999999
#
# number of rings (size 3 to 8) (size 9 to 14) (size 15 to 20)
#    0.000    2.875    1.250    1.125    0.000    1.500 
#    2.250    3.125    0.000    0.750    0.000    0.000 
#    0.000    0.000    0.000    0.000    0.000    0.000 
#
# Total GULP energy -178390.791729 kJ/mol
# GULP energy per Si atom -5574.712242 kJ/mol
# Density = 1.908880 g / cm^3
# Si number density = 19.132347 Si / 1000 Ang^3
#
#
#
# Elastic Constant Matrix: (Units=GPa)
#
#
# Indices 1 2 3 4 5 6 
#
# 1 139.6147 5.3880 123.0006 0.0000 0.0344 0.0000
# 2 5.3880 19.3891 5.4276 0.0000 0.8721 0.0000
# 3 123.0006 5.4276 186.5483 0.0000 -2.8494 0.0000
# 4 0.0000 0.0000 0.0000 15.6190 0.0000 5.0939
# 5 0.0344 0.8721 -2.8494 0.0000 33.0516 0.0000
# 6 0.0000 0.0000 0.0000 5.0939 0.0000 6.0703
#
#
#
# Elastic Compliance Matrix: (Units=1/GPa)
#
#
# Indices 1 2 3 4 5 6 
#
# 1 0.017169 -0.001568 -0.011290 0.000000 -0.000950 0.000000
# 2 -0.001568 0.052217 -0.000507 0.000000 -0.001420 0.000000
# 3 -0.011290 -0.000507 0.012836 0.000000 0.001132 0.000000
# 4 0.000000 0.000000 0.000000 0.088150 0.000000 -0.073971
# 5 -0.000950 -0.001420 0.001132 0.000000 0.030392 0.000000
# 6 0.000000 0.000000 0.000000 -0.073971 0.000000 0.226809
#
#
# Mechanical properties :
#
#
# Convention : Reuss Voigt Hill
#
# Bulk Modulus (GPa) = 18.02021 68.13160 43.07591
# Shear Modulus (GPa) = 10.57530 25.06391 17.81960
#
# Velocity S-wave (km/s) = 2.35360 3.62336 3.05517
# Velocity P-wave (km/s) = 4.10184 7.29335 5.91684
#
# Compressibility (1/GPa) = 0.05549326
#
# Stress axis : x y z
#
# Youngs Moduli (GPa) = 58.24312 19.15092 77.90386
#
# Poissons Ratio (x) = 0.03003 0.87950
# Poissons Ratio (y) = 0.09133 0.03950
# Poissons Ratio (z) = 0.65754 0.00971
#
# Static dielectric constant tensor:
#      x y z
#    x 1.676680 0.000000 -0.024610 
#    y 0.000000 1.709810 0.000000 
#    z -0.024610 0.000000 1.703360 
# 
# From -- ./inp_files/345620.got.cif
#   From: 2010.05.17/outbox.cif.g08.bks.cpg/sg12_173_cif.got.tgz:345620.got - 2010.06.03 13:09:07.
