data_PCOD9190242
_publ_section_title
;
Structure prediction by ZEFSAII (Michael W. Deem and Ramdas Pophale) SiO2 
 PCOD9190242
Probable space group: C 2/M
;
_chemical_formula_sum "Si O2"
_cell_formula_units_Z 40
_cell_length_a 13.011359
_cell_length_b 27.955977
_cell_length_c 7.060412
_cell_angle_alpha 90.000000
_cell_angle_beta 137.972340
_cell_angle_gamma 90.000000
_cell_volume 1719.376596
_symmetry_space_group_name_H-M "C 2/M"
_symmetry_group_IT_number 12
_symmetry_cell_setting 'monoclinic'
loop_
_space_group_symop_operation_xyz
x,y,z
-x,y,-z
-x,-y,-z
x,-y,z
1/2+x,1/2+y,z
1/2-x,1/2+y,-z
1/2-x,1/2-y,-z
1/2+x,1/2-y,z
loop_
_atom_site_type_symbol
_atom_site_label
_atom_site_fract_x
_atom_site_fract_y
_atom_site_fract_z
Si Si1 0.333684 0.633258 0.679031
Si Si2 0.101432 0.216999 0.824743
Si Si3 0.253142 0.371066 0.138195
Si Si4 0.464016 0.808529 0.677306
Si Si5 0.684478 0.944305 0.745699
O O1 0.336075 0.626316 0.454351
O O2 0.258448 0.587363 0.679601
O O3 0.211052 0.676128 0.535261
O O4 0.500000 0.643309 0.000000
O O5 0.169519 0.163704 0.913355
O O6 0.995418 0.254609 0.792824
O O7 0.000000 0.212893 0.500000
O O8 0.250000 0.250000 0.000000
O O9 0.085568 0.345984 0.933201
O O10 0.241052 0.421934 0.020951
O O11 0.500000 0.811306 0.500000
O O12 0.500000 0.938400 0.500000
O O13 0.720819 0.000000 0.774130
#
# Coordination Sequence:
#
# PCOD9190242 Si02
#       5
#     8   8   8   8   8
#     4  12  26  41  71 110 145 184 239 300 352 420
#     4   9  21  36  68  99 133 187 232 279 342 412
#     4  11  22  42  75 100 139 191 239 289 353 420
#     4  10  19  44  70  97 143 190 235 290 341 421
#     4  11  25  48  77 104 139 187 238 298 364 427
#
# _framework density 23.264246
#
# number of rings (size 3 to 8) (size 9 to 14) (size 15 to 20)
#    0.000    1.400    4.000    0.600    2.800    1.200 
#    0.000    7.000   13.200    0.000    0.000    0.000 
#    0.000    0.000    0.000    0.000    0.000    0.000 
#
# Total GULP energy -111586.841646 kJ/mol
# GULP energy per Si atom -5579.342082 kJ/mol
# Density = 2.321130 g / cm^3
# Si number density = 23.264246 Si / 1000 Ang^3
#
#
#
# Elastic Constant Matrix: (Units=GPa)
#
#
# Indices 1 2 3 4 5 6 
#
# 1 141.6970 58.9070 53.2548 0.0000 -11.5905 0.0000
# 2 58.9070 153.4765 59.6465 0.0000 24.2910 0.0000
# 3 53.2548 59.6465 170.9177 0.0000 -1.5562 0.0000
# 4 0.0000 0.0000 0.0000 37.4464 0.0000 15.1539
# 5 -11.5905 24.2910 -1.5562 0.0000 40.2572 0.0000
# 6 0.0000 0.0000 0.0000 15.1539 0.0000 6.3232
#
#
#
# Elastic Compliance Matrix: (Units=1/GPa)
#
#
# Indices 1 2 3 4 5 6 
#
# 1 0.009702 -0.003901 -0.001615 0.000000 0.005085 0.000000
# 2 -0.003901 0.010091 -0.002373 0.000000 -0.007304 0.000000
# 3 -0.001615 -0.002373 0.007193 0.000000 0.001245 0.000000
# 4 0.000000 0.000000 0.000000 0.885557 0.000000 -2.122291
# 5 0.005085 -0.007304 0.001245 0.000000 0.030759 0.000000
# 6 0.000000 0.000000 0.000000 -2.122291 0.000000 5.244347
#
#
# Mechanical properties :
#
#
# Convention : Reuss Voigt Hill
#
# Bulk Modulus (GPa) = 89.21554 89.96752 89.59153
# Shear Modulus (GPa) = 0.80552 36.42423 18.61488
#
# Velocity S-wave (km/s) = 0.58907 3.96115 2.83176
# Velocity P-wave (km/s) = 6.23656 7.72509 7.02039
#
# Compressibility (1/GPa) = 0.01120881
#
# Stress axis : x y z
#
# Youngs Moduli (GPa) = 103.07188 99.09985 139.01622
#
# Poissons Ratio (x) = 0.38656 0.22457
# Poissons Ratio (y) = 0.40205 0.32983
# Poissons Ratio (z) = 0.16650 0.23512
#
# Static dielectric constant tensor:
#      x y z
#    x 2.002430 0.000000 0.024710 
#    y 0.000000 1.906980 0.000000 
#    z 0.024710 0.000000 1.907410 
# 
# From -- ./inp_files/150046.got.cif
#   From: 2010.05.17/outbox.cif.g08.bks.cpg/sg12_76_cif.got.tgz:150046.got - 2010.06.03 13:09:07.
