data_PCOD9190122
_publ_section_title
;
Structure prediction by ZEFSAII (Michael W. Deem and Ramdas Pophale) SiO2 
 PCOD9190122
Probable space group: C 2/M
;
_chemical_formula_sum "Si O2"
_cell_formula_units_Z 52
_cell_length_a 24.099847
_cell_length_b 14.019705
_cell_length_c 7.238378
_cell_angle_alpha 90.000000
_cell_angle_beta 82.140556
_cell_angle_gamma 90.000000
_cell_volume 2422.677436
_symmetry_space_group_name_H-M "C 2/M"
_symmetry_group_IT_number 12
_symmetry_cell_setting 'monoclinic'
loop_
_space_group_symop_operation_xyz
x,y,z
-x,y,-z
-x,-y,-z
x,-y,z
1/2+x,1/2+y,z
1/2-x,1/2+y,-z
1/2-x,1/2-y,-z
1/2+x,1/2-y,z
loop_
_atom_site_type_symbol
_atom_site_label
_atom_site_fract_x
_atom_site_fract_y
_atom_site_fract_z
Si Si1 0.157688 0.103849 0.209468
Si Si2 0.551325 0.692155 0.103182
Si Si3 0.196624 0.288221 0.420895
Si Si4 0.730238 0.858244 0.036339
Si Si5 0.102708 0.605702 0.071111
Si Si6 0.594082 0.107782 0.525163
Si Si7 0.000000 0.253845 0.500000
O O1 0.108319 0.131095 0.088566
O O2 0.165898 0.197233 0.337116
O O3 0.145091 0.000000 0.302943
O O4 0.217074 0.093215 0.079679
O O5 0.568839 0.799720 0.032248
O O6 0.530960 0.696001 0.326242
O O7 0.500000 0.658361 0.000000
O O8 0.250000 0.250000 0.500000
O O9 0.220252 0.363557 0.259959
O O10 0.151105 0.342869 0.563465
O O11 0.668385 0.881770 0.989897
O O12 0.750000 0.750000 0.000000
O O13 0.083389 0.500000 0.021185
O O14 0.098878 0.606757 0.297986
O O15 0.542486 0.176100 0.587452
O O16 0.586661 0.000000 0.590949
#
# Coordination Sequence:
#
# PCOD9190122 Si02
#       7
#     8   8   8   8   8   8   4
#     4  11  22  41  60  85 122 161 204 253 298 357
#     4  11  23  40  63  85 119 164 208 253 305 359
#     4  10  20  36  61  89 124 155 193 244 308 369
#     4   9  16  34  59  82 114 156 188 232 305 358
#     4   9  16  32  56  85 114 146 190 242 301 368
#     4   9  17  32  57  83 115 154 192 239 302 364
#     4  10  19  40  61  84 118 158 199 252 307 354
#
# _framework density 21.463857999999998
#
# number of rings (size 3 to 8) (size 9 to 14) (size 15 to 20)
#    0.000    2.154    6.154    0.692    0.000    3.692 
#    0.000    0.385    0.000    0.000    0.000    0.000 
#    0.000    0.000    0.000    0.000    0.000    0.000 
#
# Total GULP energy -144894.240012 kJ/mol
# GULP energy per Si atom -5572.855385 kJ/mol
# Density = 2.141500 g / cm^3
# Si number density = 21.463858 Si / 1000 Ang^3
#
#
#
# Elastic Constant Matrix: (Units=GPa)
#
#
# Indices 1 2 3 4 5 6 
#
# 1 79.8603 -23.2583 15.1067 0.0000 1.0470 0.0000
# 2 -23.2583 58.1288 -0.7682 0.0000 0.2301 0.0000
# 3 15.1067 -0.7682 49.2012 0.0000 3.1153 0.0000
# 4 0.0000 0.0000 0.0000 2.4932 0.0000 -7.8300
# 5 1.0470 0.2301 3.1153 0.0000 34.1008 0.0000
# 6 0.0000 0.0000 0.0000 -7.8300 0.0000 -4.7789
#
#
#
# Elastic Compliance Matrix: (Units=1/GPa)
#
#
# Indices 1 2 3 4 5 6 
#
# 1 0.015128 0.005993 -0.004546 0.000000 -0.000090 0.000000
# 2 0.005993 0.019582 -0.001523 0.000000 -0.000177 0.000000
# 3 -0.004546 -0.001523 0.021813 0.000000 -0.001843 0.000000
# 4 0.000000 0.000000 0.000000 0.065264 0.000000 -0.106932
# 5 -0.000090 -0.000177 -0.001843 0.000000 0.029497 0.000000
# 6 0.000000 0.000000 0.000000 -0.106932 0.000000 -0.034048
#
#
# Mechanical properties :
#
#
# Convention : Reuss Voigt Hill
#
# Bulk Modulus (GPa) = 17.73919 18.81675 18.27797
# Shear Modulus (GPa) = 36.71643 19.43701 28.07672
#
# Velocity S-wave (km/s) = 4.14045 3.01253 3.62068
# Velocity P-wave (km/s) = 5.58035 4.57014 5.10032
#
# Compressibility (1/GPa) = 0.05637235
#
# Stress axis : x y z
#
# Youngs Moduli (GPa) = 66.10070 51.06780 45.84351
#
# Poissons Ratio (x) = -0.30607 0.20839
# Poissons Ratio (y) = -0.39617 0.06983
# Poissons Ratio (z) = 0.30048 0.07779
#
# Static dielectric constant tensor:
#      x y z
#    x 1.786230 0.000000 0.003340 
#    y 0.000000 1.778710 0.000000 
#    z 0.003340 0.000000 1.822600 
# 
# From -- ./inp_files/95734.got.cif
#   From: 2010.05.17/outbox.cif.g08.bks.cpg/sg12_48_cif.got.tgz:95734.got - 2010.06.03 13:09:07.
