data_PCOD9190198
_publ_section_title
;
Structure prediction by ZEFSAII (Michael W. Deem and Ramdas Pophale) SiO2 
 PCOD9190198
Probable space group: C 2/M
;
_chemical_formula_sum "Si O2"
_cell_formula_units_Z 40
_cell_length_a 27.431616
_cell_length_b 13.967782
_cell_length_c 17.793609
_cell_angle_alpha 90.000000
_cell_angle_beta 160.463992
_cell_angle_gamma 90.000000
_cell_volume 2279.859685
_symmetry_space_group_name_H-M "C 2/M"
_symmetry_group_IT_number 12
_symmetry_cell_setting 'monoclinic'
loop_
_space_group_symop_operation_xyz
x,y,z
-x,y,-z
-x,-y,-z
x,-y,z
1/2+x,1/2+y,z
1/2-x,1/2+y,-z
1/2-x,1/2-y,-z
1/2+x,1/2-y,z
loop_
_atom_site_type_symbol
_atom_site_label
_atom_site_fract_x
_atom_site_fract_y
_atom_site_fract_z
Si Si1 0.167732 0.361981 0.073953
Si Si2 0.044272 0.500000 0.150369
Si Si3 0.134719 0.000000 0.322938
Si Si4 0.874117 0.863160 0.977712
Si Si5 0.603023 0.000000 0.849769
Si Si6 0.241167 0.500000 0.664011
Si Si7 0.816029 0.000000 0.027826
Si Si8 0.574249 0.500000 0.525058
O O1 0.317538 0.408170 0.323502
O O2 0.149628 0.249338 0.052771
O O3 0.157544 0.407386 0.975699
O O4 0.033234 0.409897 0.922757
O O5 0.215725 0.500000 0.413830
O O6 0.000000 0.500000 0.000000
O O7 0.036051 0.907210 0.199442
O O8 0.174667 0.000000 0.292792
O O9 0.823772 0.910247 0.982865
O O10 0.785121 0.909456 0.779158
O O11 0.429768 0.000000 0.598865
O O12 0.671576 0.000000 0.867613
O O13 0.951624 0.000000 0.282882
O O14 0.500000 0.500000 0.500000
#
# Coordination Sequence:
#
# PCOD9190198 Si02
#       8
#     8   4   4   8   4   4   4   4
#     4  10  22  39  57  92 116 149 204 239 292 349
#     4  10  22  38  60  88 121 153 189 248 297 343
#     4  10  20  42  63  79 123 159 187 241 300 347
#     4  10  24  36  60  92 114 154 203 240 285 350
#     4  10  20  41  60  80 125 156 190 243 294 347
#     4  10  20  43  59  81 122 162 186 241 301 345
#     4  10  21  41  61  85 121 158 192 242 298 344
#     4  10  19  41  62  78 121 160 187 240 298 343
#
# _framework density 17.54494
#
# number of rings (size 3 to 8) (size 9 to 14) (size 15 to 20)
#    0.000    2.400    4.000    1.200    5.600    6.400 
#    3.600    0.000    0.000    0.000    0.000    0.000 
#    0.000    0.000    0.000    0.000    0.000    0.000 
#
# Total GULP energy -111510.629452 kJ/mol
# GULP energy per Si atom -5575.531473 kJ/mol
# Density = 1.750501 g / cm^3
# Si number density = 17.544940 Si / 1000 Ang^3
#
#
#
# Elastic Constant Matrix: (Units=GPa)
#
#
# Indices 1 2 3 4 5 6 
#
# 1 127.6698 46.7238 8.4252 0.0000 3.9680 0.0000
# 2 46.7238 184.1551 19.5139 0.0000 4.6613 0.0000
# 3 8.4252 19.5139 41.6622 0.0000 6.0369 0.0000
# 4 0.0000 0.0000 0.0000 -0.0562 0.0000 0.7590
# 5 3.9680 4.6613 6.0369 0.0000 32.9797 0.0000
# 6 0.0000 0.0000 0.0000 0.7590 0.0000 3.9306
#
#
#
# Elastic Compliance Matrix: (Units=1/GPa)
#
#
# Indices 1 2 3 4 5 6 
#
# 1 0.008670 -0.002113 -0.000674 0.000000 -0.000621 0.000000
# 2 -0.002113 0.006232 -0.002466 0.000000 -0.000175 0.000000
# 3 -0.000674 -0.002466 0.025919 0.000002 -0.004315 0.000000
# 4 0.000000 0.000000 0.000002 -4.932102 0.000002 0.952359
# 5 -0.000621 -0.000175 -0.004315 0.000002 0.031211 0.000000
# 6 0.000000 0.000000 0.000000 0.952359 0.000000 0.070518
#
#
# Mechanical properties :
#
#
# Convention : Reuss Voigt Hill
#
# Bulk Modulus (GPa) = 32.98634 55.86810 44.42722
# Shear Modulus (GPa) = -1.04845 25.95911 12.45533
#
# Velocity S-wave (km/s) = -0.77387 3.85070 2.66730
# Velocity P-wave (km/s) = 4.24775 7.18906 5.90448
#
# Compressibility (1/GPa) = 0.03031558
#
# Stress axis : x y z
#
# Youngs Moduli (GPa) = 115.34547 160.46262 38.58134
#
# Poissons Ratio (x) = 0.33898 0.02599
# Poissons Ratio (y) = 0.24367 0.09516
# Poissons Ratio (z) = 0.07771 0.39576
#
# Static dielectric constant tensor:
#      x y z
#    x 1.603500 0.000000 -0.002590 
#    y 0.000000 1.588970 0.000000 
#    z -0.002590 0.000000 1.610480 
# 
# From -- ./inp_files/293563.got.cif
#   From: 2010.05.17/outbox.cif.g08.bks.cpg/sg12_147_cif.got.tgz:293563.got - 2010.06.03 13:09:07.
