data_PCOD9190979
_publ_section_title
;
Structure prediction by ZEFSAII (Michael W. Deem and Ramdas Pophale) SiO2 
 PCOD9190979
Probable space group: C 2/M
;
_chemical_formula_sum "Si O2"
_cell_formula_units_Z 48
_cell_length_a 26.673869
_cell_length_b 18.842286
_cell_length_c 4.974315
_cell_angle_alpha 90.000000
_cell_angle_beta 103.212580
_cell_angle_gamma 90.000000
_cell_volume 2433.894039
_symmetry_space_group_name_H-M "C 2/M"
_symmetry_group_IT_number 12
_symmetry_cell_setting 'monoclinic'
loop_
_space_group_symop_operation_xyz
x,y,z
-x,y,-z
-x,-y,-z
x,-y,z
1/2+x,1/2+y,z
1/2-x,1/2+y,-z
1/2-x,1/2-y,-z
1/2+x,1/2-y,z
loop_
_atom_site_type_symbol
_atom_site_label
_atom_site_fract_x
_atom_site_fract_y
_atom_site_fract_z
Si Si1 0.053593 0.372240 0.636799
Si Si2 0.654142 0.923904 0.520375
Si Si3 0.268360 0.418480 0.761430
Si Si4 0.775426 0.821282 0.247500
Si Si5 0.333161 0.774679 0.720947
Si Si6 0.945223 0.274459 0.869024
O O1 0.104135 0.416446 0.641186
O O2 0.055595 0.303360 0.437621
O O3 0.000000 0.409250 0.500000
O O4 0.051868 0.342849 0.933370
O O5 0.707263 0.919821 0.750389
O O6 0.654188 0.856281 0.329391
O O7 0.654497 0.000000 0.378800
O O8 0.286853 0.500000 0.792205
O O9 0.271778 0.382935 0.472638
O O10 0.291877 0.363367 0.002175
O O11 0.719019 0.782864 0.166451
O O12 0.814149 0.764909 0.427912
O O13 0.388744 0.742187 0.867981
O O14 0.000000 0.236112 0.000000
#
# Coordination Sequence:
#
# PCOD9190979 Si02
#       6
#     8   8   8   8   8   8
#     4   9  17  29  44  62  86 121 163 201 233 261
#     4   9  18  31  47  66  93 129 163 198 233 268
#     4  10  20  34  50  71  96 122 155 191 237 291
#     4  10  20  32  51  72  96 128 154 193 238 278
#     4   9  19  32  49  71  98 125 163 196 232 280
#     4   9  17  30  47  65  90 122 155 197 236 270
#
# _framework density 19.721481000000001
#
# number of rings (size 3 to 8) (size 9 to 14) (size 15 to 20)
#    0.000    2.667    0.000    1.500    0.000    9.667 
#    0.000    6.667    0.000   13.500    0.000    0.000 
#    0.000    4.000    0.000    0.000    0.000    0.000 
#
# Total GULP energy -133723.057510 kJ/mol
# GULP energy per Si atom -5571.794063 kJ/mol
# Density = 1.967659 g / cm^3
# Si number density = 19.721481 Si / 1000 Ang^3
#
#
#
# Elastic Constant Matrix: (Units=GPa)
#
#
# Indices 1 2 3 4 5 6 
#
# 1 96.5651 9.0168 8.7103 0.0000 20.8873 0.0000
# 2 9.0168 75.5089 16.7284 0.0000 3.7106 0.0000
# 3 8.7103 16.7284 49.0403 0.0000 1.7868 0.0000
# 4 0.0000 0.0000 0.0000 13.7502 0.0000 -2.0156
# 5 20.8873 3.7106 1.7868 0.0000 32.1450 0.0000
# 6 0.0000 0.0000 0.0000 -2.0156 0.0000 13.9530
#
#
#
# Elastic Compliance Matrix: (Units=1/GPa)
#
#
# Indices 1 2 3 4 5 6 
#
# 1 0.012256 -0.000715 -0.001649 0.000000 -0.007790 0.000000
# 2 -0.000715 0.014430 -0.004761 0.000000 -0.000936 0.000000
# 3 -0.001649 -0.004761 0.022294 0.000000 0.000382 0.000000
# 4 0.000000 0.000000 0.000000 0.074299 0.000000 0.010733
# 5 -0.007790 -0.000936 0.000382 0.000000 0.036257 0.000000
# 6 0.000000 0.000000 0.000000 0.010733 0.000000 0.073220
#
#
# Mechanical properties :
#
#
# Convention : Reuss Voigt Hill
#
# Bulk Modulus (GPa) = 28.79409 32.22504 30.50957
# Shear Modulus (GPa) = 19.33607 24.41357 21.87482
#
# Velocity S-wave (km/s) = 3.13462 3.52222 3.33406
# Velocity P-wave (km/s) = 5.26623 5.73733 5.50682
#
# Compressibility (1/GPa) = 0.03472935
#
# Stress axis : x y z
#
# Youngs Moduli (GPa) = 81.59156 69.30162 44.85426
#
# Poissons Ratio (x) = 0.04958 0.07397
# Poissons Ratio (y) = 0.05837 0.21355
# Poissons Ratio (z) = 0.13455 0.32995
#
# Static dielectric constant tensor:
#      x y z
#    x 1.795170 0.000000 -0.003800 
#    y 0.000000 1.691230 0.000000 
#    z -0.003800 0.000000 1.735470 
# 
# From -- ./inp_files/28337.got.cif
#   From: 2010.05.17/outbox.cif.g08.bks.cpg/sg12_15_cif.got.tgz:28337.got - 2010.06.03 13:09:07.
