data_PCOD9190534
_publ_section_title
;
Structure prediction by ZEFSAII (Michael W. Deem and Ramdas Pophale) SiO2 
 PCOD9190534
Probable space group: C 2/M
;
_chemical_formula_sum "Si O2"
_cell_formula_units_Z 48
_cell_length_a 24.386780
_cell_length_b 7.578910
_cell_length_c 12.048060
_cell_angle_alpha 90.000000
_cell_angle_beta 68.590846
_cell_angle_gamma 90.000000
_cell_volume 2073.131501
_symmetry_space_group_name_H-M "C 2/M"
_symmetry_group_IT_number 12
_symmetry_cell_setting 'monoclinic'
loop_
_space_group_symop_operation_xyz
x,y,z
-x,y,-z
-x,-y,-z
x,-y,z
1/2+x,1/2+y,z
1/2-x,1/2+y,-z
1/2-x,1/2-y,-z
1/2+x,1/2-y,z
loop_
_atom_site_type_symbol
_atom_site_label
_atom_site_fract_x
_atom_site_fract_y
_atom_site_fract_z
Si Si1 0.859076 0.286164 0.297743
Si Si2 0.921978 0.712545 0.723099
Si Si3 0.714937 0.792012 0.137215
Si Si4 0.900340 0.697791 0.495725
Si Si5 0.591419 0.500000 0.889572
Si Si6 0.229028 0.800539 0.367771
Si Si7 0.971112 0.000000 0.840172
O O1 0.863423 0.500000 0.282780
O O2 0.899126 0.226344 0.372817
O O3 0.876111 0.175140 0.177763
O O4 0.790730 0.244051 0.374474
O O5 0.930814 0.500000 0.722051
O O6 0.854854 0.750050 0.812611
O O7 0.926543 0.772134 0.590324
O O8 0.963685 0.827739 0.769288
O O9 0.740734 0.699751 0.226786
O O10 0.719648 0.000000 0.153793
O O11 0.750000 0.750000 0.000000
O O12 0.924490 0.500000 0.468299
O O13 0.830018 0.689860 0.573058
O O14 0.529985 0.500000 0.868328
O O15 0.580031 0.500000 0.028304
O O16 0.214976 0.000000 0.411642
#
# Coordination Sequence:
#
# PCOD9190534 Si02
#       7
#     8   8   8   8   4   8   4
#     4  10  23  40  61  90 128 163 205 258 302 364
#     4   9  21  39  63  90 120 161 199 250 317 366
#     4  10  21  32  50  83 122 161 203 248 297 364
#     4   9  19  37  59  92 129 164 200 240 303 375
#     4  11  28  45  65  91 113 162 219 261 318 367
#     4  10  20  31  52  87 125 169 200 232 299 364
#     4  11  26  47  67  87 117 158 215 271 318 360
#
# _framework density 23.153379000000001
#
# number of rings (size 3 to 8) (size 9 to 14) (size 15 to 20)
#    0.000    2.167    0.000    2.500   11.667    1.333 
#    0.000    3.333    0.000    3.000    0.000    0.000 
#    0.000    0.000    0.000    0.000    0.000    0.000 
#
# Total GULP energy -134083.471782 kJ/mol
# GULP energy per Si atom -5586.811324 kJ/mol
# Density = 2.310068 g / cm^3
# Si number density = 23.153379 Si / 1000 Ang^3
#
#
#
# Elastic Constant Matrix: (Units=GPa)
#
#
# Indices 1 2 3 4 5 6 
#
# 1 83.3584 30.0081 23.5267 0.0000 9.5520 0.0000
# 2 30.0081 83.2748 11.3596 0.0000 5.7653 0.0000
# 3 23.5267 11.3596 69.8657 0.0000 5.8945 0.0000
# 4 0.0000 0.0000 0.0000 7.1078 0.0000 9.4009
# 5 9.5520 5.7653 5.8945 0.0000 38.6738 0.0000
# 6 0.0000 0.0000 0.0000 9.4009 0.0000 17.9880
#
#
#
# Elastic Compliance Matrix: (Units=1/GPa)
#
#
# Indices 1 2 3 4 5 6 
#
# 1 0.015138 -0.004725 -0.004126 0.000000 -0.002405 0.000000
# 2 -0.004725 0.013848 -0.000592 0.000000 -0.000807 0.000000
# 3 -0.004126 -0.000592 0.015910 0.000000 -0.001318 0.000000
# 4 0.000000 0.000000 0.000000 0.455634 0.000000 -0.238122
# 5 -0.002405 -0.000807 -0.001318 0.000000 0.026773 0.000000
# 6 0.000000 0.000000 0.000000 -0.238122 0.000000 0.180039
#
#
# Mechanical properties :
#
#
# Convention : Reuss Voigt Hill
#
# Bulk Modulus (GPa) = 38.44986 40.69863 39.57424
# Shear Modulus (GPa) = 6.80366 24.19423 15.49894
#
# Velocity S-wave (km/s) = 1.71607 3.23608 2.59009
# Velocity P-wave (km/s) = 4.53532 5.61952 5.10628
#
# Compressibility (1/GPa) = 0.02600790
#
# Stress axis : x y z
#
# Youngs Moduli (GPa) = 66.06014 72.21308 62.85321
#
# Poissons Ratio (x) = 0.34124 0.25935
# Poissons Ratio (y) = 0.31217 0.03722
# Poissons Ratio (z) = 0.27258 0.04277
#
# Static dielectric constant tensor:
#      x y z
#    x 1.891410 0.000000 -0.002630 
#    y 0.000000 1.831310 0.000000 
#    z -0.002630 0.000000 1.905100 
# 
# From -- ./inp_files/172977.got.cif
#   From: 2010.05.17/outbox.cif.g08.bks.cpg/sg12_87_cif.got.tgz:172977.got - 2010.06.03 13:09:07.
