data_PCOD9190139
_publ_section_title
;
Structure prediction by ZEFSAII (Michael W. Deem and Ramdas Pophale) SiO2 
 PCOD9190139
Probable space group: C 2/M
;
_chemical_formula_sum "Si O2"
_cell_formula_units_Z 58
_cell_length_a 19.126878
_cell_length_b 19.012754
_cell_length_c 10.594082
_cell_angle_alpha 90.000000
_cell_angle_beta 132.055615
_cell_angle_gamma 90.000000
_cell_volume 2860.526432
_symmetry_space_group_name_H-M "C 2/M"
_symmetry_group_IT_number 12
_symmetry_cell_setting 'monoclinic'
loop_
_space_group_symop_operation_xyz
x,y,z
-x,y,-z
-x,-y,-z
x,-y,z
1/2+x,1/2+y,z
1/2-x,1/2+y,-z
1/2-x,1/2-y,-z
1/2+x,1/2-y,z
loop_
_atom_site_type_symbol
_atom_site_label
_atom_site_fract_x
_atom_site_fract_y
_atom_site_fract_z
Si Si1 0.111526 0.716199 0.616795
Si Si2 0.655748 0.837225 0.932488
Si Si3 0.683426 0.837022 0.432049
Si Si4 0.875465 0.193142 0.738857
Si Si5 0.000000 0.000000 0.500000
Si Si6 0.590411 0.315810 0.935789
Si Si7 0.487090 0.918324 0.842384
Si Si8 0.855096 0.124510 0.257338
O O1 0.166112 0.675099 0.794918
O O2 0.150903 0.692351 0.529678
O O3 0.123622 0.799877 0.652329
O O4 0.000000 0.701656 0.500000
O O5 0.640268 0.758328 0.965651
O O6 0.559078 0.877461 0.841303
O O7 0.741257 0.876669 0.105744
O O8 0.794566 0.848419 0.567693
O O9 0.659039 0.774174 0.305658
O O10 0.619429 0.902956 0.324850
O O11 0.977709 0.193734 0.800830
O O12 0.882773 0.164856 0.889525
O O13 0.916355 0.062254 0.390250
O O14 0.613816 0.368416 0.851998
O O15 0.509189 0.000000 0.866555
O O16 0.500000 0.890822 0.000000
#
# Coordination Sequence:
#
# PCOD9190139 Si02
#       8
#     8   8   8   8   2   8   8   8
#     4  11  19  37  64  94 123 153 200 279 314 359
#     4  11  21  38  65  89 122 162 205 256 323 367
#     4  11  20  36  58  96 124 153 206 251 317 365
#     4  10  20  32  65  92 119 155 191 263 306 363
#     4  12  28  44  60  90 128 172 214 260 298 398
#     4  10  19  40  62  94 121 152 205 261 315 360
#     4  11  24  41  56  83 125 165 201 248 305 384
#     4  11  24  41  61  89 125 165 209 255 320 373
#
# _framework density 20.275988999999999
#
# number of rings (size 3 to 8) (size 9 to 14) (size 15 to 20)
#    0.000    1.241    3.448    4.966    0.966    1.103 
#    0.000    1.379    4.552    0.828    0.000    0.000 
#    0.000    0.000    0.000    0.000    0.000    0.000 
#
# Total GULP energy -161752.950179 kJ/mol
# GULP energy per Si atom -5577.687937 kJ/mol
# Density = 2.022984 g / cm^3
# Si number density = 20.275989 Si / 1000 Ang^3
#
#
#
# Elastic Constant Matrix: (Units=GPa)
#
#
# Indices 1 2 3 4 5 6 
#
# 1 58.1037 2.8109 21.0990 0.0000 1.4161 0.0000
# 2 2.8109 48.8434 22.5836 0.0000 -1.7502 0.0000
# 3 21.0990 22.5836 92.4861 0.0000 28.6542 0.0000
# 4 0.0000 0.0000 0.0000 15.5004 0.0000 3.9403
# 5 1.4161 -1.7502 28.6542 0.0000 45.0216 0.0000
# 6 0.0000 0.0000 0.0000 3.9403 0.0000 11.3196
#
#
#
# Elastic Compliance Matrix: (Units=1/GPa)
#
#
# Indices 1 2 3 4 5 6 
#
# 1 0.019137 0.001663 -0.005737 0.000000 0.003114 0.000000
# 2 0.001663 0.024409 -0.008243 0.000000 0.006143 0.000000
# 3 -0.005737 -0.008243 0.017659 0.000000 -0.011379 0.000000
# 4 0.000000 0.000000 0.000000 0.070778 0.000000 -0.024638
# 5 0.003114 0.006143 -0.011379 0.000000 0.029595 0.000000
# 6 0.000000 0.000000 0.000000 -0.024638 0.000000 0.096919
#
#
# Mechanical properties :
#
#
# Convention : Reuss Voigt Hill
#
# Bulk Modulus (GPa) = 27.34282 32.49112 29.91697
# Shear Modulus (GPa) = 16.93068 24.56429 20.74749
#
# Velocity S-wave (km/s) = 2.89279 3.48443 3.20230
# Velocity P-wave (km/s) = 4.96712 5.67869 5.33478
#
# Compressibility (1/GPa) = 0.03657268
#
# Stress axis : x y z
#
# Youngs Moduli (GPa) = 52.25376 40.96811 56.62693
#
# Poissons Ratio (x) = -0.06811 0.32484
# Poissons Ratio (y) = -0.08688 0.46676
# Poissons Ratio (z) = 0.29975 0.33769
#
# Static dielectric constant tensor:
#      x y z
#    x 1.757760 0.000000 0.005770 
#    y 0.000000 1.659860 0.000000 
#    z 0.005770 0.000000 1.788440 
# 
# From -- ./inp_files/168996.got.cif
#   From: 2010.05.17/outbox.cif.g08.bks.cpg/sg12_85_cif.got.tgz:168996.got - 2010.06.03 13:09:07.
