data_PCOD9190157
_publ_section_title
;
Structure prediction by ZEFSAII (Michael W. Deem and Ramdas Pophale) SiO2 
 PCOD9190157
Probable space group: C 2/M
;
_chemical_formula_sum "Si O2"
_cell_formula_units_Z 42
_cell_length_a 12.242658
_cell_length_b 14.344398
_cell_length_c 11.514511
_cell_angle_alpha 90.000000
_cell_angle_beta 125.062422
_cell_angle_gamma 90.000000
_cell_volume 1655.146252
_symmetry_space_group_name_H-M "C 2/M"
_symmetry_group_IT_number 12
_symmetry_cell_setting 'monoclinic'
loop_
_space_group_symop_operation_xyz
x,y,z
-x,y,-z
-x,-y,-z
x,-y,z
1/2+x,1/2+y,z
1/2-x,1/2+y,-z
1/2-x,1/2-y,-z
1/2+x,1/2-y,z
loop_
_atom_site_type_symbol
_atom_site_label
_atom_site_fract_x
_atom_site_fract_y
_atom_site_fract_z
Si Si1 0.254048 0.400971 0.255045
Si Si2 0.728388 0.606958 0.392892
Si Si3 0.088271 0.291909 0.334180
Si Si4 0.339460 0.600394 0.916157
Si Si5 0.000000 0.000000 0.500000
Si Si6 0.625250 0.198614 0.981812
O O1 0.182370 0.500000 0.238316
O O2 0.198353 0.323131 0.306017
O O3 0.405301 0.421161 0.378739
O O4 0.221685 0.373991 0.104753
O O5 0.701707 0.500000 0.419527
O O6 0.866875 0.647019 0.528435
O O7 0.616910 0.682004 0.364662
O O8 0.721739 0.605808 0.250103
O O9 0.949825 0.314675 0.186809
O O10 0.298064 0.500000 0.941191
O O11 0.500000 0.596503 0.000000
O O12 0.317095 0.696582 0.969280
O O13 0.500000 0.197337 0.000000
#
# Coordination Sequence:
#
# PCOD9190157 Si02
#       6
#     8   8   8   8   2   8
#     4  10  22  44  67  94 131 167 219 274 334 391
#     4  10  21  37  66 100 122 164 224 275 319 391
#     4  11  22  40  67  97 131 175 222 267 327 401
#     4  10  19  40  65  91 124 165 219 264 316 386
#     4   8  24  44  66 100 122 170 216 282 340 388
#     4  12  25  41  61  96 136 177 215 268 325 390
#
# _framework density 25.375401
#
# number of rings (size 3 to 8) (size 9 to 14) (size 15 to 20)
#    0.571    0.952    3.810    1.143    0.000    6.095 
#    0.000    0.000    0.000    2.286    0.000    0.000 
#    0.000    0.000    0.000    0.000    0.000    0.000 
#
# Total GULP energy -117050.956017 kJ/mol
# GULP energy per Si atom -5573.855048 kJ/mol
# Density = 2.531765 g / cm^3
# Si number density = 25.375401 Si / 1000 Ang^3
#
#
#
# Elastic Constant Matrix: (Units=GPa)
#
#
# Indices 1 2 3 4 5 6 
#
# 1 41.7541 26.1390 44.7290 0.0000 8.4493 0.0000
# 2 26.1390 187.9838 78.1171 0.0000 3.0189 0.0000
# 3 44.7290 78.1171 268.0951 0.0000 32.8909 0.0000
# 4 0.0000 0.0000 0.0000 49.1476 0.0000 4.9320
# 5 8.4493 3.0189 32.8909 0.0000 40.4754 0.0000
# 6 0.0000 0.0000 0.0000 4.9320 0.0000 16.7911
#
#
#
# Elastic Compliance Matrix: (Units=1/GPa)
#
#
# Indices 1 2 3 4 5 6 
#
# 1 0.030380 -0.002526 -0.003974 0.000000 -0.002924 0.000000
# 2 -0.002526 0.006306 -0.001581 0.000000 0.001341 0.000000
# 3 -0.003974 -0.001581 0.005262 0.000000 -0.003328 0.000000
# 4 0.000000 0.000000 0.000000 0.020965 0.000000 -0.006158
# 5 -0.002924 0.001341 -0.003328 0.000000 0.027921 0.000000
# 6 0.000000 0.000000 0.000000 -0.006158 0.000000 0.061364
#
#
# Mechanical properties :
#
#
# Convention : Reuss Voigt Hill
#
# Bulk Modulus (GPa) = 38.77922 88.42259 63.60091
# Shear Modulus (GPa) = 28.25582 44.53935 36.39759
#
# Velocity S-wave (km/s) = 3.34055 4.19408 3.79141
# Velocity P-wave (km/s) = 5.49495 7.64036 6.65468
#
# Compressibility (1/GPa) = 0.02578700
#
# Stress axis : x y z
#
# Youngs Moduli (GPa) = 32.91668 158.57602 190.04515
#
# Poissons Ratio (x) = 0.40056 0.75520
# Poissons Ratio (y) = 0.08315 0.30038
# Poissons Ratio (z) = 0.13080 0.25064
#
# Static dielectric constant tensor:
#      x y z
#    x 2.324850 0.000000 -0.031730 
#    y 0.000000 2.016050 0.000000 
#    z -0.031730 0.000000 1.972070 
# 
# From -- ./inp_files/233219.got.cif
#   From: 2010.05.17/outbox.cif.g08.bks.cpg/sg12_117_cif.got.tgz:233219.got - 2010.06.03 13:09:07.
