data_PCOD9190990
_publ_section_title
;
Structure prediction by ZEFSAII (Michael W. Deem and Ramdas Pophale) SiO2 
 PCOD9190990
Probable space group: C 2/M
;
_chemical_formula_sum "Si O2"
_cell_formula_units_Z 56
_cell_length_a 17.802449
_cell_length_b 29.630083
_cell_length_c 8.622257
_cell_angle_alpha 90.000000
_cell_angle_beta 46.138816
_cell_angle_gamma 90.000000
_cell_volume 3279.301268
_symmetry_space_group_name_H-M "C 2/M"
_symmetry_group_IT_number 12
_symmetry_cell_setting 'monoclinic'
loop_
_space_group_symop_operation_xyz
x,y,z
-x,y,-z
-x,-y,-z
x,-y,z
1/2+x,1/2+y,z
1/2-x,1/2+y,-z
1/2-x,1/2-y,-z
1/2+x,1/2-y,z
loop_
_atom_site_type_symbol
_atom_site_label
_atom_site_fract_x
_atom_site_fract_y
_atom_site_fract_z
Si Si1 0.077663 0.762063 0.511978
Si Si2 0.722187 0.188041 0.135763
Si Si3 0.422372 0.266523 0.993523
Si Si4 0.380893 0.099529 0.229733
Si Si5 0.220914 0.312266 0.763423
Si Si6 0.617675 0.000000 0.769967
Si Si7 0.617832 0.098783 0.398146
Si Si8 0.883196 0.500000 0.601407
O O1 0.140047 0.722361 0.334504
O O2 0.164715 0.796080 0.450725
O O3 0.000000 0.785053 0.500000
O O4 0.999158 0.745329 0.755487
O O5 0.834729 0.202872 0.039227
O O6 0.688246 0.138326 0.231478
O O7 0.720992 0.190848 0.951326
O O8 0.361316 0.226283 0.166830
O O9 0.500000 0.291205 0.000000
O O10 0.314613 0.139859 0.250512
O O11 0.383948 0.102691 0.412397
O O12 0.339204 0.049223 0.245339
O O13 0.500000 0.103335 0.000000
O O14 0.613678 0.000000 0.589349
O O15 0.500000 0.000000 0.000000
O O16 0.500000 0.103325 0.500000
O O17 0.659942 0.048974 0.291710
O O18 0.000000 0.500000 0.500000
#
# Coordination Sequence:
#
# PCOD9190990 Si02
#       8
#     8   8   8   8   8   4   8   4
#     4  11  20  38  55  69 105 143 167 209 260 289
#     4  11  22  35  52  77 101 138 175 208 253 302
#     4  11  24  36  52  75 106 135 174 214 249 299
#     4  10  20  32  51  77 105 135 171 208 253 308
#     4  11  22  35  53  77 101 136 180 205 251 307
#     4   8  16  32  48  70 104 134 160 206 258 302
#     4  10  20  32  52  75 107 136 167 211 254 303
#     4   8  16  32  48  72 100 136 166 197 256 312
#
# _framework density 17.076808
#
# number of rings (size 3 to 8) (size 9 to 14) (size 15 to 20)
#    0.000    1.714    2.857    2.571    6.000    2.286 
#    0.000    0.000    0.000    0.000    0.000    2.000 
#    0.000    0.000    0.000    0.000    0.000    0.000 
#
# Total GULP energy -156095.271763 kJ/mol
# GULP energy per Si atom -5574.831134 kJ/mol
# Density = 1.703794 g / cm^3
# Si number density = 17.076808 Si / 1000 Ang^3
#
#
#
# Elastic Constant Matrix: (Units=GPa)
#
#
# Indices 1 2 3 4 5 6 
#
# 1 96.5712 47.8277 19.1995 0.0000 -16.1599 0.0000
# 2 47.8277 144.8609 18.5617 0.0000 -19.3582 0.0000
# 3 19.1995 18.5617 48.6495 0.0000 -19.7533 0.0000
# 4 0.0000 0.0000 0.0000 20.8842 0.0000 1.0723
# 5 -16.1599 -19.3582 -19.7533 0.0000 17.1324 0.0000
# 6 0.0000 0.0000 0.0000 1.0723 0.0000 25.0145
#
#
#
# Elastic Compliance Matrix: (Units=1/GPa)
#
#
# Indices 1 2 3 4 5 6 
#
# 1 0.013489 -0.003266 -0.000770 0.000000 0.008144 0.000000
# 2 -0.003266 0.008958 0.001373 0.000000 0.008624 0.000000
# 3 -0.000770 0.001373 0.038865 0.000000 0.045635 0.000000
# 4 0.000000 0.000000 0.000000 0.047989 0.000000 -0.002057
# 5 0.008144 0.008624 0.045635 0.000000 0.128411 0.000000
# 6 0.000000 0.000000 0.000000 -0.002057 0.000000 0.040065
#
#
# Mechanical properties :
#
#
# Convention : Reuss Voigt Hill
#
# Bulk Modulus (GPa) = 17.86240 51.25103 34.55672
# Shear Modulus (GPa) = 16.56918 26.23908 21.40413
#
# Velocity S-wave (km/s) = 3.11830 3.92412 3.54418
# Velocity P-wave (km/s) = 4.84229 7.11399 6.08509
#
# Compressibility (1/GPa) = 0.05598352
#
# Stress axis : x y z
#
# Youngs Moduli (GPa) = 74.13587 111.63021 25.73040
#
# Poissons Ratio (x) = 0.36463 0.01982
# Poissons Ratio (y) = 0.24216 -0.03532
# Poissons Ratio (z) = 0.05710 -0.15324
#
# Static dielectric constant tensor:
#      x y z
#    x 1.613570 0.000000 0.041390 
#    y 0.000000 1.603020 0.000000 
#    z 0.041390 0.000000 1.580260 
# 
# From -- ./inp_files/80456.got.cif
#   From: 2010.05.17/outbox.cif.g08.bks.cpg/sg12_41_cif.got.tgz:80456.got - 2010.06.03 13:09:07.
