data_PCOD9190142
_publ_section_title
;
Structure prediction by ZEFSAII (Michael W. Deem and Ramdas Pophale) SiO2 
 PCOD9190142
Probable space group: C 2/M
;
_chemical_formula_sum "Si O2"
_cell_formula_units_Z 36
_cell_length_a 12.389192
_cell_length_b 14.603127
_cell_length_c 10.840368
_cell_angle_alpha 90.000000
_cell_angle_beta 49.514864
_cell_angle_gamma 90.000000
_cell_volume 1491.676295
_symmetry_space_group_name_H-M "C 2/M"
_symmetry_group_IT_number 12
_symmetry_cell_setting 'monoclinic'
loop_
_space_group_symop_operation_xyz
x,y,z
-x,y,-z
-x,-y,-z
x,-y,z
1/2+x,1/2+y,z
1/2-x,1/2+y,-z
1/2-x,1/2-y,-z
1/2+x,1/2-y,z
loop_
_atom_site_type_symbol
_atom_site_label
_atom_site_fract_x
_atom_site_fract_y
_atom_site_fract_z
Si Si1 0.774470 0.671162 0.084098
Si Si2 0.853200 0.158787 0.171385
Si Si3 0.421946 0.901686 0.754514
Si Si4 0.550396 0.393679 0.635062
Si Si5 0.500000 0.749824 0.500000
O O1 0.825254 0.733833 0.160466
O O2 0.608194 0.887397 0.077077
O O3 0.620725 0.624251 0.217587
O O4 0.750000 0.750000 0.000000
O O5 0.732774 0.100151 0.194502
O O6 0.868098 0.135679 0.302475
O O7 0.000000 0.134030 0.000000
O O8 0.485484 0.818079 0.627796
O O9 0.492918 0.000000 0.681166
O O10 0.572107 0.500000 0.591673
O O11 0.600641 0.326252 0.489741
#
# Coordination Sequence:
#
# PCOD9190142 Si02
#       5
#     8   8   8   8   4
#     4  10  19  40  62  97 128 162 210 275 325 365
#     4  11  20  38  67 100 124 162 221 274 316 372
#     4  11  22  39  66  96 130 173 215 263 327 394
#     4  12  24  41  68  97 129 174 224 269 316 383
#     4  12  24  44  60  92 140 178 208 266 332 390
#
# _framework density 24.133924
#
# number of rings (size 3 to 8) (size 9 to 14) (size 15 to 20)
#    0.000    0.889    8.889    2.000    0.000    1.778 
#    0.000    0.000    0.000   13.333    0.000    0.000 
#    0.000    0.000    0.000    0.000    0.000    0.000 
#
# Total GULP energy -100289.040743 kJ/mol
# GULP energy per Si atom -5571.613375 kJ/mol
# Density = 2.407899 g / cm^3
# Si number density = 24.133924 Si / 1000 Ang^3
#
#
#
# Elastic Constant Matrix: (Units=GPa)
#
#
# Indices 1 2 3 4 5 6 
#
# 1 34.1930 35.2685 6.7150 0.0000 14.5437 0.0000
# 2 35.2685 192.1281 50.8468 0.0000 22.0361 0.0000
# 3 6.7150 50.8468 94.5065 0.0000 23.5654 0.0000
# 4 0.0000 0.0000 0.0000 17.0747 0.0000 -3.5441
# 5 14.5437 22.0361 23.5654 0.0000 30.8638 0.0000
# 6 0.0000 0.0000 0.0000 -3.5441 0.0000 24.1911
#
#
#
# Elastic Compliance Matrix: (Units=1/GPa)
#
#
# Indices 1 2 3 4 5 6 
#
# 1 0.044205 -0.007356 0.005807 0.000000 -0.020012 0.000000
# 2 -0.007356 0.007425 -0.003724 0.000000 0.001008 0.000000
# 3 0.005807 -0.003724 0.015058 0.000000 -0.011575 0.000000
# 4 0.000000 0.000000 0.000000 0.060403 0.000000 0.008849
# 5 -0.020012 0.001008 -0.011575 0.000000 0.049949 0.000000
# 6 0.000000 0.000000 0.000000 0.008849 0.000000 0.042634
#
#
# Mechanical properties :
#
#
# Convention : Reuss Voigt Hill
#
# Bulk Modulus (GPa) = 17.81179 56.27645 37.04412
# Shear Modulus (GPa) = 20.08567 29.62573 24.85570
#
# Velocity S-wave (km/s) = 2.88802 3.50745 3.21270
# Velocity P-wave (km/s) = 4.30317 6.30650 5.39858
#
# Compressibility (1/GPa) = 0.05614259
#
# Stress axis : x y z
#
# Youngs Moduli (GPa) = 22.62201 134.67996 66.40837
#
# Poissons Ratio (x) = 0.99072 -0.38562
# Poissons Ratio (y) = 0.16641 0.24727
# Poissons Ratio (z) = -0.13136 0.50148
#
# Static dielectric constant tensor:
#      x y z
#    x 1.984610 0.000000 -0.018230 
#    y 0.000000 1.956290 0.000000 
#    z -0.018230 0.000000 2.102490 
# 
# From -- ./inp_files/142499.got.cif
#   From: 2010.05.17/outbox.cif.g08.bks.cpg/sg12_72_cif.got.tgz:142499.got - 2010.06.03 13:09:07.
