data_PCOD9190315
_publ_section_title
;
Structure prediction by ZEFSAII (Michael W. Deem and Ramdas Pophale) SiO2 
 PCOD9190315
Probable space group: C 2/M
;
_chemical_formula_sum "Si O2"
_cell_formula_units_Z 50
_cell_length_a 33.795481
_cell_length_b 7.744988
_cell_length_c 12.268748
_cell_angle_alpha 90.000000
_cell_angle_beta 53.338834
_cell_angle_gamma 90.000000
_cell_volume 2576.034875
_symmetry_space_group_name_H-M "C 2/M"
_symmetry_group_IT_number 12
_symmetry_cell_setting 'monoclinic'
loop_
_space_group_symop_operation_xyz
x,y,z
-x,y,-z
-x,-y,-z
x,-y,z
1/2+x,1/2+y,z
1/2-x,1/2+y,-z
1/2-x,1/2-y,-z
1/2+x,1/2-y,z
loop_
_atom_site_type_symbol
_atom_site_label
_atom_site_fract_x
_atom_site_fract_y
_atom_site_fract_z
Si Si1 0.895473 0.790686 0.652125
Si Si2 0.459784 0.205236 0.743181
Si Si3 0.068547 0.799697 0.632769
Si Si4 0.073735 0.202310 0.871029
Si Si5 0.866756 0.295095 0.040411
Si Si6 0.804693 0.204109 0.946452
Si Si7 0.000000 0.500000 0.000000
O O1 0.942574 0.742350 0.648309
O O2 0.902157 0.724008 0.518251
O O3 0.846932 0.724498 0.795085
O O4 0.894012 0.000000 0.650098
O O5 0.511048 0.286504 0.695482
O O6 0.464903 0.000000 0.748069
O O7 0.413489 0.269245 0.891302
O O8 0.076595 0.731031 0.741305
O O9 0.082484 0.000000 0.618077
O O10 0.124232 0.214988 0.856079
O O11 0.036973 0.343839 0.983780
O O12 0.057778 0.000000 0.898841
O O13 0.869248 0.500000 0.045951
O O14 0.819234 0.255853 0.045293
O O15 0.809329 0.000000 0.933473
O O16 0.750000 0.250000 0.000000
#
# Coordination Sequence:
#
# PCOD9190315 Si02
#       7
#     8   8   8   8   8   8   2
#     4   9  19  36  53  73 105 143 179 224 280 336
#     4  10  20  30  47  75 106 143 183 226 269 317
#     4  10  21  34  50  73 106 148 190 224 266 330
#     4  11  23  36  54  79 111 155 198 240 280 323
#     4  10  20  36  55  79 114 146 186 238 283 332
#     4  10  20  36  61  86 109 137 178 233 296 351
#     4  12  22  36  52  78 114 156 206 236 268 324
#
# _framework density 19.409676000000001
#
# number of rings (size 3 to 8) (size 9 to 14) (size 15 to 20)
#    0.000    1.920    0.800    3.120    3.360    6.400 
#    0.000    0.000    0.000    0.960    0.000    0.000 
#    0.000    0.000    0.000    0.000    0.000    0.000 
#
# Total GULP energy -139217.928838 kJ/mol
# GULP energy per Si atom -5568.717154 kJ/mol
# Density = 1.936550 g / cm^3
# Si number density = 19.409676 Si / 1000 Ang^3
#
#
#
# Elastic Constant Matrix: (Units=GPa)
#
#
# Indices 1 2 3 4 5 6 
#
# 1 154.1876 8.3601 53.2389 0.0000 17.9846 0.0000
# 2 8.3601 75.1863 3.6174 0.0000 3.5221 0.0000
# 3 53.2389 3.6174 63.4141 0.0000 16.9664 0.0000
# 4 0.0000 0.0000 0.0000 8.4632 0.0000 1.0756
# 5 17.9846 3.5221 16.9664 0.0000 24.3307 0.0000
# 6 0.0000 0.0000 0.0000 1.0756 0.0000 32.0190
#
#
#
# Elastic Compliance Matrix: (Units=1/GPa)
#
#
# Indices 1 2 3 4 5 6 
#
# 1 0.009219 -0.000598 -0.007260 0.000000 -0.001665 0.000000
# 2 -0.000598 0.013435 0.000169 0.000000 -0.001621 0.000000
# 3 -0.007260 0.000169 0.025111 0.000000 -0.012168 0.000000
# 4 0.000000 0.000000 0.000000 0.118666 0.000000 -0.003986
# 5 -0.001665 -0.001621 -0.012168 0.000000 0.051051 0.000000
# 6 0.000000 0.000000 0.000000 -0.003986 0.000000 0.031365
#
#
# Mechanical properties :
#
#
# Convention : Reuss Voigt Hill
#
# Bulk Modulus (GPa) = 30.87701 47.02456 38.95078
# Shear Modulus (GPa) = 18.18054 28.13402 23.15728
#
# Velocity S-wave (km/s) = 3.06383 3.81134 3.45785
# Velocity P-wave (km/s) = 5.33467 6.60669 6.00446
#
# Compressibility (1/GPa) = 0.03238656
#
# Stress axis : x y z
#
# Youngs Moduli (GPa) = 108.47040 74.43494 39.82393
#
# Poissons Ratio (x) = 0.04450 0.28913
# Poissons Ratio (y) = 0.06484 -0.00674
# Poissons Ratio (z) = 0.78752 -0.01259
#
# Static dielectric constant tensor:
#      x y z
#    x 0.670930 0.000000 0.743030 
#    y 0.000000 1.684520 0.000000 
#    z 0.743030 0.000000 1.288120 
# 
# From -- ./inp_files/186333.got.cif
#   From: 2010.05.17/outbox.cif.g08.bks.cpg/sg12_94_cif.got.tgz:186333.got - 2010.06.03 13:09:07.
