data_PCOD9190095
_publ_section_title
;
Structure prediction by ZEFSAII (Michael W. Deem and Ramdas Pophale) SiO2 
 PCOD9190095
Probable space group: C 2/M
;
_chemical_formula_sum "Si O2"
_cell_formula_units_Z 28
_cell_length_a 6.883054
_cell_length_b 31.466815
_cell_length_c 7.492189
_cell_angle_alpha 90.000000
_cell_angle_beta 42.603367
_cell_angle_gamma 90.000000
_cell_volume 1098.448087
_symmetry_space_group_name_H-M "C 2/M"
_symmetry_group_IT_number 12
_symmetry_cell_setting 'monoclinic'
loop_
_space_group_symop_operation_xyz
x,y,z
-x,y,-z
-x,-y,-z
x,-y,z
1/2+x,1/2+y,z
1/2-x,1/2+y,-z
1/2-x,1/2-y,-z
1/2+x,1/2-y,z
loop_
_atom_site_type_symbol
_atom_site_label
_atom_site_fract_x
_atom_site_fract_y
_atom_site_fract_z
Si Si1 0.449626 0.124868 0.790185
Si Si2 0.825791 0.715363 0.796465
Si Si3 0.842350 0.000000 0.796750
Si Si4 0.940284 0.909726 0.276220
O O1 0.514415 0.174681 0.726154
O O2 0.253221 0.108437 0.755039
O O3 0.723406 0.095012 0.586699
O O4 0.223584 0.118909 0.100141
O O5 0.000000 0.731384 0.500000
O O6 0.500000 0.697267 0.000000
O O7 0.750000 0.750000 0.000000
O O8 0.000000 0.000000 0.500000
O O9 0.949565 0.957420 0.821246
O O10 0.500000 0.000000 0.000000
#
# Coordination Sequence:
#
# PCOD9190095 Si02
#       4
#     8   8   4   8
#     4  10  19  39  68  94 121 175 233 285 333 415
#     4  12  23  43  70 106 145 183 239 306 358 424
#     4  12  26  42  58  98 142 176 222 285 352 421
#     4  10  20  38  67  88 129 173 225 282 339 410
#
# _framework density 25.490507000000001
#
# number of rings (size 3 to 8) (size 9 to 14) (size 15 to 20)
#    0.000    1.143    5.714    2.571    0.000    4.571 
#    0.000    5.714    0.000    0.000    0.000    0.000 
#    0.000    0.000    0.000    0.000    0.000    0.000 
#
# Total GULP energy -78133.944757 kJ/mol
# GULP energy per Si atom -5580.996054 kJ/mol
# Density = 2.543249 g / cm^3
# Si number density = 25.490507 Si / 1000 Ang^3
#
#
#
# Elastic Constant Matrix: (Units=GPa)
#
#
# Indices 1 2 3 4 5 6 
#
# 1 59.2568 30.1421 48.7607 0.0000 -9.1783 0.0000
# 2 30.1421 193.3327 38.3453 0.0000 -1.7758 0.0000
# 3 48.7607 38.3453 218.7308 0.0000 -25.0397 0.0000
# 4 0.0000 0.0000 0.0000 36.2175 0.0000 -1.2920
# 5 -9.1783 -1.7758 -25.0397 0.0000 64.4296 0.0000
# 6 0.0000 0.0000 0.0000 -1.2920 0.0000 27.3155
#
#
#
# Elastic Compliance Matrix: (Units=1/GPa)
#
#
# Indices 1 2 3 4 5 6 
#
# 1 0.021910 -0.002555 -0.004278 0.000000 0.001388 0.000000
# 2 -0.002555 0.005660 -0.000467 0.000000 -0.000390 0.000000
# 3 -0.004278 -0.000467 0.005794 0.000000 0.001629 0.000000
# 4 0.000000 0.000000 0.000000 0.027658 0.000000 0.001308
# 5 0.001388 -0.000390 0.001629 0.000000 0.016341 0.000000
# 6 0.000000 0.000000 0.000000 0.001308 0.000000 0.036671
#
#
# Mechanical properties :
#
#
# Convention : Reuss Voigt Hill
#
# Bulk Modulus (GPa) = 53.29174 78.42404 65.85789
# Shear Modulus (GPa) = 37.06784 49.19734 43.13259
#
# Velocity S-wave (km/s) = 3.81751 4.39797 4.11798
# Velocity P-wave (km/s) = 6.35477 7.52478 6.96439
#
# Compressibility (1/GPa) = 0.01876464
#
# Stress axis : x y z
#
# Youngs Moduli (GPa) = 45.64096 176.68314 172.59677
#
# Poissons Ratio (x) = 0.45139 0.73828
# Poissons Ratio (y) = 0.11660 0.08065
# Poissons Ratio (z) = 0.19523 0.08256
#
# Static dielectric constant tensor:
#      x y z
#    x 2.559270 0.000000 0.801550 
#    y 0.000000 1.971690 0.000000 
#    z 0.801550 0.000000 3.366220 
# 
# From -- ./inp_files/41267.got.cif
#   From: 2010.05.17/outbox.cif.g08.bks.cpg/sg12_21_cif.got.tgz:41267.got - 2010.06.03 13:09:07.
