data_PCOD9190289
_publ_section_title
;
Structure prediction by ZEFSAII (Michael W. Deem and Ramdas Pophale) SiO2 
 PCOD9190289
Probable space group: C 2/M
;
_chemical_formula_sum "Si O2"
_cell_formula_units_Z 48
_cell_length_a 15.573041
_cell_length_b 8.534497
_cell_length_c 29.648977
_cell_angle_alpha 90.000000
_cell_angle_beta 141.929742
_cell_angle_gamma 90.000000
_cell_volume 2429.874351
_symmetry_space_group_name_H-M "C 2/M"
_symmetry_group_IT_number 12
_symmetry_cell_setting 'monoclinic'
loop_
_space_group_symop_operation_xyz
x,y,z
-x,y,-z
-x,-y,-z
x,-y,z
1/2+x,1/2+y,z
1/2-x,1/2+y,-z
1/2-x,1/2-y,-z
1/2+x,1/2-y,z
loop_
_atom_site_type_symbol
_atom_site_label
_atom_site_fract_x
_atom_site_fract_y
_atom_site_fract_z
Si Si1 0.391675 0.325391 0.995689
Si Si2 0.325965 0.190532 0.310164
Si Si3 0.919886 0.179101 0.849557
Si Si4 0.866524 0.811983 0.582044
Si Si5 0.864057 0.808394 0.683897
Si Si6 0.614577 0.675962 0.842221
O O1 0.353984 0.500000 0.996974
O O2 0.252683 0.254413 0.917801
O O3 0.500000 0.335502 0.000000
O O4 0.478768 0.243325 0.071788
O O5 0.226957 0.246916 0.227764
O O6 0.481279 0.251373 0.369199
O O7 0.250743 0.237843 0.326150
O O8 0.325148 0.000000 0.308653
O O9 0.009283 0.168322 0.840953
O O10 0.891880 0.000000 0.854487
O O11 0.750000 0.750000 0.500000
O O12 0.835763 0.761427 0.621000
O O13 0.866797 0.000000 0.581339
O O14 0.017366 0.750996 0.763240
O O15 0.869544 0.000000 0.687840
O O16 0.652634 0.500000 0.843922
#
# Coordination Sequence:
#
# PCOD9190289 Si02
#       6
#     8   8   8   8   8   8
#     4  10  20  30  43  72 110 140 167 210 265 309
#     4   9  18  37  62  82 104 144 188 221 262 319
#     4   8  16  32  52  72 100 138 176 212 257 310
#     4  11  23  39  58  84 113 140 173 219 273 327
#     4   8  18  37  59  80 108 145 181 219 269 325
#     4   9  17  33  54  72  94 135 184 219 248 298
#
# _framework density 19.754107999999999
#
# number of rings (size 3 to 8) (size 9 to 14) (size 15 to 20)
#    0.000    2.833    0.000    3.000    2.333    1.000 
#    0.000   10.000    0.000    0.000    0.000    0.000 
#    0.000    0.000    0.000    0.000    0.000    0.000 
#
# Total GULP energy -133687.488153 kJ/mol
# GULP energy per Si atom -5570.312006 kJ/mol
# Density = 1.970915 g / cm^3
# Si number density = 19.754108 Si / 1000 Ang^3
#
#
#
# Elastic Constant Matrix: (Units=GPa)
#
#
# Indices 1 2 3 4 5 6 
#
# 1 170.6309 36.6955 266.4538 0.0000 21.8539 0.0000
# 2 36.6955 23.7847 80.2780 0.0000 8.9171 0.0000
# 3 266.4538 80.2780 598.7306 0.0000 36.6956 -0.0001
# 4 0.0000 0.0000 0.0000 21.4530 0.0000 -0.9152
# 5 21.8539 8.9171 36.6956 0.0000 43.9016 0.0000
# 6 0.0000 0.0000 -0.0001 -0.9152 0.0000 9.8130
#
#
#
# Elastic Compliance Matrix: (Units=1/GPa)
#
#
# Indices 1 2 3 4 5 6 
#
# 1 0.019492 -0.000678 -0.008429 0.000000 -0.002520 0.000000
# 2 -0.000678 0.079153 -0.009851 0.000000 -0.007506 0.000000
# 3 -0.008429 -0.009851 0.006706 0.000000 0.000592 0.000000
# 4 0.000000 0.000000 0.000000 0.046800 0.000000 0.004365
# 5 -0.002520 -0.007506 0.000592 0.000000 0.025062 0.000000
# 6 0.000000 0.000000 0.000000 0.004365 0.000000 0.102312
#
#
# Mechanical properties :
#
#
# Convention : Reuss Voigt Hill
#
# Bulk Modulus (GPa) = 14.82912 173.33343 94.08127
# Shear Modulus (GPa) = 14.70932 42.34813 28.52873
#
# Velocity S-wave (km/s) = 2.73173 4.63510 3.80438
# Velocity P-wave (km/s) = 4.18007 10.79729 8.18702
#
# Compressibility (1/GPa) = 0.06743487
#
# Stress axis : x y z
#
# Youngs Moduli (GPa) = 51.30296 12.63374 149.11789
#
# Poissons Ratio (x) = 0.00856 1.25696
# Poissons Ratio (y) = 0.03476 1.46901
# Poissons Ratio (z) = 0.43245 0.12446
#
# Static dielectric constant tensor:
#      x y z
#    x 1.680400 0.000000 -0.022260 
#    y 0.000000 1.603480 0.000000 
#    z -0.022260 0.000000 1.738490 
# 
# From -- ./inp_files/360323.got.cif
#   From: 2010.05.17/outbox.cif.g08.bks.cpg/sg12_181_cif.got.tgz:360323.got - 2010.06.03 13:09:07.
