data_PCOD9190937
_publ_section_title
;
Structure prediction by ZEFSAII (Michael W. Deem and Ramdas Pophale) SiO2 
 PCOD9190937
Probable space group: C 2/M
;
_chemical_formula_sum "Si O2"
_cell_formula_units_Z 64
_cell_length_a 31.913949
_cell_length_b 7.567183
_cell_length_c 16.696095
_cell_angle_alpha 90.000000
_cell_angle_beta 44.371894
_cell_angle_gamma 90.000000
_cell_volume 2819.688636
_symmetry_space_group_name_H-M "C 2/M"
_symmetry_group_IT_number 12
_symmetry_cell_setting 'monoclinic'
loop_
_space_group_symop_operation_xyz
x,y,z
-x,y,-z
-x,-y,-z
x,-y,z
1/2+x,1/2+y,z
1/2-x,1/2+y,-z
1/2-x,1/2-y,-z
1/2+x,1/2-y,z
loop_
_atom_site_type_symbol
_atom_site_label
_atom_site_fract_x
_atom_site_fract_y
_atom_site_fract_z
Si Si1 0.063430 0.796128 0.438812
Si Si2 0.135324 0.706401 0.913492
Si Si3 0.156447 0.203632 0.165751
Si Si4 0.253861 0.293835 0.828052
Si Si5 0.434025 0.288961 0.842170
Si Si6 0.656575 0.196895 0.433125
Si Si7 0.939207 0.283422 0.127843
Si Si8 0.931916 0.287493 0.320891
O O1 0.105999 0.801999 0.303727
O O2 0.097168 0.689348 0.459773
O O3 0.000000 0.723969 0.500000
O O4 0.055508 0.000000 0.477696
O O5 0.149996 0.500000 0.881363
O O6 0.191701 0.787498 0.883286
O O7 0.115099 0.776625 0.855330
O O8 0.079759 0.719356 0.050287
O O9 0.212972 0.282453 0.138087
O O10 0.119433 0.283439 0.142070
O O11 0.171512 0.000000 0.124231
O O12 0.244634 0.500000 0.860657
O O13 0.296785 0.287258 0.691008
O O14 0.428679 0.500000 0.848342
O O15 0.503228 0.249596 0.727465
O O16 0.627582 0.280408 0.552110
O O17 0.679889 0.000000 0.417647
O O18 0.939094 0.500000 0.128611
O O19 0.935221 0.224050 0.224748
O O20 0.000000 0.228656 0.000000
O O21 0.925662 0.500000 0.328890
#
# Coordination Sequence:
#
# PCOD9190937 Si02
#       8
#     8   8   8   8   8   8   8   8
#     4   9  16  29  49  69  97 138 179 213 252 307
#     4  10  20  36  58  79  99 134 179 218 255 307
#     4   8  16  30  46  69 101 137 171 205 248 300
#     4   9  19  37  57  73  99 141 185 214 244 306
#     4  11  21  32  51  79 109 137 169 213 264 309
#     4  10  20  32  50  76 106 136 170 217 265 302
#     4   9  16  32  58  79 100 132 170 209 255 315
#     4  10  20  35  54  78 107 137 170 211 259 313
#
# _framework density 22.697541999999999
#
# number of rings (size 3 to 8) (size 9 to 14) (size 15 to 20)
#    0.000    2.500    1.250    2.250    0.000    3.250 
#    0.000    8.125    0.000    0.000    0.000    0.000 
#    0.000    0.000    0.000    0.000    0.000    0.000 
#
# Total GULP energy -178435.833674 kJ/mol
# GULP energy per Si atom -5576.119802 kJ/mol
# Density = 2.264588 g / cm^3
# Si number density = 22.697542 Si / 1000 Ang^3
#
#
#
# Elastic Constant Matrix: (Units=GPa)
#
#
# Indices 1 2 3 4 5 6 
#
# 1 102.4034 4.1238 19.6786 -0.0012 9.1803 -0.0010
# 2 4.1238 57.1584 -6.5897 -0.0062 3.2662 -0.0039
# 3 19.6786 -6.5897 83.9650 -0.0012 14.9461 -0.0003
# 4 -0.0012 -0.0062 -0.0012 7.4035 0.0007 -6.4704
# 5 9.1803 3.2662 14.9461 0.0007 34.3084 0.0006
# 6 -0.0010 -0.0039 -0.0003 -6.4704 0.0006 -3.7718
#
#
#
# Elastic Compliance Matrix: (Units=1/GPa)
#
#
# Indices 1 2 3 4 5 6 
#
# 1 0.010379 -0.000903 -0.002194 0.000000 -0.001735 -0.000001
# 2 -0.000903 0.017930 0.002038 0.000000 -0.002353 -0.000018
# 3 -0.002194 0.002038 0.013566 0.000000 -0.005517 -0.000004
# 4 0.000000 0.000000 0.000000 0.054044 0.000001 -0.092712
# 5 -0.001735 -0.002353 -0.005517 0.000001 0.032239 0.000008
# 6 -0.000001 -0.000018 -0.000004 -0.092712 0.000008 -0.106081
#
#
# Mechanical properties :
#
#
# Convention : Reuss Voigt Hill
#
# Bulk Modulus (GPa) = 25.15373 30.88356 28.01865
# Shear Modulus (GPa) = 133.52189 22.67564 78.09876
#
# Velocity S-wave (km/s) = 7.67817 3.16418 5.87224
# Velocity P-wave (km/s) = 9.47164 5.19476 7.63863
#
# Compressibility (1/GPa) = 0.03975553
#
# Stress axis : x y z
#
# Youngs Moduli (GPa) = 96.34923 55.77328 73.71421
#
# Poissons Ratio (x) = 0.05034 0.16176
# Poissons Ratio (y) = 0.08697 -0.15020
# Poissons Ratio (z) = 0.21143 -0.11364
#
# Static dielectric constant tensor:
#      x y z
#    x 1.880890 0.000000 0.009760 
#    y 0.000000 1.918600 0.000000 
#    z 0.009760 0.000000 1.865220 
# 
# From -- ./inp_files/248977.got.cif
#   From: 2010.05.17/outbox.cif.g08.bks.cpg/sg12_125_cif.got.tgz:248977.got - 2010.06.03 13:09:07.
