data_PCOD9190055
_publ_section_title
;
Structure prediction by ZEFSAII (Michael W. Deem and Ramdas Pophale) SiO2 
 PCOD9190055
Probable space group: C 2/M
;
_chemical_formula_sum "Si O2"
_cell_formula_units_Z 48
_cell_length_a 11.509343
_cell_length_b 21.353625
_cell_length_c 11.699620
_cell_angle_alpha 90.000000
_cell_angle_beta 52.928985
_cell_angle_gamma 90.000000
_cell_volume 2294.226900
_symmetry_space_group_name_H-M "C 2/M"
_symmetry_group_IT_number 12
_symmetry_cell_setting 'monoclinic'
loop_
_space_group_symop_operation_xyz
x,y,z
-x,y,-z
-x,-y,-z
x,-y,z
1/2+x,1/2+y,z
1/2-x,1/2+y,-z
1/2-x,1/2-y,-z
1/2+x,1/2-y,z
loop_
_atom_site_type_symbol
_atom_site_label
_atom_site_fract_x
_atom_site_fract_y
_atom_site_fract_z
Si Si1 0.597947 0.829712 0.625213
Si Si2 0.870463 0.067513 0.985847
Si Si3 0.692752 0.708529 0.679650
Si Si4 0.271423 0.801598 0.886821
Si Si5 0.728660 0.427500 0.364143
Si Si6 0.986904 0.890388 0.688331
O O1 0.697676 0.779468 0.633765
O O2 0.664244 0.826077 0.457878
O O3 0.436337 0.806330 0.743512
O O4 0.628860 0.895837 0.666854
O O5 0.948008 0.067640 0.818174
O O6 0.797327 0.000000 0.049980
O O7 0.771922 0.129100 0.045613
O O8 0.000000 0.074759 0.000000
O O9 0.681196 0.709111 0.823001
O O10 0.557776 0.672450 0.699225
O O11 0.250000 0.750000 0.000000
O O12 0.745232 0.500000 0.321678
O O13 0.608551 0.421029 0.535595
O O14 0.658242 0.387535 0.302392
#
# Coordination Sequence:
#
# PCOD9190055 Si02
#       6
#     8   8   8   8   8   8
#     4  10  24  40  65  91 124 166 203 268 316 372
#     4  11  23  40  63  91 127 166 207 257 312 374
#     4  10  22  43  64  92 123 161 217 261 314 367
#     4  12  26  42  65  91 129 168 211 260 316 386
#     4  10  21  38  66  96 126 164 210 259 312 371
#     4  10  19  39  65  92 125 161 213 261 300 365
#
# _framework density 20.922080000000001
#
# number of rings (size 3 to 8) (size 9 to 14) (size 15 to 20)
#    0.000    1.500    1.667    3.500    4.667    0.667 
#    0.000    0.000    0.000    5.000    0.000    0.000 
#    0.000    0.000    0.000    0.000    0.000    0.000 
#
# Total GULP energy -133873.776202 kJ/mol
# GULP energy per Si atom -5578.074008 kJ/mol
# Density = 2.087446 g / cm^3
# Si number density = 20.922080 Si / 1000 Ang^3
#
#
#
# Elastic Constant Matrix: (Units=GPa)
#
#
# Indices 1 2 3 4 5 6 
#
# 1 65.0789 40.7989 36.5920 0.0000 24.2017 0.0000
# 2 40.7989 133.7762 29.3825 0.0000 8.6132 0.0000
# 3 36.5920 29.3825 83.9726 0.0000 27.8383 0.0000
# 4 0.0000 0.0000 0.0000 30.1444 0.0000 11.5502
# 5 24.2017 8.6132 27.8383 0.0000 36.1724 0.0000
# 6 0.0000 0.0000 0.0000 11.5502 0.0000 52.5484
#
#
#
# Elastic Compliance Matrix: (Units=1/GPa)
#
#
# Indices 1 2 3 4 5 6 
#
# 1 0.026921 -0.006215 -0.005472 0.000000 -0.012321 0.000000
# 2 -0.006215 0.009535 -0.001684 0.000000 0.003183 0.000000
# 3 -0.005472 -0.001684 0.018172 0.000000 -0.009923 0.000000
# 4 0.000000 0.000000 0.000000 0.036224 0.000000 -0.007962
# 5 -0.012321 0.003183 -0.009923 0.000000 0.042768 0.000000
# 6 0.000000 0.000000 0.000000 -0.007962 0.000000 0.020780
#
#
# Mechanical properties :
#
#
# Convention : Reuss Voigt Hill
#
# Bulk Modulus (GPa) = 35.85888 55.15271 45.50580
# Shear Modulus (GPa) = 26.25538 35.51000 30.88269
#
# Velocity S-wave (km/s) = 3.54632 4.12424 3.84615
# Velocity P-wave (km/s) = 5.82623 7.00695 6.44369
#
# Compressibility (1/GPa) = 0.02788709
#
# Stress axis : x y z
#
# Youngs Moduli (GPa) = 37.14589 104.87152 55.03030
#
# Poissons Ratio (x) = 0.65180 0.30111
# Poissons Ratio (y) = 0.23087 0.09265
# Poissons Ratio (z) = 0.20325 0.17656
#
# Static dielectric constant tensor:
#      x y z
#    x 1.830670 0.000000 0.017570 
#    y 0.000000 1.778280 0.000000 
#    z 0.017570 0.000000 1.771650 
# 
# From -- ./inp_files/135207.got.cif
#   From: 2010.05.17/outbox.cif.g08.bks.cpg/sg12_68_cif.got.tgz:135207.got - 2010.06.03 13:09:07.
