data_PCOD9190537
_publ_section_title
;
Structure prediction by ZEFSAII (Michael W. Deem and Ramdas Pophale) SiO2 
 PCOD9190537
Probable space group: C 2/M
;
_chemical_formula_sum "Si O2"
_cell_formula_units_Z 56
_cell_length_a 10.984519
_cell_length_b 21.682318
_cell_length_c 12.431350
_cell_angle_alpha 90.000000
_cell_angle_beta 76.551014
_cell_angle_gamma 90.000000
_cell_volume 2879.580443
_symmetry_space_group_name_H-M "C 2/M"
_symmetry_group_IT_number 12
_symmetry_cell_setting 'monoclinic'
loop_
_space_group_symop_operation_xyz
x,y,z
-x,y,-z
-x,-y,-z
x,-y,z
1/2+x,1/2+y,z
1/2-x,1/2+y,-z
1/2-x,1/2-y,-z
1/2+x,1/2-y,z
loop_
_atom_site_type_symbol
_atom_site_label
_atom_site_fract_x
_atom_site_fract_y
_atom_site_fract_z
Si Si1 0.006463 0.696969 0.378629
Si Si2 0.362381 0.682897 0.071406
Si Si3 0.257516 0.367716 0.298690
Si Si4 0.649663 0.000000 0.351910
Si Si5 0.149380 0.805839 0.515877
Si Si6 0.215401 0.370446 0.695397
Si Si7 0.853294 0.330465 0.057064
Si Si8 0.352062 0.000000 0.390666
O O1 0.143963 0.681798 0.310437
O O2 0.000000 0.666923 0.500000
O O3 0.967375 0.767525 0.408876
O O4 0.907332 0.665752 0.322332
O O5 0.352674 0.650914 0.188076
O O6 0.354270 0.757164 0.082276
O O7 0.500000 0.668674 0.000000
O O8 0.244708 0.661950 0.021411
O O9 0.207224 0.436554 0.296918
O O10 0.313098 0.356864 0.405032
O O11 0.503025 0.000000 0.353900
O O12 0.670990 0.000000 0.476441
O O13 0.250000 0.750000 0.500000
O O14 0.172589 0.838508 0.395886
O O15 0.205338 0.363559 0.825730
O O16 0.201660 0.439783 0.656249
O O17 0.000000 0.347418 0.000000
#
# Coordination Sequence:
#
# PCOD9190537 Si02
#       8
#     8   8   8   4   8   8   8   4
#     4  11  19  32  54  90 127 151 202 265 330 399
#     4  10  23  43  65  92 125 177 227 264 328 400
#     4  12  21  39  61  89 127 163 218 270 322 391
#     4  11  22  36  60  93 126 177 211 272 323 390
#     4  10  20  31  52  91 120 154 195 252 340 388
#     4  11  20  36  55  90 129 164 202 264 336 392
#     4  10  22  40  62  94 134 168 211 282 340 383
#     4  11  20  34  60  92 130 164 213 262 340 383
#
# _framework density 19.447278000000001
#
# number of rings (size 3 to 8) (size 9 to 14) (size 15 to 20)
#    0.000    1.286    5.714    2.571    0.000    2.286 
#    0.000    1.429    0.000    0.000    0.000    2.000 
#    0.000    0.000    0.000    0.000    0.000    0.000 
#
# Total GULP energy -156107.799655 kJ/mol
# GULP energy per Si atom -5575.278559 kJ/mol
# Density = 1.940302 g / cm^3
# Si number density = 19.447278 Si / 1000 Ang^3
#
#
#
# Elastic Constant Matrix: (Units=GPa)
#
#
# Indices 1 2 3 4 5 6 
#
# 1 61.9585 31.4293 24.1256 0.0000 -16.2029 0.0000
# 2 31.4293 86.1845 33.8016 0.0000 -19.9688 0.0000
# 3 24.1256 33.8016 103.5639 0.0000 -17.8658 0.0000
# 4 0.0000 0.0000 0.0000 20.7974 0.0000 4.5019
# 5 -16.2029 -19.9688 -17.8658 0.0000 33.7915 0.0000
# 6 0.0000 0.0000 0.0000 4.5019 0.0000 19.9801
#
#
#
# Elastic Compliance Matrix: (Units=1/GPa)
#
#
# Indices 1 2 3 4 5 6 
#
# 1 0.021326 -0.005596 -0.002144 0.000000 0.005786 0.000000
# 2 -0.005596 0.016036 -0.003035 0.000000 0.005189 0.000000
# 3 -0.002144 -0.003035 0.011729 0.000000 0.003380 0.000000
# 4 0.000000 0.000000 0.000000 0.050548 0.000000 -0.011390
# 5 0.005786 0.005189 0.003380 0.000000 0.037220 0.000000
# 6 0.000000 0.000000 0.000000 -0.011390 0.000000 0.052616
#
#
# Mechanical properties :
#
#
# Convention : Reuss Voigt Hill
#
# Bulk Modulus (GPa) = 36.30837 47.82443 42.06640
# Shear Modulus (GPa) = 22.70597 25.73715 24.22156
#
# Velocity S-wave (km/s) = 3.42067 3.64185 3.53299
# Velocity P-wave (km/s) = 5.85765 6.50610 6.19037
#
# Compressibility (1/GPa) = 0.02754186
#
# Stress axis : x y z
#
# Youngs Moduli (GPa) = 46.89099 62.35848 85.25931
#
# Poissons Ratio (x) = 0.34895 0.18276
# Poissons Ratio (y) = 0.26240 0.25879
# Poissons Ratio (z) = 0.10051 0.18928
#
# Static dielectric constant tensor:
#      x y z
#    x 1.851900 0.000000 0.069590 
#    y 0.000000 1.689010 0.000000 
#    z 0.069590 0.000000 1.761030 
# 
# From -- ./inp_files/133908.got.cif
#   From: 2010.05.17/outbox.cif.g08.bks.cpg/sg12_67_cif.got.tgz:133908.got - 2010.06.03 13:09:07.
