data_PCOD9190660
_publ_section_title
;
Structure prediction by ZEFSAII (Michael W. Deem and Ramdas Pophale) SiO2 
 PCOD9190660
Probable space group: C 2/M
;
_chemical_formula_sum "Si O2"
_cell_formula_units_Z 56
_cell_length_a 26.952141
_cell_length_b 14.252195
_cell_length_c 9.151170
_cell_angle_alpha 90.000000
_cell_angle_beta 110.055194
_cell_angle_gamma 90.000000
_cell_volume 3302.060039
_symmetry_space_group_name_H-M "C 2/M"
_symmetry_group_IT_number 12
_symmetry_cell_setting 'monoclinic'
loop_
_space_group_symop_operation_xyz
x,y,z
-x,y,-z
-x,-y,-z
x,-y,z
1/2+x,1/2+y,z
1/2-x,1/2+y,-z
1/2-x,1/2-y,-z
1/2+x,1/2-y,z
loop_
_atom_site_type_symbol
_atom_site_label
_atom_site_fract_x
_atom_site_fract_y
_atom_site_fract_z
Si Si1 0.361179 0.108684 0.376190
Si Si2 0.379815 0.389858 0.480871
Si Si3 0.813158 0.744848 0.569934
Si Si4 0.995780 0.105822 0.671924
Si Si5 0.090765 0.763711 0.759166
Si Si6 0.238721 0.606706 0.945520
Si Si7 0.319317 0.752427 0.914043
O O1 0.340395 0.164322 0.497798
O O2 0.406470 0.169542 0.338412
O O3 0.310857 0.109594 0.215752
O O4 0.375359 0.000000 0.417658
O O5 0.374354 0.500000 0.456064
O O6 0.333438 0.341742 0.521797
O O7 0.433954 0.372808 0.627473
O O8 0.384634 0.340351 0.328081
O O9 0.750000 0.750000 0.500000
O O10 0.829542 0.735770 0.754434
O O11 0.000000 0.099699 0.500000
O O12 0.035589 0.189314 0.752511
O O13 0.008377 0.000000 0.741161
O O14 0.128369 0.747209 0.934758
O O15 0.250455 0.500000 0.995647
O O16 0.287683 0.657027 0.917421
O O17 0.220081 0.666873 0.065781
#
# Coordination Sequence:
#
# PCOD9190660 Si02
#       7
#     8   8   8   8   8   8   8
#     4   9  18  33  50  70  97 131 168 204 245 295
#     4   9  19  34  53  77 103 134 170 203 246 302
#     4  11  21  34  49  68 101 137 168 206 245 299
#     4   8  14  29  53  78 102 129 163 203 248 298
#     4   9  17  31  53  75 100 129 163 213 252 293
#     4   9  18  32  48  66  95 129 164 209 249 287
#     4  10  20  32  46  73 101 126 170 208 248 302
#
# _framework density 16.959109999999999
#
# number of rings (size 3 to 8) (size 9 to 14) (size 15 to 20)
#    0.000    2.714    1.429    1.286    2.000    2.857 
#    0.000    0.714    0.000   12.429    0.000    0.000 
#    0.000   22.857    0.000    0.000    0.000    0.000 
#
# Total GULP energy -155922.275027 kJ/mol
# GULP energy per Si atom -5568.652680 kJ/mol
# Density = 1.692051 g / cm^3
# Si number density = 16.959110 Si / 1000 Ang^3
#
#
#
# Elastic Constant Matrix: (Units=GPa)
#
#
# Indices 1 2 3 4 5 6 
#
# 1 61.8751 26.0333 13.6455 0.0000 6.5642 0.0000
# 2 26.0333 110.4844 26.1144 0.0000 3.0965 0.0000
# 3 13.6455 26.1144 71.9989 0.0000 -10.3682 0.0000
# 4 0.0000 0.0000 0.0000 14.4739 0.0000 7.6974
# 5 6.5642 3.0965 -10.3682 0.0000 15.6991 0.0000
# 6 0.0000 0.0000 0.0000 7.6974 0.0000 18.3889
#
#
#
# Elastic Compliance Matrix: (Units=1/GPa)
#
#
# Indices 1 2 3 4 5 6 
#
# 1 0.019523 -0.003390 -0.003923 0.000000 -0.010085 0.000000
# 2 -0.003390 0.010824 -0.003743 0.000000 -0.003189 0.000000
# 3 -0.003923 -0.003743 0.018049 0.000000 0.014299 0.000000
# 4 0.000000 0.000000 0.000000 0.088874 0.000000 -0.037202
# 5 -0.010085 -0.003189 0.014299 0.000000 0.077987 0.000000
# 6 0.000000 0.000000 0.000000 -0.037202 0.000000 0.069953
#
#
# Mechanical properties :
#
#
# Convention : Reuss Voigt Hill
#
# Bulk Modulus (GPa) = 38.04481 41.77162 39.90822
# Shear Modulus (GPa) = 15.81863 21.61673 18.71768
#
# Velocity S-wave (km/s) = 3.05741 3.57408 3.32579
# Velocity P-wave (km/s) = 5.91148 6.45882 6.19120
#
# Compressibility (1/GPa) = 0.02628479
#
# Stress axis : x y z
#
# Youngs Moduli (GPa) = 51.22154 92.38820 55.40455
#
# Poissons Ratio (x) = 0.31323 0.21733
# Poissons Ratio (y) = 0.17366 0.20736
# Poissons Ratio (z) = 0.20093 0.34577
#
# Static dielectric constant tensor:
#      x y z
#    x 1.596390 0.000000 0.014940 
#    y 0.000000 1.587980 0.000000 
#    z 0.014940 0.000000 1.568610 
# 
# From -- ./inp_files/96505.got.cif
#   From: 2010.05.17/outbox.cif.g08.bks.cpg/sg12_49_cif.got.tgz:96505.got - 2010.06.03 13:09:07.
