data_PCOD9190238
_publ_section_title
;
Structure prediction by ZEFSAII (Michael W. Deem and Ramdas Pophale) SiO2 
 PCOD9190238
Probable space group: C 2/M
;
_chemical_formula_sum "Si O2"
_cell_formula_units_Z 60
_cell_length_a 10.829773
_cell_length_b 30.113678
_cell_length_c 9.302257
_cell_angle_alpha 90.000000
_cell_angle_beta 67.893366
_cell_angle_gamma 90.000000
_cell_volume 2810.670347
_symmetry_space_group_name_H-M "C 2/M"
_symmetry_group_IT_number 12
_symmetry_cell_setting 'monoclinic'
loop_
_space_group_symop_operation_xyz
x,y,z
-x,y,-z
-x,-y,-z
x,-y,z
1/2+x,1/2+y,z
1/2-x,1/2+y,-z
1/2-x,1/2-y,-z
1/2+x,1/2-y,z
loop_
_atom_site_type_symbol
_atom_site_label
_atom_site_fract_x
_atom_site_fract_y
_atom_site_fract_z
Si Si1 0.283715 0.294072 0.897059
Si Si2 0.567101 0.134322 0.609233
Si Si3 0.211688 0.205663 0.436773
Si Si4 0.851707 0.082693 0.117630
Si Si5 0.525790 0.346597 0.735259
Si Si6 0.121182 0.620094 0.046093
Si Si7 0.756789 0.450880 0.544100
Si Si8 0.500000 0.586250 0.500000
O O1 0.311541 0.282627 0.718578
O O2 0.420798 0.319284 0.874351
O O3 0.250000 0.250000 0.000000
O O4 0.171827 0.332254 0.965058
O O5 0.500000 0.155389 0.500000
O O6 0.675056 0.168219 0.620002
O O7 0.450405 0.126474 0.771255
O O8 0.639658 0.088420 0.534671
O O9 0.250000 0.250000 0.500000
O O10 0.101111 0.183774 0.587279
O O11 0.875845 0.127973 0.199884
O O12 0.751467 0.090832 0.028561
O O13 0.788578 0.052075 0.269143
O O14 0.000000 0.069274 0.000000
O O15 0.459859 0.383184 0.655762
O O16 0.000000 0.602345 0.000000
O O17 0.809171 0.500000 0.490290
O O18 0.625999 0.440954 0.503611
#
# Coordination Sequence:
#
# PCOD9190238 Si02
#       8
#     8   8   8   8   8   8   8   4
#     4  12  27  41  63  99 141 185 238 298 349 408
#     4  12  24  46  71  98 138 188 234 281 355 427
#     4  12  26  42  68 101 138 184 240 298 341 420
#     4  11  23  43  73 100 136 186 227 286 359 424
#     4  11  21  43  70  93 135 186 242 288 350 418
#     4  12  26  45  67 100 138 188 236 284 352 419
#     4  11  24  42  73 109 138 178 236 294 354 428
#     4  10  19  42  72 102 132 170 238 290 357 402
#
# _framework density 21.347221000000001
#
# number of rings (size 3 to 8) (size 9 to 14) (size 15 to 20)
#    0.000    0.533    8.000    0.200    5.600    0.533 
#    0.000    0.000    0.000    1.600    0.000    0.000 
#    0.000    0.000    0.000    0.000    0.000    0.000 
#
# Total GULP energy -167573.189410 kJ/mol
# GULP energy per Si atom -5585.772980 kJ/mol
# Density = 2.129863 g / cm^3
# Si number density = 21.347221 Si / 1000 Ang^3
#
#
#
# Elastic Constant Matrix: (Units=GPa)
#
#
# Indices 1 2 3 4 5 6 
#
# 1 88.3877 6.7530 4.4062 0.0000 10.4697 0.0000
# 2 6.7530 80.8869 -4.4803 0.0000 0.1907 0.0000
# 3 4.4062 -4.4803 77.8816 0.0000 -0.0856 0.0000
# 4 0.0000 0.0000 0.0000 20.0618 0.0000 -1.4167
# 5 10.4697 0.1907 -0.0856 0.0000 48.1216 0.0000
# 6 0.0000 0.0000 0.0000 -1.4167 0.0000 9.0840
#
#
#
# Elastic Compliance Matrix: (Units=1/GPa)
#
#
# Indices 1 2 3 4 5 6 
#
# 1 0.011729 -0.001013 -0.000725 0.000000 -0.002549 0.000000
# 2 -0.001013 0.012490 0.000776 0.000000 0.000172 0.000000
# 3 -0.000725 0.000776 0.012926 0.000000 0.000178 0.000000
# 4 0.000000 0.000000 0.000000 0.050401 0.000000 0.007860
# 5 -0.002549 0.000172 0.000178 0.000000 0.021335 0.000000
# 6 0.000000 0.000000 0.000000 0.007860 0.000000 0.111309
#
#
# Mechanical properties :
#
#
# Convention : Reuss Voigt Hill
#
# Bulk Modulus (GPa) = 28.39197 28.94599 28.66898
# Shear Modulus (GPa) = 21.38078 31.48530 26.43304
#
# Velocity S-wave (km/s) = 3.16820 3.84463 3.52268
# Velocity P-wave (km/s) = 5.16839 5.77038 5.47766
#
# Compressibility (1/GPa) = 0.03522122
#
# Stress axis : x y z
#
# Youngs Moduli (GPa) = 85.25662 80.06325 77.36444
#
# Poissons Ratio (x) = 0.08113 0.05606
# Poissons Ratio (y) = 0.08640 -0.06004
# Poissons Ratio (z) = 0.06178 -0.06213
#
# Static dielectric constant tensor:
#      x y z
#    x 1.877810 0.000000 -0.019690 
#    y 0.000000 1.775810 0.000000 
#    z -0.019690 0.000000 1.770700 
# 
# From -- ./inp_files/54664.got.cif
#   From: 2010.05.17/outbox.cif.g08.bks.cpg/sg12_28_cif.got.tgz:54664.got - 2010.06.03 13:09:07.
