data_PCOD9190941
_publ_section_title
;
Structure prediction by ZEFSAII (Michael W. Deem and Ramdas Pophale) SiO2 
 PCOD9190941
Probable space group: C 2/M
;
_chemical_formula_sum "Si O2"
_cell_formula_units_Z 56
_cell_length_a 27.491357
_cell_length_b 23.983215
_cell_length_c 15.798908
_cell_angle_alpha 90.000000
_cell_angle_beta 161.562169
_cell_angle_gamma 90.000000
_cell_volume 3294.550603
_symmetry_space_group_name_H-M "C 2/M"
_symmetry_group_IT_number 12
_symmetry_cell_setting 'monoclinic'
loop_
_space_group_symop_operation_xyz
x,y,z
-x,y,-z
-x,-y,-z
x,-y,z
1/2+x,1/2+y,z
1/2-x,1/2+y,-z
1/2-x,1/2-y,-z
1/2+x,1/2-y,z
loop_
_atom_site_type_symbol
_atom_site_label
_atom_site_fract_x
_atom_site_fract_y
_atom_site_fract_z
Si Si1 0.757154 0.933044 0.441520
Si Si2 0.143183 0.564526 0.441029
Si Si3 0.735151 0.776930 0.713316
Si Si4 0.627281 0.174982 0.139148
Si Si5 0.944523 0.654028 0.171233
Si Si6 0.442543 0.371268 0.996648
Si Si7 0.316149 0.280288 0.192972
O O1 0.655542 0.926485 0.359761
O O2 0.696137 0.886169 0.275483
O O3 0.755706 0.000000 0.417428
O O4 0.926746 0.910145 0.746502
O O5 0.149354 0.500000 0.464738
O O6 0.293819 0.592106 0.729717
O O7 0.998311 0.591035 0.248399
O O8 0.752593 0.726021 0.674765
O O9 0.580081 0.810893 0.438266
O O10 0.880974 0.818068 0.945443
O O11 0.724030 0.755750 0.790435
O O12 0.500000 0.187745 0.000000
O O13 0.559584 0.173598 0.933136
O O14 0.786008 0.664684 0.957938
O O15 0.500000 0.350649 0.000000
O O16 0.500000 0.288944 0.500000
O O17 0.250000 0.250000 0.000000
#
# Coordination Sequence:
#
# PCOD9190941 Si02
#       7
#     8   8   8   8   8   8   8
#     4  10  20  32  50  76 115 162 198 225 266 321
#     4   9  17  33  54  77 110 149 195 234 265 325
#     4  10  22  35  56  81 114 142 188 230 289 349
#     4  11  22  32  48  77 116 155 184 226 274 328
#     4  10  21  36  53  83 107 147 188 223 291 342
#     4   9  18  33  52  82 112 152 189 228 273 326
#     4  11  22  39  60  82 109 139 180 239 299 357
#
# _framework density 16.997765000000001
#
# number of rings (size 3 to 8) (size 9 to 14) (size 15 to 20)
#    0.000    2.000    2.857    0.857    4.000    3.143 
#    0.000    0.000    0.000    0.429    0.000   11.000 
#    0.000    0.000    0.000    0.000    0.000    0.000 
#
# Total GULP energy -155916.491521 kJ/mol
# GULP energy per Si atom -5568.446126 kJ/mol
# Density = 1.695908 g / cm^3
# Si number density = 16.997765 Si / 1000 Ang^3
#
#
#
# Elastic Constant Matrix: (Units=GPa)
#
#
# Indices 1 2 3 4 5 6 
#
# 1 86.2227 37.6465 36.7054 0.0000 10.5055 0.0000
# 2 37.6465 97.0091 24.8608 0.0000 16.8586 0.0000
# 3 36.7054 24.8608 65.9937 0.0000 18.3452 0.0000
# 4 0.0000 0.0000 0.0000 14.7492 0.0000 1.6454
# 5 10.5055 16.8586 18.3452 0.0000 29.8363 0.0000
# 6 0.0000 0.0000 0.0000 1.6454 0.0000 17.8090
#
#
#
# Elastic Compliance Matrix: (Units=1/GPa)
#
#
# Indices 1 2 3 4 5 6 
#
# 1 0.016923 -0.004795 -0.008085 0.000000 0.001722 0.000000
# 2 -0.004795 0.013314 -0.000877 0.000000 -0.005296 0.000000
# 3 -0.008085 -0.000877 0.022979 0.000000 -0.010786 0.000000
# 4 0.000000 0.000000 0.000000 0.068507 0.000000 -0.006330
# 5 0.001722 -0.005296 -0.010786 0.000000 0.042534 0.000000
# 6 0.000000 0.000000 0.000000 -0.006330 0.000000 0.056736
#
#
# Mechanical properties :
#
#
# Convention : Reuss Voigt Hill
#
# Bulk Modulus (GPa) = 38.90586 49.73898 44.32242
# Shear Modulus (GPa) = 19.44969 22.47977 20.96473
#
# Velocity S-wave (km/s) = 3.38635 3.64058 3.51576
# Velocity P-wave (km/s) = 6.18290 6.85546 6.52785
#
# Compressibility (1/GPa) = 0.02570307
#
# Stress axis : x y z
#
# Youngs Moduli (GPa) = 59.08972 75.10920 43.51884
#
# Poissons Ratio (x) = 0.36013 0.35185
# Poissons Ratio (y) = 0.28332 0.03815
# Poissons Ratio (z) = 0.47774 0.06585
#
# Static dielectric constant tensor:
#      x y z
#    x 1.555620 0.000000 -0.008880 
#    y 0.000000 1.594730 0.000000 
#    z -0.008880 0.000000 1.628350 
# 
# From -- ./inp_files/134820.got.cif
#   From: 2010.05.17/outbox.cif.g08.bks.cpg/sg12_68_cif.got.tgz:134820.got - 2010.06.03 13:09:07.
