data_PCOD9190319
_publ_section_title
;
Structure prediction by ZEFSAII (Michael W. Deem and Ramdas Pophale) SiO2 
 PCOD9190319
Probable space group: C 2/M
;
_chemical_formula_sum "Si O2"
_cell_formula_units_Z 44
_cell_length_a 18.353528
_cell_length_b 23.794240
_cell_length_c 5.151091
_cell_angle_alpha 90.000000
_cell_angle_beta 104.418001
_cell_angle_gamma 90.000000
_cell_volume 2178.675137
_symmetry_space_group_name_H-M "C 2/M"
_symmetry_group_IT_number 12
_symmetry_cell_setting 'monoclinic'
loop_
_space_group_symop_operation_xyz
x,y,z
-x,y,-z
-x,-y,-z
x,-y,z
1/2+x,1/2+y,z
1/2-x,1/2+y,-z
1/2-x,1/2-y,-z
1/2+x,1/2-y,z
loop_
_atom_site_type_symbol
_atom_site_label
_atom_site_fract_x
_atom_site_fract_y
_atom_site_fract_z
Si Si1 0.053453 0.500000 0.293953
Si Si2 0.052999 0.147676 0.294052
Si Si3 0.947190 0.725988 0.706283
Si Si4 0.295093 0.065961 0.016475
Si Si5 0.089276 0.385845 0.521256
Si Si6 0.193641 0.934354 0.440149
O O1 0.099723 0.442390 0.360076
O O2 0.000000 0.500000 0.500000
O O3 0.000000 0.500000 0.000000
O O4 0.084902 0.211396 0.288062
O O5 0.120150 0.103763 0.373924
O O6 0.000000 0.145070 0.500000
O O7 0.000000 0.136526 0.000000
O O8 0.893515 0.673060 0.602047
O O9 0.000000 0.731065 0.500000
O O10 0.000000 0.713164 0.000000
O O11 0.364795 0.103257 0.175697
O O12 0.236651 0.069513 0.205084
O O13 0.318708 0.000000 0.018202
O O14 0.249981 0.082976 0.721037
O O15 0.000000 0.383611 0.500000
O O16 0.174757 0.000000 0.469055
#
# Coordination Sequence:
#
# PCOD9190319 Si02
#       6
#     4   8   8   8   8   8
#     4  10  20  30  48  76 102 130 178 228 254 288
#     4  10  20  37  61  84 106 138 179 223 271 331
#     4   9  19  34  53  79 110 139 174 226 276 310
#     4  10  21  37  53  78 114 150 175 221 276 319
#     4  10  20  36  55  81 108 147 190 226 258 309
#     4  10  22  38  56  80 113 142 175 221 281 329
#
# _framework density 20.195758999999999
#
# number of rings (size 3 to 8) (size 9 to 14) (size 15 to 20)
#    0.000    2.182    0.909    1.636    0.000    6.545 
#    0.000    1.818    0.000    0.000    0.000    0.000 
#    0.000    0.000    0.000    0.000    0.000    0.000 
#
# Total GULP energy -122914.091489 kJ/mol
# GULP energy per Si atom -5587.004159 kJ/mol
# Density = 2.014979 g / cm^3
# Si number density = 20.195759 Si / 1000 Ang^3
#
#
#
# Elastic Constant Matrix: (Units=GPa)
#
#
# Indices 1 2 3 4 5 6 
#
# 1 71.1639 47.9083 43.7260 0.0000 12.7836 0.0000
# 2 47.9083 121.1137 55.5026 0.0000 32.3542 0.0000
# 3 43.7260 55.5026 162.6476 0.0000 2.8215 0.0000
# 4 0.0000 0.0000 0.0000 21.2599 0.0000 -4.5031
# 5 12.7836 32.3542 2.8215 0.0000 33.3101 0.0000
# 6 0.0000 0.0000 0.0000 -4.5031 0.0000 5.7641
#
#
#
# Elastic Compliance Matrix: (Units=1/GPa)
#
#
# Indices 1 2 3 4 5 6 
#
# 1 0.020573 -0.006136 -0.003408 0.000000 -0.001647 0.000000
# 2 -0.006136 0.015614 -0.003462 0.000000 -0.012518 0.000000
# 3 -0.003408 -0.003462 0.008177 0.000000 0.003978 0.000000
# 4 0.000000 0.000000 0.000000 0.056364 0.000000 0.044034
# 5 -0.001647 -0.012518 0.003978 0.000000 0.042475 0.000000
# 6 0.000000 0.000000 0.000000 0.044034 0.000000 0.207890
#
#
# Mechanical properties :
#
#
# Convention : Reuss Voigt Hill
#
# Bulk Modulus (GPa) = 54.48956 72.13322 63.31139
# Shear Modulus (GPa) = 13.04726 25.91936 19.48331
#
# Velocity S-wave (km/s) = 2.54449 3.58635 3.10937
# Velocity P-wave (km/s) = 5.97259 7.27625 6.65641
#
# Compressibility (1/GPa) = 0.01835214
#
# Stress axis : x y z
#
# Youngs Moduli (GPa) = 48.60735 64.04368 122.29753
#
# Poissons Ratio (x) = 0.39298 0.41683
# Poissons Ratio (y) = 0.29826 0.42334
# Poissons Ratio (z) = 0.16567 0.22169
#
# Static dielectric constant tensor:
#      x y z
#    x 1.333590 0.000000 0.062530 
#    y 0.000000 1.775150 0.000000 
#    z 0.062530 0.000000 1.687710 
# 
# From -- ./inp_files/16731.got.cif
#   From: 2010.05.17/outbox.cif.g08.bks.cpg/sg12_9_cif.got.tgz:16731.got - 2010.06.03 13:09:07.
