data_PCOD9190688
_publ_section_title
;
Structure prediction by ZEFSAII (Michael W. Deem and Ramdas Pophale) SiO2 
 PCOD9190688
Probable space group: C 2/M
;
_chemical_formula_sum "Si O2"
_cell_formula_units_Z 40
_cell_length_a 13.823582
_cell_length_b 8.408687
_cell_length_c 15.064320
_cell_angle_alpha 90.000000
_cell_angle_beta 66.509641
_cell_angle_gamma 90.000000
_cell_volume 1605.934641
_symmetry_space_group_name_H-M "C 2/M"
_symmetry_group_IT_number 12
_symmetry_cell_setting 'monoclinic'
loop_
_space_group_symop_operation_xyz
x,y,z
-x,y,-z
-x,-y,-z
x,-y,z
1/2+x,1/2+y,z
1/2-x,1/2+y,-z
1/2-x,1/2-y,-z
1/2+x,1/2-y,z
loop_
_atom_site_type_symbol
_atom_site_label
_atom_site_fract_x
_atom_site_fract_y
_atom_site_fract_z
Si Si1 0.076703 0.812479 0.221939
Si Si2 0.366877 0.690691 0.983664
Si Si3 0.174442 0.311169 0.814735
Si Si4 0.276053 0.179857 0.392762
Si Si5 0.419277 0.825844 0.608363
O O1 0.064629 0.751859 0.126023
O O2 0.201833 0.789592 0.201095
O O3 0.023681 0.717994 0.321276
O O4 0.053525 0.000000 0.234845
O O5 0.368987 0.500000 0.979628
O O6 0.250000 0.750000 0.000000
O O7 0.386004 0.741067 0.077790
O O8 0.155887 0.500000 0.818074
O O9 0.163009 0.247552 0.717209
O O10 0.250000 0.250000 0.500000
O O11 0.159599 0.188091 0.391843
O O12 0.312387 0.000000 0.393103
O O13 0.500000 0.838010 0.500000
O O14 0.366133 0.000000 0.637023
#
# Coordination Sequence:
#
# PCOD9190688 Si02
#       5
#     8   8   8   8   8
#     4   8  15  26  39  59  87 117 149 184 224 270
#     4   9  15  22  35  57  84 113 144 179 221 268
#     4   8  15  26  39  59  86 114 145 181 222 268
#     4  10  20  33  49  69  94 124 157 192 230 274
#     4  10  20  32  47  69  95 123 157 194 230 272
#
# _framework density 24.907613000000001
#
# number of rings (size 3 to 8) (size 9 to 14) (size 15 to 20)
#    0.000    3.000    0.000    4.200    0.000   10.400 
#    0.000    0.000    0.000    0.000    0.000    1.400 
#    0.000   11.200    0.000    0.000    0.000    0.000 
#
# Total GULP energy -111460.348795 kJ/mol
# GULP energy per Si atom -5573.017440 kJ/mol
# Density = 2.485092 g / cm^3
# Si number density = 24.907613 Si / 1000 Ang^3
#
#
#
# Elastic Constant Matrix: (Units=GPa)
#
#
# Indices 1 2 3 4 5 6 
#
# 1 68.2644 3.5304 30.3596 0.0000 36.3308 0.0000
# 2 3.5304 47.2586 63.1012 0.0000 12.3806 0.0000
# 3 30.3596 63.1012 326.1365 0.0000 48.5530 0.0000
# 4 0.0000 0.0000 0.0000 35.0251 0.0000 3.5217
# 5 36.3308 12.3806 48.5530 0.0000 39.0123 0.0000
# 6 0.0000 0.0000 0.0000 3.5217 0.0000 12.9178
#
#
#
# Elastic Compliance Matrix: (Units=1/GPa)
#
#
# Indices 1 2 3 4 5 6 
#
# 1 0.030504 0.004679 0.000866 0.000000 -0.030970 0.000000
# 2 0.004679 0.029479 -0.005030 0.000000 -0.007452 0.000000
# 3 0.000866 -0.005030 0.004715 0.000000 -0.005078 0.000000
# 4 0.000000 0.000000 0.000000 0.029356 0.000000 -0.008003
# 5 -0.030970 -0.007452 -0.005078 0.000000 0.063159 0.000000
# 6 0.000000 0.000000 0.000000 -0.008003 0.000000 0.079594
#
#
# Mechanical properties :
#
#
# Convention : Reuss Voigt Hill
#
# Bulk Modulus (GPa) = 15.21444 70.62688 42.92066
# Shear Modulus (GPa) = 19.40347 40.36893 29.88620
#
# Velocity S-wave (km/s) = 2.79412 4.03022 3.46769
# Velocity P-wave (km/s) = 4.06584 7.07630 5.77083
#
# Compressibility (1/GPa) = 0.06572701
#
# Stress axis : x y z
#
# Youngs Moduli (GPa) = 32.78228 33.92279 212.10280
#
# Poissons Ratio (x) = -0.15871 -0.18363
# Poissons Ratio (y) = -0.15337 1.06680
# Poissons Ratio (z) = -0.02838 0.17062
#
# Static dielectric constant tensor:
#      x y z
#    x 2.078030 0.000000 -0.042050 
#    y 0.000000 1.894360 0.000000 
#    z -0.042050 0.000000 2.129450 
# 
# From -- ./inp_files/229097.got.cif
#   From: 2010.05.17/outbox.cif.g08.bks.cpg/sg12_115_cif.got.tgz:229097.got - 2010.06.03 13:09:07.
