data_PCOD9190759
_publ_section_title
;
Structure prediction by ZEFSAII (Michael W. Deem and Ramdas Pophale) SiO2 
 PCOD9190759
Probable space group: C 2/M
;
_chemical_formula_sum "Si O2"
_cell_formula_units_Z 56
_cell_length_a 18.731707
_cell_length_b 7.500519
_cell_length_c 26.227307
_cell_angle_alpha 90.000000
_cell_angle_beta 135.237765
_cell_angle_gamma 90.000000
_cell_volume 2594.762701
_symmetry_space_group_name_H-M "C 2/M"
_symmetry_group_IT_number 12
_symmetry_cell_setting 'monoclinic'
loop_
_space_group_symop_operation_xyz
x,y,z
-x,y,-z
-x,-y,-z
x,-y,z
1/2+x,1/2+y,z
1/2-x,1/2+y,-z
1/2-x,1/2-y,-z
1/2+x,1/2-y,z
loop_
_atom_site_type_symbol
_atom_site_label
_atom_site_fract_x
_atom_site_fract_y
_atom_site_fract_z
Si Si1 0.390291 0.785223 0.724651
Si Si2 0.824877 0.213540 0.991172
Si Si3 0.041220 0.710116 0.715072
Si Si4 0.449903 0.287242 0.870905
Si Si5 0.484479 0.714601 0.573228
Si Si6 0.766042 0.781407 0.848483
Si Si7 0.337007 0.717685 0.411226
O O1 0.471062 0.715847 0.724481
O O2 0.423796 0.744313 0.798855
O O3 0.276689 0.719586 0.655626
O O4 0.386693 0.000000 0.718049
O O5 0.782456 0.275381 0.915243
O O6 0.832021 0.000000 0.990839
O O7 0.750000 0.250000 0.000000
O O8 0.938321 0.283189 0.059060
O O9 0.051129 0.500000 0.730516
O O10 0.989309 0.730002 0.633966
O O11 0.156152 0.780414 0.773264
O O12 0.453641 0.500000 0.880852
O O13 0.359095 0.219416 0.860592
O O14 0.484441 0.500000 0.572241
O O15 0.388697 0.773446 0.490714
O O16 0.585688 0.773468 0.594306
O O17 0.767223 0.000000 0.847527
O O18 0.336091 0.500000 0.410442
#
# Coordination Sequence:
#
# PCOD9190759 Si02
#       7
#     8   8   8   8   8   8   8
#     4  10  20  34  51  72 102 135 163 198 250 302
#     4  10  20  35  55  77 102 132 164 200 244 291
#     4  10  20  32  48  72 101 131 162 199 248 300
#     4  10  20  34  54  77  98 126 169 210 239 281
#     4   9  17  32  53  72  94 128 169 208 243 286
#     4   9  18  34  53  72  99 134 166 198 243 296
#     4   8  16  32  52  72  95 129 169 203 242 295
#
# _framework density 21.581935999999999
#
# number of rings (size 3 to 8) (size 9 to 14) (size 15 to 20)
#    0.000    2.571    0.000    3.000    0.000    4.571 
#    0.000    3.571    0.000    1.714    0.000    0.000 
#    0.000    0.000    0.000    0.000    0.000    0.000 
#
# Total GULP energy -156411.455195 kJ/mol
# GULP energy per Si atom -5586.123400 kJ/mol
# Density = 2.153281 g / cm^3
# Si number density = 21.581936 Si / 1000 Ang^3
#
#
#
# Elastic Constant Matrix: (Units=GPa)
#
#
# Indices 1 2 3 4 5 6 
#
# 1 -26.7726 -3.3285 -63.8142 0.0000 -51.3754 0.0000
# 2 -3.3285 55.7547 -10.3298 0.0000 6.9256 0.0000
# 3 -63.8142 -10.3298 19.1361 0.0000 -38.9001 0.0000
# 4 0.0000 0.0000 0.0000 18.3025 0.0000 -4.0263
# 5 -51.3754 6.9256 -38.9001 0.0000 32.9054 0.0000
# 6 0.0000 0.0000 0.0000 -4.0263 0.0000 3.3452
#
#
#
# Elastic Compliance Matrix: (Units=1/GPa)
#
#
# Indices 1 2 3 4 5 6 
#
# 1 0.002150 -0.000688 -0.009917 0.000000 -0.008222 0.000000
# 2 -0.000688 0.018579 0.001707 0.000000 -0.002966 0.000000
# 3 -0.009917 0.001707 0.008621 0.000000 -0.005651 0.000000
# 4 0.000000 0.000000 0.000000 0.074313 0.000000 0.089443
# 5 -0.008222 -0.002966 -0.005651 0.000000 0.011496 0.000000
# 6 0.000000 0.000000 0.000000 0.089443 0.000000 0.406587
#
#
# Mechanical properties :
#
#
# Convention : Reuss Voigt Hill
#
# Bulk Modulus (GPa) = 86.53989 -11.86963 37.33513
# Shear Modulus (GPa) = 9.20145 19.28334 14.24239
#
# Velocity S-wave (km/s) = 2.06706 2.99238 2.57168
# Velocity P-wave (km/s) = 6.77365 2.53523 5.11418
#
# Compressibility (1/GPa) = 0.01155536
#
# Stress axis : x y z
#
# Youngs Moduli (GPa) = 465.17136 53.82317 115.99586
#
# Poissons Ratio (x) = 0.03701 1.15032
# Poissons Ratio (y) = 0.31987 -0.19802
# Poissons Ratio (z) = 4.61305 -0.09188
#
# Static dielectric constant tensor:
#      x y z
#    x 1.751510 0.000000 0.020900 
#    y 0.000000 1.846100 0.000000 
#    z 0.020900 0.000000 1.742520 
# 
# From -- ./inp_files/342562.got.cif
#   From: 2010.05.17/outbox.cif.g08.bks.cpg/sg12_172_cif.got.tgz:342562.got - 2010.06.03 13:09:07.
