data_PCOD9190229
_publ_section_title
;
Structure prediction by ZEFSAII (Michael W. Deem and Ramdas Pophale) SiO2 
 PCOD9190229
Probable space group: C 2/M
;
_chemical_formula_sum "Si O2"
_cell_formula_units_Z 50
_cell_length_a 9.459700
_cell_length_b 15.872248
_cell_length_c 18.719642
_cell_angle_alpha 90.000000
_cell_angle_beta 123.733904
_cell_angle_gamma 90.000000
_cell_volume 2337.444036
_symmetry_space_group_name_H-M "C 2/M"
_symmetry_group_IT_number 12
_symmetry_cell_setting 'monoclinic'
loop_
_space_group_symop_operation_xyz
x,y,z
-x,y,-z
-x,-y,-z
x,-y,z
1/2+x,1/2+y,z
1/2-x,1/2+y,-z
1/2-x,1/2-y,-z
1/2+x,1/2-y,z
loop_
_atom_site_type_symbol
_atom_site_label
_atom_site_fract_x
_atom_site_fract_y
_atom_site_fract_z
Si Si1 0.406750 0.648200 0.749143
Si Si2 0.421369 0.181790 0.249865
Si Si3 0.749719 0.597629 0.909294
Si Si4 0.233924 0.152673 0.579233
Si Si5 0.058464 0.398113 0.899594
Si Si6 0.000000 0.000000 0.500000
Si Si7 0.310821 0.846901 0.436420
O O1 0.512489 0.724007 0.743317
O O2 0.256969 0.676413 0.760084
O O3 0.553633 0.602303 0.833976
O O4 0.305509 0.607224 0.654388
O O5 0.573539 0.140943 0.339204
O O6 0.412494 0.140953 0.169355
O O7 0.796862 0.500000 0.927045
O O8 0.877486 0.629940 0.883433
O O9 0.803486 0.630999 0.002256
O O10 0.230846 0.151461 0.492234
O O11 0.176547 0.247770 0.584364
O O12 0.118243 0.075233 0.569726
O O13 0.062021 0.500000 0.892352
O O14 0.500000 0.880817 0.500000
#
# Coordination Sequence:
#
# PCOD9190229 Si02
#       7
#     8   8   8   8   8   2   8
#     4  11  23  38  64  91 124 161 215 254 309 373
#     4  11  23  38  61  94 122 165 205 259 307 374
#     4   9  20  42  64  90 119 160 204 254 317 380
#     4  10  23  38  63  89 127 161 213 256 313 367
#     4   9  20  40  66  87 121 161 202 253 318 380
#     4  12  24  40  58 100 124 162 212 282 304 370
#     4  10  19  42  63  83 118 176 207 248 307 377
#
# _framework density 21.390885999999998
#
# number of rings (size 3 to 8) (size 9 to 14) (size 15 to 20)
#    0.000    1.920    2.400    1.920    1.120    3.200 
#    4.320    2.000    0.000    0.000    0.000    0.000 
#    0.000    0.000    0.000    0.000    0.000    0.000 
#
# Total GULP energy -139190.488036 kJ/mol
# GULP energy per Si atom -5567.619521 kJ/mol
# Density = 2.134220 g / cm^3
# Si number density = 21.390886 Si / 1000 Ang^3
#
#
#
# Elastic Constant Matrix: (Units=GPa)
#
#
# Indices 1 2 3 4 5 6 
#
# 1 84.7542 -1.7973 62.8994 0.0000 13.7576 0.0000
# 2 -1.7973 29.7140 13.3745 0.0000 5.9679 0.0000
# 3 62.8994 13.3745 160.6755 0.0000 13.2836 0.0000
# 4 0.0000 0.0000 0.0000 30.2566 0.0000 -1.0392
# 5 13.7576 5.9679 13.2836 0.0000 45.1430 0.0000
# 6 0.0000 0.0000 0.0000 -1.0392 0.0000 18.2315
#
#
#
# Elastic Compliance Matrix: (Units=1/GPa)
#
#
# Indices 1 2 3 4 5 6 
#
# 1 0.017793 0.005058 -0.007055 0.000000 -0.004015 0.000000
# 2 0.005058 0.037071 -0.004646 0.000000 -0.005075 0.000000
# 3 -0.007055 -0.004646 0.009372 0.000000 0.000007 0.000000
# 4 0.000000 0.000000 0.000000 0.033116 0.000000 0.001888
# 5 -0.004015 -0.005075 0.000007 0.000000 0.024045 0.000000
# 6 0.000000 0.000000 0.000000 0.001888 0.000000 0.054958
#
#
# Mechanical properties :
#
#
# Convention : Reuss Voigt Hill
#
# Bulk Modulus (GPa) = 19.62702 47.12188 33.37445
# Shear Modulus (GPa) = 24.19873 32.10402 28.15137
#
# Velocity S-wave (km/s) = 3.36707 3.87825 3.63167
# Velocity P-wave (km/s) = 4.93068 6.49086 5.76380
#
# Compressibility (1/GPa) = 0.05095016
#
# Stress axis : x y z
#
# Youngs Moduli (GPa) = 56.20060 26.97545 106.70543
#
# Poissons Ratio (x) = -0.13644 0.75277
# Poissons Ratio (y) = -0.28427 0.49578
# Poissons Ratio (z) = 0.39647 0.12533
#
# Static dielectric constant tensor:
#      x y z
#    x 1.777380 0.000000 0.026350 
#    y 0.000000 1.793490 0.000000 
#    z 0.026350 0.000000 1.835620 
# 
# From -- ./inp_files/257236.got.cif
#   From: 2010.05.17/outbox.cif.g08.bks.cpg/sg12_129_cif.got.tgz:257236.got - 2010.06.03 13:09:07.
