data_PCOD9190938
_publ_section_title
;
Structure prediction by ZEFSAII (Michael W. Deem and Ramdas Pophale) SiO2 
 PCOD9190938
Probable space group: C 2/M
;
_chemical_formula_sum "Si O2"
_cell_formula_units_Z 52
_cell_length_a 27.851898
_cell_length_b 9.447083
_cell_length_c 11.008017
_cell_angle_alpha 90.000000
_cell_angle_beta 100.983957
_cell_angle_gamma 90.000000
_cell_volume 2843.359773
_symmetry_space_group_name_H-M "C 2/M"
_symmetry_group_IT_number 12
_symmetry_cell_setting 'monoclinic'
loop_
_space_group_symop_operation_xyz
x,y,z
-x,y,-z
-x,-y,-z
x,-y,z
1/2+x,1/2+y,z
1/2-x,1/2+y,-z
1/2-x,1/2-y,-z
1/2+x,1/2-y,z
loop_
_atom_site_type_symbol
_atom_site_label
_atom_site_fract_x
_atom_site_fract_y
_atom_site_fract_z
Si Si1 0.121610 0.828685 0.155365
Si Si2 0.313542 0.336335 0.426264
Si Si3 0.221570 0.164844 0.310706
Si Si4 0.028960 0.835153 0.251687
Si Si5 0.000000 0.260466 0.500000
Si Si6 0.576990 0.329179 0.870791
Si Si7 0.396815 0.160531 0.352700
O O1 0.176470 0.779166 0.208632
O O2 0.080279 0.773888 0.229572
O O3 0.125201 0.000000 0.171435
O O4 0.101856 0.800027 0.011374
O O5 0.320303 0.500000 0.394319
O O6 0.269526 0.261322 0.332167
O O7 0.298603 0.333353 0.560559
O O8 0.362159 0.247060 0.426314
O O9 0.233122 0.000000 0.287169
O O10 0.018837 0.822640 0.390167
O O11 0.980053 0.782199 0.160605
O O12 0.031511 0.000000 0.220895
O O13 0.952242 0.341029 0.429599
O O14 0.578342 0.500000 0.850528
O O15 0.602246 0.246961 0.772759
O O16 0.379685 0.000000 0.329044
#
# Coordination Sequence:
#
# PCOD9190938 Si02
#       7
#     8   8   8   8   4   8   8
#     4   9  16  29  51  77 104 135 172 211 251 298
#     4  10  20  35  55  79 105 132 167 210 256 304
#     4   9  18  33  54  79 106 134 166 208 256 305
#     4   9  16  27  48  79 110 137 167 208 253 297
#     4  10  20  32  50  76 107 138 169 202 247 308
#     4   9  18  32  51  75 103 136 174 212 250 297
#     4  11  22  36  53  73 103 138 170 208 255 303
#
# _framework density 18.288222999999999
#
# number of rings (size 3 to 8) (size 9 to 14) (size 15 to 20)
#    0.000    2.462    0.000    2.769    0.000    5.538 
#    0.000    1.538    0.000    9.231    0.000    0.000 
#    0.000    0.000    0.000    0.000    0.000    0.000 
#
# Total GULP energy -144877.908680 kJ/mol
# GULP energy per Si atom -5572.227257 kJ/mol
# Density = 1.824660 g / cm^3
# Si number density = 18.288223 Si / 1000 Ang^3
#
#
#
# Elastic Constant Matrix: (Units=GPa)
#
#
# Indices 1 2 3 4 5 6 
#
# 1 71.0779 35.8461 22.4919 0.0000 10.0774 0.0000
# 2 35.8461 68.2958 12.5577 0.0000 -0.1425 0.0000
# 3 22.4919 12.5577 56.6961 0.0000 22.5307 0.0000
# 4 0.0000 0.0000 0.0000 8.7622 0.0000 -1.4887
# 5 10.0774 -0.1425 22.5307 0.0000 26.9030 0.0000
# 6 0.0000 0.0000 0.0000 -1.4887 0.0000 19.6351
#
#
#
# Elastic Compliance Matrix: (Units=1/GPa)
#
#
# Indices 1 2 3 4 5 6 
#
# 1 0.021325 -0.010385 -0.004442 0.000000 -0.004323 0.000000
# 2 -0.010385 0.020671 -0.003070 0.000000 0.006570 0.000000
# 3 -0.004442 -0.003070 0.029115 0.000000 -0.022735 0.000000
# 4 0.000000 0.000000 0.000000 0.115615 0.000000 0.008766
# 5 -0.004323 0.006570 -0.022735 0.000000 0.057865 0.000000
# 6 0.000000 0.000000 0.000000 0.008766 0.000000 0.051594
#
#
# Mechanical properties :
#
#
# Convention : Reuss Voigt Hill
#
# Bulk Modulus (GPa) = 28.31397 37.54013 32.92705
# Shear Modulus (GPa) = 14.54544 19.40501 16.97523
#
# Velocity S-wave (km/s) = 2.82325 3.26093 3.04995
# Velocity P-wave (km/s) = 5.11305 5.89489 5.51784
#
# Compressibility (1/GPa) = 0.03531825
#
# Stress axis : x y z
#
# Youngs Moduli (GPa) = 46.89356 48.37682 34.34688
#
# Poissons Ratio (x) = 0.50239 0.15255
# Poissons Ratio (y) = 0.48699 0.10543
# Poissons Ratio (z) = 0.20828 0.14850
#
# Static dielectric constant tensor:
#      x y z
#    x 1.652670 0.000000 0.009190 
#    y 0.000000 1.623380 0.000000 
#    z 0.009190 0.000000 1.623710 
# 
# From -- ./inp_files/180084.got.cif
#   From: 2010.05.17/outbox.cif.g08.bks.cpg/sg12_91_cif.got.tgz:180084.got - 2010.06.03 13:09:07.
