data_PCOD9190662
_publ_section_title
;
Structure prediction by ZEFSAII (Michael W. Deem and Ramdas Pophale) SiO2 
 PCOD9190662
Probable space group: C 2/M
;
_chemical_formula_sum "Si O2"
_cell_formula_units_Z 64
_cell_length_a 19.032865
_cell_length_b 15.340653
_cell_length_c 13.351619
_cell_angle_alpha 90.000000
_cell_angle_beta 119.953694
_cell_angle_gamma 90.000000
_cell_volume 3377.653020
_symmetry_space_group_name_H-M "C 2/M"
_symmetry_group_IT_number 12
_symmetry_cell_setting 'monoclinic'
loop_
_space_group_symop_operation_xyz
x,y,z
-x,y,-z
-x,-y,-z
x,-y,z
1/2+x,1/2+y,z
1/2-x,1/2+y,-z
1/2-x,1/2-y,-z
1/2+x,1/2-y,z
loop_
_atom_site_type_symbol
_atom_site_label
_atom_site_fract_x
_atom_site_fract_y
_atom_site_fract_z
Si Si1 0.009214 0.843920 0.888797
Si Si2 0.833645 0.861851 0.754108
Si Si3 0.318325 0.853313 0.966228
Si Si4 0.462650 0.104251 0.575224
Si Si5 0.312160 0.639741 0.962636
Si Si6 0.331629 0.153108 0.754210
Si Si7 0.011541 0.649451 0.821943
Si Si8 0.786891 0.602936 0.512179
O O1 0.926157 0.893883 0.806837
O O2 0.011171 0.754571 0.828015
O O3 0.000000 0.818359 0.000000
O O4 0.096638 0.888272 0.942356
O O5 0.798900 0.889920 0.838019
O O6 0.839938 0.757283 0.767052
O O7 0.779766 0.881305 0.619627
O O8 0.314710 0.746560 0.965474
O O9 0.300965 0.879802 0.839527
O O10 0.255520 0.885827 0.005221
O O11 0.410133 0.879240 0.060189
O O12 0.500000 0.140111 0.500000
O O13 0.517122 0.121808 0.710818
O O14 0.373028 0.140251 0.534723
O O15 0.454915 0.000000 0.558285
O O16 0.423300 0.118702 0.798380
O O17 0.276450 0.136212 0.617893
O O18 0.796188 0.500000 0.529208
#
# Coordination Sequence:
#
# PCOD9190662 Si02
#       8
#     8   8   8   8   8   8   8   8
#     4   8  14  27  46  68  93 114 136 183 236 274
#     4   9  16  28  50  69  89 119 152 184 226 279
#     4   9  15  25  44  69  95 116 144 186 224 275
#     4   9  19  32  41  56  88 125 154 186 225 262
#     4   8  15  25  43  72  94 113 141 183 238 272
#     4   9  17  30  45  68  94 121 149 186 230 267
#     4   9  15  25  45  64  86 119 150 176 218 271
#     4  10  20  32  47  65  89 122 161 194 221 267
#
# _framework density 18.948067999999999
#
# number of rings (size 3 to 8) (size 9 to 14) (size 15 to 20)
#    0.000    3.125    0.000    3.000    1.750    0.000 
#    0.000    0.625    0.000    9.000    0.000    0.875 
#    0.000    0.000    0.000    0.000    0.000    0.000 
#
# Total GULP energy -178232.801104 kJ/mol
# GULP energy per Si atom -5569.775035 kJ/mol
# Density = 1.890494 g / cm^3
# Si number density = 18.948068 Si / 1000 Ang^3
#
#
#
# Elastic Constant Matrix: (Units=GPa)
#
#
# Indices 1 2 3 4 5 6 
#
# 1 83.8211 10.3400 61.6946 0.0000 -21.9949 0.0000
# 2 10.3400 18.7434 2.4213 0.0000 -1.0361 0.0000
# 3 61.6946 2.4213 140.6638 0.0000 -14.6058 0.0000
# 4 0.0000 0.0000 0.0000 -283.7413 0.0000 10.7871
# 5 -21.9949 -1.0361 -14.6058 0.0000 26.5477 0.0000
# 6 0.0000 0.0000 0.0000 10.7871 0.0000 0.0940
#
#
#
# Elastic Compliance Matrix: (Units=1/GPa)
#
#
# Indices 1 2 3 4 5 6 
#
# 1 0.023301 -0.010965 -0.008560 0.000000 0.014167 0.000000
# 2 -0.010965 0.058701 0.003281 0.000000 -0.004989 0.000000
# 3 -0.008560 0.003281 0.010695 0.000000 -0.001080 0.000000
# 4 0.000000 0.000000 0.000000 -0.000657 0.000000 0.075413
# 5 0.014167 -0.004989 -0.001080 0.000000 0.048617 0.000000
# 6 0.000000 0.000000 0.000000 0.075413 0.000000 1.983646
#
#
# Mechanical properties :
#
#
# Convention : Reuss Voigt Hill
#
# Bulk Modulus (GPa) = 16.60886 43.57113 30.09000
# Shear Modulus (GPa) = 2.29689 -40.16842 -18.93577
#
# Velocity S-wave (km/s) = 1.10219 -4.60926 -3.16468
# Velocity P-wave (km/s) = 3.22557 2.29827 1.60035
#
# Compressibility (1/GPa) = 0.06020882
#
# Stress axis : x y z
#
# Youngs Moduli (GPa) = 42.91741 17.03534 93.50321
#
# Poissons Ratio (x) = 0.18679 0.80036
# Poissons Ratio (y) = 0.47059 -0.30676
# Poissons Ratio (z) = 0.36736 -0.05589
#
# Static dielectric constant tensor:
#      x y z
#    x 1.690490 0.000000 0.009820 
#    y 0.000000 1.680430 0.000000 
#    z 0.009820 0.000000 1.662670 
# 
# From -- ./inp_files/169221.got.cif
#   From: 2010.05.17/outbox.cif.g08.bks.cpg/sg12_85_cif.got.tgz:169221.got - 2010.06.03 13:09:07.
