data_PCOD9190295
_publ_section_title
;
Structure prediction by ZEFSAII (Michael W. Deem and Ramdas Pophale) SiO2 
 PCOD9190295
Probable space group: C 2/M
;
_chemical_formula_sum "Si O2"
_cell_formula_units_Z 64
_cell_length_a 16.874271
_cell_length_b 27.579748
_cell_length_c 8.935881
_cell_angle_alpha 90.000000
_cell_angle_beta 55.585135
_cell_angle_gamma 90.000000
_cell_volume 3430.751092
_symmetry_space_group_name_H-M "C 2/M"
_symmetry_group_IT_number 12
_symmetry_cell_setting 'monoclinic'
loop_
_space_group_symop_operation_xyz
x,y,z
-x,y,-z
-x,-y,-z
x,-y,z
1/2+x,1/2+y,z
1/2-x,1/2+y,-z
1/2-x,1/2-y,-z
1/2+x,1/2-y,z
loop_
_atom_site_type_symbol
_atom_site_label
_atom_site_fract_x
_atom_site_fract_y
_atom_site_fract_z
Si Si1 0.518784 0.447256 0.658573
Si Si2 0.617799 0.229957 0.755599
Si Si3 0.747446 0.683762 0.627806
Si Si4 0.894692 0.855799 0.774681
Si Si5 0.108364 0.627873 0.929373
Si Si6 0.545980 0.752221 0.289954
Si Si7 0.199172 0.107317 0.428173
Si Si8 0.311616 0.835567 0.865782
O O1 0.500000 0.450001 0.500000
O O2 0.492490 0.500000 0.750745
O O3 0.455315 0.400873 0.775617
O O4 0.632012 0.436345 0.554947
O O5 0.664695 0.278893 0.770727
O O6 0.677688 0.216920 0.541867
O O7 0.625807 0.182854 0.850343
O O8 0.512936 0.235458 0.797436
O O9 0.706878 0.645923 0.552391
O O10 0.803290 0.655701 0.698251
O O11 0.950045 0.805530 0.712438
O O12 0.861949 0.869304 0.641919
O O13 0.795725 0.844200 0.963307
O O14 0.194705 0.598386 0.755565
O O15 0.123858 0.631791 0.091669
O O16 0.000000 0.613875 0.000000
O O17 0.500000 0.767482 0.500000
O O18 0.646114 0.781027 0.171222
#
# Coordination Sequence:
#
# PCOD9190295 Si02
#       8
#     8   8   8   8   8   8   8   8
#     4   9  17  35  62  86 103 131 178 225 278 331
#     4  10  20  30  45  64  96 143 184 216 250 294
#     4  10  20  32  46  69 101 139 184 219 251 306
#     4  10  21  33  52  78 106 137 174 230 271 306
#     4  10  20  33  47  70 106 139 178 215 264 302
#     4  12  20  31  48  70 105 149 186 211 249 310
#     4   9  19  35  52  74 102 138 173 219 266 318
#     4  11  23  32  48  73 107 143 186 218 257 310
#
# _framework density 18.654807000000002
#
# number of rings (size 3 to 8) (size 9 to 14) (size 15 to 20)
#    0.000    1.875    2.500    3.000    7.000    0.000 
#    0.000    1.875    0.000    1.875    0.000    0.000 
#    0.000    1.500    0.000    0.000    0.000    0.000 
#
# Total GULP energy -178299.027043 kJ/mol
# GULP energy per Si atom -5571.844595 kJ/mol
# Density = 1.861235 g / cm^3
# Si number density = 18.654807 Si / 1000 Ang^3
#
#
#
# Elastic Constant Matrix: (Units=GPa)
#
#
# Indices 1 2 3 4 5 6 
#
# 1 92.3113 26.1350 29.9903 0.0000 -5.3802 0.0000
# 2 26.1350 72.9042 25.5252 0.0000 -18.9670 0.0000
# 3 29.9903 25.5252 42.1042 0.0000 -10.0991 0.0000
# 4 0.0000 0.0000 0.0000 12.7863 0.0000 -6.4036
# 5 -5.3802 -18.9670 -10.0991 0.0000 32.6375 0.0000
# 6 0.0000 0.0000 0.0000 -6.4036 0.0000 9.3022
#
#
#
# Elastic Compliance Matrix: (Units=1/GPa)
#
#
# Indices 1 2 3 4 5 6 
#
# 1 0.014414 -0.002420 -0.009254 0.000000 -0.001894 0.000000
# 2 -0.002420 0.019648 -0.008150 0.000000 0.008498 0.000000
# 3 -0.009254 -0.008150 0.036489 0.000000 0.005029 0.000000
# 4 0.000000 0.000000 0.000000 0.119359 0.000000 0.082167
# 5 -0.001894 0.008498 0.005029 0.000000 0.036822 0.000000
# 6 0.000000 0.000000 0.000000 0.082167 0.000000 0.164065
#
#
# Mechanical properties :
#
#
# Convention : Reuss Voigt Hill
#
# Bulk Modulus (GPa) = 32.35810 41.18008 36.76909
# Shear Modulus (GPa) = 11.34439 19.32316 15.33378
#
# Velocity S-wave (km/s) = 2.46869 3.22192 2.87012
# Velocity P-wave (km/s) = 5.05067 5.99698 5.54405
#
# Compressibility (1/GPa) = 0.03090416
#
# Stress axis : x y z
#
# Youngs Moduli (GPa) = 69.37611 50.89513 27.40531
#
# Poissons Ratio (x) = 0.12316 0.25362
# Poissons Ratio (y) = 0.16788 0.22334
# Poissons Ratio (z) = 0.64203 0.41478
#
# Static dielectric constant tensor:
#      x y z
#    x 1.689080 0.000000 -0.026870 
#    y 0.000000 1.637100 0.000000 
#    z -0.026870 0.000000 1.729450 
# 
# From -- ./inp_files/68240.got.cif
#   From: 2010.05.17/outbox.cif.g08.bks.cpg/sg12_35_cif.got.tgz:68240.got - 2010.06.03 13:09:07.
