data_PCOD9190806
_publ_section_title
;
Structure prediction by ZEFSAII (Michael W. Deem and Ramdas Pophale) SiO2 
 PCOD9190806
Probable space group: C 2/M
;
_chemical_formula_sum "Si O2"
_cell_formula_units_Z 60
_cell_length_a 9.927705
_cell_length_b 23.010582
_cell_length_c 17.870020
_cell_angle_alpha 90.000000
_cell_angle_beta 124.600873
_cell_angle_gamma 90.000000
_cell_volume 3360.227881
_symmetry_space_group_name_H-M "C 2/M"
_symmetry_group_IT_number 12
_symmetry_cell_setting 'monoclinic'
loop_
_space_group_symop_operation_xyz
x,y,z
-x,y,-z
-x,-y,-z
x,-y,z
1/2+x,1/2+y,z
1/2-x,1/2+y,-z
1/2-x,1/2-y,-z
1/2+x,1/2-y,z
loop_
_atom_site_type_symbol
_atom_site_label
_atom_site_fract_x
_atom_site_fract_y
_atom_site_fract_z
Si Si1 0.317624 0.566786 0.289639
Si Si2 0.044025 0.569230 0.828244
Si Si3 0.961111 0.068823 0.784181
Si Si4 0.645706 0.431503 0.985497
Si Si5 0.500000 0.866042 0.500000
Si Si6 0.085447 0.570242 0.671561
Si Si7 0.704503 0.276430 0.405222
Si Si8 0.397760 0.317120 0.390325
O O1 0.322337 0.500000 0.319983
O O2 0.452065 0.573390 0.267793
O O3 0.344792 0.617116 0.358003
O O4 0.137666 0.575535 0.197343
O O5 0.078064 0.500000 0.832348
O O6 0.037496 0.589572 0.740011
O O7 0.190341 0.593620 0.924966
O O8 0.073702 0.094009 0.885934
O O9 0.775030 0.089328 0.723545
O O10 0.945428 0.000000 0.796595
O O11 0.681059 0.500000 0.981885
O O12 0.500000 0.428917 0.000000
O O13 0.515166 0.903358 0.429027
O O14 0.338697 0.826991 0.438014
O O15 0.074202 0.500000 0.663288
O O16 0.750000 0.250000 0.500000
O O17 0.518614 0.297131 0.360727
O O18 0.748167 0.227574 0.357302
O O19 0.500000 0.315588 0.500000
#
# Coordination Sequence:
#
# PCOD9190806 Si02
#       8
#     8   8   8   8   4   8   8   8
#     4  10  21  34  48  77 117 145 168 209 268 335
#     4   9  18  30  46  72 105 141 179 211 251 312
#     4   9  17  31  48  70 105 142 179 215 252 310
#     4   9  14  26  49  69  96 142 183 217 252 296
#     4  12  21  32  56  72 105 138 178 220 270 306
#     4  10  20  32  48  75 108 144 178 211 254 319
#     4  10  20  37  53  75  91 133 179 236 267 289
#     4  10  21  37  57  73 103 141 180 229 265 302
#
# _framework density 17.855931999999999
#
# number of rings (size 3 to 8) (size 9 to 14) (size 15 to 20)
#    0.000    2.267    3.333    1.000    3.733    0.800 
#    0.000    3.333    0.000    0.000    0.000    0.000 
#    0.000   19.200    0.000    0.000    0.000    0.000 
#
# Total GULP energy -167008.048100 kJ/mol
# GULP energy per Si atom -5566.934937 kJ/mol
# Density = 1.781529 g / cm^3
# Si number density = 17.855932 Si / 1000 Ang^3
#
#
#
# Elastic Constant Matrix: (Units=GPa)
#
#
# Indices 1 2 3 4 5 6 
#
# 1 69.5593 28.8803 -1.2317 0.0000 8.9768 0.0000
# 2 28.8803 59.1964 21.1650 0.0000 -0.2581 0.0000
# 3 -1.2317 21.1650 41.4990 0.0000 -4.9988 0.0000
# 4 0.0000 0.0000 0.0000 0.5875 0.0000 -1.6545
# 5 8.9768 -0.2581 -4.9988 0.0000 12.6476 0.0000
# 6 0.0000 0.0000 0.0000 -1.6545 0.0000 1.5761
#
#
#
# Elastic Compliance Matrix: (Units=1/GPa)
#
#
# Indices 1 2 3 4 5 6 
#
# 1 0.021319 -0.012369 0.005342 0.000000 -0.013273 0.000000
# 2 -0.012369 0.028024 -0.014210 0.000000 0.003735 0.000000
# 3 0.005342 -0.014210 0.032561 0.000000 0.008788 0.000000
# 4 0.000000 0.000000 0.000000 -0.870094 0.000000 -0.913378
# 5 -0.013273 0.003735 0.008788 0.000000 0.092037 0.000000
# 6 0.000000 0.000000 0.000000 -0.913378 0.000000 -0.324335
#
#
# Mechanical properties :
#
#
# Convention : Reuss Voigt Hill
#
# Bulk Modulus (GPa) = 25.36042 29.76465 27.56254
# Shear Modulus (GPa) = -5.18205 11.05830 2.93813
#
# Velocity S-wave (km/s) = -1.70542 2.49129 1.28415
# Velocity P-wave (km/s) = 3.21803 4.99809 4.20337
#
# Compressibility (1/GPa) = 0.03943152
#
# Stress axis : x y z
#
# Youngs Moduli (GPa) = 46.90617 35.68328 30.71124
#
# Poissons Ratio (x) = 0.44137 -0.16407
# Poissons Ratio (y) = 0.58018 0.43641
# Poissons Ratio (z) = -0.25059 0.50706
#
# Static dielectric constant tensor:
#      x y z
#    x 1.629310 0.000000 0.006270 
#    y 0.000000 1.633320 0.000000 
#    z 0.006270 0.000000 1.625120 
# 
# From -- ./inp_files/259212.got.cif
#   From: 2010.05.17/outbox.cif.g08.bks.cpg/sg12_130_cif.got.tgz:259212.got - 2010.06.03 13:09:07.
