data_PCOD9190579
_publ_section_title
;
Structure prediction by ZEFSAII (Michael W. Deem and Ramdas Pophale) SiO2 
 PCOD9190579
Probable space group: C 2/M
;
_chemical_formula_sum "Si O2"
_cell_formula_units_Z 64
_cell_length_a 25.806825
_cell_length_b 7.893045
_cell_length_c 24.651860
_cell_angle_alpha 90.000000
_cell_angle_beta 139.579174
_cell_angle_gamma 90.000000
_cell_volume 3255.889221
_symmetry_space_group_name_H-M "C 2/M"
_symmetry_group_IT_number 12
_symmetry_cell_setting 'monoclinic'
loop_
_space_group_symop_operation_xyz
x,y,z
-x,y,-z
-x,-y,-z
x,-y,z
1/2+x,1/2+y,z
1/2-x,1/2+y,-z
1/2-x,1/2-y,-z
1/2+x,1/2-y,z
loop_
_atom_site_type_symbol
_atom_site_label
_atom_site_fract_x
_atom_site_fract_y
_atom_site_fract_z
Si Si1 0.988497 0.207587 0.745698
Si Si2 0.795642 0.795752 0.706451
Si Si3 0.195567 0.796754 0.406173
Si Si4 0.265079 0.297337 0.229949
Si Si5 0.478935 0.703833 0.860741
Si Si6 0.252073 0.806188 0.062685
Si Si7 0.387893 0.308554 0.243928
Si Si8 0.876414 0.297992 0.960478
O O1 0.008982 0.260443 0.824224
O O2 0.043708 0.269284 0.740033
O O3 0.896742 0.258031 0.662391
O O4 0.994001 0.000000 0.749978
O O5 0.774078 0.736510 0.628655
O O6 0.739721 0.740535 0.710739
O O7 0.886851 0.738327 0.790929
O O8 0.796830 0.000000 0.707126
O O9 0.250000 0.750000 0.500000
O O10 0.193004 0.000000 0.401662
O O11 0.267706 0.500000 0.224742
O O12 0.343871 0.228825 0.261425
O O13 0.181345 0.237601 0.134804
O O14 0.478885 0.500000 0.859593
O O15 0.531290 0.757459 0.954291
O O16 0.312393 0.688379 0.143306
O O17 0.278580 0.000000 0.089121
O O18 0.250000 0.750000 0.000000
O O19 0.166416 0.784508 0.021685
O O20 0.414093 0.500000 0.278932
O O21 0.869720 0.500000 0.956569
#
# Coordination Sequence:
#
# PCOD9190579 Si02
#       8
#     8   8   8   8   8   8   8   8
#     4   8  15  30  52  73  97 125 155 195 246 292
#     4   9  19  34  51  71  98 129 163 197 238 295
#     4   9  18  34  56  82 103 122 149 188 239 295
#     4   9  19  32  46  67  96 130 170 206 240 279
#     4   9  17  30  48  70  93 125 167 209 250 294
#     4  11  20  29  42  62  90 126 167 210 251 291
#     4   9  17  31  49  69  93 125 163 204 244 287
#     4  10  20  32  44  64  94 128 168 213 251 287
#
# _framework density 19.656689
#
# number of rings (size 3 to 8) (size 9 to 14) (size 15 to 20)
#    0.000    2.750    0.000    4.500    0.000    5.000 
#    0.000    5.000    0.000    0.750    0.000    5.250 
#    0.000    0.000    0.000    0.000    0.000    0.000 
#
# Total GULP energy -178216.045791 kJ/mol
# GULP energy per Si atom -5569.251431 kJ/mol
# Density = 1.961195 g / cm^3
# Si number density = 19.656689 Si / 1000 Ang^3
#
#
#
# Elastic Constant Matrix: (Units=GPa)
#
#
# Indices 1 2 3 4 5 6 
#
# 1 122.5464 0.0997 38.0509 0.0000 -29.0218 0.0000
# 2 0.0997 32.5780 -0.6818 -0.0001 -0.5249 0.0000
# 3 38.0509 -0.6818 68.0949 0.0000 -11.8251 0.0000
# 4 0.0000 -0.0001 0.0000 20.8603 0.0000 -0.2808
# 5 -29.0218 -0.5249 -11.8251 0.0000 22.8882 0.0000
# 6 0.0000 0.0000 0.0000 -0.2808 0.0000 14.7131
#
#
#
# Elastic Compliance Matrix: (Units=1/GPa)
#
#
# Indices 1 2 3 4 5 6 
#
# 1 0.012959 0.000084 -0.004819 0.000000 0.013943 0.000000
# 2 0.000084 0.030721 0.000441 0.000000 0.001039 0.000000
# 3 -0.004819 0.000441 0.017932 0.000000 0.003164 0.000000
# 4 0.000000 0.000000 0.000000 0.047950 0.000000 0.000915
# 5 0.013943 0.001039 0.003164 0.000000 0.063029 0.000000
# 6 0.000000 0.000000 0.000000 0.000915 0.000000 0.067984
#
#
# Mechanical properties :
#
#
# Convention : Reuss Voigt Hill
#
# Bulk Modulus (GPa) = 18.85924 33.12854 25.99389
# Shear Modulus (GPa) = 18.73798 24.07569 21.40683
#
# Velocity S-wave (km/s) = 3.09084 3.50352 3.30363
# Velocity P-wave (km/s) = 4.72788 5.76684 5.27301
#
# Compressibility (1/GPa) = 0.05302442
#
# Stress axis : x y z
#
# Youngs Moduli (GPa) = 77.16930 32.55074 55.76589
#
# Poissons Ratio (x) = -0.00274 0.26873
# Poissons Ratio (y) = -0.00649 -0.02460
# Poissons Ratio (z) = 0.37187 -0.01436
#
# Static dielectric constant tensor:
#      x y z
#    x 1.761440 0.000000 -0.005190 
#    y 0.000000 1.728950 0.000000 
#    z -0.005190 0.000000 1.679920 
# 
# From -- ./inp_files/324220.got.cif
#   From: 2010.05.17/outbox.cif.g08.bks.cpg/sg12_163_cif.got.tgz:324220.got - 2010.06.03 13:09:07.
