data_PCOD9190485
_publ_section_title
;
Structure prediction by ZEFSAII (Michael W. Deem and Ramdas Pophale) SiO2 
 PCOD9190485
Probable space group: C 2/M
;
_chemical_formula_sum "Si O2"
_cell_formula_units_Z 64
_cell_length_a 33.295761
_cell_length_b 14.827675
_cell_length_c 8.350255
_cell_angle_alpha 90.000000
_cell_angle_beta 61.497244
_cell_angle_gamma 90.000000
_cell_volume 3622.837914
_symmetry_space_group_name_H-M "C 2/M"
_symmetry_group_IT_number 12
_symmetry_cell_setting 'monoclinic'
loop_
_space_group_symop_operation_xyz
x,y,z
-x,y,-z
-x,-y,-z
x,-y,z
1/2+x,1/2+y,z
1/2-x,1/2+y,-z
1/2-x,1/2-y,-z
1/2+x,1/2-y,z
loop_
_atom_site_type_symbol
_atom_site_label
_atom_site_fract_x
_atom_site_fract_y
_atom_site_fract_z
Si Si1 0.362243 0.792258 0.824243
Si Si2 0.668970 0.597107 0.227871
Si Si3 0.049928 0.603397 0.462520
Si Si4 0.824974 0.897281 0.396102
Si Si5 0.364273 0.782662 0.203327
Si Si6 0.550627 0.897111 0.843836
Si Si7 0.266282 0.150994 0.018993
Si Si8 0.777227 0.392594 0.375041
O O1 0.354669 0.689034 0.783514
O O2 0.408830 0.835068 0.674579
O O3 0.362689 0.791207 0.015279
O O4 0.318060 0.852716 0.854668
O O5 0.647342 0.500000 0.228301
O O6 0.672191 0.602837 0.415455
O O7 0.721018 0.595731 0.060764
O O8 0.056208 0.500000 0.391422
O O9 0.050112 0.601939 0.653468
O O10 0.000000 0.634178 0.500000
O O11 0.857633 0.820869 0.265482
O O12 0.772141 0.874400 0.452217
O O13 0.834414 0.000000 0.325494
O O14 0.410465 0.829224 0.173479
O O15 0.320291 0.836956 0.356668
O O16 0.560464 0.000000 0.882226
O O17 0.500000 0.872988 0.000000
O O18 0.271501 0.134441 0.199174
O O19 0.250000 0.250000 0.000000
O O20 0.785499 0.500000 0.367363
#
# Coordination Sequence:
#
# PCOD9190485 Si02
#       8
#     8   8   8   8   8   8   8   8
#     4  10  20  31  49  77 104 134 169 208 253 303
#     4   9  17  32  51  70  99 139 178 214 251 292
#     4  10  21  37  56  77 102 131 164 205 251 301
#     4   9  18  32  50  71  99 138 179 216 252 292
#     4  11  20  31  51  76 105 136 169 210 255 306
#     4  10  21  37  56  78 103 131 165 205 251 303
#     4   8  15  27  44  69  99 133 172 208 246 290
#     4   9  17  29  46  70 101 138 175 211 253 299
#
# _framework density 17.665709
#
# number of rings (size 3 to 8) (size 9 to 14) (size 15 to 20)
#    0.000    2.500    0.000    3.375    0.000    4.500 
#    0.000    1.250    0.000    0.750    0.000    0.000 
#    0.000    0.000    0.000    0.000    0.000    0.000 
#
# Total GULP energy -178291.891669 kJ/mol
# GULP energy per Si atom -5571.621615 kJ/mol
# Density = 1.762550 g / cm^3
# Si number density = 17.665709 Si / 1000 Ang^3
#
#
#
# Elastic Constant Matrix: (Units=GPa)
#
#
# Indices 1 2 3 4 5 6 
#
# 1 77.6705 55.0588 39.0995 0.0000 -32.2856 0.0000
# 2 55.0588 110.9988 56.6964 0.0000 -32.8321 0.0000
# 3 39.0995 56.6964 68.5685 0.0000 -26.5283 0.0000
# 4 0.0000 0.0000 0.0000 23.9154 0.0000 -2.5629
# 5 -32.2856 -32.8321 -26.5283 0.0000 29.2533 0.0000
# 6 0.0000 0.0000 0.0000 -2.5629 0.0000 16.3872
#
#
#
# Elastic Compliance Matrix: (Units=1/GPa)
#
#
# Indices 1 2 3 4 5 6 
#
# 1 0.027025 -0.006017 -0.002324 0.000000 0.020966 0.000000
# 2 -0.006017 0.018621 -0.009935 0.000000 0.005249 0.000000
# 3 -0.002324 -0.009935 0.028988 0.000000 0.012572 0.000000
# 4 0.000000 0.000000 0.000000 0.042527 0.000000 0.006651
# 5 0.020966 0.005249 0.012572 0.000000 0.074616 0.000000
# 6 0.000000 0.000000 0.000000 0.006651 0.000000 0.062063
#
#
# Mechanical properties :
#
#
# Convention : Reuss Voigt Hill
#
# Bulk Modulus (GPa) = 26.25882 62.10522 44.18202
# Shear Modulus (GPa) = 16.49701 21.00340 18.75021
#
# Velocity S-wave (km/s) = 3.05920 3.45184 3.26143
# Velocity P-wave (km/s) = 5.23210 7.14976 6.26474
#
# Compressibility (1/GPa) = 0.03808244
#
# Stress axis : x y z
#
# Youngs Moduli (GPa) = 37.00309 53.70322 34.49681
#
# Poissons Ratio (x) = 0.32311 0.08016
# Poissons Ratio (y) = 0.22263 0.34273
# Poissons Ratio (z) = 0.08599 0.53355
#
# Static dielectric constant tensor:
#      x y z
#    x 1.601390 0.000000 -0.000190 
#    y 0.000000 1.602170 0.000000 
#    z -0.000190 0.000000 1.600970 
# 
# From -- ./inp_files/111671.got.cif
#   From: 2010.05.17/outbox.cif.g08.bks.cpg/sg12_56_cif.got.tgz:111671.got - 2010.06.03 13:09:07.
