data_PCOD9190622
_publ_section_title
;
Structure prediction by ZEFSAII (Michael W. Deem and Ramdas Pophale) SiO2 
 PCOD9190622
Probable space group: C 2/M
;
_chemical_formula_sum "Si O2"
_cell_formula_units_Z 40
_cell_length_a 28.206987
_cell_length_b 7.440017
_cell_length_c 13.880283
_cell_angle_alpha 90.000000
_cell_angle_beta 41.826869
_cell_angle_gamma 90.000000
_cell_volume 1942.575629
_symmetry_space_group_name_H-M "C 2/M"
_symmetry_group_IT_number 12
_symmetry_cell_setting 'monoclinic'
loop_
_space_group_symop_operation_xyz
x,y,z
-x,y,-z
-x,-y,-z
x,-y,z
1/2+x,1/2+y,z
1/2-x,1/2+y,-z
1/2-x,1/2-y,-z
1/2+x,1/2-y,z
loop_
_atom_site_type_symbol
_atom_site_label
_atom_site_fract_x
_atom_site_fract_y
_atom_site_fract_z
Si Si1 0.625610 0.282897 0.070140
Si Si2 0.422870 0.790754 0.643376
Si Si3 0.721536 0.714148 0.648749
Si Si4 0.930002 0.780481 0.051209
Si Si5 0.279374 0.219770 0.762860
O O1 0.625828 0.500000 0.072017
O O2 0.592800 0.218855 0.219386
O O3 0.580841 0.227124 0.043647
O O4 0.707709 0.225565 0.928664
O O5 0.500000 0.712475 0.500000
O O6 0.352916 0.714438 0.696699
O O7 0.425639 0.000000 0.609649
O O8 0.718631 0.500000 0.664222
O O9 0.750000 0.750000 0.500000
O O10 0.641254 0.779307 0.786170
O O11 0.768291 0.777478 0.668736
O O12 0.931561 0.000000 0.049250
O O13 0.000000 0.718208 0.000000
O O14 0.279897 0.000000 0.765469
#
# Coordination Sequence:
#
# PCOD9190622 Si02
#       5
#     8   8   8   8   8
#     4   9  17  31  51  69  86 115 154 190 219 255
#     4  10  20  32  46  66  93 122 148 179 225 273
#     4   9  17  30  48  68  91 119 149 182 221 265
#     4   8  15  29  48  68  90 118 150 182 221 267
#     4   8  16  32  49  64  88 123 154 178 217 271
#
# _framework density 20.591218000000001
#
# number of rings (size 3 to 8) (size 9 to 14) (size 15 to 20)
#    0.000    3.200    0.000    3.000    0.000    2.000 
#    0.000    5.000    0.000    1.200    0.000    0.000 
#    0.000    0.000    0.000    0.000    0.000    0.000 
#
# Total GULP energy -111558.191069 kJ/mol
# GULP energy per Si atom -5577.909553 kJ/mol
# Density = 2.054435 g / cm^3
# Si number density = 20.591218 Si / 1000 Ang^3
#
#
#
# Elastic Constant Matrix: (Units=GPa)
#
#
# Indices 1 2 3 4 5 6 
#
# 1 195.3316 -0.8839 134.8863 0.0000 -24.9417 0.0000
# 2 -0.8839 59.6967 -4.0504 -0.0001 -8.8856 0.0000
# 3 134.8863 -4.0504 162.0978 0.0000 0.8990 0.0000
# 4 0.0000 -0.0001 0.0000 10.1800 0.0000 15.2260
# 5 -24.9417 -8.8856 0.8990 0.0000 34.9305 0.0000
# 6 0.0000 0.0000 0.0000 15.2260 0.0000 7.6394
#
#
#
# Elastic Compliance Matrix: (Units=1/GPa)
#
#
# Indices 1 2 3 4 5 6 
#
# 1 0.015647 0.001100 -0.013058 0.000000 0.011789 0.000000
# 2 0.001100 0.017515 -0.000507 0.000000 0.005254 0.000000
# 3 -0.013058 -0.000507 0.017078 0.000000 -0.009893 0.000000
# 4 0.000000 0.000000 0.000000 -0.049586 0.000000 0.098830
# 5 0.011789 0.005254 -0.009893 0.000000 0.038637 0.000000
# 6 0.000000 0.000000 0.000000 0.098830 0.000000 -0.066077
#
#
# Mechanical properties :
#
#
# Convention : Reuss Voigt Hill
#
# Bulk Modulus (GPa) = 39.51037 75.22557 57.36797
# Shear Modulus (GPa) = 759.71815 29.69493 394.70654
#
# Velocity S-wave (km/s) = 19.22897 3.80164 13.86012
# Velocity P-wave (km/s) = 22.63259 7.47543 16.85403
#
# Compressibility (1/GPa) = 0.02530981
#
# Stress axis : x y z
#
# Youngs Moduli (GPa) = 63.90892 57.09289 58.55622
#
# Poissons Ratio (x) = -0.06282 0.76465
# Poissons Ratio (y) = -0.07032 0.02970
# Poissons Ratio (z) = 0.83455 0.02895
#
# Static dielectric constant tensor:
#      x y z
#    x 1.728210 0.000000 -0.013300 
#    y 0.000000 1.784420 0.000000 
#    z -0.013300 0.000000 1.709760 
# 
# From -- ./inp_files/140384.got.cif
#   From: 2010.05.17/outbox.cif.g08.bks.cpg/sg12_71_cif.got.tgz:140384.got - 2010.06.03 13:09:07.
