data_PCOD9190457
_publ_section_title
;
Structure prediction by ZEFSAII (Michael W. Deem and Ramdas Pophale) SiO2 
 PCOD9190457
Probable space group: C 2/M
;
_chemical_formula_sum "Si O2"
_cell_formula_units_Z 64
_cell_length_a 29.427609
_cell_length_b 8.913501
_cell_length_c 16.967789
_cell_angle_alpha 90.000000
_cell_angle_beta 64.603546
_cell_angle_gamma 90.000000
_cell_volume 4020.594641
_symmetry_space_group_name_H-M "C 2/M"
_symmetry_group_IT_number 12
_symmetry_cell_setting 'monoclinic'
loop_
_space_group_symop_operation_xyz
x,y,z
-x,y,-z
-x,-y,-z
x,-y,z
1/2+x,1/2+y,z
1/2-x,1/2+y,-z
1/2-x,1/2-y,-z
1/2+x,1/2-y,z
loop_
_atom_site_type_symbol
_atom_site_label
_atom_site_fract_x
_atom_site_fract_y
_atom_site_fract_z
Si Si1 0.342307 0.831443 0.629941
Si Si2 0.277551 0.325507 0.263891
Si Si3 0.503732 0.319139 0.589612
Si Si4 0.720291 0.820546 0.904539
Si Si5 0.883098 0.176008 0.451826
Si Si6 0.907414 0.674858 0.739712
Si Si7 0.673709 0.320730 0.092553
Si Si8 0.796738 0.678644 0.416242
O O1 0.283133 0.820215 0.687467
O O2 0.360222 0.708411 0.555024
O O3 0.371949 0.815819 0.688945
O O4 0.352783 0.000000 0.590087
O O5 0.292809 0.500000 0.255606
O O6 0.292195 0.251123 0.170283
O O7 0.295654 0.238992 0.327932
O O8 0.500000 0.271349 0.500000
O O9 0.498629 0.500000 0.593966
O O10 0.558418 0.281087 0.584052
O O11 0.459711 0.247443 0.673982
O O12 0.778064 0.784181 0.887291
O O13 0.715938 0.000000 0.904538
O O14 0.686150 0.754430 0.999705
O O15 0.848394 0.269261 0.418634
O O16 0.879488 0.000000 0.435509
O O17 0.913902 0.500000 0.754802
O O18 0.876915 0.758972 0.830665
O O19 0.671854 0.500000 0.085931
O O20 0.791400 0.500000 0.422575
O O21 0.750000 0.750000 0.500000
#
# Coordination Sequence:
#
# PCOD9190457 Si02
#       8
#     8   8   8   8   8   8   8   8
#     4  10  20  31  48  73 105 140 175 216 257 305
#     4  11  21  35  53  76 106 140 178 214 260 313
#     4  10  21  36  52  75 104 138 177 217 261 312
#     4  10  20  33  51  76 106 139 175 215 261 311
#     4  11  22  36  54  73 102 139 178 220 262 307
#     4  11  21  33  51  76 105 140 179 217 260 310
#     4  10  20  33  51  74 105 141 175 215 261 312
#     4  12  24  37  53  75 104 137 178 219 262 310
#
# _framework density 15.918044
#
# number of rings (size 3 to 8) (size 9 to 14) (size 15 to 20)
#    0.000    1.375    3.750    3.000    0.000    3.250 
#    0.000    0.000    0.000    0.000    0.000    0.875 
#    0.000    7.000    0.000    0.000    0.000    0.000 
#
# Total GULP energy -178690.634073 kJ/mol
# GULP energy per Si atom -5584.082315 kJ/mol
# Density = 1.588181 g / cm^3
# Si number density = 15.918044 Si / 1000 Ang^3
#
#
#
# Elastic Constant Matrix: (Units=GPa)
#
#
# Indices 1 2 3 4 5 6 
#
# 1 90.4077 55.7743 52.9639 0.0000 0.0264 0.0000
# 2 55.7743 93.5448 64.9662 0.0000 3.0738 0.0000
# 3 52.9639 64.9662 126.2069 0.0000 -1.3658 0.0000
# 4 0.0000 0.0000 0.0000 32.1992 0.0000 0.8014
# 5 0.0264 3.0738 -1.3658 0.0000 20.8810 0.0000
# 6 0.0000 0.0000 0.0000 0.8014 0.0000 22.5293
#
#
#
# Elastic Compliance Matrix: (Units=1/GPa)
#
#
# Indices 1 2 3 4 5 6 
#
# 1 0.018319 -0.008757 -0.003169 0.000000 0.001059 0.000000
# 2 -0.008757 0.021015 -0.007181 0.000000 -0.003552 0.000000
# 3 -0.003169 -0.007181 0.012971 0.000000 0.001910 0.000000
# 4 0.000000 0.000000 0.000000 0.031084 0.000000 -0.001106
# 5 0.001059 -0.003552 0.001910 0.000000 0.048537 0.000000
# 6 0.000000 0.000000 0.000000 -0.001106 0.000000 0.044426
#
#
# Mechanical properties :
#
#
# Convention : Reuss Voigt Hill
#
# Bulk Modulus (GPa) = 70.96507 73.06313 72.01410
# Shear Modulus (GPa) = 22.80368 24.21890 23.51129
#
# Velocity S-wave (km/s) = 3.78903 3.90484 3.84737
# Velocity P-wave (km/s) = 7.98878 8.14430 8.06692
#
# Compressibility (1/GPa) = 0.01409144
#
# Stress axis : x y z
#
# Youngs Moduli (GPa) = 54.58757 47.58467 77.09667
#
# Poissons Ratio (x) = 0.41668 0.24431
# Poissons Ratio (y) = 0.47800 0.55367
# Poissons Ratio (z) = 0.17298 0.34173
#
# Static dielectric constant tensor:
#      x y z
#    x 1.530050 0.000000 0.005960 
#    y 0.000000 1.545960 0.000000 
#    z 0.005960 0.000000 1.509550 
# 
# From -- ./inp_files/248988.got.cif
#   From: 2010.05.17/outbox.cif.g08.bks.cpg/sg12_125_cif.got.tgz:248988.got - 2010.06.03 13:09:07.
