data_PCOD9190387
_publ_section_title
;
Structure prediction by ZEFSAII (Michael W. Deem and Ramdas Pophale) SiO2 
 PCOD9190387
Probable space group: C 2/M
;
_chemical_formula_sum "Si O2"
_cell_formula_units_Z 64
_cell_length_a 32.383927
_cell_length_b 8.052412
_cell_length_c 14.884719
_cell_angle_alpha 90.000000
_cell_angle_beta 89.780190
_cell_angle_gamma 90.000000
_cell_volume 3881.440593
_symmetry_space_group_name_H-M "C 2/M"
_symmetry_group_IT_number 12
_symmetry_cell_setting 'monoclinic'
loop_
_space_group_symop_operation_xyz
x,y,z
-x,y,-z
-x,-y,-z
x,-y,z
1/2+x,1/2+y,z
1/2-x,1/2+y,-z
1/2-x,1/2-y,-z
1/2+x,1/2-y,z
loop_
_atom_site_type_symbol
_atom_site_label
_atom_site_fract_x
_atom_site_fract_y
_atom_site_fract_z
Si Si1 0.590655 0.700937 0.898210
Si Si2 0.201625 0.299771 0.598845
Si Si3 0.251345 0.301099 0.896239
Si Si4 0.332283 0.197436 0.785949
Si Si5 0.499257 0.691844 0.109246
Si Si6 0.202846 0.701046 0.399462
Si Si7 0.329362 0.200530 0.212513
Si Si8 0.588731 0.300402 0.103593
O O1 0.588244 0.500000 0.900612
O O2 0.545526 0.764770 0.866942
O O3 0.628472 0.748984 0.835400
O O4 0.597580 0.758164 0.001346
O O5 0.199276 0.500000 0.597633
O O6 0.189702 0.240191 0.499041
O O7 0.249477 0.252633 0.613221
O O8 0.175911 0.239870 0.684843
O O9 0.251873 0.500000 0.891353
O O10 0.292518 0.238162 0.847196
O O11 0.210352 0.240662 0.844511
O O12 0.250000 0.250000 0.000000
O O13 0.323104 0.262408 0.685494
O O14 0.373617 0.262297 0.831817
O O15 0.335961 0.000000 0.780649
O O16 0.498880 0.500000 0.140534
O O17 0.543691 0.766063 0.134551
O O18 0.500000 0.688939 0.000000
O O19 0.201537 0.500000 0.399395
O O20 0.327757 0.000000 0.213416
O O21 0.584527 0.500000 0.098070
#
# Coordination Sequence:
#
# PCOD9190387 Si02
#       8
#     8   8   8   8   8   8   8   8
#     4   9  17  29  47  68  90 117 150 186 220 262
#     4   9  17  32  49  64  84 113 149 190 231 267
#     4  11  22  34  45  61  89 126 159 185 215 257
#     4  11  21  31  44  67  94 119 149 186 225 267
#     4   7  12  26  46  66  86 111 148 188 222 258
#     4   9  18  31  48  66  85 112 148 190 231 266
#     4  10  20  31  44  64  90 118 148 183 223 266
#     4   9  17  30  48  67  89 121 154 183 219 265
#
# _framework density 16.488723
#
# number of rings (size 3 to 8) (size 9 to 14) (size 15 to 20)
#    0.000    2.625    1.250    3.000    0.000    4.500 
#    0.000    0.625    0.000    2.250    0.000    0.875 
#    0.000    7.000    0.000    0.000    0.000    0.000 
#
# Total GULP energy -178296.476121 kJ/mol
# GULP energy per Si atom -5571.764879 kJ/mol
# Density = 1.645119 g / cm^3
# Si number density = 16.488723 Si / 1000 Ang^3
#
#
#
# Elastic Constant Matrix: (Units=GPa)
#
#
# Indices 1 2 3 4 5 6 
#
# 1 153.8853 4.8940 85.7389 0.0000 1.6730 0.0000
# 2 4.8940 9.5758 6.8429 0.0000 0.7617 0.0000
# 3 85.7389 6.8429 131.5282 0.0000 8.0392 0.0000
# 4 0.0000 0.0000 0.0000 14.7236 0.0000 -0.9322
# 5 1.6730 0.7617 8.0392 0.0000 9.3117 0.0000
# 6 0.0000 0.0000 0.0000 -0.9322 0.0000 17.9277
#
#
#
# Elastic Compliance Matrix: (Units=1/GPa)
#
#
# Indices 1 2 3 4 5 6 
#
# 1 0.010361 -0.000644 -0.006978 0.000000 0.004216 0.000000
# 2 -0.000644 0.108660 -0.004959 0.000000 -0.004491 0.000000
# 3 -0.006978 -0.004959 0.012994 0.000000 -0.009559 0.000000
# 4 0.000000 0.000000 0.000000 0.068142 0.000000 0.003543
# 5 0.004216 -0.004491 -0.009559 0.000000 0.115255 0.000000
# 6 0.000000 0.000000 0.000000 0.003543 0.000000 0.055964
#
#
# Mechanical properties :
#
#
# Convention : Reuss Voigt Hill
#
# Bulk Modulus (GPa) = 9.35862 54.43787 31.89824
# Shear Modulus (GPa) = 11.56989 21.56016 16.56502
#
# Velocity S-wave (km/s) = 2.65181 3.61996 3.17302
# Velocity P-wave (km/s) = 3.88126 7.11048 5.72814
#
# Compressibility (1/GPa) = 0.10685338
#
# Stress axis : x y z
#
# Youngs Moduli (GPa) = 96.51648 9.20298 76.95880
#
# Poissons Ratio (x) = 0.00593 0.53703
# Poissons Ratio (y) = 0.06216 0.38163
# Poissons Ratio (z) = 0.67350 0.04564
#
# Static dielectric constant tensor:
#      x y z
#    x 1.558400 0.000000 0.009670 
#    y 0.000000 1.597640 0.000000 
#    z 0.009670 0.000000 1.563530 
# 
# From -- ./inp_files/248252.got.cif
#   From: 2010.05.17/outbox.cif.g08.bks.cpg/sg12_125_cif.got.tgz:248252.got - 2010.06.03 13:09:07.
