data_PCOD9190900
_publ_section_title
;
Structure prediction by ZEFSAII (Michael W. Deem and Ramdas Pophale) SiO2 
 PCOD9190900
Probable space group: C 2/M
;
_chemical_formula_sum "Si O2"
_cell_formula_units_Z 44
_cell_length_a 25.689675
_cell_length_b 10.489843
_cell_length_c 13.962964
_cell_angle_alpha 90.000000
_cell_angle_beta 41.326729
_cell_angle_gamma 90.000000
_cell_volume 2484.738897
_symmetry_space_group_name_H-M "C 2/M"
_symmetry_group_IT_number 12
_symmetry_cell_setting 'monoclinic'
loop_
_space_group_symop_operation_xyz
x,y,z
-x,y,-z
-x,-y,-z
x,-y,z
1/2+x,1/2+y,z
1/2-x,1/2+y,-z
1/2-x,1/2-y,-z
1/2+x,1/2-y,z
loop_
_atom_site_type_symbol
_atom_site_label
_atom_site_fract_x
_atom_site_fract_y
_atom_site_fract_z
Si Si1 0.000000 0.792684 0.000000
Si Si2 0.688112 0.845785 0.407406
Si Si3 0.931827 0.648467 0.273451
Si Si4 0.894945 0.649714 0.878702
Si Si5 0.348645 0.643262 0.096237
Si Si6 0.410317 0.845270 0.640717
O O1 0.046994 0.712135 0.855764
O O2 0.067572 0.862375 0.966386
O O3 0.641291 0.796749 0.564817
O O4 0.780032 0.819990 0.265913
O O5 0.644343 0.802048 0.370894
O O6 0.679419 0.000000 0.423165
O O7 0.917169 0.500000 0.274806
O O8 0.010842 0.656579 0.229782
O O9 0.872892 0.500000 0.923843
O O10 0.881785 0.687444 0.786619
O O11 0.854675 0.748938 0.006537
O O12 0.329805 0.500000 0.085185
O O13 0.500000 0.801808 0.500000
O O14 0.411753 0.000000 0.636509
#
# Coordination Sequence:
#
# PCOD9190900 Si02
#       6
#     4   8   8   8   8   8
#     4  10  20  32  50  68  91 134 171 202 243 296
#     4   9  17  29  48  74 102 128 161 201 241 289
#     4   9  16  29  49  76 101 121 157 211 254 283
#     4   9  17  30  52  78 101 126 159 201 244 287
#     4  10  21  35  49  69  99 136 169 199 238 291
#     4   9  14  25  49  79 102 124 156 197 244 291
#
# _framework density 17.708096999999999
#
# number of rings (size 3 to 8) (size 9 to 14) (size 15 to 20)
#    0.000    2.727    1.818    0.545    0.000    2.182 
#    0.000    0.000    0.000    6.000    0.000    0.000 
#    0.000    0.000    0.000    0.000    0.000    0.000 
#
# Total GULP energy -122471.556308 kJ/mol
# GULP energy per Si atom -5566.888923 kJ/mol
# Density = 1.766779 g / cm^3
# Si number density = 17.708097 Si / 1000 Ang^3
#
#
#
# Elastic Constant Matrix: (Units=GPa)
#
#
# Indices 1 2 3 4 5 6 
#
# 1 45.1236 14.4620 33.7538 0.0000 14.2501 0.0000
# 2 14.4620 51.6653 54.2713 0.0000 12.9401 0.0000
# 3 33.7538 54.2713 154.1396 0.0000 18.6015 0.0000
# 4 0.0000 0.0000 0.0000 16.8158 0.0000 -2.3120
# 5 14.2501 12.9401 18.6015 0.0000 30.6172 0.0000
# 6 0.0000 0.0000 0.0000 -2.3120 0.0000 -18.5121
#
#
#
# Elastic Compliance Matrix: (Units=1/GPa)
#
#
# Indices 1 2 3 4 5 6 
#
# 1 0.029343 -0.000269 -0.005068 0.000000 -0.010464 0.000000
# 2 -0.000269 0.032139 -0.010395 0.000000 -0.007143 0.000000
# 3 -0.005068 -0.010395 0.011269 0.000000 -0.000094 0.000000
# 4 0.000000 0.000000 0.000000 0.058464 0.000000 -0.007302
# 5 -0.010464 -0.007143 -0.000094 0.000000 0.040608 0.000000
# 6 0.000000 0.000000 0.000000 -0.007302 0.000000 -0.053107
#
#
# Mechanical properties :
#
#
# Convention : Reuss Voigt Hill
#
# Bulk Modulus (GPa) = 24.22080 50.65584 37.43832
# Shear Modulus (GPa) = 30.49857 15.68029 23.08943
#
# Velocity S-wave (km/s) = 4.15456 2.97894 3.61486
# Velocity P-wave (km/s) = 6.05981 6.36398 6.21376
#
# Compressibility (1/GPa) = 0.04128682
#
# Stress axis : x y z
#
# Youngs Moduli (GPa) = 34.07930 31.11497 88.74071
#
# Poissons Ratio (x) = 0.00837 0.44975
# Poissons Ratio (y) = 0.00917 0.92245
# Poissons Ratio (z) = 0.17272 0.32344
#
# Static dielectric constant tensor:
#      x y z
#    x 1.618940 0.000000 -0.003690 
#    y 0.000000 1.580030 0.000000 
#    z -0.003690 0.000000 1.615840 
# 
# From -- ./inp_files/220903.got.cif
#   From: 2010.05.17/outbox.cif.g08.bks.cpg/sg12_111_cif.got.tgz:220903.got - 2010.06.03 13:09:07.
