data_PCOD9190545
_publ_section_title
;
Structure prediction by ZEFSAII (Michael W. Deem and Ramdas Pophale) SiO2 
 PCOD9190545
Probable space group: C 2/M
;
_chemical_formula_sum "Si O2"
_cell_formula_units_Z 48
_cell_length_a 14.877124
_cell_length_b 16.997586
_cell_length_c 16.935143
_cell_angle_alpha 90.000000
_cell_angle_beta 30.277690
_cell_angle_gamma 90.000000
_cell_volume 2159.188342
_symmetry_space_group_name_H-M "C 2/M"
_symmetry_group_IT_number 12
_symmetry_cell_setting 'monoclinic'
loop_
_space_group_symop_operation_xyz
x,y,z
-x,y,-z
-x,-y,-z
x,-y,z
1/2+x,1/2+y,z
1/2-x,1/2+y,-z
1/2-x,1/2-y,-z
1/2+x,1/2-y,z
loop_
_atom_site_type_symbol
_atom_site_label
_atom_site_fract_x
_atom_site_fract_y
_atom_site_fract_z
Si Si1 0.784341 0.000000 0.333079
Si Si2 0.182528 0.412173 0.757395
Si Si3 0.314397 0.352027 0.108409
Si Si4 0.699011 0.246296 0.346640
Si Si5 0.409331 0.000000 0.690212
Si Si6 0.003103 0.159530 0.188858
Si Si7 0.777307 0.410494 0.084368
O O1 0.907966 0.924200 0.245996
O O2 0.622223 0.000000 0.519130
O O3 0.682687 0.000000 0.326552
O O4 0.224121 0.500000 0.695962
O O5 0.300203 0.339535 0.642215
O O6 0.203193 0.412932 0.836521
O O7 0.973774 0.393659 0.900869
O O8 0.271147 0.285446 0.206901
O O9 0.166160 0.419744 0.214659
O O10 0.500000 0.389247 0.000000
O O11 0.364967 0.320862 0.983948
O O12 0.500000 0.213183 0.500000
O O13 0.834940 0.216331 0.310099
O O14 0.125584 0.148911 0.171877
O O15 0.732010 0.500000 0.093151
#
# Coordination Sequence:
#
# PCOD9190545 Si02
#       7
#     4   8   8   8   4   8   8
#     4  11  19  30  55  83 127 167 196 230 298 366
#     4   9  21  42  67  85 110 156 207 261 306 348
#     4  10  20  31  53  84 122 162 200 236 283 353
#     4  11  23  39  59  89 128 163 197 240 308 371
#     4  11  18  31  50  81 129 178 191 221 295 371
#     4  11  21  34  61  93 125 153 203 248 293 357
#     4   9  19  38  66  92 115 147 205 260 300 345
#
# _framework density 22.230575999999999
#
# number of rings (size 3 to 8) (size 9 to 14) (size 15 to 20)
#    0.000    1.833    4.167    2.750    7.000    1.000 
#    0.000    0.833    3.667    0.000    0.000    0.000 
#    0.000    0.000    0.000    0.000    0.000    0.000 
#
# Total GULP energy -133981.823490 kJ/mol
# GULP energy per Si atom -5582.575979 kJ/mol
# Density = 2.217998 g / cm^3
# Si number density = 22.230576 Si / 1000 Ang^3
#
#
#
# Elastic Constant Matrix: (Units=GPa)
#
#
# Indices 1 2 3 4 5 6 
#
# 1 70.4225 14.5545 23.9682 0.0012 -33.1149 -0.0008
# 2 14.5545 100.2765 24.1759 0.0259 -17.9298 -0.0041
# 3 23.9682 24.1759 77.2607 0.0361 -23.3066 -0.0068
# 4 0.0012 0.0259 0.0361 54.1281 -0.0102 -8.8842
# 5 -33.1149 -17.9298 -23.3066 -0.0102 19.7646 0.0006
# 6 -0.0008 -0.0041 -0.0068 -8.8842 0.0006 10.2437
#
#
#
# Elastic Compliance Matrix: (Units=1/GPa)
#
#
# Indices 1 2 3 4 5 6 
#
# 1 0.127571 0.022170 0.037300 0.000021 0.277838 0.000046
# 2 0.022170 0.015782 0.005755 0.000001 0.058248 0.000009
# 3 0.037300 0.005755 0.031040 -0.000002 0.104319 0.000018
# 4 0.000021 0.000001 -0.000002 0.021541 0.000045 0.018682
# 5 0.277838 0.058248 0.104319 0.000045 0.691959 0.000112
# 6 0.000046 0.000009 0.000018 0.018682 0.000112 0.113823
#
#
# Mechanical properties :
#
#
# Convention : Reuss Voigt Hill
#
# Bulk Modulus (GPa) = 3.28038 41.48412 22.38225
# Shear Modulus (GPa) = 5.13937 29.17803 17.15870
#
# Velocity S-wave (km/s) = 1.52213 3.62680 2.78124
# Velocity P-wave (km/s) = 2.13728 6.01993 4.51705
#
# Compressibility (1/GPa) = 0.30484301
#
# Stress axis : x y z
#
# Youngs Moduli (GPa) = 7.83874 63.36304 32.21671
#
# Poissons Ratio (x) = -1.40473 -1.20169
# Poissons Ratio (y) = -0.17378 -0.18541
# Poissons Ratio (z) = -0.29239 -0.36467
#
# Static dielectric constant tensor:
#      x y z
#    x 1.823110 0.000000 0.015830 
#    y 0.000000 1.859490 0.000000 
#    z 0.015830 0.000000 1.816900 
# 
# From -- ./inp_files/271639.got.cif
#   From: 2010.05.17/outbox.cif.g08.bks.cpg/sg12_136_cif.got.tgz:271639.got - 2010.06.03 13:09:07.
