data_PCOD9190657
_publ_section_title
;
Structure prediction by ZEFSAII (Michael W. Deem and Ramdas Pophale) SiO2 
 PCOD9190657
Probable space group: C 2/M
;
_chemical_formula_sum "Si O2"
_cell_formula_units_Z 60
_cell_length_a 27.523402
_cell_length_b 9.139516
_cell_length_c 17.413849
_cell_angle_alpha 90.000000
_cell_angle_beta 126.623081
_cell_angle_gamma 90.000000
_cell_volume 3515.660405
_symmetry_space_group_name_H-M "C 2/M"
_symmetry_group_IT_number 12
_symmetry_cell_setting 'monoclinic'
loop_
_space_group_symop_operation_xyz
x,y,z
-x,y,-z
-x,-y,-z
x,-y,z
1/2+x,1/2+y,z
1/2-x,1/2+y,-z
1/2-x,1/2-y,-z
1/2+x,1/2-y,z
loop_
_atom_site_type_symbol
_atom_site_label
_atom_site_fract_x
_atom_site_fract_y
_atom_site_fract_z
Si Si1 0.657141 0.176436 0.383656
Si Si2 0.598825 0.823528 0.877066
Si Si3 0.295581 0.674588 0.103366
Si Si4 0.128830 0.164590 0.060929
Si Si5 0.715879 0.674659 0.576976
Si Si6 0.740685 0.826528 0.219780
Si Si7 0.530940 0.829836 0.198968
Si Si8 0.500000 0.740028 0.000000
O O1 0.668637 0.242446 0.478564
O O2 0.716764 0.213988 0.390352
O O3 0.595349 0.232195 0.286089
O O4 0.655697 0.000000 0.386287
O O5 0.639406 0.747078 0.851222
O O6 0.529010 0.771336 0.815111
O O7 0.601991 0.000000 0.875385
O O8 0.625680 0.770173 0.984107
O O9 0.297152 0.500000 0.091764
O O10 0.272155 0.699777 0.167608
O O11 0.250000 0.750000 0.000000
O O12 0.179088 0.233735 0.163464
O O13 0.062070 0.160792 0.034810
O O14 0.145912 0.000000 0.054001
O O15 0.708043 0.500000 0.560026
O O16 0.716810 0.709221 0.667999
O O17 0.725691 0.000000 0.211357
O O18 0.518704 0.821263 0.096193
O O19 0.532883 0.000000 0.220914
#
# Coordination Sequence:
#
# PCOD9190657 Si02
#       8
#     8   8   8   8   8   8   8   4
#     4   9  17  32  53  76 103 132 167 210 254 301
#     4  10  20  34  51  72 100 135 175 209 249 307
#     4  11  21  34  53  76 103 135 171 215 263 311
#     4  11  21  32  47  70 103 137 169 207 252 302
#     4   9  18  33  52  76 102 131 168 210 256 307
#     4  10  21  35  53  74 100 133 172 213 255 308
#     4   9  18  32  52  75 100 137 176 210 250 307
#     4  10  20  32  46  72 107 138 169 206 249 302
#
# _framework density 17.066495
#
# number of rings (size 3 to 8) (size 9 to 14) (size 15 to 20)
#    0.000    2.133    1.333    2.400    0.000    3.733 
#    0.000    6.667    0.000    0.800    0.000    5.600 
#    0.000    0.000    0.000    0.000    0.000    0.000 
#
# Total GULP energy -167178.409343 kJ/mol
# GULP energy per Si atom -5572.613645 kJ/mol
# Density = 1.702765 g / cm^3
# Si number density = 17.066495 Si / 1000 Ang^3
#
#
#
# Elastic Constant Matrix: (Units=GPa)
#
#
# Indices 1 2 3 4 5 6 
#
# 1 83.0481 28.2289 43.9146 0.0000 3.1087 0.0000
# 2 28.2289 39.6271 22.5791 0.0000 -2.3143 0.0000
# 3 43.9146 22.5791 113.0693 0.0000 5.4981 0.0000
# 4 0.0000 0.0000 0.0000 11.3962 0.0000 -2.0648
# 5 3.1087 -2.3143 5.4981 0.0000 27.3333 0.0000
# 6 0.0000 0.0000 0.0000 -2.0648 0.0000 18.7636
#
#
#
# Elastic Compliance Matrix: (Units=1/GPa)
#
#
# Indices 1 2 3 4 5 6 
#
# 1 0.018214 -0.010282 -0.004926 0.000000 -0.001951 0.000000
# 2 -0.010282 0.034633 -0.003153 0.000000 0.004736 0.000000
# 3 -0.004926 -0.003153 0.011485 0.000000 -0.002017 0.000000
# 4 0.000000 0.000000 0.000000 0.089534 0.000000 0.009852
# 5 -0.001951 0.004736 -0.002017 0.000000 0.037614 0.000000
# 6 0.000000 0.000000 0.000000 0.009852 0.000000 0.054379
#
#
# Mechanical properties :
#
#
# Convention : Reuss Voigt Hill
#
# Bulk Modulus (GPa) = 36.21864 47.24333 41.73098
# Shear Modulus (GPa) = 17.13598 20.90008 19.01803
#
# Velocity S-wave (km/s) = 3.17215 3.50326 3.34181
# Velocity P-wave (km/s) = 5.88938 6.64122 6.27657
#
# Compressibility (1/GPa) = 0.02761009
#
# Stress axis : x y z
#
# Youngs Moduli (GPa) = 54.90269 28.87426 87.07044
#
# Poissons Ratio (x) = 0.29689 0.42890
# Poissons Ratio (y) = 0.56452 0.27451
# Poissons Ratio (z) = 0.27045 0.09103
#
# Static dielectric constant tensor:
#      x y z
#    x 1.607160 0.000000 0.011570 
#    y 0.000000 1.580290 0.000000 
#    z 0.011570 0.000000 1.580200 
# 
# From -- ./inp_files/291914.got.cif
#   From: 2010.05.17/outbox.cif.g08.bks.cpg/sg12_146_cif.got.tgz:291914.got - 2010.06.03 13:09:07.
