data_PCOD9190940
_publ_section_title
;
Structure prediction by ZEFSAII (Michael W. Deem and Ramdas Pophale) SiO2 
 PCOD9190940
Probable space group: C 2/M
;
_chemical_formula_sum "Si O2"
_cell_formula_units_Z 48
_cell_length_a 9.664353
_cell_length_b 25.427229
_cell_length_c 10.485033
_cell_angle_alpha 90.000000
_cell_angle_beta 82.785881
_cell_angle_gamma 90.000000
_cell_volume 2556.171407
_symmetry_space_group_name_H-M "C 2/M"
_symmetry_group_IT_number 12
_symmetry_cell_setting 'monoclinic'
loop_
_space_group_symop_operation_xyz
x,y,z
-x,y,-z
-x,-y,-z
x,-y,z
1/2+x,1/2+y,z
1/2-x,1/2+y,-z
1/2-x,1/2-y,-z
1/2+x,1/2-y,z
loop_
_atom_site_type_symbol
_atom_site_label
_atom_site_fract_x
_atom_site_fract_y
_atom_site_fract_z
Si Si1 0.777541 0.864924 0.597887
Si Si2 0.929272 0.715610 0.314540
Si Si3 0.934148 0.840261 0.328479
Si Si4 0.473602 0.061510 0.351048
Si Si5 0.652199 0.794179 0.957665
Si Si6 0.673656 0.144078 0.196828
O O1 0.665978 0.818068 0.580144
O O2 0.858342 0.869577 0.454697
O O3 0.677668 0.912189 0.652120
O O4 0.903274 0.855278 0.683351
O O5 0.932178 0.776823 0.344407
O O6 0.083270 0.691721 0.273010
O O7 0.845668 0.701672 0.193451
O O8 0.833946 0.853067 0.221343
O O9 0.500000 0.067824 0.500000
O O10 0.589782 0.093546 0.257633
O O11 0.476232 0.000000 0.320480
O O12 0.664214 0.845202 0.046238
O O13 0.500000 0.771628 0.000000
O O14 0.750000 0.750000 0.000000
#
# Coordination Sequence:
#
# PCOD9190940 Si02
#       6
#     8   8   8   8   8   8
#     4  10  22  33  50  79 111 143 183 222 271 321
#     4  10  20  32  51  74 114 151 185 201 258 331
#     4  11  19  32  49  81 114 147 173 218 269 325
#     4  10  20  39  61  77 101 141 185 233 282 324
#     4  10  20  32  50  76 112 145 181 214 254 311
#     4  10  20  34  53  78 111 142 185 221 264 321
#
# _framework density 18.778082999999999
#
# number of rings (size 3 to 8) (size 9 to 14) (size 15 to 20)
#    0.000    1.833    3.333    1.500    2.333    1.333 
#    0.000    2.500    0.000   12.500    0.000    0.000 
#    0.000   23.333    0.000    0.000    0.000    0.000 
#
# Total GULP energy -133721.780550 kJ/mol
# GULP energy per Si atom -5571.740856 kJ/mol
# Density = 1.873534 g / cm^3
# Si number density = 18.778083 Si / 1000 Ang^3
#
#
#
# Elastic Constant Matrix: (Units=GPa)
#
#
# Indices 1 2 3 4 5 6 
#
# 1 111.0726 32.1368 9.5042 0.0000 22.7771 0.0000
# 2 32.1368 114.5771 10.8805 0.0000 3.3252 0.0000
# 3 9.5042 10.8805 39.3890 0.0000 12.9518 0.0000
# 4 0.0000 0.0000 0.0000 9.2745 0.0000 -0.4982
# 5 22.7771 3.3252 12.9518 0.0000 26.0031 0.0000
# 6 0.0000 0.0000 0.0000 -0.4982 0.0000 11.8007
#
#
#
# Elastic Compliance Matrix: (Units=1/GPa)
#
#
# Indices 1 2 3 4 5 6 
#
# 1 0.012035 -0.003208 0.001571 0.000000 -0.010914 0.000000
# 2 -0.003208 0.009818 -0.002929 0.000000 0.003013 0.000000
# 3 0.001571 -0.002929 0.031268 0.000000 -0.016576 0.000000
# 4 0.000000 0.000000 0.000000 0.108068 0.000000 0.004562
# 5 -0.010914 0.003013 -0.016576 0.000000 0.055888 0.000000
# 6 0.000000 0.000000 0.000000 0.004562 0.000000 0.084933
#
#
# Mechanical properties :
#
#
# Convention : Reuss Voigt Hill
#
# Bulk Modulus (GPa) = 22.73264 41.12020 31.92642
# Shear Modulus (GPa) = 15.34660 23.58348 19.46504
#
# Velocity S-wave (km/s) = 2.86188 3.54772 3.22309
# Velocity P-wave (km/s) = 4.80132 6.22312 5.55788
#
# Compressibility (1/GPa) = 0.04398961
#
# Stress axis : x y z
#
# Youngs Moduli (GPa) = 83.09103 101.85140 31.98135
#
# Poissons Ratio (x) = 0.32674 -0.05024
# Poissons Ratio (y) = 0.26656 0.09367
# Poissons Ratio (z) = -0.13054 0.29831
#
# Static dielectric constant tensor:
#      x y z
#    x 1.671340 0.000000 0.012750 
#    y 0.000000 1.646790 0.000000 
#    z 0.012750 0.000000 1.787960 
# 
# From -- ./inp_files/123095.got.cif
#   From: 2010.05.17/outbox.cif.g08.bks.cpg/sg12_62_cif.got.tgz:123095.got - 2010.06.03 13:09:07.
