data_PCOD9190967
_publ_section_title
;
Structure prediction by ZEFSAII (Michael W. Deem and Ramdas Pophale) SiO2 
 PCOD9190967
Probable space group: C 2/M
;
_chemical_formula_sum "Si O2"
_cell_formula_units_Z 56
_cell_length_a 27.721163
_cell_length_b 8.773595
_cell_length_c 14.510667
_cell_angle_alpha 90.000000
_cell_angle_beta 121.424285
_cell_angle_gamma 90.000000
_cell_volume 3011.572778
_symmetry_space_group_name_H-M "C 2/M"
_symmetry_group_IT_number 12
_symmetry_cell_setting 'monoclinic'
loop_
_space_group_symop_operation_xyz
x,y,z
-x,y,-z
-x,-y,-z
x,-y,z
1/2+x,1/2+y,z
1/2-x,1/2+y,-z
1/2-x,1/2-y,-z
1/2+x,1/2-y,z
loop_
_atom_site_type_symbol
_atom_site_label
_atom_site_fract_x
_atom_site_fract_y
_atom_site_fract_z
Si Si1 0.748806 0.817195 0.601410
Si Si2 0.532694 0.177761 0.174170
Si Si3 0.965995 0.677775 0.603829
Si Si4 0.088424 0.816228 0.731123
Si Si5 0.410233 0.683639 0.057771
Si Si6 0.639876 0.316256 0.178114
Si Si7 0.357892 0.318877 0.400499
O O1 0.750000 0.750000 0.500000
O O2 0.803855 0.764085 0.713591
O O3 0.692844 0.765172 0.599083
O O4 0.749931 0.000000 0.596361
O O5 0.541363 0.189713 0.293005
O O6 0.472106 0.252986 0.093931
O O7 0.584310 0.257837 0.174815
O O8 0.530942 0.000000 0.147550
O O9 0.961973 0.500000 0.573861
O O10 0.916882 0.772586 0.506738
O O11 0.028403 0.741331 0.645740
O O12 0.102759 0.768827 0.850107
O O13 0.134281 0.777347 0.699325
O O14 0.081268 0.000000 0.722686
O O15 0.413274 0.500000 0.060488
O O16 0.366517 0.731429 0.935053
O O17 0.639882 0.500000 0.180667
O O18 0.349556 0.500000 0.399903
#
# Coordination Sequence:
#
# PCOD9190967 Si02
#       7
#     8   8   8   8   8   8   8
#     4  11  24  41  59  80 106 137 176 220 264 312
#     4  10  20  32  50  80 113 140 170 213 264 314
#     4  10  20  33  52  80 112 144 177 217 266 316
#     4   9  19  35  55  79 108 141 176 216 262 315
#     4   9  18  35  56  77 105 140 176 213 257 312
#     4  10  21  36  55  77 102 138 180 218 259 311
#     4  11  22  36  55  79 107 141 180 219 263 314
#
# _framework density 18.594935
#
# number of rings (size 3 to 8) (size 9 to 14) (size 15 to 20)
#    0.000    2.000    0.000    3.429    0.000   10.286 
#    0.000    0.714    0.000    0.000    0.000    0.000 
#    0.000    0.000    0.000    0.000    0.000    0.000 
#
# Total GULP energy -156376.496614 kJ/mol
# GULP energy per Si atom -5584.874879 kJ/mol
# Density = 1.855261 g / cm^3
# Si number density = 18.594935 Si / 1000 Ang^3
#
#
#
# Elastic Constant Matrix: (Units=GPa)
#
#
# Indices 1 2 3 4 5 6 
#
# 1 121.1893 26.6705 71.0019 0.0000 -14.7451 0.0000
# 2 26.6705 25.9225 32.3407 0.0000 -4.3762 0.0000
# 3 71.0019 32.3407 138.9693 0.0000 2.4607 0.0000
# 4 0.0000 0.0000 0.0000 19.8509 0.0000 0.6082
# 5 -14.7451 -4.3762 2.4607 0.0000 10.9331 0.0000
# 6 0.0000 0.0000 0.0000 0.6082 0.0000 26.8644
#
#
#
# Elastic Compliance Matrix: (Units=1/GPa)
#
#
# Indices 1 2 3 4 5 6 
#
# 1 0.016424 -0.002924 -0.008115 0.000000 0.022807 0.000000
# 2 -0.002924 0.062451 -0.013466 0.000000 0.024084 0.000000
# 3 -0.008115 -0.013466 0.014824 0.000000 -0.019671 0.000000
# 4 0.000000 0.000000 0.000000 0.050411 0.000000 -0.001141
# 5 0.022807 0.024084 -0.019671 0.000000 0.136292 0.000000
# 6 0.000000 0.000000 0.000000 -0.001141 0.000000 0.037250
#
#
# Mechanical properties :
#
#
# Convention : Reuss Voigt Hill
#
# Bulk Modulus (GPa) = 22.37667 60.67858 41.52763
# Shear Modulus (GPa) = 13.10418 21.93420 17.51919
#
# Velocity S-wave (km/s) = 2.65753 3.43823 3.07277
# Velocity P-wave (km/s) = 4.63428 6.96164 5.91359
#
# Compressibility (1/GPa) = 0.04468940
#
# Stress axis : x y z
#
# Youngs Moduli (GPa) = 60.88571 16.01261 67.45849
#
# Poissons Ratio (x) = 0.04682 0.54741
# Poissons Ratio (y) = 0.17803 0.90840
# Poissons Ratio (z) = 0.49408 0.21563
#
# Static dielectric constant tensor:
#      x y z
#    x 1.609250 0.000000 -0.034060 
#    y 0.000000 1.625560 0.000000 
#    z -0.034060 0.000000 1.667800 
# 
# From -- ./inp_files/238970.got.cif
#   From: 2010.05.17/outbox.cif.g08.bks.cpg/sg12_120_cif.got.tgz:238970.got - 2010.06.03 13:09:07.
