data_PCOD9190521
_publ_section_title
;
Structure prediction by ZEFSAII (Michael W. Deem and Ramdas Pophale) SiO2 
 PCOD9190521
Probable space group: C 2/M
;
_chemical_formula_sum "Si O2"
_cell_formula_units_Z 44
_cell_length_a 19.116627
_cell_length_b 20.773339
_cell_length_c 15.609027
_cell_angle_alpha 90.000000
_cell_angle_beta 158.035734
_cell_angle_gamma 90.000000
_cell_volume 2318.450466
_symmetry_space_group_name_H-M "C 2/M"
_symmetry_group_IT_number 12
_symmetry_cell_setting 'monoclinic'
loop_
_space_group_symop_operation_xyz
x,y,z
-x,y,-z
-x,-y,-z
x,-y,z
1/2+x,1/2+y,z
1/2-x,1/2+y,-z
1/2-x,1/2-y,-z
1/2+x,1/2-y,z
loop_
_atom_site_type_symbol
_atom_site_label
_atom_site_fract_x
_atom_site_fract_y
_atom_site_fract_z
Si Si1 0.514007 0.869038 0.358093
Si Si2 0.058803 0.000000 0.930825
Si Si3 0.500000 0.230142 0.500000
Si Si4 0.821473 0.500000 0.390929
Si Si5 0.406407 0.635710 0.123110
Si Si6 0.715479 0.821212 0.424550
Si Si7 0.910571 0.250107 0.986719
O O1 0.532103 0.815110 0.452731
O O2 0.557987 0.936764 0.452466
O O3 0.654514 0.860981 0.438728
O O4 0.304659 0.861656 0.082545
O O5 0.070794 0.065018 0.890043
O O6 0.861311 0.000000 0.755807
O O7 0.228462 0.000000 0.191757
O O8 0.693272 0.267790 0.730757
O O9 0.587168 0.652494 0.385854
O O10 0.413044 0.690430 0.056194
O O11 0.750000 0.750000 0.500000
O O12 0.542210 0.809016 0.165157
O O13 0.000000 0.225547 0.000000
#
# Coordination Sequence:
#
# PCOD9190521 Si02
#       7
#     8   4   4   4   8   8   8
#     4  11  21  35  51  77 108 142 172 209 247 304
#     4  11  21  31  53  78 107 145 169 203 247 303
#     4  10  20  31  52  76 104 137 176 206 254 304
#     4  11  21  31  53  76 111 140 172 204 245 305
#     4  10  21  34  52  76 107 140 173 203 253 307
#     4  10  21  35  50  72 103 139 177 215 254 299
#     4  10  21  34  53  73 103 134 176 219 257 299
#
# _framework density 18.978193000000001
#
# number of rings (size 3 to 8) (size 9 to 14) (size 15 to 20)
#    0.000    1.636    1.818    4.909    2.545    9.091 
#    0.000    0.000    0.000    0.000    0.000    2.545 
#    0.000    5.818    0.000    0.000    0.000    0.000 
#
# Total GULP energy -122756.401020 kJ/mol
# GULP energy per Si atom -5579.836410 kJ/mol
# Density = 1.893500 g / cm^3
# Si number density = 18.978193 Si / 1000 Ang^3
#
#
#
# Elastic Constant Matrix: (Units=GPa)
#
#
# Indices 1 2 3 4 5 6 
#
# 1 13.1580 -11.9613 6.0497 0.0000 7.4400 0.0000
# 2 -11.9613 47.1269 32.9214 0.0000 -8.9380 0.0000
# 3 6.0497 32.9214 173.5003 0.0001 8.4959 0.0000
# 4 0.0000 0.0000 0.0001 29.2261 0.0000 5.4726
# 5 7.4400 -8.9380 8.4959 0.0000 20.4866 0.0000
# 6 0.0000 0.0000 0.0000 5.4726 0.0000 9.8191
#
#
#
# Elastic Compliance Matrix: (Units=1/GPa)
#
#
# Indices 1 2 3 4 5 6 
#
# 1 0.126135 0.033392 -0.009395 0.000000 -0.027343 0.000000
# 2 0.033392 0.037141 -0.008586 0.000000 0.007638 0.000000
# 3 -0.009395 -0.008586 0.007897 0.000000 -0.003609 0.000000
# 4 0.000000 0.000000 0.000000 0.038203 0.000000 -0.021292
# 5 -0.027343 0.007638 -0.003609 0.000000 0.063571 0.000000
# 6 0.000000 0.000000 0.000000 -0.021292 0.000000 0.113709
#
#
# Mechanical properties :
#
#
# Convention : Reuss Voigt Hill
#
# Bulk Modulus (GPa) = 4.95061 31.97828 18.46445
# Shear Modulus (GPa) = 11.81569 25.69140 18.75354
#
# Velocity S-wave (km/s) = 2.49789 3.68330 3.14692
# Velocity P-wave (km/s) = 3.30659 5.91401 4.79109
#
# Compressibility (1/GPa) = 0.20199513
#
# Stress axis : x y z
#
# Youngs Moduli (GPa) = 7.92799 26.92454 126.62849
#
# Poissons Ratio (x) = -0.89906 1.18971
# Poissons Ratio (y) = -0.26473 1.08720
# Poissons Ratio (z) = 0.07449 0.23117
#
# Static dielectric constant tensor:
#      x y z
#    x 1.687020 0.000000 -0.027930 
#    y 0.000000 1.636090 0.000000 
#    z -0.027930 0.000000 1.795490 
# 
# From -- ./inp_files/285747.got.cif
#   From: 2010.05.17/outbox.cif.g08.bks.cpg/sg12_143_cif.got.tgz:285747.got - 2010.06.03 13:09:07.
