data_PCOD9190634
_publ_section_title
;
Structure prediction by ZEFSAII (Michael W. Deem and Ramdas Pophale) SiO2 
 PCOD9190634
Probable space group: C 2/M
;
_chemical_formula_sum "Si O2"
_cell_formula_units_Z 64
_cell_length_a 32.685522
_cell_length_b 7.619747
_cell_length_c 16.211172
_cell_angle_alpha 90.000000
_cell_angle_beta 126.054938
_cell_angle_gamma 90.000000
_cell_volume 3264.112969
_symmetry_space_group_name_H-M "C 2/M"
_symmetry_group_IT_number 12
_symmetry_cell_setting 'monoclinic'
loop_
_space_group_symop_operation_xyz
x,y,z
-x,y,-z
-x,-y,-z
x,-y,z
1/2+x,1/2+y,z
1/2-x,1/2+y,-z
1/2-x,1/2-y,-z
1/2+x,1/2-y,z
loop_
_atom_site_type_symbol
_atom_site_label
_atom_site_fract_x
_atom_site_fract_y
_atom_site_fract_z
Si Si1 0.649685 0.706744 0.184851
Si Si2 0.773809 0.290779 0.940105
Si Si3 0.901376 0.711690 0.703200
Si Si4 0.636343 0.214774 0.519701
Si Si5 0.115084 0.295864 0.969388
Si Si6 0.510075 0.785341 0.773366
Si Si7 0.239334 0.293890 0.722232
Si Si8 0.972552 0.714043 0.549836
O O1 0.652280 0.500000 0.170190
O O2 0.624929 0.732200 0.244031
O O3 0.707134 0.778999 0.247384
O O4 0.617977 0.786350 0.071843
O O5 0.775884 0.500000 0.932748
O O6 0.741889 0.223012 0.824190
O O7 0.750000 0.250000 0.000000
O O8 0.831407 0.220730 0.999252
O O9 0.901730 0.500000 0.702835
O O10 0.871968 0.768141 0.585308
O O11 0.959673 0.770697 0.762716
O O12 0.688318 0.279242 0.621591
O O13 0.585858 0.268790 0.509125
O O14 0.636540 0.000000 0.521172
O O15 0.115148 0.500000 0.944490
O O16 0.062981 0.220345 0.872652
O O17 0.501381 0.734982 0.667889
O O18 0.510149 0.000000 0.776397
O O19 0.239256 0.500000 0.701353
O O20 0.972577 0.500000 0.548116
O O21 0.000000 0.775993 0.500000
#
# Coordination Sequence:
#
# PCOD9190634 Si02
#       8
#     8   8   8   8   8   8   8   8
#     4  10  20  32  46  67  95 124 156 194 234 276
#     4  10  20  33  50  72  97 125 157 193 232 275
#     4   9  17  31  50  70  94 122 153 192 236 281
#     4   8  15  28  46  68  93 122 154 188 230 277
#     4   9  18  33  51  69  91 122 159 194 230 275
#     4   8  15  28  46  69  93 118 153 194 232 272
#     4   9  18  33  50  68  94 126 158 193 231 273
#     4   8  13  22  40  68  97 118 142 185 235 276
#
# _framework density 19.607164999999998
#
# number of rings (size 3 to 8) (size 9 to 14) (size 15 to 20)
#    0.000    3.125    0.000    2.250    0.000    3.000 
#    0.000    7.500    0.000    0.000    0.000    0.000 
#    0.000    5.000    0.000    0.000    0.000    0.000 
#
# Total GULP energy -178405.686059 kJ/mol
# GULP energy per Si atom -5575.177689 kJ/mol
# Density = 1.956254 g / cm^3
# Si number density = 19.607165 Si / 1000 Ang^3
#
#
#
# Elastic Constant Matrix: (Units=GPa)
#
#
# Indices 1 2 3 4 5 6 
#
# 1 143.0663 -4.9256 114.4586 0.0000 -8.4590 0.0000
# 2 -4.9256 37.4236 -4.9526 0.0000 8.3991 0.0000
# 3 114.4586 -4.9526 155.4529 0.0000 27.7993 0.0000
# 4 0.0000 0.0000 0.0000 11.1100 0.0000 -2.3831
# 5 -8.4590 8.3991 27.7993 0.0000 38.4268 0.0000
# 6 0.0000 0.0000 0.0000 -2.3831 0.0000 9.0410
#
#
#
# Elastic Compliance Matrix: (Units=1/GPa)
#
#
# Indices 1 2 3 4 5 6 
#
# 1 0.030801 -0.005993 -0.027929 0.000000 0.028295 0.000000
# 2 -0.005993 0.029993 0.007783 0.000000 -0.013505 0.000000
# 3 -0.027929 0.007783 0.032906 0.000000 -0.031654 0.000000
# 4 0.000000 0.000000 0.000000 0.095403 0.000000 0.025147
# 5 0.028295 -0.013505 -0.031654 0.000000 0.058104 0.000000
# 6 0.000000 0.000000 0.000000 0.025147 0.000000 0.117235
#
#
# Mechanical properties :
#
#
# Convention : Reuss Voigt Hill
#
# Bulk Modulus (GPa) = 24.14172 60.56706 42.35439
# Shear Modulus (GPa) = 11.61365 27.13974 19.37670
#
# Velocity S-wave (km/s) = 2.43640 3.72449 3.14705
# Velocity P-wave (km/s) = 4.50046 7.03229 5.90369
#
# Compressibility (1/GPa) = 0.04142208
#
# Stress axis : x y z
#
# Youngs Moduli (GPa) = 32.46639 33.34066 30.38988
#
# Poissons Ratio (x) = 0.19980 0.84877
# Poissons Ratio (y) = 0.19456 -0.23652
# Poissons Ratio (z) = 0.90677 -0.25949
#
# Static dielectric constant tensor:
#      x y z
#    x 1.681780 0.000000 0.025710 
#    y 0.000000 1.754400 0.000000 
#    z 0.025710 0.000000 1.663650 
# 
# From -- ./inp_files/249198.got.cif
#   From: 2010.05.17/outbox.cif.g08.bks.cpg/sg12_125_cif.got.tgz:249198.got - 2010.06.03 13:09:07.
