data_PCOD9190257
_publ_section_title
;
Structure prediction by ZEFSAII (Michael W. Deem and Ramdas Pophale) SiO2 
 PCOD9190257
Probable space group: C 2/M
;
_chemical_formula_sum "Si O2"
_cell_formula_units_Z 50
_cell_length_a 9.322040
_cell_length_b 26.753314
_cell_length_c 10.198226
_cell_angle_alpha 90.000000
_cell_angle_beta 73.051236
_cell_angle_gamma 90.000000
_cell_volume 2432.921190
_symmetry_space_group_name_H-M "C 2/M"
_symmetry_group_IT_number 12
_symmetry_cell_setting 'monoclinic'
loop_
_space_group_symop_operation_xyz
x,y,z
-x,y,-z
-x,-y,-z
x,-y,z
1/2+x,1/2+y,z
1/2-x,1/2+y,-z
1/2-x,1/2-y,-z
1/2+x,1/2-y,z
loop_
_atom_site_type_symbol
_atom_site_label
_atom_site_fract_x
_atom_site_fract_y
_atom_site_fract_z
Si Si1 0.714899 0.134847 0.202317
Si Si2 0.737569 0.500000 0.475291
Si Si3 0.459632 0.500000 0.737608
Si Si4 0.225724 0.080289 0.070718
Si Si5 0.844502 0.237622 0.103639
Si Si6 0.167155 0.391735 0.495370
Si Si7 0.864893 0.656562 0.238291
Si Si8 0.500000 0.000000 0.000000
O O1 0.767066 0.191922 0.196520
O O2 0.748602 0.111330 0.334820
O O3 0.537120 0.137019 0.209342
O O4 0.795545 0.104693 0.065504
O O5 0.623776 0.500000 0.629165
O O6 0.647280 0.500000 0.363169
O O7 0.830120 0.448750 0.454927
O O8 0.412014 0.548341 0.834502
O O9 0.275935 0.124267 0.155388
O O10 0.367661 0.043012 0.026985
O O11 0.865985 0.286532 0.188026
O O12 0.750000 0.250000 0.000000
O O13 0.000000 0.220523 0.000000
O O14 0.212620 0.355261 0.601025
O O15 0.000000 0.376937 0.500000
#
# Coordination Sequence:
#
# PCOD9190257 Si02
#       8
#     8   4   4   8   8   8   8   2
#     4  11  23  40  62  98 128 162 211 280 316 380
#     4  11  21  44  57  91 131 169 211 259 331 389
#     4  10  24  35  65  88 126 171 210 263 314 396
#     4  11  19  36  61  94 120 163 221 256 314 376
#     4  12  23  40  69  96 126 169 214 267 332 379
#     4  10  24  40  65  89 128 170 213 265 320 381
#     4  11  20  41  64  91 124 167 215 265 308 391
#     4  10  20  28  60  94 122 160 212 272 306 366
#
# _framework density 20.551424999999998
#
# number of rings (size 3 to 8) (size 9 to 14) (size 15 to 20)
#    0.000    1.120    6.400    0.240    0.000    3.200 
#    0.000    0.800    0.000    0.000    0.000    0.000 
#    0.000    0.000    0.000    0.000    0.000    0.000 
#
# Total GULP energy -139334.114084 kJ/mol
# GULP energy per Si atom -5573.364563 kJ/mol
# Density = 2.050465 g / cm^3
# Si number density = 20.551425 Si / 1000 Ang^3
#
#
#
# Elastic Constant Matrix: (Units=GPa)
#
#
# Indices 1 2 3 4 5 6 
#
# 1 23.7683 -15.9031 7.0259 0.0000 -2.7460 0.0000
# 2 -15.9031 82.9803 38.3920 0.0000 6.0165 0.0000
# 3 7.0259 38.3920 135.5954 0.0000 12.8406 0.0000
# 4 0.0000 0.0000 0.0000 25.3840 0.0000 3.7096
# 5 -2.7460 6.0165 12.8406 0.0000 16.7549 0.0000
# 6 0.0000 0.0000 0.0000 3.7096 0.0000 9.8064
#
#
#
# Elastic Compliance Matrix: (Units=1/GPa)
#
#
# Indices 1 2 3 4 5 6 
#
# 1 0.054200 0.013122 -0.007460 0.000000 0.009888 0.000000
# 2 0.013122 0.017115 -0.005550 0.000000 0.000258 0.000000
# 3 -0.007460 -0.005550 0.009985 0.000000 -0.006882 0.000000
# 4 0.000000 0.000000 0.000000 0.041700 0.000000 -0.015774
# 5 0.009888 0.000258 -0.006882 0.000000 0.066486 0.000000
# 6 0.000000 0.000000 0.000000 -0.015774 0.000000 0.107941
#
#
# Mechanical properties :
#
#
# Convention : Reuss Voigt Hill
#
# Bulk Modulus (GPa) = 12.26648 33.48596 22.87622
# Shear Modulus (GPa) = 15.41411 24.57768 19.99589
#
# Velocity S-wave (km/s) = 2.74163 3.46195 3.12263
# Velocity P-wave (km/s) = 4.00046 5.68412 4.91492
#
# Compressibility (1/GPa) = 0.08152298
#
# Stress axis : x y z
#
# Youngs Moduli (GPa) = 18.45014 58.42813 100.15449
#
# Poissons Ratio (x) = -0.76669 0.74716
# Poissons Ratio (y) = -0.24210 0.55589
# Poissons Ratio (z) = 0.13764 0.32429
#
# Static dielectric constant tensor:
#      x y z
#    x 1.726580 0.000000 -0.011750 
#    y 0.000000 1.387440 0.000000 
#    z -0.011750 0.000000 1.790720 
# 
# From -- ./inp_files/52541.got.cif
#   From: 2010.05.17/outbox.cif.g08.bks.cpg/sg12_27_cif.got.tgz:52541.got - 2010.06.03 13:09:07.
