data_PCOD9190181
_publ_section_title
;
Structure prediction by ZEFSAII (Michael W. Deem and Ramdas Pophale) SiO2 
 PCOD9190181
Probable space group: C 2/M
;
_chemical_formula_sum "Si O2"
_cell_formula_units_Z 36
_cell_length_a 13.236999
_cell_length_b 17.372986
_cell_length_c 10.767852
_cell_angle_alpha 90.000000
_cell_angle_beta 49.570807
_cell_angle_gamma 90.000000
_cell_volume 1884.935168
_symmetry_space_group_name_H-M "C 2/M"
_symmetry_group_IT_number 12
_symmetry_cell_setting 'monoclinic'
loop_
_space_group_symop_operation_xyz
x,y,z
-x,y,-z
-x,-y,-z
x,-y,z
1/2+x,1/2+y,z
1/2-x,1/2+y,-z
1/2-x,1/2-y,-z
1/2+x,1/2-y,z
loop_
_atom_site_type_symbol
_atom_site_label
_atom_site_fract_x
_atom_site_fract_y
_atom_site_fract_z
Si Si1 0.154591 0.704684 0.170457
Si Si2 0.478053 0.914307 0.163027
Si Si3 0.338844 0.908726 0.638620
Si Si4 0.000000 0.805607 0.500000
Si Si5 0.194447 0.088210 0.500104
O O1 0.221486 0.636996 0.197905
O O2 0.046475 0.656611 0.177762
O O3 0.089540 0.756881 0.331231
O O4 0.250000 0.750000 0.000000
O O5 0.322160 0.912841 0.310111
O O6 0.524397 0.000000 0.171807
O O7 0.500000 0.909573 0.000000
O O8 0.500000 0.894955 0.500000
O O9 0.258748 0.885078 0.579213
O O10 0.325090 0.000000 0.661540
O O11 0.911692 0.857738 0.479269
O O12 0.145848 0.000000 0.553232
#
# Coordination Sequence:
#
# PCOD9190181 Si02
#       5
#     8   8   8   4   8
#     4  12  24  38  60  95 128 163 198 260 322 371
#     4  10  20  37  61  88 118 160 215 261 298 360
#     4  10  19  40  68  89 113 155 215 263 299 355
#     4  12  25  40  57  90 134 164 200 250 323 382
#     4  10  21  39  64  86 117 166 210 255 304 367
#
# _framework density 19.098800000000001
#
# number of rings (size 3 to 8) (size 9 to 14) (size 15 to 20)
#    0.000    1.333    3.333    2.333    0.000    5.333 
#    0.000    3.333    0.000    2.667    0.000    0.000 
#    0.000    0.000    0.000    0.000    0.000    0.000 
#
# Total GULP energy -100374.207744 kJ/mol
# GULP energy per Si atom -5576.344875 kJ/mol
# Density = 1.905533 g / cm^3
# Si number density = 19.098800 Si / 1000 Ang^3
#
#
#
# Elastic Constant Matrix: (Units=GPa)
#
#
# Indices 1 2 3 4 5 6 
#
# 1 110.7351 56.1194 21.0453 0.0000 13.1839 -0.0002
# 2 56.1194 86.5842 35.0816 0.0000 -0.6894 -0.0001
# 3 21.0453 35.0816 90.5632 0.0000 16.5718 -0.0002
# 4 0.0000 0.0000 0.0000 16.8249 0.0000 -13.4832
# 5 13.1839 -0.6894 16.5718 0.0000 19.5365 0.0001
# 6 -0.0002 -0.0001 -0.0002 -13.4832 0.0001 -2.6310
#
#
#
# Elastic Compliance Matrix: (Units=1/GPa)
#
#
# Indices 1 2 3 4 5 6 
#
# 1 0.016150 -0.012005 0.003515 0.000000 -0.014304 0.000000
# 2 -0.012005 0.023224 -0.009279 0.000000 0.016792 0.000000
# 3 0.003515 -0.009279 0.016944 0.000000 -0.017072 0.000000
# 4 0.000000 0.000000 0.000000 0.011638 0.000001 -0.059643
# 5 -0.014304 0.016792 -0.017072 0.000001 0.075912 0.000001
# 6 0.000000 0.000000 0.000000 -0.059643 0.000001 -0.074425
#
#
# Mechanical properties :
#
#
# Convention : Reuss Voigt Hill
#
# Bulk Modulus (GPa) = 48.12768 56.93055 52.52912
# Shear Modulus (GPa) = 44.67925 18.45516 31.56720
#
# Velocity S-wave (km/s) = 4.84196 3.11191 4.06992
# Velocity P-wave (km/s) = 7.51754 6.54103 7.04622
#
# Compressibility (1/GPa) = 0.02077806
#
# Stress axis : x y z
#
# Youngs Moduli (GPa) = 61.92053 43.05857 59.01933
#
# Poissons Ratio (x) = 0.51694 -0.20745
# Poissons Ratio (y) = 0.74339 0.54766
# Poissons Ratio (z) = -0.21765 0.39955
#
# Static dielectric constant tensor:
#      x y z
#    x 1.626060 0.000000 -0.035340 
#    y 0.000000 1.722260 0.000000 
#    z -0.035340 0.000000 1.569420 
# 
# From -- ./inp_files/128965.got.cif
#   From: 2010.05.17/outbox.cif.g08.bks.cpg/sg12_65_cif.got.tgz:128965.got - 2010.06.03 13:09:07.
