data_PCOD9190531
_publ_section_title
;
Structure prediction by ZEFSAII (Michael W. Deem and Ramdas Pophale) SiO2 
 PCOD9190531
Probable space group: C 2/M
;
_chemical_formula_sum "Si O2"
_cell_formula_units_Z 64
_cell_length_a 28.165131
_cell_length_b 20.067756
_cell_length_c 18.904846
_cell_angle_alpha 90.000000
_cell_angle_beta 19.326004
_cell_angle_gamma 90.000000
_cell_volume 3536.197782
_symmetry_space_group_name_H-M "C 2/M"
_symmetry_group_IT_number 12
_symmetry_cell_setting 'monoclinic'
loop_
_space_group_symop_operation_xyz
x,y,z
-x,y,-z
-x,-y,-z
x,-y,z
1/2+x,1/2+y,z
1/2-x,1/2+y,-z
1/2-x,1/2-y,-z
1/2+x,1/2-y,z
loop_
_atom_site_type_symbol
_atom_site_label
_atom_site_fract_x
_atom_site_fract_y
_atom_site_fract_z
Si Si1 0.158847 0.423970 0.118024
Si Si2 0.376215 0.295657 0.357519
Si Si3 0.430065 0.071695 0.311628
Si Si4 0.028778 0.704982 0.375935
Si Si5 0.370782 0.624971 0.229696
Si Si6 0.240949 0.245256 0.337269
Si Si7 0.861029 0.154810 0.743643
Si Si8 0.906582 0.313057 0.979409
O O1 0.164738 0.500000 0.138870
O O2 0.107383 0.361720 0.238375
O O3 0.040884 0.425125 0.220941
O O4 0.308821 0.401809 0.871066
O O5 0.250000 0.250000 0.500000
O O6 0.404529 0.356064 0.263909
O O7 0.327193 0.302463 0.507217
O O8 0.519951 0.251971 0.156567
O O9 0.272199 0.081590 0.564680
O O10 0.443214 0.000000 0.258350
O O11 0.474225 0.129943 0.196202
O O12 0.114770 0.774860 0.250553
O O13 0.000000 0.697034 0.500000
O O14 0.883385 0.720757 0.536120
O O15 0.323753 0.694243 0.258543
O O16 0.500000 0.597878 0.000000
O O17 0.351493 0.205071 0.133877
O O18 0.730586 0.166080 0.872951
O O19 0.000000 0.140129 0.500000
#
# Coordination Sequence:
#
# PCOD9190531 Si02
#       8
#     8   8   8   8   8   8   8   8
#     4  10  21  36  55  77 111 157 189 227 278 340
#     4  10  20  31  52  84 111 136 176 237 281 329
#     4  10  21  37  55  78 113 151 191 226 271 343
#     4  11  20  36  56  84 117 144 185 239 286 327
#     4  11  20  34  57  86 111 139 186 232 288 329
#     4  11  19  33  53  86 115 140 179 238 288 329
#     4  10  20  34  54  86 112 142 191 238 286 324
#     4  11  18  34  57  83 113 143 186 231 286 328
#
# _framework density 18.098534999999998
#
# number of rings (size 3 to 8) (size 9 to 14) (size 15 to 20)
#    0.000    1.500    7.500    1.125    0.000    0.750 
#    0.000    0.000    0.000    1.500    0.000    0.000 
#    0.000    0.000    0.000    0.000    0.000    0.000 
#
# Total GULP energy -178314.697293 kJ/mol
# GULP energy per Si atom -5572.334290 kJ/mol
# Density = 1.805734 g / cm^3
# Si number density = 18.098535 Si / 1000 Ang^3
#
#
#
# Elastic Constant Matrix: (Units=GPa)
#
#
# Indices 1 2 3 4 5 6 
#
# 1 43.3292 12.3617 16.7694 0.0040 12.9523 -0.0019
# 2 12.3617 84.2802 31.6952 0.0011 10.0861 -0.0006
# 3 16.7694 31.6952 114.5747 0.0044 12.6901 -0.0025
# 4 0.0040 0.0011 0.0044 -4.7912 -0.0021 9.6455
# 5 12.9523 10.0861 12.6901 -0.0021 27.4836 0.0016
# 6 -0.0019 -0.0006 -0.0025 9.6455 0.0016 10.7433
#
#
#
# Elastic Compliance Matrix: (Units=1/GPa)
#
#
# Indices 1 2 3 4 5 6 
#
# 1 0.027913 -0.001861 -0.002307 0.000013 -0.011406 -0.000006
# 2 -0.001861 0.013664 -0.003214 0.000000 -0.002654 0.000000
# 3 -0.002307 -0.003214 0.010227 0.000004 -0.002455 -0.000002
# 4 0.000013 0.000000 0.000004 -0.074344 -0.000018 0.066747
# 5 -0.011406 -0.002654 -0.002455 -0.000018 0.043868 0.000007
# 6 -0.000006 0.000000 -0.000002 0.066747 0.000007 0.033155
#
#
# Mechanical properties :
#
#
# Convention : Reuss Voigt Hill
#
# Bulk Modulus (GPa) = 26.99843 40.42630 33.71237
# Shear Modulus (GPa) = 61.27905 18.77766 40.02835
#
# Velocity S-wave (km/s) = 5.82512 3.22456 4.70796
# Velocity P-wave (km/s) = 7.75839 6.02071 6.94412
#
# Compressibility (1/GPa) = 0.03703919
#
# Stress axis : x y z
#
# Youngs Moduli (GPa) = 35.82598 73.18328 97.78464
#
# Poissons Ratio (x) = 0.13623 0.22560
# Poissons Ratio (y) = 0.06669 0.31425
# Poissons Ratio (z) = 0.08265 0.23519
#
# Static dielectric constant tensor:
#      x y z
#    x 1.638810 0.000000 0.002830 
#    y 0.000000 1.628020 0.000000 
#    z 0.002830 0.000000 1.655130 
# 
# From -- ./inp_files/294137.got.cif
#   From: 2010.05.17/outbox.cif.g08.bks.cpg/sg12_148_cif.got.tgz:294137.got - 2010.06.03 13:09:07.
