data_PCOD9190060
_publ_section_title
;
Structure prediction by ZEFSAII (Michael W. Deem and Ramdas Pophale) SiO2 
 PCOD9190060
Probable space group: C 2/M
;
_chemical_formula_sum "Si O2"
_cell_formula_units_Z 40
_cell_length_a 13.727577
_cell_length_b 23.598007
_cell_length_c 10.990673
_cell_angle_alpha 90.000000
_cell_angle_beta 31.396294
_cell_angle_gamma 90.000000
_cell_volume 1854.783523
_symmetry_space_group_name_H-M "C 2/M"
_symmetry_group_IT_number 12
_symmetry_cell_setting 'monoclinic'
loop_
_space_group_symop_operation_xyz
x,y,z
-x,y,-z
-x,-y,-z
x,-y,z
1/2+x,1/2+y,z
1/2-x,1/2+y,-z
1/2-x,1/2-y,-z
1/2+x,1/2-y,z
loop_
_atom_site_type_symbol
_atom_site_label
_atom_site_fract_x
_atom_site_fract_y
_atom_site_fract_z
Si Si1 0.714062 0.608252 0.748189
Si Si2 0.579751 0.345977 0.551145
Si Si3 0.897789 0.719395 0.478379
Si Si4 0.870543 0.435746 0.335399
Si Si5 0.685724 0.132878 0.089529
O O1 0.738505 0.672372 0.669562
O O2 0.800952 0.569599 0.550402
O O3 0.814081 0.609362 0.772477
O O4 0.500000 0.593862 0.000000
O O5 0.500000 0.348749 0.500000
O O6 0.658695 0.282968 0.493810
O O7 0.734526 0.393459 0.408738
O O8 0.397503 0.355361 0.828672
O O9 0.000000 0.725234 0.500000
O O10 0.056092 0.689241 0.226769
O O11 0.860007 0.500000 0.304825
O O12 0.080599 0.411374 0.114819
#
# Coordination Sequence:
#
# PCOD9190060 Si02
#       5
#     8   8   8   8   8
#     4  10  19  39  65  99 126 152 191 253 320 372
#     4  11  23  42  61  90 122 166 210 246 296 360
#     4   8  18  36  61  93 128 155 192 248 311 371
#     4  11  25  42  63  90 120 163 212 253 303 354
#     4  10  21  40  63  91 128 156 196 255 312 365
#
# _framework density 21.565857000000001
#
# number of rings (size 3 to 8) (size 9 to 14) (size 15 to 20)
#    0.000    2.000    2.000    2.400    0.000    7.200 
#   10.800    1.000    0.000    0.000    0.000    0.000 
#    0.000    0.000    0.000    0.000    0.000    0.000 
#
# Total GULP energy -111735.007271 kJ/mol
# GULP energy per Si atom -5586.750364 kJ/mol
# Density = 2.151677 g / cm^3
# Si number density = 21.565857 Si / 1000 Ang^3
#
#
#
# Elastic Constant Matrix: (Units=GPa)
#
#
# Indices 1 2 3 4 5 6 
#
# 1 77.9273 27.0101 -10.0356 0.0002 -8.3090 0.0001
# 2 27.0101 139.5096 -14.5717 0.0001 -23.4546 -0.0001
# 3 -10.0356 -14.5717 35.5219 0.0010 -14.4041 -0.0003
# 4 0.0002 0.0001 0.0010 4.1514 -0.0003 -2.0654
# 5 -8.3090 -23.4546 -14.4041 -0.0003 33.3981 -0.0001
# 6 0.0001 -0.0001 -0.0003 -2.0654 -0.0001 18.9730
#
#
#
# Elastic Compliance Matrix: (Units=1/GPa)
#
#
# Indices 1 2 3 4 5 6 
#
# 1 0.014575 -0.001383 0.005607 -0.000002 0.005073 0.000000
# 2 -0.001383 0.009912 0.007706 -0.000001 0.009940 0.000000
# 3 0.005607 0.007706 0.043215 -0.000009 0.025445 0.000000
# 4 -0.000002 -0.000001 -0.000009 0.254678 -0.000002 0.027724
# 5 0.005073 0.009940 0.025445 -0.000002 0.049159 0.000000
# 6 0.000000 0.000000 0.000000 0.027724 0.000000 0.055725
#
#
# Mechanical properties :
#
#
# Convention : Reuss Voigt Hill
#
# Bulk Modulus (GPa) = 10.92161 28.64047 19.78104
# Shear Modulus (GPa) = 11.52279 28.00823 19.76551
#
# Velocity S-wave (km/s) = 2.31402 3.60770 3.03069
# Velocity P-wave (km/s) = 3.49498 5.53744 4.63024
#
# Compressibility (1/GPa) = 0.09156160
#
# Stress axis : x y z
#
# Youngs Moduli (GPa) = 68.61092 100.88973 23.14025
#
# Poissons Ratio (x) = 0.13956 -0.12976
# Poissons Ratio (y) = 0.09491 -0.17832
# Poissons Ratio (z) = -0.38473 -0.77745
#
# Static dielectric constant tensor:
#      x y z
#    x 1.831630 0.000000 0.035370 
#    y 0.000000 1.777590 0.000000 
#    z 0.035370 0.000000 1.767520 
# 
# From -- ./inp_files/134185.got.cif
#   From: 2010.05.17/outbox.cif.g08.bks.cpg/sg12_68_cif.got.tgz:134185.got - 2010.06.03 13:09:07.
