data_PCOD9190589
_publ_section_title
;
Structure prediction by ZEFSAII (Michael W. Deem and Ramdas Pophale) SiO2 
 PCOD9190589
Probable space group: C 2/M
;
_chemical_formula_sum "Si O2"
_cell_formula_units_Z 40
_cell_length_a 15.939217
_cell_length_b 7.481708
_cell_length_c 12.352250
_cell_angle_alpha 90.000000
_cell_angle_beta 97.972680
_cell_angle_gamma 90.000000
_cell_volume 1458.799612
_symmetry_space_group_name_H-M "C 2/M"
_symmetry_group_IT_number 12
_symmetry_cell_setting 'monoclinic'
loop_
_space_group_symop_operation_xyz
x,y,z
-x,y,-z
-x,-y,-z
x,-y,z
1/2+x,1/2+y,z
1/2-x,1/2+y,-z
1/2-x,1/2-y,-z
1/2+x,1/2-y,z
loop_
_atom_site_type_symbol
_atom_site_label
_atom_site_fract_x
_atom_site_fract_y
_atom_site_fract_z
Si Si1 0.005337 0.719352 0.768036
Si Si2 0.617529 0.783378 0.972905
Si Si3 0.332773 0.212176 0.626301
Si Si4 0.406360 0.210791 0.426365
Si Si5 0.756013 0.205865 0.827921
O O1 0.003284 0.500000 0.766817
O O2 0.032762 0.771505 0.893699
O O3 0.075093 0.778171 0.691076
O O4 0.916572 0.781173 0.703840
O O5 0.689115 0.714467 0.900374
O O6 0.614968 0.000000 0.978271
O O7 0.653925 0.728283 0.095089
O O8 0.341384 0.286294 0.505428
O O9 0.261396 0.238629 0.704107
O O10 0.341713 0.000000 0.615845
O O11 0.500000 0.222195 0.500000
O O12 0.387437 0.000000 0.410450
O O13 0.733648 0.000000 0.821164
#
# Coordination Sequence:
#
# PCOD9190589 Si02
#       5
#     8   8   8   8   8
#     4   8  14  27  49  72  88 109 149 191 217 247
#     4   9  18  33  50  64  83 117 156 187 216 256
#     4   9  16  28  49  72  91 113 144 182 220 261
#     4   7  11  22  43  70  92 109 137 180 222 254
#     4  10  20  32  45  63  91 122 148 180 223 266
#
# _framework density 27.419805
#
# number of rings (size 3 to 8) (size 9 to 14) (size 15 to 20)
#    0.000    3.400    0.000    3.000    0.000    1.600 
#    0.000    6.000    0.000    6.600    0.000    0.000 
#    0.000    0.000    0.000    0.000    0.000    0.000 
#
# Total GULP energy -111691.672186 kJ/mol
# GULP energy per Si atom -5584.583609 kJ/mol
# Density = 2.735740 g / cm^3
# Si number density = 27.419805 Si / 1000 Ang^3
#
#
#
# Elastic Constant Matrix: (Units=GPa)
#
#
# Indices 1 2 3 4 5 6 
#
# 1 67.2478 -11.0879 5.4112 0.0000 -4.2047 0.0000
# 2 -11.0879 71.3667 6.0394 0.0000 -1.8427 0.0000
# 3 5.4112 6.0394 236.4006 0.0000 2.2599 0.0000
# 4 0.0000 0.0000 0.0000 24.7163 0.0000 39.2739
# 5 -4.2047 -1.8427 2.2599 0.0000 52.2243 0.0000
# 6 0.0000 0.0000 0.0000 39.2739 0.0000 360.4690
#
#
#
# Elastic Compliance Matrix: (Units=1/GPa)
#
#
# Indices 1 2 3 4 5 6 
#
# 1 0.015395 0.002463 -0.000428 0.000000 0.001345 0.000000
# 2 0.002463 0.014450 -0.000432 0.000000 0.000727 0.000000
# 3 -0.000428 -0.000432 0.004253 0.000000 -0.000234 0.000000
# 4 0.000000 0.000000 0.000000 0.048930 0.000000 -0.005331
# 5 0.001345 0.000727 -0.000234 0.000000 0.019292 0.000000
# 6 0.000000 0.000000 0.000000 -0.005331 0.000000 0.003355
#
#
# Mechanical properties :
#
#
# Convention : Reuss Voigt Hill
#
# Bulk Modulus (GPa) = 26.80774 41.74893 34.27833
# Shear Modulus (GPa) = 43.51397 112.45874 77.98636
#
# Velocity S-wave (km/s) = 3.98798 6.41114 5.33885
# Velocity P-wave (km/s) = 5.56806 8.37034 7.10865
#
# Compressibility (1/GPa) = 0.03730266
#
# Stress axis : x y z
#
# Youngs Moduli (GPa) = 64.95620 69.20347 235.11757
#
# Poissons Ratio (x) = -0.17044 0.10067
# Poissons Ratio (y) = -0.15998 0.10168
# Poissons Ratio (z) = 0.02781 0.02993
#
# Static dielectric constant tensor:
#      x y z
#    x 2.332040 0.000000 -0.045080 
#    y 0.000000 2.027380 0.000000 
#    z -0.045080 0.000000 2.132840 
# 
# From -- ./inp_files/151959.got.cif
#   From: 2010.05.17/outbox.cif.g08.bks.cpg/sg12_76_cif.got.tgz:151959.got - 2010.06.03 13:09:07.
