data_PCOD9190363
_publ_section_title
;
Structure prediction by ZEFSAII (Michael W. Deem and Ramdas Pophale) SiO2 
 PCOD9190363
Probable space group: C 2/M
;
_chemical_formula_sum "Si O2"
_cell_formula_units_Z 48
_cell_length_a 15.697521
_cell_length_b 7.257050
_cell_length_c 14.484711
_cell_angle_alpha 90.000000
_cell_angle_beta 93.822812
_cell_angle_gamma 90.000000
_cell_volume 1646.393497
_symmetry_space_group_name_H-M "C 2/M"
_symmetry_group_IT_number 12
_symmetry_cell_setting 'monoclinic'
loop_
_space_group_symop_operation_xyz
x,y,z
-x,y,-z
-x,-y,-z
x,-y,z
1/2+x,1/2+y,z
1/2-x,1/2+y,-z
1/2-x,1/2-y,-z
1/2+x,1/2-y,z
loop_
_atom_site_type_symbol
_atom_site_label
_atom_site_fract_x
_atom_site_fract_y
_atom_site_fract_z
Si Si1 0.688314 0.724501 0.229213
Si Si2 0.536879 0.221997 0.724593
Si Si3 0.425239 0.712909 0.933801
Si Si4 0.580764 0.777448 0.438440
Si Si5 0.698352 0.222453 0.602609
Si Si6 0.155281 0.278735 0.891241
O O1 0.686600 0.500000 0.230848
O O2 0.719878 0.789093 0.332320
O O3 0.765422 0.777865 0.165569
O O4 0.606645 0.792329 0.165434
O O5 0.452913 0.291007 0.663688
O O6 0.617580 0.265048 0.663656
O O7 0.570785 0.281605 0.827066
O O8 0.531703 0.000000 0.725343
O O9 0.445146 0.500000 0.919279
O O10 0.349382 0.712753 0.004596
O O11 0.500000 0.801700 0.000000
O O12 0.500000 0.736432 0.500000
O O13 0.664546 0.709782 0.500312
O O14 0.585578 0.000000 0.435923
O O15 0.702194 0.000000 0.599610
O O16 0.155563 0.500000 0.892990
#
# Coordination Sequence:
#
# PCOD9190363 Si02
#       6
#     8   8   8   8   8   8
#     4   8  14  25  40  58  79 102 129 161 195 227
#     4   7  10  16  28  50  77  98 115 143 187 229
#     4  10  20  31  41  55  78 106 133 162 195 230
#     4   7   8  11  22  44  75 101 114 134 179 231
#     4   7   9  14  27  48  74 100 120 143 182 227
#     4   9  16  27  44  62  79 100 127 161 197 231
#
# _framework density 29.154633
#
# number of rings (size 3 to 8) (size 9 to 14) (size 15 to 20)
#    0.000    4.000    0.000    4.500    0.000    0.333 
#    0.000    0.000    0.000    0.000    0.000    1.167 
#    0.000   18.000    0.000    0.000    0.000    0.000 
#
# Total GULP energy -134294.209300 kJ/mol
# GULP energy per Si atom -5595.592054 kJ/mol
# Density = 2.908828 g / cm^3
# Si number density = 29.154633 Si / 1000 Ang^3
#
#
#
# Elastic Constant Matrix: (Units=GPa)
#
#
# Indices 1 2 3 4 5 6 
#
# 1 136.1034 15.0709 64.4159 0.0000 57.1630 0.0000
# 2 15.0709 148.1455 13.2632 0.0000 -1.6697 0.0000
# 3 64.4159 13.2632 317.6717 0.0000 52.3252 0.0000
# 4 0.0000 0.0000 0.0000 3.5866 0.0000 6.7921
# 5 57.1630 -1.6697 52.3252 0.0000 83.4603 0.0000
# 6 0.0000 0.0000 0.0000 6.7921 0.0000 -26.3086
#
#
#
# Elastic Compliance Matrix: (Units=1/GPa)
#
#
# Indices 1 2 3 4 5 6 
#
# 1 0.010799 -0.001083 -0.001029 0.000000 -0.006773 0.000000
# 2 -0.001083 0.006893 -0.000238 0.000000 0.001029 0.000000
# 3 -0.001029 -0.000238 0.003626 0.000000 -0.001573 0.000000
# 4 0.000000 0.000000 0.000000 0.187262 0.000000 0.048346
# 5 -0.006773 0.001029 -0.001573 0.000000 0.017627 0.000000
# 6 0.000000 0.000000 0.000000 0.048346 0.000000 -0.025529
#
#
# Mechanical properties :
#
#
# Convention : Reuss Voigt Hill
#
# Bulk Modulus (GPa) = 60.17296 87.49118 73.83207
# Shear Modulus (GPa) = 23.70604 46.09237 34.89921
#
# Velocity S-wave (km/s) = 2.85461 3.98044 3.46358
# Velocity P-wave (km/s) = 5.61686 7.15540 6.43230
#
# Compressibility (1/GPa) = 0.01661876
#
# Stress axis : x y z
#
# Youngs Moduli (GPa) = 92.60307 145.07178 275.81821
#
# Poissons Ratio (x) = 0.15708 0.28380
# Poissons Ratio (y) = 0.10027 0.06555
# Poissons Ratio (z) = 0.09528 0.03448
#
# Static dielectric constant tensor:
#      x y z
#    x 2.419290 0.000000 -0.013120 
#    y 0.000000 2.047770 0.000000 
#    z -0.013120 0.000000 2.240920 
# 
# From -- ./inp_files/212847.got.cif
#   From: 2010.05.17/outbox.cif.g08.bks.cpg/sg12_107_cif.got.tgz:212847.got - 2010.06.03 13:09:07.
