data_PCOD9190624
_publ_section_title
;
Structure prediction by ZEFSAII (Michael W. Deem and Ramdas Pophale) SiO2 
 PCOD9190624
Probable space group: C 2/M
;
_chemical_formula_sum "Si O2"
_cell_formula_units_Z 64
_cell_length_a 13.567486
_cell_length_b 7.464637
_cell_length_c 22.768128
_cell_angle_alpha 90.000000
_cell_angle_beta 96.686102
_cell_angle_gamma 90.000000
_cell_volume 2290.190656
_symmetry_space_group_name_H-M "C 2/M"
_symmetry_group_IT_number 12
_symmetry_cell_setting 'monoclinic'
loop_
_space_group_symop_operation_xyz
x,y,z
-x,y,-z
-x,-y,-z
x,-y,z
1/2+x,1/2+y,z
1/2-x,1/2+y,-z
1/2-x,1/2-y,-z
1/2+x,1/2-y,z
loop_
_atom_site_type_symbol
_atom_site_label
_atom_site_fract_x
_atom_site_fract_y
_atom_site_fract_z
Si Si1 0.630046 0.718671 0.452908
Si Si2 0.103166 0.213220 0.576500
Si Si3 0.431003 0.787704 0.297992
Si Si4 0.825086 0.203400 0.920307
Si Si5 0.966898 0.285425 0.176333
Si Si6 0.190427 0.795354 0.207057
Si Si7 0.884306 0.785299 0.043286
Si Si8 0.336802 0.290438 0.669717
O O1 0.635248 0.500000 0.451280
O O2 0.655646 0.784164 0.520563
O O3 0.513075 0.766730 0.437876
O O4 0.681232 0.787369 0.396577
O O5 0.128733 0.254239 0.645855
O O6 0.105227 0.000000 0.571559
O O7 0.399143 0.732954 0.228716
O O8 0.542252 0.713697 0.316383
O O9 0.441501 0.000000 0.296302
O O10 0.797434 0.292297 0.856202
O O11 0.719227 0.198567 0.944383
O O12 0.857581 0.000000 0.909216
O O13 0.897903 0.277815 0.976067
O O14 0.975723 0.500000 0.178290
O O15 0.945468 0.242345 0.107147
O O16 0.070776 0.196211 0.197754
O O17 0.205773 0.711762 0.272428
O O18 0.231546 0.000000 0.208837
O O19 0.875853 0.000000 0.036309
O O20 0.308889 0.500000 0.667964
#
# Coordination Sequence:
#
# PCOD9190624 Si02
#       8
#     8   8   8   8   8   8   8   8
#     4   7  10  17  30  48  70 100 139 175 205 243
#     4   8  12  19  31  46  69 104 141 174 207 248
#     4   9  16  24  34  52  79 109 140 177 219 256
#     4   9  19  35  52  71  94 117 145 185 228 266
#     4  10  20  32  46  66  94 123 151 188 228 265
#     4   9  17  30  49  70  92 120 152 185 222 267
#     4  10  20  34  52  70  90 119 152 184 221 270
#     4   8  13  23  38  54  76 109 144 174 208 254
#
# _framework density 27.945270000000001
#
# number of rings (size 3 to 8) (size 9 to 14) (size 15 to 20)
#    0.000    3.250    0.000    2.625    0.000    3.000 
#    0.000    7.500    0.000    0.000    0.000    0.000 
#    0.000    1.000    0.000    2.000    0.000    9.125 
#
# Total GULP energy -178515.557557 kJ/mol
# GULP energy per Si atom -5578.611174 kJ/mol
# Density = 2.788167 g / cm^3
# Si number density = 27.945270 Si / 1000 Ang^3
#
#
#
# Elastic Constant Matrix: (Units=GPa)
#
#
# Indices 1 2 3 4 5 6 
#
# 1 54.9123 -0.4631 62.1720 0.0000 -0.3600 0.0000
# 2 -0.4631 105.0171 18.7266 0.0000 -6.4810 0.0000
# 3 62.1720 18.7266 384.9043 0.0000 -19.8701 0.0000
# 4 0.0000 0.0000 0.0000 34.9212 0.0000 9.4879
# 5 -0.3600 -6.4810 -19.8701 0.0000 74.4392 0.0000
# 6 0.0000 0.0000 0.0000 9.4879 0.0000 15.5824
#
#
#
# Elastic Compliance Matrix: (Units=1/GPa)
#
#
# Indices 1 2 3 4 5 6 
#
# 1 0.022393 0.000707 -0.003694 0.000000 -0.000816 0.000000
# 2 0.000707 0.009666 -0.000548 0.000000 0.000699 0.000000
# 3 -0.003694 -0.000548 0.003263 0.000000 0.000805 0.000000
# 4 0.000000 0.000000 0.000000 0.034312 0.000000 -0.020892
# 5 -0.000816 0.000699 0.000805 0.000000 0.013706 0.000000
# 6 0.000000 0.000000 0.000000 -0.020892 0.000000 0.076896
#
#
# Mechanical properties :
#
#
# Convention : Reuss Voigt Hill
#
# Bulk Modulus (GPa) = 35.39503 78.41165 56.90334
# Shear Modulus (GPa) = 28.29272 55.94846 42.12059
#
# Velocity S-wave (km/s) = 3.18533 4.47931 3.88655
# Velocity P-wave (km/s) = 5.12072 7.40758 6.36765
#
# Compressibility (1/GPa) = 0.02825256
#
# Stress axis : x y z
#
# Youngs Moduli (GPa) = 44.65595 103.45232 306.47338
#
# Poissons Ratio (x) = -0.07314 1.13200
# Poissons Ratio (y) = -0.03157 0.16808
# Poissons Ratio (z) = 0.16494 0.05674
#
# Static dielectric constant tensor:
#      x y z
#    x 2.287860 0.000000 0.015520 
#    y 0.000000 1.971010 0.000000 
#    z 0.015520 0.000000 2.355930 
# 
# From -- ./inp_files/319264.got.cif
#   From: 2010.05.17/outbox.cif.g08.bks.cpg/sg12_160_cif.got.tgz:319264.got - 2010.06.03 13:09:07.
