data_PCOD9190655
_publ_section_title
;
Structure prediction by ZEFSAII (Michael W. Deem and Ramdas Pophale) SiO2 
 PCOD9190655
Probable space group: C 2/M
;
_chemical_formula_sum "Si O2"
_cell_formula_units_Z 56
_cell_length_a 28.404638
_cell_length_b 8.922717
_cell_length_c 14.210000
_cell_angle_alpha 90.000000
_cell_angle_beta 60.687815
_cell_angle_gamma 90.000000
_cell_volume 3140.361154
_symmetry_space_group_name_H-M "C 2/M"
_symmetry_group_IT_number 12
_symmetry_cell_setting 'monoclinic'
loop_
_space_group_symop_operation_xyz
x,y,z
-x,y,-z
-x,-y,-z
x,-y,z
1/2+x,1/2+y,z
1/2-x,1/2+y,-z
1/2-x,1/2-y,-z
1/2+x,1/2-y,z
loop_
_atom_site_type_symbol
_atom_site_label
_atom_site_fract_x
_atom_site_fract_y
_atom_site_fract_z
Si Si1 0.777178 0.179080 0.615524
Si Si2 0.967051 0.169175 0.433917
Si Si3 0.130130 0.678866 0.369019
Si Si4 0.066849 0.818457 0.839921
Si Si5 0.057550 0.180796 0.060265
Si Si6 0.433462 0.178651 0.758480
Si Si7 0.826687 0.180578 0.363975
O O1 0.812562 0.248217 0.664156
O O2 0.808761 0.218868 0.487385
O O3 0.717933 0.247722 0.660761
O O4 0.774786 0.000000 0.625070
O O5 0.913122 0.256990 0.513458
O O6 0.000000 0.160105 0.500000
O O7 0.008278 0.250316 0.324063
O O8 0.954614 0.000000 0.413394
O O9 0.132679 0.500000 0.374479
O O10 0.106371 0.717068 0.289156
O O11 0.113434 0.768508 0.723483
O O12 0.005690 0.771369 0.878610
O O13 0.065517 0.000000 0.838498
O O14 0.079862 0.777751 0.935502
O O15 0.084346 0.255641 0.124266
O O16 0.059591 0.000000 0.067038
O O17 0.438231 0.000000 0.757258
O O18 0.824312 0.000000 0.358095
#
# Coordination Sequence:
#
# PCOD9190655 Si02
#       7
#     8   8   8   8   8   8   8
#     4  10  20  32  50  77 102 128 170 209 243 296
#     4   9  17  29  45  66  93 128 168 203 237 284
#     4  10  20  33  48  68 101 137 166 202 250 300
#     4   8  16  32  53  76  99 129 167 207 251 298
#     4   9  17  31  53  77 100 129 169 208 244 294
#     4  10  20  32  46  70 103 136 166 201 249 300
#     4   9  18  34  53  72 100 133 164 203 254 301
#
# _framework density 17.832343999999999
#
# number of rings (size 3 to 8) (size 9 to 14) (size 15 to 20)
#    0.000    2.714    0.000    2.571    2.000    4.000 
#    0.000    2.857    0.000    0.857    0.000    0.000 
#    0.000    0.000    0.000    0.000    0.000    0.000 
#
# Total GULP energy -156150.788189 kJ/mol
# GULP energy per Si atom -5576.813864 kJ/mol
# Density = 1.779176 g / cm^3
# Si number density = 17.832344 Si / 1000 Ang^3
#
#
#
# Elastic Constant Matrix: (Units=GPa)
#
#
# Indices 1 2 3 4 5 6 
#
# 1 54.5955 14.7775 3.1342 0.0000 8.0285 0.0000
# 2 14.7775 28.4402 8.0137 0.0000 9.4692 0.0000
# 3 3.1342 8.0137 43.4344 0.0000 5.9717 0.0000
# 4 0.0000 0.0000 0.0000 14.9734 0.0000 -1.1550
# 5 8.0285 9.4692 5.9717 0.0000 27.7083 0.0000
# 6 0.0000 0.0000 0.0000 -1.1550 0.0000 22.5222
#
#
#
# Elastic Compliance Matrix: (Units=1/GPa)
#
#
# Indices 1 2 3 4 5 6 
#
# 1 0.021518 -0.010455 0.000765 0.000000 -0.002827 0.000000
# 2 -0.010455 0.046135 -0.006190 0.000000 -0.011403 0.000000
# 3 0.000765 -0.006190 0.024578 0.000000 -0.003403 0.000000
# 4 0.000000 0.000000 0.000000 0.067050 0.000000 0.003438
# 5 -0.002827 -0.011403 -0.003403 0.000000 0.041540 0.000000
# 6 0.000000 0.000000 0.000000 0.003438 0.000000 0.044577
#
#
# Mechanical properties :
#
#
# Convention : Reuss Voigt Hill
#
# Bulk Modulus (GPa) = 16.53691 19.81344 18.17518
# Shear Modulus (GPa) = 16.81717 19.74374 18.28045
#
# Velocity S-wave (km/s) = 3.07428 3.33105 3.20524
# Velocity P-wave (km/s) = 4.67924 5.09211 4.89003
#
# Compressibility (1/GPa) = 0.06047077
#
# Stress axis : x y z
#
# Youngs Moduli (GPa) = 46.47219 21.67567 40.68682
#
# Poissons Ratio (x) = 0.22662 -0.03112
# Poissons Ratio (y) = 0.48588 0.25184
# Poissons Ratio (z) = -0.03555 0.13417
#
# Static dielectric constant tensor:
#      x y z
#    x 1.621300 0.000000 0.016980 
#    y 0.000000 1.592470 0.000000 
#    z 0.016980 0.000000 1.616900 
# 
# From -- ./inp_files/248141.got.cif
#   From: 2010.05.17/outbox.cif.g08.bks.cpg/sg12_125_cif.got.tgz:248141.got - 2010.06.03 13:09:07.
