data_PCOD9190012
_publ_section_title
;
Structure prediction by ZEFSAII (Michael W. Deem and Ramdas Pophale) SiO2 
 PCOD9190012
Probable space group: C 2/M
;
_chemical_formula_sum "Si O2"
_cell_formula_units_Z 56
_cell_length_a 11.211059
_cell_length_b 14.445020
_cell_length_c 17.847735
_cell_angle_alpha 90.000000
_cell_angle_beta 70.107399
_cell_angle_gamma 90.000000
_cell_volume 2717.872909
_symmetry_space_group_name_H-M "C 2/M"
_symmetry_group_IT_number 12
_symmetry_cell_setting 'monoclinic'
loop_
_space_group_symop_operation_xyz
x,y,z
-x,y,-z
-x,-y,-z
x,-y,z
1/2+x,1/2+y,z
1/2-x,1/2+y,-z
1/2-x,1/2-y,-z
1/2+x,1/2-y,z
loop_
_atom_site_type_symbol
_atom_site_label
_atom_site_fract_x
_atom_site_fract_y
_atom_site_fract_z
Si Si1 0.405192 0.152163 0.171128
Si Si2 0.500920 0.894623 0.312753
Si Si3 0.253465 0.784489 0.707686
Si Si4 0.582645 0.606403 0.351939
Si Si5 0.133304 0.899606 0.169607
Si Si6 0.597377 0.743501 0.046823
Si Si7 0.357832 0.723099 0.419136
O O1 0.444848 0.106373 0.240852
O O2 0.347759 0.251946 0.209577
O O3 0.283783 0.107448 0.156895
O O4 0.527032 0.164208 0.092660
O O5 0.641502 0.850927 0.280390
O O6 0.427455 0.818137 0.378383
O O7 0.497678 0.000000 0.341959
O O8 0.312039 0.686415 0.664932
O O9 0.199124 0.824151 0.643074
O O10 0.614557 0.500000 0.364633
O O11 0.565121 0.609004 0.264891
O O12 0.463178 0.648672 0.421006
O O13 0.095258 0.824512 0.118065
O O14 0.105261 0.000000 0.144201
O O15 0.500000 0.714924 0.000000
O O16 0.750000 0.750000 0.000000
O O17 0.250000 0.750000 0.500000
#
# Coordination Sequence:
#
# PCOD9190012 Si02
#       7
#     8   8   8   8   8   8   8
#     4  10  19  39  63  84 114 157 203 246 301 369
#     4  10  21  36  58  87 116 153 204 253 303 362
#     4   9  19  36  58  81 112 150 200 248 301 355
#     4   9  19  36  59  83 108 147 199 246 294 349
#     4  10  20  38  62  87 116 154 202 257 303 359
#     4  12  24  40  64  90 124 164 203 245 310 376
#     4  10  21  36  54  81 121 159 194 243 306 366
#
# _framework density 20.604348000000002
#
# number of rings (size 3 to 8) (size 9 to 14) (size 15 to 20)
#    0.000    2.000    1.429    3.857    0.000    7.143 
#    0.000    4.286    0.000    0.000    0.000    0.000 
#    0.000    0.000    0.000    0.000    0.000    0.000 
#
# Total GULP energy -155955.903704 kJ/mol
# GULP energy per Si atom -5569.853704 kJ/mol
# Density = 2.055745 g / cm^3
# Si number density = 20.604348 Si / 1000 Ang^3
#
#
#
# Elastic Constant Matrix: (Units=GPa)
#
#
# Indices 1 2 3 4 5 6 
#
# 1 113.2156 34.3327 32.8553 0.0000 -13.8082 0.0000
# 2 34.3327 75.3478 14.4222 0.0000 -2.7772 0.0000
# 3 32.8553 14.4222 49.3662 0.0000 -20.2765 0.0000
# 4 0.0000 0.0000 0.0000 12.4348 0.0000 6.6858
# 5 -13.8082 -2.7772 -20.2765 0.0000 42.2682 0.0000
# 6 0.0000 0.0000 0.0000 6.6858 0.0000 5.8642
#
#
#
# Elastic Compliance Matrix: (Units=1/GPa)
#
#
# Indices 1 2 3 4 5 6 
#
# 1 0.012093 -0.004227 -0.006607 0.000000 0.000504 0.000000
# 2 -0.004227 0.015593 -0.002352 0.000000 -0.001485 0.000000
# 3 -0.006607 -0.002352 0.030376 0.000000 0.012259 0.000000
# 4 0.000000 0.000000 0.000000 0.207804 0.000000 -0.236920
# 5 0.000504 -0.001485 0.012259 0.000000 0.029606 0.000000
# 6 0.000000 0.000000 0.000000 -0.236920 0.000000 0.440643
#
#
# Mechanical properties :
#
#
# Convention : Reuss Voigt Hill
#
# Bulk Modulus (GPa) = 31.55478 44.57221 38.06349
# Shear Modulus (GPa) = 6.46787 22.53474 14.50131
#
# Velocity S-wave (km/s) = 1.77367 3.31068 2.65580
# Velocity P-wave (km/s) = 4.42068 6.02441 5.28375
#
# Compressibility (1/GPa) = 0.03169092
#
# Stress axis : x y z
#
# Youngs Moduli (GPa) = 82.69019 64.12966 32.92048
#
# Poissons Ratio (x) = 0.27109 0.21750
# Poissons Ratio (y) = 0.34955 0.07743
# Poissons Ratio (z) = 0.54632 0.15083
#
# Static dielectric constant tensor:
#      x y z
#    x 1.813110 0.000000 -0.015490 
#    y 0.000000 1.769380 0.000000 
#    z -0.015490 0.000000 1.758890 
# 
# From -- ./inp_files/262846.got.cif
#   From: 2010.05.17/outbox.cif.g08.bks.cpg/sg12_132_cif.got.tgz:262846.got - 2010.06.03 13:09:07.
