data_PCOD9190245
_publ_section_title
;
Structure prediction by ZEFSAII (Michael W. Deem and Ramdas Pophale) SiO2 
 PCOD9190245
Probable space group: C 2/M
;
_chemical_formula_sum "Si O2"
_cell_formula_units_Z 48
_cell_length_a 19.242005
_cell_length_b 19.508025
_cell_length_c 9.357093
_cell_angle_alpha 90.000000
_cell_angle_beta 60.477375
_cell_angle_gamma 90.000000
_cell_volume 3056.358378
_symmetry_space_group_name_H-M "C 2/M"
_symmetry_group_IT_number 12
_symmetry_cell_setting 'monoclinic'
loop_
_space_group_symop_operation_xyz
x,y,z
-x,y,-z
-x,-y,-z
x,-y,z
1/2+x,1/2+y,z
1/2-x,1/2+y,-z
1/2-x,1/2-y,-z
1/2+x,1/2-y,z
loop_
_atom_site_type_symbol
_atom_site_label
_atom_site_fract_x
_atom_site_fract_y
_atom_site_fract_z
Si Si1 0.454273 0.000000 0.259427
Si Si2 0.000000 0.617947 0.000000
Si Si3 0.363986 0.000000 0.859990
Si Si4 0.277728 0.147139 0.549461
Si Si5 0.796860 0.500000 0.611138
Si Si6 0.741890 0.713921 0.290591
Si Si7 0.642039 0.151444 0.043071
Si Si8 0.905487 0.291948 0.598951
O O1 0.378215 0.000000 0.436312
O O2 0.456585 0.933455 0.154991
O O3 0.539433 0.000000 0.254864
O O4 0.935200 0.660818 0.979170
O O5 0.343496 0.930316 0.963586
O O6 0.320986 0.000000 0.751977
O O7 0.253555 0.070905 0.615895
O O8 0.234538 0.208915 0.680625
O O9 0.265582 0.164038 0.396149
O O10 0.369366 0.159204 0.510720
O O11 0.646483 0.722772 0.368723
O O12 0.785295 0.690682 0.103879
O O13 0.622127 0.176006 0.222516
O O14 0.000000 0.285260 0.500000
#
# Coordination Sequence:
#
# PCOD9190245 Si02
#       8
#     4   4   4   8   4   8   8   8
#     4   9  19  28  38  62 112 141 155 195 243 288
#     4   9  20  28  40  74 100 137 174 198 228 311
#     4  10  20  27  42  77 100 133 176 201 233 306
#     4   9  21  33  53  72 105 133 170 209 251 299
#     4  12  18  29  50  73  99 136 168 197 253 301
#     4   9  20  38  50  69 105 140 169 211 252 298
#     4  11  20  31  51  70 108 139 171 207 251 291
#     4  10  21  33  52  75 101 136 174 210 248 299
#
# _framework density 15.704965
#
# number of rings (size 3 to 8) (size 9 to 14) (size 15 to 20)
#    1.000    1.167    1.667    2.250    7.000    0.667 
#    0.000    0.000    0.000    0.000    0.000    2.333 
#    0.000    6.000    0.000    0.000    0.000    0.000 
#
# Total GULP energy -133633.911772 kJ/mol
# GULP energy per Si atom -5568.079657 kJ/mol
# Density = 1.566922 g / cm^3
# Si number density = 15.704965 Si / 1000 Ang^3
#
#
#
# Elastic Constant Matrix: (Units=GPa)
#
#
# Indices 1 2 3 4 5 6 
#
# 1 77.8374 24.1783 27.5484 0.0000 15.5215 0.0000
# 2 24.1783 67.4285 32.4152 0.0000 9.7071 0.0000
# 3 27.5484 32.4152 66.0063 0.0000 -5.2680 0.0000
# 4 0.0000 0.0000 0.0000 16.6799 0.0000 2.7443
# 5 15.5215 9.7071 -5.2680 0.0000 16.1785 0.0000
# 6 0.0000 0.0000 0.0000 2.7443 0.0000 16.0718
#
#
#
# Elastic Compliance Matrix: (Units=1/GPa)
#
#
# Indices 1 2 3 4 5 6 
#
# 1 0.021658 0.001641 -0.011891 0.000000 -0.025635 0.000000
# 2 0.001641 0.023980 -0.014102 0.000000 -0.020554 0.000000
# 3 -0.011891 -0.014102 0.029388 0.000000 0.029438 0.000000
# 4 0.000000 0.000000 0.000000 0.061685 0.000000 -0.010533
# 5 -0.025635 -0.020554 0.029438 0.000000 0.108323 0.000000
# 6 0.000000 0.000000 0.000000 -0.010533 0.000000 0.064019
#
#
# Mechanical properties :
#
#
# Convention : Reuss Voigt Hill
#
# Bulk Modulus (GPa) = 37.99091 42.17291 40.08191
# Shear Modulus (GPa) = 13.64139 18.26139 15.95139
#
# Velocity S-wave (km/s) = 2.95041 3.41365 3.19045
# Velocity P-wave (km/s) = 5.98744 6.51528 6.25693
#
# Compressibility (1/GPa) = 0.02632209
#
# Stress axis : x y z
#
# Youngs Moduli (GPa) = 46.17247 41.70058 34.02784
#
# Poissons Ratio (x) = -0.06842 0.40462
# Poissons Ratio (y) = -0.07576 0.47986
# Poissons Ratio (z) = 0.54903 0.58806
#
# Static dielectric constant tensor:
#      x y z
#    x 1.541280 0.000000 0.017090 
#    y 0.000000 1.547150 0.000000 
#    z 0.017090 0.000000 1.527910 
# 
# From -- ./inp_files/88712.got.cif
#   From: 2010.05.17/outbox.cif.g08.bks.cpg/sg12_45_cif.got.tgz:88712.got - 2010.06.03 13:09:07.
