data_PCOD9190134
_publ_section_title
;
Structure prediction by ZEFSAII (Michael W. Deem and Ramdas Pophale) SiO2 
 PCOD9190134
Probable space group: C 2/M
;
_chemical_formula_sum "Si O2"
_cell_formula_units_Z 60
_cell_length_a 18.520644
_cell_length_b 20.010190
_cell_length_c 8.347111
_cell_angle_alpha 90.000000
_cell_angle_beta 71.103094
_cell_angle_gamma 90.000000
_cell_volume 2926.724448
_symmetry_space_group_name_H-M "C 2/M"
_symmetry_group_IT_number 12
_symmetry_cell_setting 'monoclinic'
loop_
_space_group_symop_operation_xyz
x,y,z
-x,y,-z
-x,-y,-z
x,-y,z
1/2+x,1/2+y,z
1/2-x,1/2+y,-z
1/2-x,1/2-y,-z
1/2+x,1/2-y,z
loop_
_atom_site_type_symbol
_atom_site_label
_atom_site_fract_x
_atom_site_fract_y
_atom_site_fract_z
Si Si1 0.067436 0.614046 0.558253
Si Si2 0.042253 0.769776 0.634704
Si Si3 0.417431 0.076189 0.097067
Si Si4 0.500000 0.661135 0.000000
Si Si5 0.795707 0.194254 0.615953
Si Si6 0.345525 0.576560 0.116639
Si Si7 0.220245 0.337231 0.361033
Si Si8 0.249492 0.076829 0.141978
O O1 0.042536 0.689088 0.629607
O O2 0.088016 0.576826 0.706574
O O3 0.142089 0.623511 0.394982
O O4 0.000000 0.584465 0.500000
O O5 0.010883 0.796865 0.826594
O O6 0.128005 0.794851 0.541213
O O7 0.000000 0.791224 0.500000
O O8 0.337666 0.102336 0.081658
O O9 0.421826 0.000000 0.032136
O O10 0.500000 0.108505 0.000000
O O11 0.424748 0.615182 0.035389
O O12 0.781855 0.264209 0.719324
O O13 0.726094 0.181853 0.544458
O O14 0.798718 0.128854 0.720036
O O15 0.359532 0.500000 0.156129
O O16 0.292593 0.617849 0.274782
O O17 0.291954 0.575561 0.998109
O O18 0.250589 0.000000 0.203364
#
# Coordination Sequence:
#
# PCOD9190134 Si02
#       8
#     8   8   8   4   8   8   8   8
#     4  10  22  39  60  89 121 158 203 257 311 376
#     4  10  22  40  62  94 129 159 208 262 314 383
#     4  10  22  38  55  81 118 158 202 251 306 373
#     4  12  23  42  68  92 125 174 204 264 333 364
#     4  10  19  40  62  86 120 154 208 255 305 376
#     4  11  25  42  61  92 127 162 213 263 314 382
#     4  10  21  38  62  86 120 159 196 261 309 362
#     4  10  22  40  62  88 123 164 207 257 311 377
#
# _framework density 20.500734999999999
#
# number of rings (size 3 to 8) (size 9 to 14) (size 15 to 20)
#    0.000    1.733    2.667    1.000    2.800    1.867 
#    0.000    0.000    0.000    2.800    0.000    0.000 
#    0.000    0.000    0.000    0.000    0.000    0.000 
#
# Total GULP energy -167234.429448 kJ/mol
# GULP energy per Si atom -5574.480982 kJ/mol
# Density = 2.045407 g / cm^3
# Si number density = 20.500735 Si / 1000 Ang^3
#
#
#
# Elastic Constant Matrix: (Units=GPa)
#
#
# Indices 1 2 3 4 5 6 
#
# 1 120.1498 11.0531 28.8241 0.0000 -8.0862 0.0000
# 2 11.0531 70.3249 36.4988 0.0000 -5.7933 0.0000
# 3 28.8241 36.4988 68.9747 0.0000 -10.2273 0.0000
# 4 0.0000 0.0000 0.0000 20.7836 0.0000 6.7528
# 5 -8.0862 -5.7933 -10.2273 0.0000 34.2672 0.0000
# 6 0.0000 0.0000 0.0000 6.7528 0.0000 19.6898
#
#
#
# Elastic Compliance Matrix: (Units=1/GPa)
#
#
# Indices 1 2 3 4 5 6 
#
# 1 0.009319 0.000775 -0.004142 0.000000 0.001094 0.000000
# 2 0.000775 0.019670 -0.010685 0.000000 0.000319 0.000000
# 3 -0.004142 -0.010685 0.022465 0.000000 0.003921 0.000000
# 4 0.000000 0.000000 0.000000 0.054149 0.000000 -0.018571
# 5 0.001094 0.000319 0.003921 0.000000 0.030665 0.000000
# 6 0.000000 0.000000 0.000000 -0.018571 0.000000 0.057157
#
#
# Mechanical properties :
#
#
# Convention : Reuss Voigt Hill
#
# Bulk Modulus (GPa) = 42.82843 45.80014 44.31429
# Shear Modulus (GPa) = 21.80443 27.15302 24.47873
#
# Velocity S-wave (km/s) = 3.26481 3.64330 3.45924
# Velocity P-wave (km/s) = 5.92862 6.33146 6.13335
#
# Compressibility (1/GPa) = 0.02334897
#
# Stress axis : x y z
#
# Youngs Moduli (GPa) = 107.30758 50.83941 44.51422
#
# Poissons Ratio (x) = -0.03942 0.18440
# Poissons Ratio (y) = -0.08320 0.47564
# Poissons Ratio (z) = 0.44452 0.54323
#
# Static dielectric constant tensor:
#      x y z
#    x 1.835180 0.000000 0.028870 
#    y 0.000000 1.781520 0.000000 
#    z 0.028870 0.000000 1.751320 
# 
# From -- ./inp_files/78009.got.cif
#   From: 2010.05.17/outbox.cif.g08.bks.cpg/sg12_40_cif.got.tgz:78009.got - 2010.06.03 13:09:07.
