data_PCOD9190050
_publ_section_title
;
Structure prediction by ZEFSAII (Michael W. Deem and Ramdas Pophale) SiO2 
 PCOD9190050
Probable space group: C 2/M
;
_chemical_formula_sum "Si O2"
_cell_formula_units_Z 48
_cell_length_a 8.096656
_cell_length_b 19.703883
_cell_length_c 13.228142
_cell_angle_alpha 90.000000
_cell_angle_beta 72.624640
_cell_angle_gamma 90.000000
_cell_volume 2014.060948
_symmetry_space_group_name_H-M "C 2/M"
_symmetry_group_IT_number 12
_symmetry_cell_setting 'monoclinic'
loop_
_space_group_symop_operation_xyz
x,y,z
-x,y,-z
-x,-y,-z
x,-y,z
1/2+x,1/2+y,z
1/2-x,1/2+y,-z
1/2-x,1/2-y,-z
1/2+x,1/2-y,z
loop_
_atom_site_type_symbol
_atom_site_label
_atom_site_fract_x
_atom_site_fract_y
_atom_site_fract_z
Si Si1 0.755852 0.000000 0.310970
Si Si2 0.442022 0.784889 0.261143
Si Si3 0.792745 0.849301 0.531664
Si Si4 0.152573 0.618431 0.889923
Si Si5 0.992211 0.500000 0.804275
Si Si6 0.291973 0.500000 0.539234
Si Si7 0.820904 0.000000 0.977838
Si Si8 0.785927 0.151047 0.294653
O O1 0.566540 0.000000 0.298595
O O2 0.833039 0.927506 0.263661
O O3 0.738750 0.000000 0.432713
O O4 0.314069 0.798860 0.378926
O O5 0.351336 0.813366 0.175719
O O6 0.623048 0.821375 0.258324
O O7 0.443399 0.703320 0.250578
O O8 0.740761 0.848128 0.422968
O O9 0.000000 0.837465 0.500000
O O10 0.752913 0.924415 0.583348
O O11 0.094877 0.565517 0.815324
O O12 0.293303 0.570913 0.921505
O O13 0.000000 0.627159 0.000000
O O14 0.827557 0.500000 0.909180
O O15 0.500000 0.500000 0.500000
O O16 0.000000 0.000000 0.000000
#
# Coordination Sequence:
#
# PCOD9190050 Si02
#       8
#     4   8   8   8   4   4   4   8
#     4  10  19  39  65  88 120 178 224 254 314 395
#     4  12  23  41  65  94 129 174 218 272 335 382
#     4  10  21  40  61  91 136 177 220 270 323 390
#     4   9  20  40  67  94 129 169 217 266 320 394
#     4   9  16  38  68  89 121 174 218 256 309 398
#     4   8  18  34  53  90 134 165 210 270 318 370
#     4   9  19  39  63 102 133 163 216 273 332 385
#     4  11  24  40  64  94 131 174 224 267 321 391
#
# _framework density 23.832445
#
# number of rings (size 3 to 8) (size 9 to 14) (size 15 to 20)
#    0.000    2.000    1.667    3.000    0.000    2.000 
#   12.000    3.333    0.000    1.000    0.000    0.000 
#    0.000    0.000    0.000    0.000    0.000    0.000 
#
# Total GULP energy -133930.559962 kJ/mol
# GULP energy per Si atom -5580.439998 kJ/mol
# Density = 2.377820 g / cm^3
# Si number density = 23.832445 Si / 1000 Ang^3
#
#
#
# Elastic Constant Matrix: (Units=GPa)
#
#
# Indices 1 2 3 4 5 6 
#
# 1 110.5227 21.4964 49.3905 0.0000 24.3130 0.0000
# 2 21.4964 184.4511 24.4196 0.0000 -1.2964 0.0000
# 3 49.3905 24.4196 83.0902 0.0000 18.4394 0.0000
# 4 0.0000 0.0000 0.0000 16.8037 0.0000 -4.9010
# 5 24.3130 -1.2964 18.4394 0.0000 28.6961 0.0000
# 6 0.0000 0.0000 0.0000 -4.9010 0.0000 -0.4518
#
#
#
# Elastic Compliance Matrix: (Units=1/GPa)
#
#
# Indices 1 2 3 4 5 6 
#
# 1 0.013647 -0.000827 -0.006176 0.000000 -0.007632 0.000000
# 2 -0.000827 0.005750 -0.001646 0.000000 0.002018 0.000000
# 3 -0.006176 -0.001646 0.017548 0.000000 -0.006118 0.000000
# 4 0.000000 0.000000 0.000000 0.014292 0.000000 -0.155037
# 5 -0.007632 0.002018 -0.006118 0.000000 0.045336 0.000000
# 6 0.000000 0.000000 0.000000 -0.155037 0.000000 -0.531559
#
#
# Mechanical properties :
#
#
# Convention : Reuss Voigt Hill
#
# Bulk Modulus (GPa) = 50.89674 63.18633 57.04153
# Shear Modulus (GPa) = -12.16131 27.86012 7.84940
#
# Velocity S-wave (km/s) = -2.26140 3.42277 1.81679
# Velocity P-wave (km/s) = 3.81888 6.49544 5.32798
#
# Compressibility (1/GPa) = 0.01964762
#
# Stress axis : x y z
#
# Youngs Moduli (GPa) = 73.27439 173.91408 56.98804
#
# Poissons Ratio (x) = 0.14375 0.35194
# Poissons Ratio (y) = 0.06056 0.09382
# Poissons Ratio (z) = 0.45252 0.28633
#
# Static dielectric constant tensor:
#      x y z
#    x 1.924980 0.000000 -0.011920 
#    y 0.000000 3.242470 0.000000 
#    z -0.011920 0.000000 1.867240 
# 
# From -- ./inp_files/196978.got.cif
#   From: 2010.05.17/outbox.cif.g08.bks.cpg/sg12_99_cif.got.tgz:196978.got - 2010.06.03 13:09:07.
