data_PCOD9190425
_publ_section_title
;
Structure prediction by ZEFSAII (Michael W. Deem and Ramdas Pophale) SiO2 
 PCOD9190425
Probable space group: C 2/M
;
_chemical_formula_sum "Si O2"
_cell_formula_units_Z 56
_cell_length_a 19.441247
_cell_length_b 7.591034
_cell_length_c 30.547568
_cell_angle_alpha 90.000000
_cell_angle_beta 143.060778
_cell_angle_gamma 90.000000
_cell_volume 2709.272502
_symmetry_space_group_name_H-M "C 2/M"
_symmetry_group_IT_number 12
_symmetry_cell_setting 'monoclinic'
loop_
_space_group_symop_operation_xyz
x,y,z
-x,y,-z
-x,-y,-z
x,-y,z
1/2+x,1/2+y,z
1/2-x,1/2+y,-z
1/2-x,1/2-y,-z
1/2+x,1/2-y,z
loop_
_atom_site_type_symbol
_atom_site_label
_atom_site_fract_x
_atom_site_fract_y
_atom_site_fract_z
Si Si1 0.959040 0.716098 0.930894
Si Si2 0.988567 0.784950 0.631451
Si Si3 0.801954 0.785068 0.202786
Si Si4 0.831306 0.786781 0.631471
Si Si5 0.884168 0.292776 0.068397
Si Si6 0.960247 0.210796 0.204559
Si Si7 0.067858 0.793157 0.493474
O O1 0.959440 0.500000 0.930765
O O2 0.827913 0.773112 0.857309
O O3 0.043365 0.781443 0.935520
O O4 0.000000 0.769263 0.000000
O O5 0.889970 0.731812 0.615544
O O6 0.965139 0.719191 0.570845
O O7 0.109699 0.731937 0.714218
O O8 0.987141 0.000000 0.630469
O O9 0.859313 0.727311 0.185964
O O10 0.800249 0.000000 0.201469
O O11 0.702989 0.721381 0.569736
O O12 0.918784 0.727045 0.714017
O O13 0.827412 0.000000 0.630115
O O14 0.891463 0.500000 0.066826
O O15 0.936990 0.249837 0.142470
O O16 0.750000 0.250000 0.000000
O O17 0.961357 0.000000 0.209512
O O18 0.000000 0.715306 0.500000
O O19 0.037322 0.000000 0.475686
#
# Coordination Sequence:
#
# PCOD9190425 Si02
#       7
#     8   8   8   8   8   8   8
#     4   9  17  29  48  74  98 124 163 203 236 280
#     4   8  15  29  48  70  96 128 165 202 245 296
#     4   8  14  28  51  73  94 125 166 208 243 285
#     4   9  18  33  53  73  95 130 169 200 240 298
#     4  11  22  34  52  77 103 132 164 201 245 290
#     4   9  18  34  55  76  98 126 162 204 247 293
#     4  10  20  31  46  72 103 131 163 209 256 291
#
# _framework density 20.669756
#
# number of rings (size 3 to 8) (size 9 to 14) (size 15 to 20)
#    0.000    2.857    0.000    3.429    0.000    4.286 
#    0.000    2.857    0.000    8.571    0.000    0.000 
#    0.000    0.000    0.000    0.000    0.000    0.000 
#
# Total GULP energy -156262.271391 kJ/mol
# GULP energy per Si atom -5580.795407 kJ/mol
# Density = 2.062271 g / cm^3
# Si number density = 20.669756 Si / 1000 Ang^3
#
#
#
# Elastic Constant Matrix: (Units=GPa)
#
#
# Indices 1 2 3 4 5 6 
#
# 1 192.9934 -0.5973 143.1697 0.0001 -4.9763 -0.0002
# 2 -0.5973 38.9206 -4.8157 0.0003 -4.4066 -0.0006
# 3 143.1697 -4.8157 165.9447 0.0000 -8.4945 -0.0002
# 4 0.0001 0.0003 0.0000 14.8962 0.0000 3.4408
# 5 -4.9763 -4.4066 -8.4945 0.0000 37.4603 0.0001
# 6 -0.0002 -0.0006 -0.0002 3.4408 0.0001 3.0732
#
#
#
# Elastic Compliance Matrix: (Units=1/GPa)
#
#
# Indices 1 2 3 4 5 6 
#
# 1 0.014506 -0.001463 -0.012615 0.000000 -0.001106 0.000000
# 2 -0.001463 0.026328 0.002201 -0.000002 0.003402 0.000008
# 3 -0.012615 0.002201 0.017099 0.000000 0.002461 0.000001
# 4 0.000000 -0.000002 0.000000 0.090549 0.000000 -0.101380
# 5 -0.001106 0.003402 0.002461 0.000000 0.027506 -0.000001
# 6 0.000000 0.000008 0.000001 -0.101380 -0.000001 0.438903
#
#
# Mechanical properties :
#
#
# Convention : Reuss Voigt Hill
#
# Bulk Modulus (GPa) = 29.25730 74.81911 52.03820
# Shear Modulus (GPa) = 7.69184 28.42607 18.05896
#
# Velocity S-wave (km/s) = 1.93116 3.71246 2.95903
# Velocity P-wave (km/s) = 4.37697 7.39273 6.07496
#
# Compressibility (1/GPa) = 0.03417951
#
# Stress axis : x y z
#
# Youngs Moduli (GPa) = 68.93495 37.98192 58.48230
#
# Poissons Ratio (x) = 0.05558 0.73773
# Poissons Ratio (y) = 0.10088 -0.12870
# Poissons Ratio (z) = 0.86958 -0.08359
#
# Static dielectric constant tensor:
#      x y z
#    x 1.731270 0.000000 -0.013600 
#    y 0.000000 1.794300 0.000000 
#    z -0.013600 0.000000 1.696220 
# 
# From -- ./inp_files/342243.got.cif
#   From: 2010.05.17/outbox.cif.g08.bks.cpg/sg12_172_cif.got.tgz:342243.got - 2010.06.03 13:09:07.
