data_PCOD9190956
_publ_section_title
;
Structure prediction by ZEFSAII (Michael W. Deem and Ramdas Pophale) SiO2 
 PCOD9190956
Probable space group: C 2/M
;
_chemical_formula_sum "Si O2"
_cell_formula_units_Z 56
_cell_length_a 21.671248
_cell_length_b 7.551831
_cell_length_c 30.230320
_cell_angle_alpha 90.000000
_cell_angle_beta 149.891939
_cell_angle_gamma 90.000000
_cell_volume 2481.787271
_symmetry_space_group_name_H-M "C 2/M"
_symmetry_group_IT_number 12
_symmetry_cell_setting 'monoclinic'
loop_
_space_group_symop_operation_xyz
x,y,z
-x,y,-z
-x,-y,-z
x,-y,z
1/2+x,1/2+y,z
1/2-x,1/2+y,-z
1/2-x,1/2-y,-z
1/2+x,1/2-y,z
loop_
_atom_site_type_symbol
_atom_site_label
_atom_site_fract_x
_atom_site_fract_y
_atom_site_fract_z
Si Si1 0.298143 0.205710 0.771307
Si Si2 0.221136 0.784768 0.913440
Si Si3 0.048427 0.207441 0.880777
Si Si4 0.140398 0.217097 0.594336
Si Si5 0.951868 0.289697 0.630098
Si Si6 0.227281 0.798026 0.818254
Si Si7 0.258700 0.287199 0.435096
O O1 0.426713 0.210232 0.825559
O O2 0.197019 0.282353 0.675323
O O3 0.299523 0.283981 0.821490
O O4 0.264530 0.000000 0.757151
O O5 0.101591 0.723115 0.867049
O O6 0.230667 0.717762 0.869340
O O7 0.214871 0.000000 0.909203
O O8 0.340145 0.732552 0.015544
O O9 0.022808 0.000000 0.859926
O O10 0.220957 0.274952 0.602142
O O11 0.000000 0.269993 0.500000
O O12 0.143173 0.000000 0.596690
O O13 0.968916 0.500000 0.645700
O O14 0.861247 0.222568 0.612928
O O15 0.877331 0.257119 0.538665
O O16 0.084792 0.203642 0.715137
O O17 0.272325 0.000000 0.852268
O O18 0.250106 0.500000 0.428811
#
# Coordination Sequence:
#
# PCOD9190956 Si02
#       7
#     8   8   8   8   8   8   8
#     4  10  21  36  58  84 111 147 187 230 275 328
#     4   9  20  39  61  83 110 147 186 225 272 331
#     4  10  21  38  59  85 114 144 180 228 280 330
#     4   9  17  31  53  78 104 140 187 230 268 313
#     4  10  20  32  50  78 109 141 182 231 280 324
#     4  10  21  37  57  81 109 146 186 225 272 328
#     4   9  18  33  51  73 103 143 186 229 273 325
#
# _framework density 22.564384
#
# number of rings (size 3 to 8) (size 9 to 14) (size 15 to 20)
#    0.000    2.429    0.000    1.714    2.000    5.143 
#    0.000    3.571    0.000    1.714    0.000    0.000 
#    0.000    0.000    0.000    0.000    0.000    0.000 
#
# Total GULP energy -156397.277812 kJ/mol
# GULP energy per Si atom -5585.617065 kJ/mol
# Density = 2.251303 g / cm^3
# Si number density = 22.564384 Si / 1000 Ang^3
#
#
#
# Elastic Constant Matrix: (Units=GPa)
#
#
# Indices 1 2 3 4 5 6 
#
# 1 159.5934 7.6133 39.3711 0.0000 -31.4566 0.0002
# 2 7.6133 61.7942 -9.2592 0.0002 -4.5403 0.0000
# 3 39.3711 -9.2592 38.5059 0.0000 -0.9045 0.0000
# 4 0.0000 0.0002 0.0000 14.7296 0.0001 3.3283
# 5 -31.4566 -4.5403 -0.9045 0.0001 31.9960 0.0000
# 6 0.0002 0.0000 0.0000 3.3283 0.0000 4.4348
#
#
#
# Elastic Compliance Matrix: (Units=1/GPa)
#
#
# Indices 1 2 3 4 5 6 
#
# 1 0.011427 -0.002434 -0.012021 0.000000 0.010549 -0.000001
# 2 -0.002434 0.017508 0.006705 0.000000 0.000281 0.000000
# 3 -0.012021 0.006705 0.039645 0.000000 -0.009746 0.000000
# 4 0.000000 0.000000 0.000000 0.081755 0.000000 -0.061357
# 5 0.010549 0.000281 -0.009746 0.000000 0.041389 -0.000001
# 6 -0.000001 0.000000 0.000000 -0.061357 -0.000001 0.271538
#
#
# Mechanical properties :
#
#
# Convention : Reuss Voigt Hill
#
# Bulk Modulus (GPa) = 18.83952 37.26043 28.04998
# Shear Modulus (GPa) = 10.07143 25.04331 17.55737
#
# Velocity S-wave (km/s) = 2.11497 3.33507 2.79247
# Velocity P-wave (km/s) = 3.78570 5.60170 4.78072
#
# Compressibility (1/GPa) = 0.05307990
#
# Stress axis : x y z
#
# Youngs Moduli (GPa) = 87.51332 57.11679 25.22414
#
# Poissons Ratio (x) = 0.13902 0.30322
# Poissons Ratio (y) = 0.21301 -0.16913
# Poissons Ratio (z) = 1.05200 -0.38298
#
# Static dielectric constant tensor:
#      x y z
#    x 1.878800 0.000000 -0.017280 
#    y 0.000000 1.864770 0.000000 
#    z -0.017280 0.000000 1.777040 
# 
# From -- ./inp_files/380719.got.cif
#   From: 2010.05.17/outbox.cif.g08.bks.cpg/sg12_191_cif.got.tgz:380719.got - 2010.06.03 13:09:07.
