data_PCOD9190348
_publ_section_title
;
Structure prediction by ZEFSAII (Michael W. Deem and Ramdas Pophale) SiO2 
 PCOD9190348
Probable space group: C 2/M
;
_chemical_formula_sum "Si O2"
_cell_formula_units_Z 36
_cell_length_a 14.247578
_cell_length_b 5.829290
_cell_length_c 19.871659
_cell_angle_alpha 90.000000
_cell_angle_beta 131.928333
_cell_angle_gamma 90.000000
_cell_volume 1227.871156
_symmetry_space_group_name_H-M "C 2/M"
_symmetry_group_IT_number 12
_symmetry_cell_setting 'monoclinic'
loop_
_space_group_symop_operation_xyz
x,y,z
-x,y,-z
-x,-y,-z
x,-y,z
1/2+x,1/2+y,z
1/2-x,1/2+y,-z
1/2-x,1/2-y,-z
1/2+x,1/2-y,z
loop_
_atom_site_type_symbol
_atom_site_label
_atom_site_fract_x
_atom_site_fract_y
_atom_site_fract_z
Si Si1 0.262347 0.249754 0.200849
Si Si2 0.013930 0.500000 0.587382
Si Si3 0.988647 0.000000 0.414092
Si Si4 0.629340 0.749736 0.992437
Si Si5 0.395424 0.751570 0.737147
Si Si6 0.728313 0.000000 0.434677
O O1 0.326667 0.500000 0.227161
O O2 0.178072 0.248175 0.092168
O O3 0.173457 0.249858 0.224229
O O4 0.327454 0.000000 0.228755
O O5 0.069363 0.247623 0.629968
O O6 0.882294 0.500000 0.564299
O O7 0.000000 0.500000 0.500000
O O8 0.136385 0.000000 0.466251
O O9 0.000000 0.000000 0.500000
O O10 0.565526 0.500000 0.950324
O O11 0.565936 0.000000 0.952161
O O12 0.750000 0.750000 0.000000
O O13 0.454941 0.500000 0.756448
O O14 0.466044 0.000000 0.766601
O O15 0.293952 0.789927 0.628290
#
# Coordination Sequence:
#
# PCOD9190348 Si02
#       6
#     8   4   4   8   8   4
#     4   8  12  20  28  41  68  90 119 168 202 227
#     4  10  22  36  50  70  92 114 141 177 217 261
#     4  10  22  36  50  70  92 114 141 177 217 261
#     4   8  12  16  24  36  53  85 122 156 196 230
#     4   8  16  24  37  60  78 102 136 171 211 246
#     4  10  20  30  54  66  90 114 148 174 222 264
#
# _framework density 29.319036000000001
#
# number of rings (size 3 to 8) (size 9 to 14) (size 15 to 20)
#    0.667    2.667    0.000    0.667    3.111    0.000 
#    0.000    0.000    0.000    0.000    0.000    0.000 
#    0.000    0.000    0.000    0.000    0.000    0.000 
#
# Total GULP energy -100592.638956 kJ/mol
# GULP energy per Si atom -5588.479942 kJ/mol
# Density = 2.925230 g / cm^3
# Si number density = 29.319036 Si / 1000 Ang^3
#
#
#
# Elastic Constant Matrix: (Units=GPa)
#
#
# Indices 1 2 3 4 5 6 
#
# 1 168.0237 34.2987 34.1642 0.0000 -21.9153 0.0000
# 2 34.2987 427.9832 79.6129 0.0000 22.7245 -0.0001
# 3 34.1642 79.6129 111.4589 0.0000 -8.8493 0.0000
# 4 0.0000 0.0000 0.0000 41.0077 0.0000 -17.7601
# 5 -21.9153 22.7245 -8.8493 0.0000 -10.3496 0.0000
# 6 0.0000 -0.0001 0.0000 -17.7601 0.0000 7.3831
#
#
#
# Elastic Compliance Matrix: (Units=1/GPa)
#
#
# Indices 1 2 3 4 5 6 
#
# 1 0.005341 0.000484 -0.002619 0.000000 -0.008007 0.000000
# 2 0.000484 0.002279 -0.001367 0.000000 0.005147 0.000000
# 3 -0.002619 -0.001367 0.010257 0.000000 -0.006228 0.000000
# 4 0.000000 0.000000 0.000000 -0.583188 -0.000001 -1.402873
# 5 -0.008007 0.005147 -0.006228 -0.000001 -0.063041 -0.000002
# 6 0.000000 0.000000 0.000000 -1.402873 -0.000002 -3.239202
#
#
# Mechanical properties :
#
#
# Convention : Reuss Voigt Hill
#
# Bulk Modulus (GPa) = 91.97279 111.51304 101.74292
# Shear Modulus (GPa) = -1.29637 44.90090 21.80227
#
# Velocity S-wave (km/s) = -0.66567 3.91763 2.72990
# Velocity P-wave (km/s) = 5.55400 7.65380 6.68684
#
# Compressibility (1/GPa) = 0.01087278
#
# Stress axis : x y z
#
# Youngs Moduli (GPa) = 187.23763 438.82809 97.49548
#
# Poissons Ratio (x) = -0.21250 0.25531
# Poissons Ratio (y) = -0.09067 0.13332
# Poissons Ratio (z) = 0.49031 0.60008
#
# Static dielectric constant tensor:
#      x y z
#    x 2.256690 0.000000 0.099650 
#    y 0.000000 2.328220 0.000000 
#    z 0.099650 0.000000 2.315790 
# 
# From -- ./inp_files/337405.got.cif
#   From: 2010.05.17/outbox.cif.g08.bks.cpg/sg12_169_cif.got.tgz:337405.got - 2010.06.03 13:09:07.
