data_PCOD9190843
_publ_section_title
;
Structure prediction by ZEFSAII (Michael W. Deem and Ramdas Pophale) SiO2 
 PCOD9190843
Probable space group: C 2/M
;
_chemical_formula_sum "Si O2"
_cell_formula_units_Z 64
_cell_length_a 16.086029
_cell_length_b 13.034094
_cell_length_c 16.155948
_cell_angle_alpha 90.000000
_cell_angle_beta 94.672369
_cell_angle_gamma 90.000000
_cell_volume 3376.109203
_symmetry_space_group_name_H-M "C 2/M"
_symmetry_group_IT_number 12
_symmetry_cell_setting 'monoclinic'
loop_
_space_group_symop_operation_xyz
x,y,z
-x,y,-z
-x,-y,-z
x,-y,z
1/2+x,1/2+y,z
1/2-x,1/2+y,-z
1/2-x,1/2-y,-z
1/2+x,1/2-y,z
loop_
_atom_site_type_symbol
_atom_site_label
_atom_site_fract_x
_atom_site_fract_y
_atom_site_fract_z
Si Si1 0.025551 0.619994 0.704095
Si Si2 0.346418 0.809865 0.626261
Si Si3 0.591875 0.210707 0.544050
Si Si4 0.810095 0.876645 0.728340
Si Si5 0.429828 0.377803 0.883522
Si Si6 0.842682 0.259479 0.197740
Si Si7 0.828369 0.114582 0.346739
Si Si8 0.876916 0.875944 0.057615
O O1 0.019516 0.500000 0.718173
O O2 0.079953 0.640617 0.624431
O O3 0.073036 0.675008 0.783251
O O4 0.934439 0.664019 0.675753
O O5 0.356171 0.830056 0.529392
O O6 0.321341 0.692307 0.647024
O O7 0.271333 0.877229 0.655150
O O8 0.500000 0.229730 0.500000
O O9 0.633322 0.314158 0.579605
O O10 0.888129 0.848540 0.794057
O O11 0.730460 0.832259 0.772128
O O12 0.804933 0.000000 0.715540
O O13 0.421163 0.500000 0.886137
O O14 0.527845 0.359776 0.902500
O O15 0.380272 0.343618 0.961650
O O16 0.853162 0.165190 0.262263
O O17 0.825700 0.203796 0.109511
O O18 0.858564 0.000000 0.355714
O O19 0.858100 0.000000 0.063580
#
# Coordination Sequence:
#
# PCOD9190843 Si02
#       8
#     8   8   8   8   8   8   8   8
#     4  10  20  35  53  73  99 129 163 205 246 288
#     4  10  20  34  52  74  95 126 170 204 240 294
#     4   9  20  35  50  73  98 123 163 203 243 300
#     4  10  20  34  50  72 103 132 163 205 248 291
#     4   8  16  30  50  75  99 129 166 201 244 294
#     4  10  20  32  49  74 100 131 167 198 242 298
#     4  10  20  33  48  69  99 129 160 202 245 286
#     4   9  16  30  52  76 102 129 164 207 243 284
#
# _framework density 18.956734000000001
#
# number of rings (size 3 to 8) (size 9 to 14) (size 15 to 20)
#    0.000    2.500    0.000    3.000    0.000    4.000 
#    0.000    6.250    0.000    0.000    0.000   17.500 
#    0.000    0.000    0.000    0.000    0.000    0.000 
#
# Total GULP energy -178304.520771 kJ/mol
# GULP energy per Si atom -5572.016274 kJ/mol
# Density = 1.891359 g / cm^3
# Si number density = 18.956734 Si / 1000 Ang^3
#
#
#
# Elastic Constant Matrix: (Units=GPa)
#
#
# Indices 1 2 3 4 5 6 
#
# 1 16.6710 7.0541 -7.2101 0.0000 -7.6794 0.0000
# 2 7.0541 90.5859 10.1096 0.0000 -13.7747 0.0000
# 3 -7.2101 10.1096 41.2442 0.0000 -8.1312 0.0000
# 4 0.0000 0.0000 0.0000 14.1001 0.0000 4.5649
# 5 -7.6794 -13.7747 -8.1312 0.0000 20.4328 0.0000
# 6 0.0000 0.0000 0.0000 4.5649 0.0000 13.8654
#
#
#
# Elastic Compliance Matrix: (Units=1/GPa)
#
#
# Indices 1 2 3 4 5 6 
#
# 1 0.091821 -0.003556 0.025234 0.000000 0.042154 0.000000
# 2 -0.003556 0.012524 -0.002485 0.000000 0.006117 0.000000
# 3 0.025234 -0.002485 0.033428 0.000000 0.021111 0.000000
# 4 0.000000 0.000000 0.000000 0.079383 0.000000 -0.026135
# 5 0.042154 0.006117 0.021111 0.000000 0.077309 0.000000
# 6 0.000000 0.000000 0.000000 -0.026135 0.000000 0.080727
#
#
# Mechanical properties :
#
#
# Convention : Reuss Voigt Hill
#
# Bulk Modulus (GPa) = 5.67675 18.71201 12.19438
# Shear Modulus (GPa) = 12.64140 18.91617 15.77879
#
# Velocity S-wave (km/s) = 2.58516 3.16232 2.88819
# Velocity P-wave (km/s) = 3.45135 4.81934 4.19153
#
# Compressibility (1/GPa) = 0.17615715
#
# Stress axis : x y z
#
# Youngs Moduli (GPa) = 10.89079 79.84828 29.91470
#
# Poissons Ratio (x) = 0.28397 -0.75487
# Poissons Ratio (y) = 0.03873 0.07435
# Poissons Ratio (z) = -0.27482 0.19846
#
# Static dielectric constant tensor:
#      x y z
#    x 1.706070 0.000000 -0.009650 
#    y 0.000000 1.634240 0.000000 
#    z -0.009650 0.000000 1.702970 
# 
# From -- ./inp_files/223807.got.cif
#   From: 2010.05.17/outbox.cif.g08.bks.cpg/sg12_112_cif.got.tgz:223807.got - 2010.06.03 13:09:07.
