data_PCOD9190487
_publ_section_title
;
Structure prediction by ZEFSAII (Michael W. Deem and Ramdas Pophale) SiO2 
 PCOD9190487
Probable space group: C 2/M
;
_chemical_formula_sum "Si O2"
_cell_formula_units_Z 56
_cell_length_a 29.512466
_cell_length_b 13.432680
_cell_length_c 23.918942
_cell_angle_alpha 90.000000
_cell_angle_beta 160.480878
_cell_angle_gamma 90.000000
_cell_volume 3168.213778
_symmetry_space_group_name_H-M "C 2/M"
_symmetry_group_IT_number 12
_symmetry_cell_setting 'monoclinic'
loop_
_space_group_symop_operation_xyz
x,y,z
-x,y,-z
-x,-y,-z
x,-y,z
1/2+x,1/2+y,z
1/2-x,1/2+y,-z
1/2-x,1/2-y,-z
1/2+x,1/2-y,z
loop_
_atom_site_type_symbol
_atom_site_label
_atom_site_fract_x
_atom_site_fract_y
_atom_site_fract_z
Si Si1 0.372077 0.887337 0.149417
Si Si2 0.069702 0.610352 0.140409
Si Si3 0.718707 0.742627 0.057423
Si Si4 0.615794 0.611160 0.473772
Si Si5 0.062130 0.766072 0.225875
Si Si6 0.412781 0.615570 0.342519
Si Si7 0.853018 0.688891 0.559456
O O1 0.314875 0.835932 0.138500
O O2 0.535247 0.881546 0.337640
O O3 0.324385 0.000000 0.088544
O O4 0.321391 0.822312 0.037633
O O5 0.034138 0.500000 0.121140
O O6 0.232676 0.613654 0.324837
O O7 0.029928 0.696346 0.136301
O O8 0.000000 0.622287 0.000000
O O9 0.794352 0.805275 0.193449
O O10 0.579634 0.692388 0.916860
O O11 0.595419 0.500000 0.425455
O O12 0.508972 0.623937 0.399544
O O13 0.612371 0.701232 0.425784
O O14 0.118645 0.695336 0.341506
O O15 0.194074 0.832362 0.365556
O O16 0.500000 0.634547 0.500000
O O17 0.365145 0.500000 0.290237
#
# Coordination Sequence:
#
# PCOD9190487 Si02
#       7
#     8   8   8   8   8   8   8
#     4  10  20  35  56  77 104 140 176 213 261 317
#     4   9  18  30  47  72 105 141 174 207 254 316
#     4  10  20  35  52  80 110 138 172 218 264 305
#     4   9  17  31  49  72 105 140 172 213 261 312
#     4   9  19  31  50  71 103 134 169 217 257 305
#     4  10  20  31  49  77 110 145 178 212 259 317
#     4   9  17  35  51  73 102 134 176 214 258 308
#
# _framework density 17.675574999999998
#
# number of rings (size 3 to 8) (size 9 to 14) (size 15 to 20)
#    0.000    2.571    1.429    0.429    2.000    2.857 
#    0.000    4.286    0.000    0.429    0.000    0.000 
#    0.000    7.714    0.000    0.000    0.000    0.000 
#
# Total GULP energy -156009.162155 kJ/mol
# GULP energy per Si atom -5571.755791 kJ/mol
# Density = 1.763534 g / cm^3
# Si number density = 17.675575 Si / 1000 Ang^3
#
#
#
# Elastic Constant Matrix: (Units=GPa)
#
#
# Indices 1 2 3 4 5 6 
#
# 1 41.4344 9.4326 25.4087 0.0003 13.5224 0.0000
# 2 9.4326 42.9299 13.1325 0.0005 3.1483 -0.0001
# 3 25.4087 13.1325 57.6340 0.0002 11.6366 0.0000
# 4 0.0003 0.0005 0.0002 19.7650 0.0003 -6.0688
# 5 13.5224 3.1483 11.6366 0.0003 33.9127 0.0000
# 6 0.0000 -0.0001 0.0000 -6.0688 0.0000 -9.2046
#
#
#
# Elastic Compliance Matrix: (Units=1/GPa)
#
#
# Indices 1 2 3 4 5 6 
#
# 1 0.036111 -0.003175 -0.013268 0.000000 -0.009551 0.000000
# 2 -0.003175 0.025323 -0.004460 0.000000 0.000446 0.000000
# 3 -0.013268 -0.004460 0.024782 0.000000 -0.002799 0.000000
# 4 0.000000 0.000000 0.000000 0.042076 0.000000 -0.027742
# 5 -0.009551 0.000446 -0.002799 0.000000 0.034215 0.000000
# 6 0.000000 0.000000 0.000000 -0.027742 0.000000 -0.090351
#
#
# Mechanical properties :
#
#
# Convention : Reuss Voigt Hill
#
# Bulk Modulus (GPa) = 22.51804 26.43841 24.47822
# Shear Modulus (GPa) = 38.83018 15.16294 26.99656
#
# Velocity S-wave (km/s) = 4.69212 2.93208 3.91236
# Velocity P-wave (km/s) = 6.49014 5.14323 5.85554
#
# Compressibility (1/GPa) = 0.04440885
#
# Stress axis : x y z
#
# Youngs Moduli (GPa) = 27.69262 39.48954 40.35244
#
# Poissons Ratio (x) = 0.12538 0.53539
# Poissons Ratio (y) = 0.08793 0.17999
# Poissons Ratio (z) = 0.36742 0.17614
#
# Static dielectric constant tensor:
#      x y z
#    x 1.609460 0.000000 0.043080 
#    y 0.000000 1.581180 0.000000 
#    z 0.043080 0.000000 1.642720 
# 
# From -- ./inp_files/165019.got.cif
#   From: 2010.05.17/outbox.cif.g08.bks.cpg/sg12_83_cif.got.tgz:165019.got - 2010.06.03 13:09:07.
