data_PCOD9190597
_publ_section_title
;
Structure prediction by ZEFSAII (Michael W. Deem and Ramdas Pophale) SiO2 
 PCOD9190597
Probable space group: C 2/M
;
_chemical_formula_sum "Si O2"
_cell_formula_units_Z 64
_cell_length_a 15.480832
_cell_length_b 16.800595
_cell_length_c 11.133408
_cell_angle_alpha 90.000000
_cell_angle_beta 93.692731
_cell_angle_gamma 90.000000
_cell_volume 2889.644817
_symmetry_space_group_name_H-M "C 2/M"
_symmetry_group_IT_number 12
_symmetry_cell_setting 'monoclinic'
loop_
_space_group_symop_operation_xyz
x,y,z
-x,y,-z
-x,-y,-z
x,-y,z
1/2+x,1/2+y,z
1/2-x,1/2+y,-z
1/2-x,1/2-y,-z
1/2+x,1/2-y,z
loop_
_atom_site_type_symbol
_atom_site_label
_atom_site_fract_x
_atom_site_fract_y
_atom_site_fract_z
Si Si1 0.760547 0.414795 0.357075
Si Si2 0.356817 0.234829 0.445819
Si Si3 0.194727 0.816894 0.782157
Si Si4 0.971158 0.741122 0.680178
Si Si5 0.562365 0.586125 0.241167
Si Si6 0.132904 0.136046 0.011300
Si Si7 0.886108 0.317794 0.896224
Si Si8 0.675246 0.865295 0.876326
O O1 0.769536 0.500000 0.421186
O O2 0.788374 0.336252 0.429956
O O3 0.661817 0.408748 0.300434
O O4 0.823479 0.414134 0.245670
O O5 0.324931 0.309140 0.360717
O O6 0.388581 0.243364 0.584516
O O7 0.445688 0.212488 0.384196
O O8 0.294679 0.834744 0.821615
O O9 0.180764 0.726223 0.829982
O O10 0.135324 0.868885 0.867417
O O11 0.982092 0.833578 0.717367
O O12 0.955736 0.688337 0.796888
O O13 0.526973 0.500000 0.275419
O O14 0.572142 0.589640 0.097628
O O15 0.117897 0.227572 0.051823
O O16 0.231385 0.116689 0.056594
O O17 0.890406 0.370211 0.017585
#
# Coordination Sequence:
#
# PCOD9190597 Si02
#       8
#     8   8   8   8   8   8   8   8
#     4   9  17  31  53  76  96 123 161 204 246 290
#     4  10  20  32  45  67  98 133 170 204 242 285
#     4   8  13  24  44  66  88 115 149 193 236 275
#     4  10  20  32  45  67  98 133 170 204 242 285
#     4   9  17  31  53  76  96 123 161 204 246 290
#     4   7  11  22  42  68  91 110 140 187 243 288
#     4   8  13  24  44  66  88 115 149 193 236 275
#     4   7  11  22  42  68  91 110 140 187 243 288
#
# _framework density 22.148049
#
# number of rings (size 3 to 8) (size 9 to 14) (size 15 to 20)
#    0.000    3.500    0.000    3.750    0.000    2.000 
#    0.000   12.500    0.000    4.500    0.000    3.500 
#    0.000    0.000    0.000    0.000    0.000    0.000 
#
# Total GULP energy -178191.300727 kJ/mol
# GULP energy per Si atom -5568.478148 kJ/mol
# Density = 2.209764 g / cm^3
# Si number density = 22.148049 Si / 1000 Ang^3
#
#
#
# Elastic Constant Matrix: (Units=GPa)
#
#
# Indices 1 2 3 4 5 6 
#
# 1 51.9645 0.1807 25.0240 0.0000 3.7363 0.0000
# 2 0.1807 26.1410 -2.5955 0.0000 4.1875 0.0000
# 3 25.0240 -2.5955 92.6223 0.0000 6.8639 0.0000
# 4 0.0000 0.0000 0.0000 8.0061 0.0000 1.3153
# 5 3.7363 4.1875 6.8639 0.0000 46.1418 0.0000
# 6 0.0000 0.0000 0.0000 1.3153 0.0000 6.7632
#
#
#
# Elastic Compliance Matrix: (Units=1/GPa)
#
#
# Indices 1 2 3 4 5 6 
#
# 1 0.022170 -0.000606 -0.005943 0.000000 -0.000856 0.000000
# 2 -0.000606 0.039006 0.001532 0.000000 -0.003719 0.000000
# 3 -0.005943 0.001532 0.012558 0.000000 -0.001526 0.000000
# 4 0.000000 0.000000 0.000000 0.129028 0.000000 -0.025093
# 5 -0.000856 -0.003719 -0.001526 0.000000 0.022306 0.000000
# 6 0.000000 0.000000 0.000000 -0.025093 0.000000 0.152739
#
#
# Mechanical properties :
#
#
# Convention : Reuss Voigt Hill
#
# Bulk Modulus (GPa) = 15.69860 23.99404 19.84632
# Shear Modulus (GPa) = 12.22272 22.05680 17.13976
#
# Velocity S-wave (km/s) = 2.35173 3.15918 2.78487
# Velocity P-wave (km/s) = 3.80494 4.91571 4.39555
#
# Compressibility (1/GPa) = 0.06369997
#
# Stress axis : x y z
#
# Youngs Moduli (GPa) = 45.10695 25.63702 79.62900
#
# Poissons Ratio (x) = 0.01554 0.47325
# Poissons Ratio (y) = 0.02734 -0.12202
# Poissons Ratio (z) = 0.26808 -0.03929
#
# Static dielectric constant tensor:
#      x y z
#    x 1.889670 0.000000 0.000800 
#    y 0.000000 1.801260 0.000000 
#    z 0.000800 0.000000 1.878970 
# 
# From -- ./inp_files/157867.got.cif
#   From: 2010.05.17/outbox.cif.g08.bks.cpg/sg12_79_cif.got.tgz:157867.got - 2010.06.03 13:09:07.
