data_PCOD9190817
_publ_section_title
;
Structure prediction by ZEFSAII (Michael W. Deem and Ramdas Pophale) SiO2 
 PCOD9190817
Probable space group: C 2/M
;
_chemical_formula_sum "Si O2"
_cell_formula_units_Z 48
_cell_length_a 19.548269
_cell_length_b 24.322476
_cell_length_c 11.191320
_cell_angle_alpha 90.000000
_cell_angle_beta 154.563881
_cell_angle_gamma 90.000000
_cell_volume 2285.415293
_symmetry_space_group_name_H-M "C 2/M"
_symmetry_group_IT_number 12
_symmetry_cell_setting 'monoclinic'
loop_
_space_group_symop_operation_xyz
x,y,z
-x,y,-z
-x,-y,-z
x,-y,z
1/2+x,1/2+y,z
1/2-x,1/2+y,-z
1/2-x,1/2-y,-z
1/2+x,1/2-y,z
loop_
_atom_site_type_symbol
_atom_site_label
_atom_site_fract_x
_atom_site_fract_y
_atom_site_fract_z
Si Si1 0.496105 0.437029 0.202100
Si Si2 0.132218 0.842698 0.542189
Si Si3 0.510948 0.723111 0.876332
Si Si4 0.742046 0.063375 0.593770
Si Si5 0.832880 0.733422 0.255264
Si Si6 0.514791 0.148653 0.880738
O O1 0.488387 0.500000 0.231879
O O2 0.512182 0.392986 0.333611
O O3 0.649125 0.432209 0.354367
O O4 0.351443 0.427111 0.882438
O O5 0.109910 0.788882 0.586965
O O6 0.123324 0.813803 0.397410
O O7 0.301037 0.864991 0.850771
O O8 0.487388 0.787282 0.807022
O O9 0.500000 0.716605 0.000000
O O10 0.687183 0.708761 0.103536
O O11 0.603875 0.107455 0.368619
O O12 0.685723 0.000000 0.509109
O O13 0.000000 0.701340 0.500000
O O14 0.750000 0.750000 0.000000
O O15 0.500000 0.143863 0.000000
#
# Coordination Sequence:
#
# PCOD9190817 Si02
#       6
#     8   8   8   8   8   8
#     4   9  19  35  54  81 117 164 213 261 316 380
#     4  11  22  37  60  88 121 167 212 259 319 375
#     4  10  24  39  62  94 133 163 209 264 323 375
#     4   9  18  33  52  78 124 171 206 252 324 389
#     4  11  23  46  63  87 128 175 216 252 306 387
#     4  10  20  32  48  81 123 158 205 252 313 365
#
# _framework density 21.002749000000001
#
# number of rings (size 3 to 8) (size 9 to 14) (size 15 to 20)
#    0.000    2.000    3.333    1.000    2.333    9.667 
#    0.000    0.000    0.000    0.500    0.000    0.000 
#    0.000    7.333    0.000    0.000    0.000    0.000 
#
# Total GULP energy -133963.993077 kJ/mol
# GULP energy per Si atom -5581.833045 kJ/mol
# Density = 2.095495 g / cm^3
# Si number density = 21.002749 Si / 1000 Ang^3
#
#
#
# Elastic Constant Matrix: (Units=GPa)
#
#
# Indices 1 2 3 4 5 6 
#
# 1 56.9108 2.8065 17.8394 0.0000 6.5619 0.0000
# 2 2.8065 112.5025 62.6498 0.0000 -8.5439 0.0000
# 3 17.8394 62.6498 114.6088 0.0000 8.5256 0.0000
# 4 0.0000 0.0000 0.0000 42.9683 0.0000 -4.9437
# 5 6.5619 -8.5439 8.5256 0.0000 29.7916 0.0000
# 6 0.0000 0.0000 0.0000 -4.9437 0.0000 1.1117
#
#
#
# Elastic Compliance Matrix: (Units=1/GPa)
#
#
# Indices 1 2 3 4 5 6 
#
# 1 0.018902 0.001196 -0.003384 0.000000 -0.002852 0.000000
# 2 0.001196 0.013912 -0.008244 0.000000 0.006085 0.000000
# 3 -0.003384 -0.008244 0.014181 0.000000 -0.005677 0.000000
# 4 0.000000 0.000000 0.000000 0.047654 0.000000 0.211904
# 5 -0.002852 0.006085 -0.005677 0.000000 0.037564 0.000000
# 6 0.000000 0.000000 0.000000 0.211904 0.000000 1.841773
#
#
# Mechanical properties :
#
#
# Convention : Reuss Voigt Hill
#
# Bulk Modulus (GPa) = 38.26755 50.06815 44.16785
# Shear Modulus (GPa) = 2.49556 28.15608 15.32582
#
# Velocity S-wave (km/s) = 1.09123 3.66538 2.70424
# Velocity P-wave (km/s) = 4.45506 6.46560 5.55209
#
# Compressibility (1/GPa) = 0.02613180
#
# Stress axis : x y z
#
# Youngs Moduli (GPa) = 52.90459 71.88242 70.51873
#
# Poissons Ratio (x) = -0.08600 0.23864
# Poissons Ratio (y) = -0.06329 0.58132
# Poissons Ratio (z) = 0.17903 0.59257
#
# Static dielectric constant tensor:
#      x y z
#    x 1.828490 0.000000 0.037090 
#    y 0.000000 1.777230 0.000000 
#    z 0.037090 0.000000 1.781190 
# 
# From -- ./inp_files/178616.got.cif
#   From: 2010.05.17/outbox.cif.g08.bks.cpg/sg12_90_cif.got.tgz:178616.got - 2010.06.03 13:09:07.
