data_PCOD9190260
_publ_section_title
;
Structure prediction by ZEFSAII (Michael W. Deem and Ramdas Pophale) SiO2 
 PCOD9190260
Probable space group: C 2/M
;
_chemical_formula_sum "Si O2"
_cell_formula_units_Z 48
_cell_length_a 19.792167
_cell_length_b 7.400451
_cell_length_c 26.361410
_cell_angle_alpha 90.000000
_cell_angle_beta 39.960319
_cell_angle_gamma 90.000000
_cell_volume 2479.870273
_symmetry_space_group_name_H-M "C 2/M"
_symmetry_group_IT_number 12
_symmetry_cell_setting 'monoclinic'
loop_
_space_group_symop_operation_xyz
x,y,z
-x,y,-z
-x,-y,-z
x,-y,z
1/2+x,1/2+y,z
1/2-x,1/2+y,-z
1/2-x,1/2-y,-z
1/2+x,1/2-y,z
loop_
_atom_site_type_symbol
_atom_site_label
_atom_site_fract_x
_atom_site_fract_y
_atom_site_fract_z
Si Si1 0.001203 0.783880 0.825293
Si Si2 0.550993 0.720954 0.628615
Si Si3 0.570360 0.708175 0.503823
Si Si4 0.007614 0.500000 0.909961
Si Si5 0.173940 0.500000 0.901784
Si Si6 0.625726 0.707166 0.195066
Si Si7 0.692044 0.283586 0.639510
O O1 0.002090 0.672281 0.876249
O O2 0.106560 0.742239 0.732058
O O3 0.906807 0.721800 0.841401
O O4 0.995847 0.000000 0.838208
O O5 0.554645 0.500000 0.624249
O O6 0.560425 0.787728 0.565951
O O7 0.443696 0.780817 0.718868
O O8 0.644164 0.777233 0.613058
O O9 0.500000 0.791538 0.500000
O O10 0.534660 0.500000 0.529337
O O11 0.692268 0.710465 0.418455
O O12 0.112229 0.500000 0.884457
O O13 0.910239 0.500000 0.004864
O O14 0.252554 0.672612 0.862711
O O15 0.583970 0.500000 0.214846
O O16 0.700514 0.500000 0.632932
#
# Coordination Sequence:
#
# PCOD9190260 Si02
#       7
#     8   8   8   4   4   8   8
#     4   9  19  37  58  83 110 147 193 235 278 331
#     4   8  14  29  50  69  92 138 176 210 265 320
#     4  10  20  29  43  75 106 130 179 217 261 320
#     4  11  22  34  60  91 116 144 189 231 280 344
#     4   9  20  36  54  87 120 150 179 223 296 348
#     4   7  14  33  56  71 107 152 179 221 284 334
#     4   9  18  33  52  69  97 138 178 221 270 315
#
# _framework density 19.355851000000001
#
# number of rings (size 3 to 8) (size 9 to 14) (size 15 to 20)
#    0.500    2.667    0.000    2.500    1.167    2.333 
#    0.000    1.667    3.667    0.000    0.000    0.000 
#    0.000    0.000    0.000    0.000    0.000    0.000 
#
# Total GULP energy -133613.034661 kJ/mol
# GULP energy per Si atom -5567.209778 kJ/mol
# Density = 1.931180 g / cm^3
# Si number density = 19.355851 Si / 1000 Ang^3
#
#
#
# Elastic Constant Matrix: (Units=GPa)
#
#
# Indices 1 2 3 4 5 6 
#
# 1 -201.9197 -89.3184 -236.1047 -0.0011 -194.8473 0.0085
# 2 -89.3184 32.5112 -78.2144 0.0005 -49.2994 0.0085
# 3 -236.1047 -78.2144 -199.4080 -0.0002 -160.0835 0.0008
# 4 -0.0011 0.0005 -0.0002 7.2950 -0.0017 -13.1341
# 5 -194.8473 -49.2994 -160.0835 -0.0017 -69.5141 -0.0003
# 6 0.0085 0.0085 0.0008 -13.1341 -0.0003 77.8590
#
#
#
# Elastic Compliance Matrix: (Units=1/GPa)
#
#
# Indices 1 2 3 4 5 6 
#
# 1 0.013017 -0.000975 -0.016149 0.000000 0.001393 -0.000001
# 2 -0.000975 0.016711 -0.002262 -0.000008 -0.003909 -0.000003
# 3 -0.016149 -0.002262 0.026667 -0.000003 -0.014541 0.000001
# 4 0.000000 -0.000008 -0.000003 0.196873 0.000008 0.033211
# 5 0.001393 -0.003909 -0.014541 0.000008 0.017968 0.000002
# 6 -0.000001 -0.000003 0.000001 0.033211 0.000002 0.018446
#
#
# Mechanical properties :
#
#
# Convention : Reuss Voigt Hill
#
# Bulk Modulus (GPa) = 56.74536 -130.67683 -36.96573
# Shear Modulus (GPa) = 14.95536 5.44939 10.20238
#
# Velocity S-wave (km/s) = 2.78268 1.67973 2.29835
# Velocity P-wave (km/s) = 6.30119 7.99359 3.47796
#
# Compressibility (1/GPa) = 0.01762259
#
# Stress axis : x y z
#
# Youngs Moduli (GPa) = 76.82079 59.84204 37.50001
#
# Poissons Ratio (x) = 0.05835 0.60558
# Poissons Ratio (y) = 0.07491 0.08483
# Poissons Ratio (z) = 1.24057 0.13537
#
# Static dielectric constant tensor:
#      x y z
#    x 1.685210 0.000000 0.005970 
#    y 0.000000 1.759560 0.000000 
#    z 0.005970 0.000000 1.658330 
# 
# From -- ./inp_files/341907.got.cif
#   From: 2010.05.17/outbox.cif.g08.bks.cpg/sg12_171_cif.got.tgz:341907.got - 2010.06.03 13:09:07.
