data_PCOD9190630
_publ_section_title
;
Structure prediction by ZEFSAII (Michael W. Deem and Ramdas Pophale) SiO2 
 PCOD9190630
Probable space group: C 2/M
;
_chemical_formula_sum "Si O2"
_cell_formula_units_Z 48
_cell_length_a 23.778410
_cell_length_b 14.684561
_cell_length_c 21.174895
_cell_angle_alpha 90.000000
_cell_angle_beta 161.816666
_cell_angle_gamma 90.000000
_cell_volume 2307.284631
_symmetry_space_group_name_H-M "C 2/M"
_symmetry_group_IT_number 12
_symmetry_cell_setting 'monoclinic'
loop_
_space_group_symop_operation_xyz
x,y,z
-x,y,-z
-x,-y,-z
x,-y,z
1/2+x,1/2+y,z
1/2-x,1/2+y,-z
1/2-x,1/2-y,-z
1/2+x,1/2-y,z
loop_
_atom_site_type_symbol
_atom_site_label
_atom_site_fract_x
_atom_site_fract_y
_atom_site_fract_z
Si Si1 0.099967 0.371146 0.374683
Si Si2 0.337003 0.395707 0.951499
Si Si3 0.791566 0.142409 0.049782
Si Si4 0.113245 0.756619 0.178747
Si Si5 0.911940 0.399833 0.491036
Si Si6 0.158433 0.838977 0.475560
O O1 0.117551 0.405586 0.464582
O O2 0.117681 0.262217 0.404284
O O3 0.245518 0.394016 0.477595
O O4 0.902232 0.396516 0.139645
O O5 0.382148 0.500000 0.981132
O O6 0.124509 0.378949 0.708411
O O7 0.342834 0.388957 0.033898
O O8 0.476760 0.322925 0.072172
O O9 0.958202 0.124050 0.273640
O O10 0.750000 0.250000 0.000000
O O11 0.273266 0.821992 0.323230
O O12 0.207991 0.682385 0.324535
O O13 0.000000 0.717960 0.000000
O O14 0.871638 0.500000 0.421504
#
# Coordination Sequence:
#
# PCOD9190630 Si02
#       6
#     8   8   8   8   8   8
#     4   8  14  25  44  64  81 101 129 173 227 268
#     4  10  20  32  46  67  93 117 145 184 226 266
#     4   9  15  27  48  67  83 108 140 179 230 275
#     4  11  22  32  42  58  85 124 162 188 207 241
#     4   9  18  31  45  63  87 113 141 175 217 264
#     4   9  16  27  42  61  81 105 142 183 220 255
#
# _framework density 20.803675999999999
#
# number of rings (size 3 to 8) (size 9 to 14) (size 15 to 20)
#    0.000    2.667    0.000    5.500    0.000    2.000 
#    0.000    1.667    0.000    0.000    0.000    0.000 
#    0.000    2.667    0.000   14.333    0.000    0.333 
#
# Total GULP energy -133839.151741 kJ/mol
# GULP energy per Si atom -5576.631323 kJ/mol
# Density = 2.075633 g / cm^3
# Si number density = 20.803676 Si / 1000 Ang^3
#
#
#
# Elastic Constant Matrix: (Units=GPa)
#
#
# Indices 1 2 3 4 5 6 
#
# 1 68.1166 12.1691 39.2956 0.0056 0.5454 0.0040
# 2 12.1691 41.8232 2.5900 0.0047 0.3023 0.0033
# 3 39.2956 2.5900 155.9615 0.0072 -8.2663 0.0075
# 4 0.0056 0.0047 0.0072 4.3818 0.0022 0.8061
# 5 0.5454 0.3023 -8.2663 0.0022 17.3493 -0.0012
# 6 0.0040 0.0033 0.0075 0.8061 -0.0012 -19.7278
#
#
#
# Elastic Compliance Matrix: (Units=1/GPa)
#
#
# Indices 1 2 3 4 5 6 
#
# 1 0.018292 -0.005014 -0.004669 -0.000009 -0.002712 0.000001
# 2 -0.005014 0.025316 0.000849 -0.000023 0.000121 0.000003
# 3 -0.004669 0.000849 0.007778 -0.000010 0.003838 0.000002
# 4 -0.000009 -0.000023 -0.000010 0.226516 -0.000032 0.009255
# 5 -0.002712 0.000121 0.003838 -0.000032 0.059551 -0.000004
# 6 0.000001 0.000003 0.000002 0.009255 -0.000004 -0.050312
#
#
# Mechanical properties :
#
#
# Convention : Reuss Voigt Hill
#
# Bulk Modulus (GPa) = 29.65798 41.55673 35.60736
# Shear Modulus (GPa) = 15.82048 14.52377 15.17212
#
# Velocity S-wave (km/s) = 2.76065 2.64509 2.70349
# Velocity P-wave (km/s) = 4.94456 5.41735 5.18634
#
# Compressibility (1/GPa) = 0.03371773
#
# Stress axis : x y z
#
# Youngs Moduli (GPa) = 54.66954 39.50148 128.57446
#
# Poissons Ratio (x) = 0.19804 0.60034
# Poissons Ratio (y) = 0.27409 -0.10919
# Poissons Ratio (z) = 0.25526 -0.03355
#
# Static dielectric constant tensor:
#      x y z
#    x 1.745080 0.000000 0.002250 
#    y 0.000000 1.808430 0.000000 
#    z 0.002250 0.000000 1.812570 
# 
# From -- ./inp_files/285925.got.cif
#   From: 2010.05.17/outbox.cif.g08.bks.cpg/sg12_143_cif.got.tgz:285925.got - 2010.06.03 13:09:07.
