data_PCOD9190626
_publ_section_title
;
Structure prediction by ZEFSAII (Michael W. Deem and Ramdas Pophale) SiO2 
 PCOD9190626
Probable space group: C 2/M
;
_chemical_formula_sum "Si O2"
_cell_formula_units_Z 48
_cell_length_a 5.020885
_cell_length_b 28.716737
_cell_length_c 17.237276
_cell_angle_alpha 90.000000
_cell_angle_beta 108.450881
_cell_angle_gamma 90.000000
_cell_volume 2357.572093
_symmetry_space_group_name_H-M "C 2/M"
_symmetry_group_IT_number 12
_symmetry_cell_setting 'monoclinic'
loop_
_space_group_symop_operation_xyz
x,y,z
-x,y,-z
-x,-y,-z
x,-y,z
1/2+x,1/2+y,z
1/2-x,1/2+y,-z
1/2-x,1/2-y,-z
1/2+x,1/2-y,z
loop_
_atom_site_type_symbol
_atom_site_label
_atom_site_fract_x
_atom_site_fract_y
_atom_site_fract_z
Si Si1 0.670641 0.116804 0.087758
Si Si2 0.753437 0.149882 0.259718
Si Si3 0.203331 0.552447 0.445619
Si Si4 0.785897 0.405906 0.285379
Si Si5 0.859038 0.781118 0.409338
Si Si6 0.799514 0.946797 0.880106
O O1 0.745964 0.152239 0.164787
O O2 0.472414 0.076517 0.106353
O O3 0.942559 0.088635 0.083632
O O4 0.500000 0.137699 0.000000
O O5 0.436576 0.136347 0.253879
O O6 0.843158 0.189102 0.329252
O O7 0.988286 0.109297 0.292426
O O8 0.500000 0.572968 0.500000
O O9 0.263812 0.500000 0.421049
O O10 0.000000 0.548758 0.500000
O O11 0.019988 0.580177 0.367912
O O12 0.741480 0.445054 0.216743
O O13 0.553794 0.763361 0.407254
O O14 0.000000 0.803396 0.500000
O O15 0.843105 0.000000 0.908556
#
# Coordination Sequence:
#
# PCOD9190626 Si02
#       6
#     8   8   8   8   8   8
#     4  10  21  35  52  77 108 142 180 223 270 314
#     4  10  21  36  56  79 105 138 171 210 263 318
#     4  10  20  32  46  66  96 136 178 220 263 301
#     4  10  20  34  50  73 103 137 179 220 261 309
#     4  10  21  38  60  85 110 135 165 207 261 320
#     4  10  20  33  51  74 103 143 187 229 270 310
#
# _framework density 20.359929000000001
#
# number of rings (size 3 to 8) (size 9 to 14) (size 15 to 20)
#    0.000    2.000    0.000    3.500    0.000    4.000 
#    0.000    5.000    0.000    1.000    0.000    0.000 
#    0.000    0.000    0.000    0.000    0.000    0.000 
#
# Total GULP energy -133783.275260 kJ/mol
# GULP energy per Si atom -5574.303136 kJ/mol
# Density = 2.031359 g / cm^3
# Si number density = 20.359929 Si / 1000 Ang^3
#
#
#
# Elastic Constant Matrix: (Units=GPa)
#
#
# Indices 1 2 3 4 5 6 
#
# 1 97.3544 -2.0176 10.8818 0.0000 4.8437 0.0000
# 2 -2.0176 29.3397 31.9915 0.0000 -5.0206 0.0000
# 3 10.8818 31.9915 162.1315 0.0000 13.1030 0.0000
# 4 0.0000 0.0000 0.0000 -12.7032 0.0000 1.2358
# 5 4.8437 -5.0206 13.1030 0.0000 32.2022 0.0000
# 6 0.0000 0.0000 0.0000 1.2358 0.0000 12.1435
#
#
#
# Elastic Compliance Matrix: (Units=1/GPa)
#
#
# Indices 1 2 3 4 5 6 
#
# 1 0.010456 0.001579 -0.000937 0.000000 -0.000945 0.000000
# 2 0.001579 0.047476 -0.010395 0.000000 0.011394 0.000000
# 3 -0.000937 -0.010395 0.008687 0.000000 -0.005014 0.000000
# 4 0.000000 0.000000 0.000000 -0.077949 0.000000 0.007932
# 5 -0.000945 0.011394 -0.005014 0.000000 0.035013 0.000000
# 6 0.000000 0.000000 0.000000 0.007932 0.000000 0.081541
#
#
# Mechanical properties :
#
#
# Convention : Reuss Voigt Hill
#
# Bulk Modulus (GPa) = 21.22517 41.17078 31.19797
# Shear Modulus (GPa) = 35.60367 22.85982 29.23174
#
# Velocity S-wave (km/s) = 4.18630 3.35443 3.79324
# Velocity P-wave (km/s) = 5.81501 5.93872 5.87719
#
# Compressibility (1/GPa) = 0.04711387
#
# Stress axis : x y z
#
# Youngs Moduli (GPa) = 95.63671 21.06324 115.11414
#
# Poissons Ratio (x) = -0.03326 0.10785
# Poissons Ratio (y) = -0.15100 1.19658
# Poissons Ratio (z) = 0.08961 0.21895
#
# Static dielectric constant tensor:
#      x y z
#    x 1.691420 0.000000 0.003840 
#    y 0.000000 1.717560 0.000000 
#    z 0.003840 0.000000 1.797560 
# 
# From -- ./inp_files/192445.got.cif
#   From: 2010.05.17/outbox.cif.g08.bks.cpg/sg12_97_cif.got.tgz:192445.got - 2010.06.03 13:09:07.
