data_PCOD9190523
_publ_section_title
;
Structure prediction by ZEFSAII (Michael W. Deem and Ramdas Pophale) SiO2 
 PCOD9190523
Probable space group: C 2/M
;
_chemical_formula_sum "Si O2"
_cell_formula_units_Z 56
_cell_length_a 12.053631
_cell_length_b 23.872124
_cell_length_c 10.994885
_cell_angle_alpha 90.000000
_cell_angle_beta 99.075915
_cell_angle_gamma 90.000000
_cell_volume 3124.122415
_symmetry_space_group_name_H-M "C 2/M"
_symmetry_group_IT_number 12
_symmetry_cell_setting 'monoclinic'
loop_
_space_group_symop_operation_xyz
x,y,z
-x,y,-z
-x,-y,-z
x,-y,z
1/2+x,1/2+y,z
1/2-x,1/2+y,-z
1/2-x,1/2-y,-z
1/2+x,1/2-y,z
loop_
_atom_site_type_symbol
_atom_site_label
_atom_site_fract_x
_atom_site_fract_y
_atom_site_fract_z
Si Si1 0.460324 0.708533 0.226255
Si Si2 0.799186 0.845973 0.759270
Si Si3 0.257290 0.683175 0.020128
Si Si4 0.081686 0.676290 0.189341
Si Si5 0.218853 0.765263 0.631678
Si Si6 0.950496 0.564018 0.682388
Si Si7 0.814734 0.563027 0.422812
O O1 0.573258 0.672932 0.240427
O O2 0.366817 0.679738 0.124937
O O3 0.496173 0.770982 0.184270
O O4 0.402917 0.712068 0.349729
O O5 0.725907 0.792712 0.706225
O O6 0.764985 0.895726 0.664447
O O7 0.776082 0.850594 0.899173
O O8 0.143013 0.669064 0.070838
O O9 0.250000 0.750000 0.000000
O O10 0.183198 0.695747 0.297039
O O11 0.039830 0.615903 0.224839
O O12 0.250000 0.750000 0.500000
O O13 0.933119 0.500000 0.726118
O O14 0.851310 0.576730 0.567361
O O15 0.067075 0.563080 0.628782
O O16 0.769539 0.500000 0.414491
#
# Coordination Sequence:
#
# PCOD9190523 Si02
#       7
#     8   8   8   8   8   8   8
#     4  10  20  33  52  76 109 143 178 216 264 329
#     4  11  20  32  56  77 106 142 182 223 264 322
#     4  11  20  35  49  78 110 146 181 214 268 316
#     4  10  20  31  52  77 106 142 178 218 265 324
#     4  10  20  32  47  77 111 135 171 217 274 325
#     4   9  18  35  57  78 106 141 179 226 281 326
#     4   9  19  36  56  80 107 140 183 229 275 323
#
# _framework density 17.925032999999999
#
# number of rings (size 3 to 8) (size 9 to 14) (size 15 to 20)
#    0.000    2.000    4.286    3.000    0.000    3.429 
#    0.000    0.714    0.000    6.857    0.000    9.000 
#    0.000    0.000    0.000    0.000    0.000    0.000 
#
# Total GULP energy -156047.217675 kJ/mol
# GULP energy per Si atom -5573.114917 kJ/mol
# Density = 1.788423 g / cm^3
# Si number density = 17.925033 Si / 1000 Ang^3
#
#
#
# Elastic Constant Matrix: (Units=GPa)
#
#
# Indices 1 2 3 4 5 6 
#
# 1 62.8837 -0.0268 24.7554 0.0000 -7.2256 0.0000
# 2 -0.0268 67.7551 9.2973 0.0000 8.7082 0.0000
# 3 24.7554 9.2973 66.1987 0.0000 -9.8817 0.0000
# 4 0.0000 0.0000 0.0000 20.7766 0.0000 -2.3985
# 5 -7.2256 8.7082 -9.8817 0.0000 25.9900 0.0000
# 6 0.0000 0.0000 0.0000 -2.3985 0.0000 15.1661
#
#
#
# Elastic Compliance Matrix: (Units=1/GPa)
#
#
# Indices 1 2 3 4 5 6 
#
# 1 0.018850 0.000620 -0.006769 0.000000 0.002459 0.000000
# 2 0.000620 0.016074 -0.003464 0.000000 -0.006530 0.000000
# 3 -0.006769 -0.003464 0.019100 0.000000 0.006541 0.000000
# 4 0.000000 0.000000 0.000000 0.049026 0.000000 0.007753
# 5 0.002459 -0.006530 0.006541 0.000000 0.043835 0.000000
# 6 0.000000 0.000000 0.000000 0.007753 0.000000 0.067163
#
#
# Mechanical properties :
#
#
# Convention : Reuss Voigt Hill
#
# Bulk Modulus (GPa) = 28.73728 29.43215 29.08472
# Shear Modulus (GPa) = 20.41870 23.24066 21.82968
#
# Velocity S-wave (km/s) = 3.37874 3.60467 3.49353
# Velocity P-wave (km/s) = 5.59356 5.81206 5.70386
#
# Compressibility (1/GPa) = 0.03479800
#
# Stress axis : x y z
#
# Youngs Moduli (GPa) = 53.05044 62.21237 52.35513
#
# Poissons Ratio (x) = -0.03859 0.35440
# Poissons Ratio (y) = -0.03290 0.18137
# Poissons Ratio (z) = 0.35910 0.21552
#
# Static dielectric constant tensor:
#      x y z
#    x 1.637280 0.000000 0.006420 
#    y 0.000000 1.608140 0.000000 
#    z 0.006420 0.000000 1.700580 
# 
# From -- ./inp_files/134862.got.cif
#   From: 2010.05.17/outbox.cif.g08.bks.cpg/sg12_68_cif.got.tgz:134862.got - 2010.06.03 13:09:07.
