data_PCOD9190568
_publ_section_title
;
Structure prediction by ZEFSAII (Michael W. Deem and Ramdas Pophale) SiO2 
 PCOD9190568
Probable space group: C 2/M
;
_chemical_formula_sum "Si O2"
_cell_formula_units_Z 40
_cell_length_a 30.651492
_cell_length_b 9.657316
_cell_length_c 8.842315
_cell_angle_alpha 90.000000
_cell_angle_beta 63.047176
_cell_angle_gamma 90.000000
_cell_volume 2333.119280
_symmetry_space_group_name_H-M "C 2/M"
_symmetry_group_IT_number 12
_symmetry_cell_setting 'monoclinic'
loop_
_space_group_symop_operation_xyz
x,y,z
-x,y,-z
-x,-y,-z
x,-y,z
1/2+x,1/2+y,z
1/2-x,1/2+y,-z
1/2-x,1/2-y,-z
1/2+x,1/2-y,z
loop_
_atom_site_type_symbol
_atom_site_label
_atom_site_fract_x
_atom_site_fract_y
_atom_site_fract_z
Si Si1 0.953531 0.500000 0.307069
Si Si2 0.876044 0.000000 0.702804
Si Si3 0.055281 0.261415 0.432900
Si Si4 0.193518 0.000000 0.917847
Si Si5 0.134015 0.500000 0.790069
Si Si6 0.785322 0.724748 0.301501
Si Si7 0.232794 0.000000 0.180305
Si Si8 0.064772 0.500000 0.172975
O O1 0.944904 0.363850 0.423377
O O2 0.912976 0.500000 0.242917
O O3 0.011353 0.500000 0.176282
O O4 0.906959 0.863310 0.620540
O O5 0.825027 0.000000 0.692079
O O6 0.857181 0.000000 0.907224
O O7 0.065856 0.364495 0.276722
O O8 0.000000 0.206922 0.500000
O O9 0.199466 0.866179 0.804060
O O10 0.232734 0.000000 0.996744
O O11 0.168387 0.633944 0.717144
O O12 0.111075 0.500000 0.992693
O O13 0.750000 0.750000 0.500000
O O14 0.758051 0.631687 0.217569
#
# Coordination Sequence:
#
# PCOD9190568 Si02
#       8
#     4   4   8   4   4   8   4   4
#     4   9  20  35  56  85 107 147 181 227 269 338
#     4  10  20  31  58  84 109 136 188 218 284 324
#     4   9  18  35  56  81 113 140 178 228 276 324
#     4  10  21  38  60  75 110 142 190 234 270 331
#     4  11  22  34  59  77 113 147 185 221 288 326
#     4  11  23  41  54  82 113 152 184 235 284 328
#     4   9  23  37  58  80 108 141 196 228 268 330
#     4   9  18  37  57  81 111 137 190 227 273 328
#
# _framework density 17.14443
#
# number of rings (size 3 to 8) (size 9 to 14) (size 15 to 20)
#    0.600    1.600    0.000    4.800    2.800    0.000 
#    0.000    0.000    0.000    0.000    0.000    9.800 
#    0.000    0.000    0.000    0.000    0.000    0.000 
#
# Total GULP energy -111466.669961 kJ/mol
# GULP energy per Si atom -5573.333498 kJ/mol
# Density = 1.710541 g / cm^3
# Si number density = 17.144430 Si / 1000 Ang^3
#
#
#
# Elastic Constant Matrix: (Units=GPa)
#
#
# Indices 1 2 3 4 5 6 
#
# 1 53.8547 21.8535 -17.0042 0.0000 -7.0118 0.0000
# 2 21.8535 116.5745 11.9243 0.0000 -14.7788 0.0000
# 3 -17.0042 11.9243 63.1500 0.0000 -15.9044 0.0000
# 4 0.0000 0.0000 0.0000 19.7021 0.0000 -7.8242
# 5 -7.0118 -14.7788 -15.9044 0.0000 29.2520 0.0000
# 6 0.0000 0.0000 0.0000 -7.8242 0.0000 4.5229
#
#
#
# Elastic Compliance Matrix: (Units=1/GPa)
#
#
# Indices 1 2 3 4 5 6 
#
# 1 0.024617 -0.004478 0.009722 0.000000 0.008924 0.000000
# 2 -0.004478 0.010003 -0.002424 0.000000 0.002663 0.000000
# 3 0.009722 -0.002424 0.022234 0.000000 0.013194 0.000000
# 4 0.000000 0.000000 0.000000 0.162149 0.000000 0.280501
# 5 0.008924 0.002663 0.013194 0.000000 0.044844 0.000000
# 6 0.000000 0.000000 0.000000 0.280501 0.000000 0.706332
#
#
# Mechanical properties :
#
#
# Convention : Reuss Voigt Hill
#
# Bulk Modulus (GPa) = 16.00172 29.68071 22.84121
# Shear Modulus (GPa) = 5.07423 25.14911 15.11167
#
# Velocity S-wave (km/s) = 1.72224 3.83416 2.97212
# Velocity P-wave (km/s) = 3.64809 6.07872 5.01295
#
# Compressibility (1/GPa) = 0.06249329
#
# Stress axis : x y z
#
# Youngs Moduli (GPa) = 40.62236 99.96864 44.97676
#
# Poissons Ratio (x) = 0.44765 -0.43725
# Poissons Ratio (y) = 0.18190 0.10903
# Poissons Ratio (z) = -0.39492 0.24233
#
# Static dielectric constant tensor:
#      x y z
#    x 1.578080 0.000000 0.004610 
#    y 0.000000 1.549720 0.000000 
#    z 0.004610 0.000000 1.570600 
# 
# From -- ./inp_files/107823.got.cif
#   From: 2010.05.17/outbox.cif.g08.bks.cpg/sg12_54_cif.got.tgz:107823.got - 2010.06.03 13:09:07.
