data_PCOD9190685
_publ_section_title
;
Structure prediction by ZEFSAII (Michael W. Deem and Ramdas Pophale) SiO2 
 PCOD9190685
Probable space group: C 2/M
;
_chemical_formula_sum "Si O2"
_cell_formula_units_Z 64
_cell_length_a 10.943442
_cell_length_b 14.260060
_cell_length_c 22.658359
_cell_angle_alpha 90.000000
_cell_angle_beta 47.114248
_cell_angle_gamma 90.000000
_cell_volume 2590.819412
_symmetry_space_group_name_H-M "C 2/M"
_symmetry_group_IT_number 12
_symmetry_cell_setting 'monoclinic'
loop_
_space_group_symop_operation_xyz
x,y,z
-x,y,-z
-x,-y,-z
x,-y,z
1/2+x,1/2+y,z
1/2-x,1/2+y,-z
1/2-x,1/2-y,-z
1/2+x,1/2-y,z
loop_
_atom_site_type_symbol
_atom_site_label
_atom_site_fract_x
_atom_site_fract_y
_atom_site_fract_z
Si Si1 0.922240 0.614316 0.892453
Si Si2 0.729593 0.114001 0.865240
Si Si3 0.941431 0.386281 0.278640
Si Si4 0.842280 0.644600 0.515103
Si Si5 0.886874 0.885939 0.939692
Si Si6 0.781364 0.885807 0.225499
Si Si7 0.174514 0.855182 0.456426
Si Si8 0.565427 0.387178 0.700798
O O1 0.917220 0.500000 0.891900
O O2 0.047307 0.642196 0.903837
O O3 0.005686 0.644311 0.804034
O O4 0.734235 0.645884 0.968118
O O5 0.794249 0.139259 0.908769
O O6 0.873610 0.143249 0.771451
O O7 0.726048 0.000000 0.866708
O O8 0.923928 0.500000 0.283832
O O9 0.776325 0.346396 0.362447
O O10 0.097068 0.358759 0.268359
O O11 0.877207 0.755272 0.498714
O O12 0.799487 0.604337 0.464917
O O13 0.673928 0.637543 0.608807
O O14 0.000000 0.605147 0.500000
O O15 0.077663 0.855958 0.868133
O O16 0.891694 0.000000 0.941517
O O17 0.838005 0.855972 0.271773
O O18 0.783688 0.000000 0.224503
O O19 0.000000 0.903383 0.500000
O O20 0.560892 0.500000 0.703764
#
# Coordination Sequence:
#
# PCOD9190685 Si02
#       8
#     8   8   8   8   8   8   8   8
#     4   9  16  24  39  65  99 135 163 191 235 291
#     4   8  14  24  39  65  99 128 158 196 234 279
#     4  10  20  32  47  69 101 134 164 202 247 295
#     4  10  21  38  57  74  95 127 167 206 247 302
#     4   8  13  23  40  64  97 133 162 195 239 280
#     4   8  15  28  45  70 101 127 158 203 246 286
#     4  10  23  39  53  72 100 130 164 209 252 296
#     4   9  17  29  51  77  98 121 157 205 248 290
#
# _framework density 24.702608000000001
#
# number of rings (size 3 to 8) (size 9 to 14) (size 15 to 20)
#    0.000    3.000    0.000    2.625    1.750    3.000 
#    0.000    2.500    0.000    0.000    0.000    3.500 
#    7.500    0.000    0.000    0.000    0.000    0.000 
#
# Total GULP energy -178786.788197 kJ/mol
# GULP energy per Si atom -5587.087131 kJ/mol
# Density = 2.464638 g / cm^3
# Si number density = 24.702608 Si / 1000 Ang^3
#
#
#
# Elastic Constant Matrix: (Units=GPa)
#
#
# Indices 1 2 3 4 5 6 
#
# 1 59.1545 -10.0860 31.0028 0.0000 -16.7336 0.0000
# 2 -10.0860 95.9740 -6.6655 0.0000 3.9506 0.0000
# 3 31.0028 -6.6655 164.1111 -0.0001 -18.8095 0.0001
# 4 0.0000 0.0000 -0.0001 27.0915 0.0001 -1.8199
# 5 -16.7336 3.9506 -18.8095 0.0001 34.6538 0.0000
# 6 0.0000 0.0000 0.0001 -1.8199 0.0000 -16.8855
#
#
#
# Elastic Compliance Matrix: (Units=1/GPa)
#
#
# Indices 1 2 3 4 5 6 
#
# 1 0.021116 0.001668 -0.002959 0.000000 0.008401 0.000000
# 2 0.001668 0.010615 0.000074 0.000000 -0.000364 0.000000
# 3 -0.002959 0.000074 0.006921 0.000000 0.002320 0.000000
# 4 0.000000 0.000000 0.000000 0.036647 0.000000 -0.003950
# 5 0.008401 -0.000364 0.002320 0.000000 0.034214 0.000000
# 6 0.000000 0.000000 0.000000 -0.003950 0.000000 -0.058797
#
#
# Mechanical properties :
#
#
# Convention : Reuss Voigt Hill
#
# Bulk Modulus (GPa) = 27.60948 38.63804 33.12376
# Shear Modulus (GPa) = 76.66091 29.30451 52.98271
#
# Velocity S-wave (km/s) = 5.57682 3.44800 4.63625
# Velocity P-wave (km/s) = 7.25733 5.61487 6.48828
#
# Compressibility (1/GPa) = 0.03621945
#
# Stress axis : x y z
#
# Youngs Moduli (GPa) = 47.35703 94.20702 144.48302
#
# Poissons Ratio (x) = -0.15712 0.42746
# Poissons Ratio (y) = -0.07898 -0.01073
# Poissons Ratio (z) = 0.14011 -0.00700
#
# Static dielectric constant tensor:
#      x y z
#    x 1.962220 0.000000 0.007290 
#    y 0.000000 1.988070 0.000000 
#    z 0.007290 0.000000 1.910330 
# 
# From -- ./inp_files/306788.got.cif
#   From: 2010.05.17/outbox.cif.g08.bks.cpg/sg12_154_cif.got.tgz:306788.got - 2010.06.03 13:09:07.
