data_PCOD9190696
_publ_section_title
;
Structure prediction by ZEFSAII (Michael W. Deem and Ramdas Pophale) SiO2 
 PCOD9190696
Probable space group: C 2/M
;
_chemical_formula_sum "Si O2"
_cell_formula_units_Z 48
_cell_length_a 21.599129
_cell_length_b 20.198708
_cell_length_c 19.455226
_cell_angle_alpha 90.000000
_cell_angle_beta 20.256346
_cell_angle_gamma 90.000000
_cell_volume 2938.660905
_symmetry_space_group_name_H-M "C 2/M"
_symmetry_group_IT_number 12
_symmetry_cell_setting 'monoclinic'
loop_
_space_group_symop_operation_xyz
x,y,z
-x,y,-z
-x,-y,-z
x,-y,z
1/2+x,1/2+y,z
1/2-x,1/2+y,-z
1/2-x,1/2-y,-z
1/2+x,1/2-y,z
loop_
_atom_site_type_symbol
_atom_site_label
_atom_site_fract_x
_atom_site_fract_y
_atom_site_fract_z
Si Si1 0.211221 0.428527 0.936488
Si Si2 0.300066 0.378136 0.704171
Si Si3 0.713407 0.286338 0.466405
Si Si4 0.552010 0.759608 0.015153
Si Si5 0.783737 0.573395 0.361424
Si Si6 0.188811 0.222879 0.136992
O O1 0.256563 0.500000 0.922475
O O2 0.289215 0.428842 0.778209
O O3 0.272416 0.356857 0.901280
O O4 0.996530 0.425773 0.152489
O O5 0.500000 0.349237 0.500000
O O6 0.154970 0.322929 0.874948
O O7 0.257888 0.410082 0.674922
O O8 0.750000 0.250000 0.500000
O O9 0.704972 0.365568 0.485780
O O10 0.522169 0.265948 0.635521
O O11 0.873757 0.274202 0.245224
O O12 0.696626 0.740930 0.922856
O O13 0.500000 0.719597 0.000000
O O14 0.716451 0.500000 0.447638
O O15 0.250000 0.250000 0.000000
#
# Coordination Sequence:
#
# PCOD9190696 Si02
#       6
#     8   8   8   8   8   8
#     4  10  20  32  47  70 103 137 177 215 253 307
#     4  11  19  30  47  71 106 139 176 215 252 304
#     4  12  22  37  55  72 105 147 180 222 269 311
#     4  11  21  35  52  78 103 137 186 217 260 311
#     4  11  20  33  50  72 104 143 178 214 257 312
#     4  11  21  36  55  73 103 142 180 219 269 314
#
# _framework density 16.333970999999998
#
# number of rings (size 3 to 8) (size 9 to 14) (size 15 to 20)
#    0.000    1.000    6.667    3.000    0.000    4.667 
#    0.000    0.000    0.000    0.000    0.000    0.000 
#    0.000    2.667    0.000    7.000    0.000    0.667 
#
# Total GULP energy -133685.336343 kJ/mol
# GULP energy per Si atom -5570.222348 kJ/mol
# Density = 1.629679 g / cm^3
# Si number density = 16.333971 Si / 1000 Ang^3
#
#
#
# Elastic Constant Matrix: (Units=GPa)
#
#
# Indices 1 2 3 4 5 6 
#
# 1 112.8070 39.4527 38.7289 -0.0204 -5.4174 0.0112
# 2 39.4527 66.7378 11.0102 -0.0207 15.4760 0.0120
# 3 38.7289 11.0102 106.5652 -0.0515 -24.0882 0.0424
# 4 -0.0204 -0.0207 -0.0515 13.2967 0.0166 5.8663
# 5 -5.4174 15.4760 -24.0882 0.0166 32.0471 -0.0090
# 6 0.0112 0.0120 0.0424 5.8663 -0.0090 11.9545
#
#
#
# Elastic Compliance Matrix: (Units=1/GPa)
#
#
# Indices 1 2 3 4 5 6 
#
# 1 0.012870 -0.007991 -0.002997 -0.000017 0.003782 0.000018
# 2 -0.007991 0.023664 -0.002927 0.000050 -0.014978 -0.000042
# 3 -0.002997 -0.002927 0.013228 0.000055 0.010849 -0.000060
# 4 -0.000017 0.000050 0.000055 0.095988 -0.000049 -0.047104
# 5 0.003782 -0.014978 0.010849 -0.000049 0.047232 0.000032
# 6 0.000018 -0.000042 -0.000060 -0.047104 0.000032 0.106766
#
#
# Mechanical properties :
#
#
# Convention : Reuss Voigt Hill
#
# Bulk Modulus (GPa) = 45.59234 51.61039 48.60137
# Shear Modulus (GPa) = 14.93042 24.58752 19.75897
#
# Velocity S-wave (km/s) = 3.02664 3.88403 3.48183
# Velocity P-wave (km/s) = 6.33934 7.19582 6.78112
#
# Compressibility (1/GPa) = 0.02193351
#
# Stress axis : x y z
#
# Youngs Moduli (GPa) = 77.70107 42.25831 75.59781
#
# Poissons Ratio (x) = 0.33767 0.22655
# Poissons Ratio (y) = 0.62089 0.22124
# Poissons Ratio (z) = 0.23286 0.12367
#
# Static dielectric constant tensor:
#      x y z
#    x 1.605230 -0.000010 -0.045720 
#    y -0.000010 1.571400 0.000010 
#    z -0.045720 0.000010 1.601660 
# 
# From -- ./inp_files/285857.got.cif
#   From: 2010.05.17/outbox.cif.g08.bks.cpg/sg12_143_cif.got.tgz:285857.got - 2010.06.03 13:09:07.
