data_PCOD9190045
_publ_section_title
;
Structure prediction by ZEFSAII (Michael W. Deem and Ramdas Pophale) SiO2 
 PCOD9190045
Probable space group: C 2/M
;
_chemical_formula_sum "Si O2"
_cell_formula_units_Z 52
_cell_length_a 15.614757
_cell_length_b 8.805835
_cell_length_c 22.521166
_cell_angle_alpha 90.000000
_cell_angle_beta 122.255969
_cell_angle_gamma 90.000000
_cell_volume 2618.778174
_symmetry_space_group_name_H-M "C 2/M"
_symmetry_group_IT_number 12
_symmetry_cell_setting 'monoclinic'
loop_
_space_group_symop_operation_xyz
x,y,z
-x,y,-z
-x,-y,-z
x,-y,z
1/2+x,1/2+y,z
1/2-x,1/2+y,-z
1/2-x,1/2-y,-z
1/2+x,1/2-y,z
loop_
_atom_site_type_symbol
_atom_site_label
_atom_site_fract_x
_atom_site_fract_y
_atom_site_fract_z
Si Si1 0.088710 0.225779 0.662413
Si Si2 0.609362 0.328000 0.336309
Si Si3 0.888104 0.000000 0.431956
Si Si4 0.514549 0.679109 0.826896
Si Si5 0.937097 0.316975 0.919706
Si Si6 0.190253 0.500000 0.417008
Si Si7 0.977942 0.500000 0.560338
Si Si8 0.705985 0.314989 0.819049
O O1 0.128464 0.135753 0.620302
O O2 0.033685 0.363711 0.612159
O O3 0.174462 0.250475 0.743197
O O4 0.995341 0.155645 0.665214
O O5 0.658604 0.500000 0.358755
O O6 0.573203 0.303391 0.255148
O O7 0.657728 0.165034 0.375561
O O8 0.810526 0.000000 0.457181
O O9 0.000000 0.000000 0.500000
O O10 0.524391 0.500000 0.842732
O O11 0.486613 0.762857 0.876759
O O12 0.619670 0.729755 0.834519
O O13 0.938009 0.500000 0.920744
O O14 0.819206 0.269947 0.878215
O O15 0.000000 0.262328 0.000000
O O16 0.138567 0.500000 0.462290
O O17 0.000000 0.500000 0.500000
O O18 0.701745 0.500000 0.811563
#
# Coordination Sequence:
#
# PCOD9190045 Si02
#       8
#     8   8   4   8   8   4   4   8
#     4  10  19  39  65  85 120 164 202 254 314 368
#     4   9  18  38  64  94 122 155 212 267 306 370
#     4  12  24  40  62  94 122 162 210 247 309 392
#     4   9  19  35  58  85 119 156 196 251 304 356
#     4  10  22  37  56  86 123 159 202 251 301 364
#     4  10  24  38  68  94 122 171 209 251 326 367
#     4  10  22  44  64  90 131 159 200 268 321 373
#     4   9  18  37  62  84 115 158 203 243 302 367
#
# _framework density 19.856587999999999
#
# number of rings (size 3 to 8) (size 9 to 14) (size 15 to 20)
#    0.000    2.308    1.538    1.385    3.231    0.923 
#    4.154    6.923    0.000    0.000    0.000    0.000 
#    0.000    0.000    0.000    0.000    0.000    0.000 
#
# Total GULP energy -144807.896810 kJ/mol
# GULP energy per Si atom -5569.534493 kJ/mol
# Density = 1.981139 g / cm^3
# Si number density = 19.856588 Si / 1000 Ang^3
#
#
#
# Elastic Constant Matrix: (Units=GPa)
#
#
# Indices 1 2 3 4 5 6 
#
# 1 123.1213 25.5723 59.3685 0.0000 1.7618 0.0000
# 2 25.5723 53.5731 30.8342 0.0000 -2.9597 0.0000
# 3 59.3685 30.8342 99.9377 0.0000 0.4228 0.0000
# 4 0.0000 0.0000 0.0000 -21.2748 0.0000 -8.7749
# 5 1.7618 -2.9597 0.4228 0.0000 33.9169 0.0000
# 6 0.0000 0.0000 0.0000 -8.7749 0.0000 27.3024
#
#
#
# Elastic Compliance Matrix: (Units=1/GPa)
#
#
# Indices 1 2 3 4 5 6 
#
# 1 0.011556 -0.001951 -0.006260 0.000000 -0.000693 0.000000
# 2 -0.001951 0.023172 -0.005999 0.000000 0.002198 0.000000
# 3 -0.006260 -0.005999 0.015578 0.000000 -0.000393 0.000000
# 4 0.000000 0.000000 0.000000 -0.041502 0.000000 -0.013339
# 5 -0.000693 0.002198 -0.000393 0.000000 0.029717 0.000000
# 6 0.000000 0.000000 0.000000 -0.013339 0.000000 0.032340
#
#
# Mechanical properties :
#
#
# Convention : Reuss Voigt Hill
#
# Bulk Modulus (GPa) = 45.69515 56.46467 51.07991
# Shear Modulus (GPa) = 46.91535 18.71270 32.81403
#
# Velocity S-wave (km/s) = 4.86604 3.07317 4.06957
# Velocity P-wave (km/s) = 7.39146 6.41019 6.91824
#
# Compressibility (1/GPa) = 0.02188416
#
# Stress axis : x y z
#
# Youngs Moduli (GPa) = 86.53749 43.15561 64.19496
#
# Poissons Ratio (x) = 0.08421 0.40184
# Poissons Ratio (y) = 0.16887 0.38513
# Poissons Ratio (z) = 0.54170 0.25891
#
# Static dielectric constant tensor:
#      x y z
#    x 1.711560 0.000000 0.011490 
#    y 0.000000 1.311900 0.000000 
#    z 0.011490 0.000000 1.682220 
# 
# From -- ./inp_files/338277.got.cif
#   From: 2010.05.17/outbox.cif.g08.bks.cpg/sg12_170_cif.got.tgz:338277.got - 2010.06.03 13:09:07.
