data_PCOD9190212
_publ_section_title
;
Structure prediction by ZEFSAII (Michael W. Deem and Ramdas Pophale) SiO2 
 PCOD9190212
Probable space group: C 2/M
;
_chemical_formula_sum "Si O2"
_cell_formula_units_Z 44
_cell_length_a 19.922042
_cell_length_b 15.481128
_cell_length_c 10.879509
_cell_angle_alpha 90.000000
_cell_angle_beta 136.004307
_cell_angle_gamma 90.000000
_cell_volume 2330.683024
_symmetry_space_group_name_H-M "C 2/M"
_symmetry_group_IT_number 12
_symmetry_cell_setting 'monoclinic'
loop_
_space_group_symop_operation_xyz
x,y,z
-x,y,-z
-x,-y,-z
x,-y,z
1/2+x,1/2+y,z
1/2-x,1/2+y,-z
1/2-x,1/2-y,-z
1/2+x,1/2-y,z
loop_
_atom_site_type_symbol
_atom_site_label
_atom_site_fract_x
_atom_site_fract_y
_atom_site_fract_z
Si Si1 0.219373 0.500000 0.790417
Si Si2 0.969157 0.898081 0.824638
Si Si3 0.346919 0.343396 0.053160
Si Si4 0.900417 0.500000 0.120333
Si Si5 0.631294 0.000000 0.402841
Si Si6 0.758095 0.847778 0.462370
Si Si7 0.727465 0.841696 0.134161
O O1 0.136708 0.500000 0.786862
O O2 0.172891 0.500000 0.595830
O O3 0.287235 0.416694 0.900923
O O4 0.858226 0.882830 0.649009
O O5 0.040174 0.855823 0.819611
O O6 0.988092 0.000000 0.847882
O O7 0.000000 0.864828 0.000000
O O8 0.314256 0.354221 0.151002
O O9 0.316112 0.250989 0.959595
O O10 0.015237 0.500000 0.255276
O O11 0.851241 0.415885 0.995283
O O12 0.674158 0.913984 0.394298
O O13 0.750000 0.750000 0.500000
O O14 0.759619 0.845654 0.316830
#
# Coordination Sequence:
#
# PCOD9190212 Si02
#       7
#     4   8   8   4   4   8   8
#     4  10  19  41  67  91 119 155 206 249 303 355
#     4  11  22  39  63  93 120 157 203 246 305 361
#     4  10  21  41  68  88 121 161 197 257 298 359
#     4  10  24  40  64  89 121 166 198 248 302 361
#     4  12  24  41  61  91 125 161 203 252 295 359
#     4  12  26  41  62  90 124 162 201 255 300 356
#     4  10  23  43  61  91 123 158 207 243 305 361
#
# _framework density 18.878585999999999
#
# number of rings (size 3 to 8) (size 9 to 14) (size 15 to 20)
#    0.000    1.273    1.818    4.091    2.545    2.182 
#    0.000    0.909    0.000    0.000    0.000    0.000 
#    0.000    0.000    0.000    0.000    0.000    0.000 
#
# Total GULP energy -122955.116730 kJ/mol
# GULP energy per Si atom -5588.868942 kJ/mol
# Density = 1.883562 g / cm^3
# Si number density = 18.878586 Si / 1000 Ang^3
#
#
#
# Elastic Constant Matrix: (Units=GPa)
#
#
# Indices 1 2 3 4 5 6 
#
# 1 97.0673 39.0002 53.7744 0.0000 5.1235 0.0000
# 2 39.0002 121.2395 21.9218 0.0000 -1.2857 0.0000
# 3 53.7744 21.9218 73.4778 0.0000 -18.3895 0.0000
# 4 0.0000 0.0000 0.0000 17.1956 0.0000 4.9277
# 5 5.1235 -1.2857 -18.3895 0.0000 49.2280 0.0000
# 6 0.0000 0.0000 0.0000 4.9277 0.0000 5.9870
#
#
#
# Elastic Compliance Matrix: (Units=1/GPa)
#
#
# Indices 1 2 3 4 5 6 
#
# 1 0.021720 -0.004030 -0.016862 0.000000 -0.008665 0.000000
# 2 -0.004030 0.009496 0.000312 0.000000 0.000784 0.000000
# 3 -0.016862 0.000312 0.029010 0.000000 0.012600 0.000000
# 4 0.000000 0.000000 0.000000 0.076104 0.000000 -0.062639
# 5 -0.008665 0.000784 0.012600 0.000000 0.025943 0.000000
# 6 0.000000 0.000000 0.000000 -0.062639 0.000000 0.218585
#
#
# Mechanical properties :
#
#
# Convention : Reuss Voigt Hill
#
# Bulk Modulus (GPa) = 52.44538 57.90862 55.17700
# Shear Modulus (GPa) = 11.67204 26.28800 18.98002
#
# Velocity S-wave (km/s) = 2.48920 3.73564 3.17420
# Velocity P-wave (km/s) = 6.00851 7.02478 6.53642
#
# Compressibility (1/GPa) = 0.01906746
#
# Stress axis : x y z
#
# Youngs Moduli (GPa) = 46.04051 105.30404 34.47064
#
# Poissons Ratio (x) = 0.42436 0.58124
# Poissons Ratio (y) = 0.18554 -0.01077
# Poissons Ratio (z) = 0.77633 -0.03289
#
# Static dielectric constant tensor:
#      x y z
#    x 1.667700 0.000000 -0.012550 
#    y 0.000000 1.664730 0.000000 
#    z -0.012550 0.000000 1.605130 
# 
# From -- ./inp_files/167446.got.cif
#   From: 2010.05.17/outbox.cif.g08.bks.cpg/sg12_84_cif.got.tgz:167446.got - 2010.06.03 13:09:07.
