data_PCOD9190855
_publ_section_title
;
Structure prediction by ZEFSAII (Michael W. Deem and Ramdas Pophale) SiO2 
 PCOD9190855
Probable space group: C 2/M
;
_chemical_formula_sum "Si O2"
_cell_formula_units_Z 64
_cell_length_a 32.147041
_cell_length_b 8.992683
_cell_length_c 15.985787
_cell_angle_alpha 90.000000
_cell_angle_beta 53.961028
_cell_angle_gamma 90.000000
_cell_volume 3736.863024
_symmetry_space_group_name_H-M "C 2/M"
_symmetry_group_IT_number 12
_symmetry_cell_setting 'monoclinic'
loop_
_space_group_symop_operation_xyz
x,y,z
-x,y,-z
-x,-y,-z
x,-y,z
1/2+x,1/2+y,z
1/2-x,1/2+y,-z
1/2-x,1/2-y,-z
1/2+x,1/2-y,z
loop_
_atom_site_type_symbol
_atom_site_label
_atom_site_fract_x
_atom_site_fract_y
_atom_site_fract_z
Si Si1 0.038359 0.176600 0.765186
Si Si2 0.939087 0.667575 0.090121
Si Si3 0.282499 0.178788 0.657640
Si Si4 0.787012 0.323060 0.387337
Si Si5 0.670991 0.823357 0.055999
Si Si6 0.781501 0.823403 0.839158
Si Si7 0.079542 0.178696 0.060398
Si Si8 0.371231 0.823783 0.419426
O O1 0.061064 0.238708 0.825262
O O2 0.074241 0.243012 0.650199
O O3 0.977777 0.216745 0.837262
O O4 0.041837 0.000000 0.760100
O O5 0.917885 0.500000 0.125623
O O6 0.915600 0.749691 0.037724
O O7 0.000000 0.654363 0.000000
O O8 0.230719 0.246273 0.677102
O O9 0.289341 0.244979 0.741194
O O10 0.331042 0.220141 0.540101
O O11 0.279046 0.000000 0.662476
O O12 0.778890 0.500000 0.391070
O O13 0.750000 0.250000 0.500000
O O14 0.841863 0.297924 0.365681
O O15 0.683433 0.749926 0.130648
O O16 0.623210 0.745533 0.067701
O O17 0.662488 0.000000 0.074569
O O18 0.722525 0.801918 0.939390
O O19 0.790908 0.000000 0.822414
O O20 0.083204 0.000000 0.050494
O O21 0.379350 0.000000 0.417536
#
# Coordination Sequence:
#
# PCOD9190855 Si02
#       8
#     8   8   8   8   8   8   8   8
#     4  10  20  32  49  74 104 139 176 213 253 297
#     4   9  17  30  48  69  96 132 171 209 249 293
#     4  10  20  34  53  77 104 136 173 211 254 304
#     4   9  17  30  47  69  98 132 170 210 250 293
#     4  10  21  37  57  80 104 131 164 203 253 310
#     4  10  21  37  57  80 104 130 163 206 255 306
#     4  10  20  34  52  76 105 135 171 213 255 301
#     4   9  19  33  49  72 104 140 176 212 249 297
#
# _framework density 17.126664999999999
#
# number of rings (size 3 to 8) (size 9 to 14) (size 15 to 20)
#    0.000    2.375    0.000    3.375    0.000    8.500 
#    0.000    1.250    0.000    0.750    0.000    5.250 
#    0.000    0.000    0.000    0.000    0.000    0.000 
#
# Total GULP energy -178421.670622 kJ/mol
# GULP energy per Si atom -5575.677207 kJ/mol
# Density = 1.708768 g / cm^3
# Si number density = 17.126665 Si / 1000 Ang^3
#
#
#
# Elastic Constant Matrix: (Units=GPa)
#
#
# Indices 1 2 3 4 5 6 
#
# 1 124.4786 67.6991 55.2637 0.0000 17.3304 0.0000
# 2 67.6991 72.0078 39.3261 0.0000 0.9201 0.0001
# 3 55.2637 39.3261 74.2861 0.0000 12.8793 0.0000
# 4 0.0000 0.0000 0.0000 27.5257 0.0000 3.7230
# 5 17.3304 0.9201 12.8793 0.0000 23.6571 0.0000
# 6 0.0000 0.0001 0.0000 3.7230 0.0000 29.7147
#
#
#
# Elastic Compliance Matrix: (Units=1/GPa)
#
#
# Indices 1 2 3 4 5 6 
#
# 1 0.021121 -0.017291 -0.004409 0.000000 -0.012400 0.000000
# 2 -0.017291 0.034331 -0.008034 0.000000 0.015705 0.000000
# 3 -0.004409 -0.008034 0.022505 0.000000 -0.008709 0.000000
# 4 0.000000 0.000000 0.000000 0.036956 0.000000 -0.004630
# 5 -0.012400 0.015705 -0.008709 0.000000 0.055485 0.000000
# 6 0.000000 0.000000 0.000000 -0.004630 0.000000 0.034233
#
#
# Mechanical properties :
#
#
# Convention : Reuss Voigt Hill
#
# Bulk Modulus (GPa) = 54.08817 66.15004 60.11910
# Shear Modulus (GPa) = 18.50056 23.41175 20.95615
#
# Velocity S-wave (km/s) = 3.29024 3.70128 3.50179
# Velocity P-wave (km/s) = 6.78852 7.54810 7.17836
#
# Compressibility (1/GPa) = 0.01848833
#
# Stress axis : x y z
#
# Youngs Moduli (GPa) = 47.34555 29.12858 44.43507
#
# Poissons Ratio (x) = 0.50366 0.19593
# Poissons Ratio (y) = 0.81865 0.35698
# Poissons Ratio (z) = 0.20877 0.23401
#
# Static dielectric constant tensor:
#      x y z
#    x 1.569530 0.000000 -0.024200 
#    y 0.000000 1.572770 0.000000 
#    z -0.024200 0.000000 1.590380 
# 
# From -- ./inp_files/249049.got.cif
#   From: 2010.05.17/outbox.cif.g08.bks.cpg/sg12_125_cif.got.tgz:249049.got - 2010.06.03 13:09:07.
