data_PCOD9190091
_publ_section_title
;
Structure prediction by ZEFSAII (Michael W. Deem and Ramdas Pophale) SiO2 
 PCOD9190091
Probable space group: C 2/M
;
_chemical_formula_sum "Si O2"
_cell_formula_units_Z 64
_cell_length_a 31.444545
_cell_length_b 8.545057
_cell_length_c 19.913048
_cell_angle_alpha 90.000000
_cell_angle_beta 38.502150
_cell_angle_gamma 90.000000
_cell_volume 3330.949693
_symmetry_space_group_name_H-M "C 2/M"
_symmetry_group_IT_number 12
_symmetry_cell_setting 'monoclinic'
loop_
_space_group_symop_operation_xyz
x,y,z
-x,y,-z
-x,-y,-z
x,-y,z
1/2+x,1/2+y,z
1/2-x,1/2+y,-z
1/2-x,1/2-y,-z
1/2+x,1/2-y,z
loop_
_atom_site_type_symbol
_atom_site_label
_atom_site_fract_x
_atom_site_fract_y
_atom_site_fract_z
Si Si1 0.191235 0.686815 0.772230
Si Si2 0.312415 0.688364 0.877784
Si Si3 0.947967 0.818984 0.002456
Si Si4 0.187659 0.311836 0.621923
Si Si5 0.544735 0.320137 0.511746
Si Si6 0.039377 0.187569 0.765728
Si Si7 0.190248 0.808839 0.274983
Si Si8 0.039412 0.683572 0.264956
O O1 0.199684 0.500000 0.757974
O O2 0.118567 0.725523 0.894318
O O3 0.194237 0.745010 0.691472
O O4 0.249026 0.746568 0.751844
O O5 0.311854 0.500000 0.879290
O O6 0.305510 0.740866 0.808143
O O7 0.385330 0.745621 0.815947
O O8 0.250000 0.750000 0.000000
O O9 0.928265 0.000000 0.013955
O O10 0.000000 0.817077 0.000000
O O11 0.989614 0.757971 0.887269
O O12 0.189292 0.500000 0.620002
O O13 0.250000 0.250000 0.500000
O O14 0.114762 0.257211 0.682782
O O15 0.500000 0.326131 0.500000
O O16 0.550026 0.500000 0.531280
O O17 0.619102 0.263531 0.397554
O O18 0.505733 0.215981 0.613396
O O19 0.002075 0.236176 0.743850
O O20 0.045386 0.000000 0.762595
O O21 0.190779 0.000000 0.272688
O O22 0.046092 0.500000 0.243525
#
# Coordination Sequence:
#
# PCOD9190091 Si02
#       8
#     8   8   8   8   8   8   8   8
#     4  10  22  39  62  92 124 162 203 249 307 371
#     4  11  23  43  65  91 127 169 211 256 311 372
#     4  10  21  40  64  90 119 156 205 260 312 363
#     4  11  24  41  62  92 129 168 209 255 309 373
#     4  10  19  39  68  91 119 165 211 256 309 371
#     4  11  24  43  66  90 123 167 211 260 316 375
#     4   9  20  39  63  91 122 161 207 249 301 369
#     4  12  26  42  62  94 129 164 210 264 316 376
#
# _framework density 19.213739
#
# number of rings (size 3 to 8) (size 9 to 14) (size 15 to 20)
#    0.000    1.500    2.500    2.250    3.500    2.000 
#    0.000    1.250    0.000    0.000    0.000    0.000 
#    0.000    0.000    0.000    0.000    0.000    0.000 
#
# Total GULP energy -178759.763966 kJ/mol
# GULP energy per Si atom -5586.242624 kJ/mol
# Density = 1.917001 g / cm^3
# Si number density = 19.213739 Si / 1000 Ang^3
#
#
#
# Elastic Constant Matrix: (Units=GPa)
#
#
# Indices 1 2 3 4 5 6 
#
# 1 153.9406 23.6293 88.9039 -0.0082 -12.3496 0.0105
# 2 23.6293 38.6978 28.0642 -0.0104 -3.5407 -0.0003
# 3 88.9039 28.0642 170.3930 -0.0142 -10.9642 0.0041
# 4 -0.0082 -0.0104 -0.0142 38.0567 0.0120 -6.7267
# 5 -12.3496 -3.5407 -10.9642 0.0120 31.7903 -0.0096
# 6 0.0105 -0.0003 0.0041 -6.7267 -0.0096 19.3179
#
#
#
# Elastic Compliance Matrix: (Units=1/GPa)
#
#
# Indices 1 2 3 4 5 6 
#
# 1 0.009619 -0.002439 -0.004494 -0.000002 0.001915 -0.000004
# 2 -0.002439 0.030049 -0.003602 0.000007 0.001157 0.000006
# 3 -0.004494 -0.003602 0.008865 0.000001 0.000911 0.000001
# 4 -0.000002 0.000007 0.000001 0.028000 -0.000007 0.009750
# 5 0.001915 0.001157 0.000911 -0.000007 0.032643 0.000013
# 6 -0.000004 0.000006 0.000001 0.009750 0.000013 0.055160
#
#
# Mechanical properties :
#
#
# Convention : Reuss Voigt Hill
#
# Bulk Modulus (GPa) = 36.41261 71.58070 53.99665
# Shear Modulus (GPa) = 25.69873 32.66191 29.18032
#
# Velocity S-wave (km/s) = 3.66118 4.12749 3.90131
# Velocity P-wave (km/s) = 6.07164 7.74924 6.96116
#
# Compressibility (1/GPa) = 0.02746302
#
# Stress axis : x y z
#
# Youngs Moduli (GPa) = 103.95554 33.27925 112.79775
#
# Poissons Ratio (x) = 0.08118 0.50692
# Poissons Ratio (y) = 0.25359 0.40629
# Poissons Ratio (z) = 0.46718 0.11987
#
# Static dielectric constant tensor:
#      x y z
#    x 1.674470 -0.000010 0.011830 
#    y -0.000010 1.678480 0.000000 
#    z 0.011830 0.000000 1.630830 
# 
# From -- ./inp_files/295457.got.cif
#   From: 2010.05.17/outbox.cif.g08.bks.cpg/sg12_148_cif.got.tgz:295457.got - 2010.06.03 13:09:07.
