data_PCOD9190944
_publ_section_title
;
Structure prediction by ZEFSAII (Michael W. Deem and Ramdas Pophale) SiO2 
 PCOD9190944
Probable space group: C 2/M
;
_chemical_formula_sum "Si O2"
_cell_formula_units_Z 56
_cell_length_a 20.611722
_cell_length_b 7.350557
_cell_length_c 19.396082
_cell_angle_alpha 90.000000
_cell_angle_beta 60.971902
_cell_angle_gamma 90.000000
_cell_volume 2569.506210
_symmetry_space_group_name_H-M "C 2/M"
_symmetry_group_IT_number 12
_symmetry_cell_setting 'monoclinic'
loop_
_space_group_symop_operation_xyz
x,y,z
-x,y,-z
-x,-y,-z
x,-y,z
1/2+x,1/2+y,z
1/2-x,1/2+y,-z
1/2-x,1/2-y,-z
1/2+x,1/2-y,z
loop_
_atom_site_type_symbol
_atom_site_label
_atom_site_fract_x
_atom_site_fract_y
_atom_site_fract_z
Si Si1 0.861823 0.212502 0.243367
Si Si2 0.433707 0.778074 0.482472
Si Si3 0.081269 0.777396 0.934446
Si Si4 0.359060 0.221593 0.766225
Si Si5 0.025262 0.719503 0.692255
Si Si6 0.196797 0.278488 0.355445
Si Si7 0.271770 0.283380 0.067233
O O1 0.895164 0.284163 0.154441
O O2 0.920211 0.226971 0.274758
O O3 0.781584 0.286526 0.307572
O O4 0.847919 0.000000 0.236157
O O5 0.500000 0.723278 0.500000
O O6 0.448014 0.718516 0.397023
O O7 0.355236 0.719040 0.554917
O O8 0.434734 0.000000 0.481320
O O9 0.146996 0.718531 0.952001
O O10 0.078824 0.000000 0.935469
O O11 0.000000 0.716614 0.000000
O O12 0.440639 0.281072 0.746883
O O13 0.342757 0.272167 0.695841
O O14 0.292695 0.286361 0.849065
O O15 0.358850 0.000000 0.768070
O O16 0.024392 0.500000 0.691143
O O17 0.197613 0.500000 0.358114
O O18 0.273627 0.500000 0.076406
O O19 0.250000 0.250000 0.000000
#
# Coordination Sequence:
#
# PCOD9190944 Si02
#       7
#     8   8   8   8   8   8   8
#     4  10  20  34  52  73 100 134 167 200 244 298
#     4   9  15  26  48  77 100 123 165 212 245 280
#     4   9  18  33  52  72  96 130 169 202 235 288
#     4   9  16  30  51  73  98 128 166 207 243 281
#     4  10  20  32  50  77 104 128 160 207 252 290
#     4   9  15  28  51  74  95 127 171 209 237 281
#     4  10  20  34  53  77 101 127 163 207 249 290
#
# _framework density 21.794070000000001
#
# number of rings (size 3 to 8) (size 9 to 14) (size 15 to 20)
#    0.000    2.571    2.857    0.000    2.000    0.571 
#    0.000    0.714    0.000    2.143    0.000    0.000 
#    0.000    0.000    0.000    0.000    0.000    0.000 
#
# Total GULP energy -156415.372098 kJ/mol
# GULP energy per Si atom -5586.263289 kJ/mol
# Density = 2.174447 g / cm^3
# Si number density = 21.794070 Si / 1000 Ang^3
#
#
#
# Elastic Constant Matrix: (Units=GPa)
#
#
# Indices 1 2 3 4 5 6 
#
# 1 190.1886 -6.1553 97.8251 0.0002 -22.2967 0.0023
# 2 -6.1553 79.0566 3.1066 0.0001 -6.9639 0.0054
# 3 97.8251 3.1066 162.9193 -0.0002 -24.7768 0.0001
# 4 0.0002 0.0001 -0.0002 -9.0451 0.0001 14.2828
# 5 -22.2967 -6.9639 -24.7768 0.0001 45.4538 0.0003
# 6 0.0023 0.0054 0.0001 14.2828 0.0003 12.1731
#
#
#
# Elastic Compliance Matrix: (Units=1/GPa)
#
#
# Indices 1 2 3 4 5 6 
#
# 1 0.007749 0.000912 -0.004439 -0.000001 0.001521 -0.000001
# 2 0.000912 0.012930 -0.000463 -0.000003 0.002176 -0.000002
# 3 -0.004439 -0.000463 0.009236 0.000000 0.002786 0.000000
# 4 -0.000001 -0.000003 0.000000 -0.038755 -0.000001 0.045471
# 5 0.001521 0.002176 0.002786 -0.000001 0.024599 -0.000001
# 6 -0.000001 -0.000002 0.000000 0.045471 -0.000001 0.028796
#
#
# Mechanical properties :
#
#
# Convention : Reuss Voigt Hill
#
# Bulk Modulus (GPa) = 45.59068 69.07970 57.33519
# Shear Modulus (GPa) = 83.54625 32.20889 57.87757
#
# Velocity S-wave (km/s) = 6.19819 3.84848 5.15890
# Velocity P-wave (km/s) = 8.49634 7.17727 7.86451
#
# Compressibility (1/GPa) = 0.02193431
#
# Stress axis : x y z
#
# Youngs Moduli (GPa) = 129.04919 77.33943 108.27308
#
# Poissons Ratio (x) = -0.07051 0.48062
# Poissons Ratio (y) = -0.11766 0.05014
# Poissons Ratio (z) = 0.57284 0.03582
#
# Static dielectric constant tensor:
#      x y z
#    x 1.743910 0.000000 -0.022200 
#    y 0.000000 1.850660 0.000000 
#    z -0.022200 0.000000 1.767070 
# 
# From -- ./inp_files/223363.got.cif
#   From: 2010.05.17/outbox.cif.g08.bks.cpg/sg12_112_cif.got.tgz:223363.got - 2010.06.03 13:09:07.
