data_PCOD9190143
_publ_section_title
;
Structure prediction by ZEFSAII (Michael W. Deem and Ramdas Pophale) SiO2 
 PCOD9190143
Probable space group: C 2/M
;
_chemical_formula_sum "Si O2"
_cell_formula_units_Z 36
_cell_length_a 14.056928
_cell_length_b 24.371439
_cell_length_c 11.574485
_cell_angle_alpha 90.000000
_cell_angle_beta 157.180793
_cell_angle_gamma 90.000000
_cell_volume 1537.831027
_symmetry_space_group_name_H-M "C 2/M"
_symmetry_group_IT_number 12
_symmetry_cell_setting 'monoclinic'
loop_
_space_group_symop_operation_xyz
x,y,z
-x,y,-z
-x,-y,-z
x,-y,z
1/2+x,1/2+y,z
1/2-x,1/2+y,-z
1/2-x,1/2-y,-z
1/2+x,1/2-y,z
loop_
_atom_site_type_symbol
_atom_site_label
_atom_site_fract_x
_atom_site_fract_y
_atom_site_fract_z
Si Si1 0.670178 0.311691 0.937259
Si Si2 0.426688 0.500000 0.673594
Si Si3 0.637545 0.120276 0.044780
Si Si4 0.500000 0.863882 0.500000
Si Si5 0.345095 0.000000 0.951246
Si Si6 0.204548 0.888794 0.375401
O O1 0.873707 0.329898 0.257729
O O2 0.571278 0.332152 0.264072
O O3 0.750000 0.250000 0.000000
O O4 0.669434 0.344229 0.812946
O O5 0.658032 0.500000 0.847905
O O6 0.449742 0.442513 0.765807
O O7 0.139840 0.500000 0.306968
O O8 0.717356 0.059350 0.174746
O O9 0.500000 0.147329 0.000000
O O10 0.437763 0.109453 0.721527
O O11 0.293099 0.894032 0.342930
#
# Coordination Sequence:
#
# PCOD9190143 Si02
#       6
#     8   4   8   4   4   8
#     4  11  24  42  65  91 127 168 220 272 329 394
#     4  10  20  39  70  94 140 172 228 269 339 401
#     4  10  22  38  62  95 132 170 217 269 332 395
#     4  10  24  43  66  92 128 167 218 270 336 390
#     4  10  19  40  62  99 135 181 215 278 332 406
#     4  10  22  42  64  95 129 173 215 273 328 399
#
# _framework density 23.409593999999998
#
# number of rings (size 3 to 8) (size 9 to 14) (size 15 to 20)
#    0.000    1.778    2.222    1.000    0.000    8.444 
#    0.000    5.556    0.000    0.000    0.000    0.000 
#    0.000    0.000    0.000    0.000    0.000    0.000 
#
# Total GULP energy -100279.095184 kJ/mol
# GULP energy per Si atom -5571.060844 kJ/mol
# Density = 2.335631 g / cm^3
# Si number density = 23.409594 Si / 1000 Ang^3
#
#
#
# Elastic Constant Matrix: (Units=GPa)
#
#
# Indices 1 2 3 4 5 6 
#
# 1 220.4195 58.0598 24.4205 0.0002 -37.2875 -0.0017
# 2 58.0598 90.8195 -3.4978 0.0005 -10.6366 0.0004
# 3 24.4205 -3.4978 62.2605 -0.0003 -9.0519 0.0032
# 4 0.0002 0.0005 -0.0003 16.4235 -0.0003 -0.4027
# 5 -37.2875 -10.6366 -9.0519 -0.0003 47.8624 0.0016
# 6 -0.0017 0.0004 0.0032 -0.4027 0.0016 -84.7599
#
#
#
# Elastic Compliance Matrix: (Units=1/GPa)
#
#
# Indices 1 2 3 4 5 6 
#
# 1 0.006394 -0.003733 -0.002174 0.000000 0.003740 0.000000
# 2 -0.003733 0.013549 0.002304 0.000000 0.000538 0.000000
# 3 -0.002174 0.002304 0.017349 0.000000 0.002100 0.000001
# 4 0.000000 0.000000 0.000000 0.060881 0.000000 -0.000289
# 5 0.003740 0.000538 0.002100 0.000000 0.024324 0.000000
# 6 0.000000 0.000000 0.000001 -0.000289 0.000000 -0.011797
#
#
# Mechanical properties :
#
#
# Convention : Reuss Voigt Hill
#
# Bulk Modulus (GPa) = 33.23863 59.05162 46.14512
# Shear Modulus (GPa) = 39.08241 15.53967 27.31104
#
# Velocity S-wave (km/s) = 4.09039 2.57926 3.41935
# Velocity P-wave (km/s) = 6.04466 5.84382 5.94509
#
# Compressibility (1/GPa) = 0.03008548
#
# Stress axis : x y z
#
# Youngs Moduli (GPa) = 156.40451 73.80545 57.64077
#
# Poissons Ratio (x) = 0.27552 0.12530
# Poissons Ratio (y) = 0.58387 -0.13279
# Poissons Ratio (z) = 0.33998 -0.17003
#
# Static dielectric constant tensor:
#      x y z
#    x 2.072010 0.000000 0.084390 
#    y 0.000000 1.903650 0.000000 
#    z 0.084390 0.000000 1.964610 
# 
# From -- ./inp_files/66164.got.cif
#   From: 2010.05.17/outbox.cif.g08.bks.cpg/sg12_34_cif.got.tgz:66164.got - 2010.06.03 13:09:07.
