data_PCOD9190866
_publ_section_title
;
Structure prediction by ZEFSAII (Michael W. Deem and Ramdas Pophale) SiO2 
 PCOD9190866
Probable space group: C 2/M
;
_chemical_formula_sum "Si O2"
_cell_formula_units_Z 48
_cell_length_a 23.710552
_cell_length_b 10.481178
_cell_length_c 28.604732
_cell_angle_alpha 90.000000
_cell_angle_beta 160.105224
_cell_angle_gamma 90.000000
_cell_volume 2419.043638
_symmetry_space_group_name_H-M "C 2/M"
_symmetry_group_IT_number 12
_symmetry_cell_setting 'monoclinic'
loop_
_space_group_symop_operation_xyz
x,y,z
-x,y,-z
-x,-y,-z
x,-y,z
1/2+x,1/2+y,z
1/2-x,1/2+y,-z
1/2-x,1/2-y,-z
1/2+x,1/2-y,z
loop_
_atom_site_type_symbol
_atom_site_label
_atom_site_fract_x
_atom_site_fract_y
_atom_site_fract_z
Si Si1 0.186530 0.845317 0.701399
Si Si2 0.755771 0.150002 0.152462
Si Si3 0.509858 0.734291 0.220667
Si Si4 0.879688 0.863812 0.600199
Si Si5 0.195714 0.153245 0.605098
Si Si6 0.205457 0.854486 0.033690
O O1 0.278434 0.808814 0.820741
O O2 0.251626 0.806497 0.701118
O O3 0.993395 0.804556 0.550712
O O4 0.186511 0.000000 0.702376
O O5 0.690311 0.247971 0.062578
O O6 0.957109 0.153496 0.304262
O O7 0.706614 0.000000 0.106632
O O8 0.547987 0.634945 0.291033
O O9 0.678781 0.797329 0.335331
O O10 0.382807 0.832125 0.146336
O O11 0.423701 0.673890 0.108341
O O12 0.750000 0.750000 0.500000
O O13 0.801731 0.000000 0.527405
O O14 0.194619 0.000000 0.603681
O O15 0.192170 0.000000 0.040145
#
# Coordination Sequence:
#
# PCOD9190866 Si02
#       6
#     8   8   8   8   8   8
#     4   8  15  29  50  76 104 130 161 206 254 296
#     4   9  18  33  51  72 101 132 164 207 253 293
#     4  10  20  33  51  72 101 133 167 207 249 294
#     4  10  20  32  49  75 103 131 162 201 251 302
#     4   9  16  28  50  78 103 130 165 205 250 299
#     4  10  21  35  52  73  99 135 173 207 246 294
#
# _framework density 19.842552999999999
#
# number of rings (size 3 to 8) (size 9 to 14) (size 15 to 20)
#    0.000    2.667    0.000    3.000    0.000    9.333 
#    0.000    0.833    0.000    6.000    0.000    7.000 
#    0.000    0.000    0.000    0.000    0.000    0.000 
#
# Total GULP energy -133813.914943 kJ/mol
# GULP energy per Si atom -5575.579789 kJ/mol
# Density = 1.979739 g / cm^3
# Si number density = 19.842553 Si / 1000 Ang^3
#
#
#
# Elastic Constant Matrix: (Units=GPa)
#
#
# Indices 1 2 3 4 5 6 
#
# 1 87.9057 3.2051 8.1924 -0.0013 -32.8051 -0.0001
# 2 3.2051 79.6808 15.8974 -0.0108 -19.9807 -0.0045
# 3 8.1924 15.8974 34.5538 -0.0044 -16.9573 -0.0008
# 4 -0.0013 -0.0108 -0.0044 13.2157 -0.0030 -6.6190
# 5 -32.8051 -19.9807 -16.9573 -0.0030 35.5866 -0.0001
# 6 -0.0001 -0.0045 -0.0008 -6.6190 -0.0001 -1.5855
#
#
#
# Elastic Compliance Matrix: (Units=1/GPa)
#
#
# Indices 1 2 3 4 5 6 
#
# 1 0.018910 0.003792 0.004401 0.000001 0.021658 -0.000020
# 2 0.003792 0.015702 -0.002716 -0.000002 0.011018 -0.000034
# 3 0.004401 -0.002716 0.039665 0.000003 0.021432 -0.000026
# 4 0.000001 -0.000002 0.000003 0.024481 0.000003 -0.102201
# 5 0.021658 0.011018 0.021432 0.000003 0.064464 -0.000059
# 6 -0.000020 -0.000034 -0.000026 -0.102201 -0.000059 -0.204056
#
#
# Mechanical properties :
#
#
# Convention : Reuss Voigt Hill
#
# Bulk Modulus (GPa) = 11.73300 28.52558 20.12929
# Shear Modulus (GPa) = -213.88459 21.09970 -96.39244
#
# Velocity S-wave (km/s) = -10.39350 3.26445 -6.97740
# Velocity P-wave (km/s) = 11.75190 5.34940 7.39903
#
# Compressibility (1/GPa) = 0.08522971
#
# Stress axis : x y z
#
# Youngs Moduli (GPa) = 52.88231 63.68479 25.21146
#
# Poissons Ratio (x) = -0.24152 -0.11094
# Poissons Ratio (y) = -0.20055 0.06848
# Poissons Ratio (z) = -0.23271 0.17299
#
# Static dielectric constant tensor:
#      x y z
#    x 1.718800 0.000000 -0.026580 
#    y 0.000000 1.669010 0.000000 
#    z -0.026580 0.000000 1.744730 
# 
# From -- ./inp_files/173063.got.cif
#   From: 2010.05.17/outbox.cif.g08.bks.cpg/sg12_87_cif.got.tgz:173063.got - 2010.06.03 13:09:07.
