data_PCOD9190888
_publ_section_title
;
Structure prediction by ZEFSAII (Michael W. Deem and Ramdas Pophale) SiO2 
 PCOD9190888
Probable space group: C 2/M
;
_chemical_formula_sum "Si O2"
_cell_formula_units_Z 48
_cell_length_a 9.192136
_cell_length_b 22.196300
_cell_length_c 21.652004
_cell_angle_alpha 90.000000
_cell_angle_beta 35.183134
_cell_angle_gamma 90.000000
_cell_volume 2545.435882
_symmetry_space_group_name_H-M "C 2/M"
_symmetry_group_IT_number 12
_symmetry_cell_setting 'monoclinic'
loop_
_space_group_symop_operation_xyz
x,y,z
-x,y,-z
-x,-y,-z
x,-y,z
1/2+x,1/2+y,z
1/2-x,1/2+y,-z
1/2-x,1/2-y,-z
1/2+x,1/2-y,z
loop_
_atom_site_type_symbol
_atom_site_label
_atom_site_fract_x
_atom_site_fract_y
_atom_site_fract_z
Si Si1 0.980407 0.138147 0.814516
Si Si2 0.300022 0.314434 0.702902
Si Si3 0.791828 0.570154 0.198449
Si Si4 0.736269 0.239774 0.076450
Si Si5 0.276162 0.787265 0.621902
Si Si6 0.387331 0.429464 0.970571
O O1 0.868652 0.089462 0.806023
O O2 0.787762 0.194783 0.883647
O O3 0.000845 0.111274 0.876110
O O4 0.227036 0.168717 0.697698
O O5 0.296841 0.385937 0.715360
O O6 0.339362 0.279437 0.625210
O O7 0.514878 0.289063 0.674394
O O8 0.017601 0.294526 0.819199
O O9 0.761894 0.500000 0.223052
O O10 0.086128 0.581190 0.079972
O O11 0.750000 0.250000 0.000000
O O12 0.000000 0.209191 0.000000
O O13 0.500000 0.808329 0.500000
O O14 0.425026 0.500000 0.940760
O O15 0.500000 0.421763 0.000000
#
# Coordination Sequence:
#
# PCOD9190888 Si02
#       6
#     8   8   8   8   8   8
#     4  10  20  34  54  78 106 146 188 222 275 331
#     4  10  21  35  55  83 109 144 185 225 281 333
#     4  10  20  35  54  76 109 150 186 218 262 333
#     4  11  20  31  49  78 113 139 170 218 270 335
#     4  10  21  38  58  82 110 142 188 242 286 325
#     4  10  20  32  49  78 114 149 183 219 266 331
#
# _framework density 18.857282000000001
#
# number of rings (size 3 to 8) (size 9 to 14) (size 15 to 20)
#    0.000    1.833    0.000    6.500    0.000    6.667 
#    0.000    0.000    0.000   13.000    0.000    0.000 
#    0.000    0.000    0.000    0.000    0.000    0.000 
#
# Total GULP energy -133859.669844 kJ/mol
# GULP energy per Si atom -5577.486244 kJ/mol
# Density = 1.881436 g / cm^3
# Si number density = 18.857282 Si / 1000 Ang^3
#
#
#
# Elastic Constant Matrix: (Units=GPa)
#
#
# Indices 1 2 3 4 5 6 
#
# 1 75.0781 31.8734 38.0489 0.0028 -5.5895 -0.0068
# 2 31.8734 119.9702 37.7295 0.0007 15.4231 -0.0012
# 3 38.0489 37.7295 92.2296 0.0014 16.5122 -0.0039
# 4 0.0028 0.0007 0.0014 18.5797 -0.0033 17.4278
# 5 -5.5895 15.4231 16.5122 -0.0033 14.3457 0.0004
# 6 -0.0068 -0.0012 -0.0039 17.4278 0.0004 3.3137
#
#
#
# Elastic Compliance Matrix: (Units=1/GPa)
#
#
# Indices 1 2 3 4 5 6 
#
# 1 0.025569 -0.006722 -0.013699 0.000006 0.032957 -0.000003
# 2 -0.006722 0.011978 0.000816 -0.000001 -0.016435 -0.000002
# 3 -0.013699 0.000816 0.021756 0.000002 -0.031257 -0.000007
# 4 0.000006 -0.000001 0.000002 -0.013684 -0.000003 0.071967
# 5 0.032957 -0.016435 -0.031257 -0.000003 0.136195 0.000027
# 6 -0.000003 -0.000002 -0.000007 0.071967 0.000027 -0.076724
#
#
# Mechanical properties :
#
#
# Convention : Reuss Voigt Hill
#
# Bulk Modulus (GPa) = 49.76977 55.84236 52.80607
# Shear Modulus (GPa) = 33.11285 19.22289 26.16787
#
# Velocity S-wave (km/s) = 4.19498 3.19625 3.72920
# Velocity P-wave (km/s) = 7.06498 6.58018 6.82689
#
# Compressibility (1/GPa) = 0.02009252
#
# Stress axis : x y z
#
# Youngs Moduli (GPa) = 39.10916 83.48939 45.96360
#
# Poissons Ratio (x) = 0.56120 0.62967
# Poissons Ratio (y) = 0.26289 -0.03749
# Poissons Ratio (z) = 0.53577 -0.06810
#
# Static dielectric constant tensor:
#      x y z
#    x 1.647800 -0.000020 0.007690 
#    y -0.000020 1.288730 0.000020 
#    z 0.007690 0.000020 1.649130 
# 
# From -- ./inp_files/121943.got.cif
#   From: 2010.05.17/outbox.cif.g08.bks.cpg/sg12_61_cif.got.tgz:121943.got - 2010.06.03 13:09:07.
