data_PCOD9190572
_publ_section_title
;
Structure prediction by ZEFSAII (Michael W. Deem and Ramdas Pophale) SiO2 
 PCOD9190572
Probable space group: C 2/M
;
_chemical_formula_sum "Si O2"
_cell_formula_units_Z 44
_cell_length_a 21.118955
_cell_length_b 20.560110
_cell_length_c 7.568023
_cell_angle_alpha 90.000000
_cell_angle_beta 43.485674
_cell_angle_gamma 90.000000
_cell_volume 2261.403436
_symmetry_space_group_name_H-M "C 2/M"
_symmetry_group_IT_number 12
_symmetry_cell_setting 'monoclinic'
loop_
_space_group_symop_operation_xyz
x,y,z
-x,y,-z
-x,-y,-z
x,-y,z
1/2+x,1/2+y,z
1/2-x,1/2+y,-z
1/2-x,1/2-y,-z
1/2+x,1/2-y,z
loop_
_atom_site_type_symbol
_atom_site_label
_atom_site_fract_x
_atom_site_fract_y
_atom_site_fract_z
Si Si1 0.657571 0.770431 0.287507
Si Si2 0.075938 0.171698 0.997109
Si Si3 0.596184 0.823524 0.072980
Si Si4 0.786913 0.648583 0.500540
Si Si5 0.449487 0.929748 0.291151
Si Si6 0.000000 0.170704 0.500000
O O1 0.679497 0.791314 0.442175
O O2 0.580686 0.714999 0.424371
O O3 0.750000 0.750000 0.000000
O O4 0.625583 0.826248 0.216632
O O5 0.046118 0.136142 0.239457
O O6 0.079810 0.248507 0.046281
O O7 0.177262 0.149446 0.732887
O O8 0.000000 0.163815 0.000000
O O9 0.673379 0.846297 0.777531
O O10 0.505511 0.867288 0.245416
O O11 0.843337 0.588963 0.472930
O O12 0.458522 0.000000 0.364135
O O13 0.500000 0.936308 0.000000
#
# Coordination Sequence:
#
# PCOD9190572 Si02
#       6
#     8   8   8   8   8   4
#     4  11  20  32  49  76 110 145 176 212 269 334
#     4  11  21  30  49  75 106 139 176 216 268 318
#     4  10  20  33  52  78 108 142 176 220 268 328
#     4  11  20  33  53  76 104 143 182 221 265 322
#     4   9  19  37  58  81 111 147 183 223 272 322
#     4  10  20  32  42  70 108 136 166 214 256 318
#
# _framework density 19.456945000000001
#
# number of rings (size 3 to 8) (size 9 to 14) (size 15 to 20)
#    0.000    1.636    3.636    5.455    2.545    0.000 
#    0.000    1.818    0.000    0.545    0.000    0.636 
#    0.000    0.000    0.000    0.000    0.000    0.000 
#
# Total GULP energy -122591.004699 kJ/mol
# GULP energy per Si atom -5572.318395 kJ/mol
# Density = 1.941266 g / cm^3
# Si number density = 19.456945 Si / 1000 Ang^3
#
#
#
# Elastic Constant Matrix: (Units=GPa)
#
#
# Indices 1 2 3 4 5 6 
#
# 1 96.9244 5.6113 57.5559 0.0000 -9.2136 0.0000
# 2 5.6113 43.1192 21.4731 0.0000 -12.7853 0.0000
# 3 57.5559 21.4731 170.8292 0.0000 -13.6378 0.0000
# 4 0.0000 0.0000 0.0000 -1.5065 0.0000 -1.4631
# 5 -9.2136 -12.7853 -13.6378 0.0000 48.1299 0.0000
# 6 0.0000 0.0000 0.0000 -1.4631 0.0000 -2.6347
#
#
#
# Elastic Compliance Matrix: (Units=1/GPa)
#
#
# Indices 1 2 3 4 5 6 
#
# 1 0.013006 0.000932 -0.004380 0.000000 0.001496 0.000000
# 2 0.000932 0.026512 -0.003141 0.000000 0.006331 0.000000
# 3 -0.004380 -0.003141 0.007766 0.000000 0.000528 0.000000
# 4 0.000000 0.000000 0.000000 -1.441057 0.000000 0.800264
# 5 0.001496 0.006331 0.000528 0.000000 0.022895 0.000000
# 6 0.000000 0.000000 0.000000 0.800264 0.000000 -0.823962
#
#
# Mechanical properties :
#
#
# Convention : Reuss Voigt Hill
#
# Bulk Modulus (GPa) = 29.31944 53.35038 41.33491
# Shear Modulus (GPa) = -2.30384 23.87991 10.78804
#
# Velocity S-wave (km/s) = -1.08933 3.50711 2.35725
# Velocity P-wave (km/s) = 3.67687 6.62413 5.35717
#
# Compressibility (1/GPa) = 0.03410707
#
# Stress axis : x y z
#
# Youngs Moduli (GPa) = 76.88489 37.71915 128.75903
#
# Poissons Ratio (x) = -0.03516 0.56395
# Poissons Ratio (y) = -0.07168 0.40446
# Poissons Ratio (z) = 0.33675 0.11848
#
# Static dielectric constant tensor:
#      x y z
#    x 1.730730 0.000000 0.003040 
#    y 0.000000 1.761730 0.000000 
#    z 0.003040 0.000000 1.731880 
# 
# From -- ./inp_files/99590.got.cif
#   From: 2010.05.17/outbox.cif.g08.bks.cpg/sg12_50_cif.got.tgz:99590.got - 2010.06.03 13:09:07.
