data_PCOD9190430
_publ_section_title
;
Structure prediction by ZEFSAII (Michael W. Deem and Ramdas Pophale) SiO2 
 PCOD9190430
Probable space group: C 2/M
;
_chemical_formula_sum "Si O2"
_cell_formula_units_Z 64
_cell_length_a 11.403997
_cell_length_b 21.500128
_cell_length_c 15.162278
_cell_angle_alpha 90.000000
_cell_angle_beta 106.036802
_cell_angle_gamma 90.000000
_cell_volume 3572.927026
_symmetry_space_group_name_H-M "C 2/M"
_symmetry_group_IT_number 12
_symmetry_cell_setting 'monoclinic'
loop_
_space_group_symop_operation_xyz
x,y,z
-x,y,-z
-x,-y,-z
x,-y,z
1/2+x,1/2+y,z
1/2-x,1/2+y,-z
1/2-x,1/2-y,-z
1/2+x,1/2-y,z
loop_
_atom_site_type_symbol
_atom_site_label
_atom_site_fract_x
_atom_site_fract_y
_atom_site_fract_z
Si Si1 0.047786 0.599145 0.412219
Si Si2 0.822138 0.069682 0.470106
Si Si3 0.624231 0.075304 0.918173
Si Si4 0.379820 0.575002 0.286357
Si Si5 0.881862 0.140710 0.661406
Si Si6 0.307963 0.927054 0.258976
Si Si7 0.896626 0.744427 0.554364
Si Si8 0.654002 0.924327 0.121262
O O1 0.177709 0.568320 0.424722
O O2 0.072651 0.673059 0.417149
O O3 0.000000 0.582762 0.500000
O O4 0.946801 0.578355 0.321799
O O5 0.876082 0.091957 0.388982
O O6 0.850472 0.111831 0.558991
O O7 0.865113 0.000000 0.499104
O O8 0.695605 0.091051 0.844402
O O9 0.482948 0.096082 0.883181
O O10 0.620453 0.000000 0.918772
O O11 0.676042 0.094648 0.024035
O O12 0.387483 0.500000 0.283133
O O13 0.500215 0.606893 0.274717
O O14 0.258685 0.595710 0.210095
O O15 0.769525 0.120808 0.698923
O O16 0.908860 0.211671 0.642451
O O17 0.269916 0.000000 0.263069
O O18 0.750000 0.750000 0.500000
O O19 0.000000 0.761391 0.500000
O O20 0.653753 0.000000 0.123401
#
# Coordination Sequence:
#
# PCOD9190430 Si02
#       8
#     8   8   8   8   8   8   8   8
#     4  11  21  34  52  75 100 139 181 226 270 305
#     4  11  20  31  48  73 105 140 173 211 264 320
#     4   8  15  29  52  76 104 137 169 216 272 320
#     4  10  20  31  46  73 106 140 178 210 255 326
#     4  12  22  34  49  71 108 151 178 213 265 322
#     4  11  21  34  52  81 114 140 175 223 278 334
#     4  11  22  40  57  73 103 149 203 239 265 308
#     4   8  14  29  50  74 104 137 172 216 266 320
#
# _framework density 17.912483999999999
#
# number of rings (size 3 to 8) (size 9 to 14) (size 15 to 20)
#    0.000    1.750    2.500    4.875    0.000    3.500 
#    0.000    0.625    0.000    3.000    0.000    0.875 
#    3.750    0.000    0.000    0.000    0.000    0.000 
#
# Total GULP energy -178459.602050 kJ/mol
# GULP energy per Si atom -5576.862564 kJ/mol
# Density = 1.787171 g / cm^3
# Si number density = 17.912484 Si / 1000 Ang^3
#
#
#
# Elastic Constant Matrix: (Units=GPa)
#
#
# Indices 1 2 3 4 5 6 
#
# 1 78.9405 13.1073 9.5331 0.0000 -6.4865 0.0000
# 2 13.1073 44.8675 12.5335 0.0000 -11.6850 0.0000
# 3 9.5331 12.5335 63.2927 0.0000 -11.8941 0.0000
# 4 0.0000 0.0000 0.0000 4.3309 0.0000 0.3653
# 5 -6.4865 -11.6850 -11.8941 0.0000 15.5197 0.0000
# 6 0.0000 0.0000 0.0000 0.3653 0.0000 17.9448
#
#
#
# Elastic Compliance Matrix: (Units=1/GPa)
#
#
# Indices 1 2 3 4 5 6 
#
# 1 0.013496 -0.002984 -0.000939 0.000000 0.002674 0.000000
# 2 -0.002984 0.028567 -0.001636 0.000000 0.019008 0.000000
# 3 -0.000939 -0.001636 0.018645 0.000000 0.012665 0.000000
# 4 0.000000 0.000000 0.000000 0.231298 0.000000 -0.004708
# 5 0.002674 0.019008 0.012665 0.000000 0.089570 0.000000
# 6 0.000000 0.000000 0.000000 -0.004708 0.000000 0.055822
#
#
# Mechanical properties :
#
#
# Convention : Reuss Voigt Hill
#
# Bulk Modulus (GPa) = 20.16508 28.60539 24.38523
# Shear Modulus (GPa) = 10.75163 17.68753 14.21958
#
# Velocity S-wave (km/s) = 2.45262 3.14577 2.82057
# Velocity P-wave (km/s) = 4.39346 5.40358 4.92449
#
# Compressibility (1/GPa) = 0.04959068
#
# Stress axis : x y z
#
# Youngs Moduli (GPa) = 74.09377 35.00581 53.63351
#
# Poissons Ratio (x) = 0.10445 0.05038
# Poissons Ratio (y) = 0.22109 0.08772
# Poissons Ratio (z) = 0.06960 0.05725
#
# Static dielectric constant tensor:
#      x y z
#    x 1.646710 0.000000 -0.007090 
#    y 0.000000 1.617520 0.000000 
#    z -0.007090 0.000000 1.612650 
# 
# From -- ./inp_files/208418.got.cif
#   From: 2010.05.17/outbox.cif.g08.bks.cpg/sg12_105_cif.got.tgz:208418.got - 2010.06.03 13:09:07.
