data_PCOD9190736
_publ_section_title
;
Structure prediction by ZEFSAII (Michael W. Deem and Ramdas Pophale) SiO2 
 PCOD9190736
Probable space group: C 2/M
;
_chemical_formula_sum "Si O2"
_cell_formula_units_Z 44
_cell_length_a 14.115092
_cell_length_b 13.678273
_cell_length_c 26.068669
_cell_angle_alpha 90.000000
_cell_angle_beta 29.782036
_cell_angle_gamma 90.000000
_cell_volume 2499.940252
_symmetry_space_group_name_H-M "C 2/M"
_symmetry_group_IT_number 12
_symmetry_cell_setting 'monoclinic'
loop_
_space_group_symop_operation_xyz
x,y,z
-x,y,-z
-x,-y,-z
x,-y,z
1/2+x,1/2+y,z
1/2-x,1/2+y,-z
1/2-x,1/2-y,-z
1/2+x,1/2-y,z
loop_
_atom_site_type_symbol
_atom_site_label
_atom_site_fract_x
_atom_site_fract_y
_atom_site_fract_z
Si Si1 0.905507 0.307726 0.771369
Si Si2 0.355418 0.500000 0.116874
Si Si3 0.128439 0.713257 0.104302
Si Si4 0.314329 0.614742 0.617041
Si Si5 0.758882 0.828413 0.756726
Si Si6 0.755774 0.000000 0.021087
Si Si7 0.545060 0.000000 0.918989
O O1 0.775514 0.403564 0.822029
O O2 0.825668 0.252345 0.859998
O O3 0.893704 0.238518 0.727715
O O4 0.118848 0.336964 0.688409
O O5 0.516437 0.500000 0.085418
O O6 0.500000 0.500000 0.000000
O O7 0.915090 0.733562 0.185918
O O8 0.250000 0.750000 0.000000
O O9 0.168024 0.596319 0.088886
O O10 0.500000 0.652700 0.500000
O O11 0.294126 0.500000 0.615528
O O12 0.342023 0.625741 0.665485
O O13 0.659715 0.907668 0.841086
O O14 0.663364 0.000000 0.008969
O O15 0.500000 0.000000 0.000000
#
# Coordination Sequence:
#
# PCOD9190736 Si02
#       7
#     8   4   8   8   8   4   4
#     4  11  22  35  56  88 115 148 196 241 289 348
#     4  12  20  32  54  80 121 157 188 235 277 336
#     4  10  20  32  48  74 116 154 190 219 269 336
#     4  10  21  43  67  82 108 150 197 255 300 341
#     4  10  22  35  56  87 113 146 200 238 282 351
#     4  10  20  32  48  70 106 165 198 223 256 322
#     4  10  22  36  52  76 125 168 191 224 278 346
#
# _framework density 17.600421000000001
#
# number of rings (size 3 to 8) (size 9 to 14) (size 15 to 20)
#    0.000    1.636    3.636    1.091    7.636    0.727 
#    0.000    0.000    0.000    0.000    0.000    1.273 
#    0.000    0.000    0.000    0.000    0.000    0.000 
#
# Total GULP energy -122545.802895 kJ/mol
# GULP energy per Si atom -5570.263768 kJ/mol
# Density = 1.756036 g / cm^3
# Si number density = 17.600421 Si / 1000 Ang^3
#
#
#
# Elastic Constant Matrix: (Units=GPa)
#
#
# Indices 1 2 3 4 5 6 
#
# 1 142.1785 39.2814 51.4477 0.0009 6.4737 -0.0003
# 2 39.2814 42.9612 16.3221 -0.0001 -2.8759 -0.0003
# 3 51.4477 16.3221 97.0517 -0.0029 4.7959 0.0006
# 4 0.0009 -0.0001 -0.0029 13.9220 -0.0001 3.4288
# 5 6.4737 -2.8759 4.7959 -0.0001 23.1406 -0.0002
# 6 -0.0003 -0.0003 0.0006 3.4288 -0.0002 25.9896
#
#
#
# Elastic Compliance Matrix: (Units=1/GPa)
#
#
# Indices 1 2 3 4 5 6 
#
# 1 0.011165 -0.008808 -0.004272 -0.000002 -0.003333 0.000000
# 2 -0.008808 0.032186 -0.001074 0.000000 0.006687 0.000000
# 3 -0.004272 -0.001074 0.012828 0.000003 -0.001597 -0.000001
# 4 -0.000002 0.000000 0.000003 0.074241 0.000000 -0.009794
# 5 -0.003333 0.006687 -0.001597 0.000000 0.045309 0.000000
# 6 0.000000 0.000000 -0.000001 -0.009794 0.000000 0.039769
#
#
# Mechanical properties :
#
#
# Convention : Reuss Voigt Hill
#
# Bulk Modulus (GPa) = 35.88155 55.14375 45.51265
# Shear Modulus (GPa) = 19.75522 24.28645 22.02083
#
# Velocity S-wave (km/s) = 3.35390 3.71870 3.54100
# Velocity P-wave (km/s) = 5.95224 7.05955 6.52941
#
# Compressibility (1/GPa) = 0.02786948
#
# Stress axis : x y z
#
# Youngs Moduli (GPa) = 89.56792 31.06900 77.95332
#
# Poissons Ratio (x) = 0.27366 0.33305
# Poissons Ratio (y) = 0.78894 0.08374
# Poissons Ratio (z) = 0.38267 0.03337
#
# Static dielectric constant tensor:
#      x y z
#    x 1.638640 0.000000 0.019620 
#    y 0.000000 1.634500 0.000000 
#    z 0.019620 0.000000 1.634270 
# 
# From -- ./inp_files/339894.got.cif
#   From: 2010.05.17/outbox.cif.g08.bks.cpg/sg12_170_cif.got.tgz:339894.got - 2010.06.03 13:09:07.
