data_PCOD9190357
_publ_section_title
;
Structure prediction by ZEFSAII (Michael W. Deem and Ramdas Pophale) SiO2 
 PCOD9190357
Probable space group: C 2/M
;
_chemical_formula_sum "Si O2"
_cell_formula_units_Z 30
_cell_length_a 13.527400
_cell_length_b 14.152347
_cell_length_c 17.677358
_cell_angle_alpha 90.000000
_cell_angle_beta 157.229220
_cell_angle_gamma 90.000000
_cell_volume 1309.851518
_symmetry_space_group_name_H-M "C 2/M"
_symmetry_group_IT_number 12
_symmetry_cell_setting 'monoclinic'
loop_
_space_group_symop_operation_xyz
x,y,z
-x,y,-z
-x,-y,-z
x,-y,z
1/2+x,1/2+y,z
1/2-x,1/2+y,-z
1/2-x,1/2-y,-z
1/2+x,1/2-y,z
loop_
_atom_site_type_symbol
_atom_site_label
_atom_site_fract_x
_atom_site_fract_y
_atom_site_fract_z
Si Si1 0.355679 0.173153 0.779175
Si Si2 0.622431 0.306558 0.783980
Si Si3 0.500000 0.500000 0.500000
Si Si4 0.500000 0.163645 0.500000
Si Si5 0.925645 0.395694 0.610653
O O1 0.244974 0.180666 0.786934
O O2 0.243426 0.266978 0.661197
O O3 0.220156 0.082943 0.648604
O O4 0.658555 0.168397 0.001808
O O5 0.376260 0.373657 0.608971
O O6 0.543897 0.196153 0.734755
O O7 0.469366 0.107847 0.401206
O O8 0.973084 0.500000 0.675314
#
# Coordination Sequence:
#
# PCOD9190357 Si02
#       5
#     8   8   2   4   8
#     4   9  19  36  56  82 112 143 180 236 279 335
#     4   9  20  36  57  82 113 143 189 233 276 323
#     4  10  20  30  58  88 110 144 174 218 306 338
#     4   9  19  37  53  76 116 144 184 234 272 310
#     4  10  20  35  57  81 109 154 186 227 273 332
#
# _framework density 22.903358000000001
#
# number of rings (size 3 to 8) (size 9 to 14) (size 15 to 20)
#    0.000    2.667    0.000    0.400    3.733    2.133 
#    0.000   12.000    0.000    0.000    0.000    0.000 
#    0.000    0.000    0.000    0.000    0.000    0.000 
#
# Total GULP energy -83606.276126 kJ/mol
# GULP energy per Si atom -5573.751742 kJ/mol
# Density = 2.285123 g / cm^3
# Si number density = 22.903358 Si / 1000 Ang^3
#
#
#
# Elastic Constant Matrix: (Units=GPa)
#
#
# Indices 1 2 3 4 5 6 
#
# 1 62.9684 8.4262 -9.6808 0.0124 0.7046 -0.0066
# 2 8.4262 138.0271 25.2693 -0.0476 6.1687 0.0202
# 3 -9.6808 25.2693 116.7640 -0.1014 2.4126 0.0245
# 4 0.0124 -0.0476 -0.1014 -1.1927 0.0111 6.5643
# 5 0.7046 6.1687 2.4126 0.0111 25.2924 0.0088
# 6 -0.0066 0.0202 0.0245 6.5643 0.0088 13.4982
#
#
#
# Elastic Compliance Matrix: (Units=1/GPa)
#
#
# Indices 1 2 3 4 5 6 
#
# 1 0.016307 -0.001282 0.001636 0.000032 -0.000298 -0.000009
# 2 -0.001282 0.007717 -0.001742 -0.000063 -0.001680 0.000023
# 3 0.001636 -0.001742 0.009087 -0.000207 -0.000487 0.000088
# 4 0.000032 -0.000063 -0.000207 -0.228044 0.000096 0.110901
# 5 -0.000298 -0.001680 -0.000487 0.000096 0.040002 -0.000069
# 6 -0.000009 0.000023 0.000088 0.110901 -0.000069 0.020152
#
#
# Mechanical properties :
#
#
# Convention : Reuss Voigt Hill
#
# Bulk Modulus (GPa) = 32.96463 40.64323 36.80393
# Shear Modulus (GPa) = -41.02007 27.10255 -6.95876
#
# Velocity S-wave (km/s) = -4.23662 3.44371 -1.74497
# Velocity P-wave (km/s) = 3.08347 5.79623 3.47048
#
# Compressibility (1/GPa) = 0.03033555
#
# Stress axis : x y z
#
# Youngs Moduli (GPa) = 61.32238 129.58193 110.05117
#
# Poissons Ratio (x) = 0.16608 -0.18000
# Poissons Ratio (y) = 0.07859 0.19167
# Poissons Ratio (z) = -0.10030 0.22569
#
# Static dielectric constant tensor:
#      x y z
#    x 1.980240 -0.000010 -0.001290 
#    y -0.000010 1.779570 -0.000020 
#    z -0.001290 -0.000020 1.831690 
# 
# From -- ./inp_files/58036.got.cif
#   From: 2010.05.17/outbox.cif.g08.bks.cpg/sg12_30_cif.got.tgz:58036.got - 2010.06.03 13:09:07.
