data_PCOD9190240
_publ_section_title
;
Structure prediction by ZEFSAII (Michael W. Deem and Ramdas Pophale) SiO2 
 PCOD9190240
Probable space group: C 2/M
;
_chemical_formula_sum "Si O2"
_cell_formula_units_Z 36
_cell_length_a 13.483847
_cell_length_b 15.141225
_cell_length_c 14.810139
_cell_angle_alpha 90.000000
_cell_angle_beta 148.718982
_cell_angle_gamma 90.000000
_cell_volume 1569.996779
_symmetry_space_group_name_H-M "C 2/M"
_symmetry_group_IT_number 12
_symmetry_cell_setting 'monoclinic'
loop_
_space_group_symop_operation_xyz
x,y,z
-x,y,-z
-x,-y,-z
x,-y,z
1/2+x,1/2+y,z
1/2-x,1/2+y,-z
1/2-x,1/2-y,-z
1/2+x,1/2-y,z
loop_
_atom_site_type_symbol
_atom_site_label
_atom_site_fract_x
_atom_site_fract_y
_atom_site_fract_z
Si Si1 0.151629 0.692840 0.537855
Si Si2 0.647022 0.311366 0.786317
Si Si3 0.446282 0.313882 0.079511
Si Si4 0.709076 0.000000 0.113917
Si Si5 0.934393 0.500000 0.553821
Si Si6 0.803409 0.000000 0.969747
O O1 0.346890 0.722693 0.735267
O O2 0.174113 0.593494 0.515097
O O3 0.000000 0.683630 0.500000
O O4 0.049965 0.764620 0.395321
O O5 0.646943 0.320157 0.893747
O O6 0.688713 0.407803 0.778797
O O7 0.820569 0.241953 0.912108
O O8 0.432788 0.416194 0.045435
O O9 0.500000 0.000000 0.000000
O O10 0.726589 0.000000 0.015872
O O11 0.000000 0.500000 0.500000
O O12 0.116645 0.500000 0.761256
#
# Coordination Sequence:
#
# PCOD9190240 Si02
#       6
#     8   8   8   4   4   4
#     4  11  23  38  60  96 131 163 209 268 331 392
#     4  10  22  42  62  89 125 171 224 267 316 384
#     4  10  21  39  67  90 125 174 214 260 327 391
#     4  10  24  41  67  95 128 173 229 272 325 382
#     4  10  21  40  59  98 135 158 212 265 327 406
#     4  10  19  43  69  96 132 174 210 270 333 392
#
# _framework density 22.929983
#
# number of rings (size 3 to 8) (size 9 to 14) (size 15 to 20)
#    0.000    1.778    2.222    1.333    3.111    0.000 
#    0.000    3.889    0.000    0.000    0.000    0.000 
#    0.000    0.000    0.000    0.000    0.000    0.000 
#
# Total GULP energy -100372.737751 kJ/mol
# GULP energy per Si atom -5576.263208 kJ/mol
# Density = 2.287779 g / cm^3
# Si number density = 22.929983 Si / 1000 Ang^3
#
#
#
# Elastic Constant Matrix: (Units=GPa)
#
#
# Indices 1 2 3 4 5 6 
#
# 1 49.8883 16.1028 -8.1476 -0.0004 -3.9835 0.0030
# 2 16.1028 193.8396 70.0609 0.0026 -0.1533 0.0041
# 3 -8.1476 70.0609 136.5160 0.0023 6.8668 0.0079
# 4 -0.0004 0.0026 0.0023 15.9004 0.0030 26.8323
# 5 -3.9835 -0.1533 6.8668 0.0030 38.2716 0.0036
# 6 0.0030 0.0041 0.0079 26.8323 0.0036 -38.2088
#
#
#
# Elastic Compliance Matrix: (Units=1/GPa)
#
#
# Indices 1 2 3 4 5 6 
#
# 1 0.021486 -0.002719 0.002589 -0.000001 0.001761 0.000001
# 2 -0.002719 0.006692 -0.003617 0.000000 0.000393 0.000000
# 3 0.002589 -0.003617 0.009408 -0.000001 -0.001433 0.000001
# 4 -0.000001 0.000000 -0.000001 0.028782 -0.000004 0.020213
# 5 0.001761 0.000393 -0.001433 -0.000004 0.026571 0.000000
# 6 0.000001 0.000000 0.000001 0.020213 0.000000 -0.011978
#
#
# Mechanical properties :
#
#
# Convention : Reuss Voigt Hill
#
# Bulk Modulus (GPa) = 33.23039 59.58625 46.40832
# Shear Modulus (GPa) = 50.76860 23.34117 37.05488
#
# Velocity S-wave (km/s) = 4.71050 3.19397 4.02431
# Velocity P-wave (km/s) = 6.64143 6.29639 6.47121
#
# Compressibility (1/GPa) = 0.03009293
#
# Stress axis : x y z
#
# Youngs Moduli (GPa) = 46.54186 149.42565 106.29457
#
# Poissons Ratio (x) = 0.40635 -0.27524
# Poissons Ratio (y) = 0.12657 0.38442
# Poissons Ratio (z) = -0.12052 0.54041
#
# Static dielectric constant tensor:
#      x y z
#    x 1.981500 0.000000 -0.018220 
#    y 0.000000 1.943850 0.000000 
#    z -0.018220 0.000000 1.832490 
# 
# From -- ./inp_files/216584.got.cif
#   From: 2010.05.17/outbox.cif.g08.bks.cpg/sg12_109_cif.got.tgz:216584.got - 2010.06.03 13:09:07.
