data_PCOD9190607
_publ_section_title
;
Structure prediction by ZEFSAII (Michael W. Deem and Ramdas Pophale) SiO2 
 PCOD9190607
Probable space group: C 2/M
;
_chemical_formula_sum "Si O2"
_cell_formula_units_Z 64
_cell_length_a 25.258189
_cell_length_b 17.195307
_cell_length_c 7.090355
_cell_angle_alpha 90.000000
_cell_angle_beta 114.703179
_cell_angle_gamma 90.000000
_cell_volume 2797.678978
_symmetry_space_group_name_H-M "C 2/M"
_symmetry_group_IT_number 12
_symmetry_cell_setting 'monoclinic'
loop_
_space_group_symop_operation_xyz
x,y,z
-x,y,-z
-x,-y,-z
x,-y,z
1/2+x,1/2+y,z
1/2-x,1/2+y,-z
1/2-x,1/2-y,-z
1/2+x,1/2-y,z
loop_
_atom_site_type_symbol
_atom_site_label
_atom_site_fract_x
_atom_site_fract_y
_atom_site_fract_z
Si Si1 0.640393 0.236601 0.523164
Si Si2 0.114288 0.274113 0.937357
Si Si3 0.513496 0.750409 0.312305
Si Si4 0.317581 0.411262 0.385253
Si Si5 0.156937 0.888155 0.020998
Si Si6 0.980560 0.917047 0.185220
Si Si7 0.188471 0.415616 0.085239
Si Si8 0.282670 0.086570 0.321565
O O1 0.624966 0.232596 0.725834
O O2 0.576590 0.223734 0.338584
O O3 0.658825 0.326785 0.510306
O O4 0.685974 0.165742 0.557391
O O5 0.152480 0.202436 0.062499
O O6 0.141930 0.351095 0.055768
O O7 0.046449 0.266768 0.883902
O O8 0.500000 0.783709 0.500000
O O9 0.511947 0.656376 0.324698
O O10 0.337264 0.500000 0.474199
O O11 0.329298 0.406819 0.176650
O O12 0.247482 0.408447 0.292480
O O13 0.089611 0.913474 0.932285
O O14 0.211925 0.915299 0.225954
O O15 0.998732 0.000000 0.293028
O O16 0.000000 0.913845 0.000000
O O17 0.163079 0.500000 0.077706
O O18 0.205203 0.409279 0.887757
O O19 0.304061 0.000000 0.414890
#
# Coordination Sequence:
#
# PCOD9190607 Si02
#       8
#     8   8   8   8   8   8   8   8
#     4   9  16  25  37  57  86 115 143 175 212 256
#     4   8  14  24  37  55  81 114 145 176 213 250
#     4   9  18  30  44  62  87 118 147 173 207 257
#     4   9  15  22  36  59  85 113 144 177 213 257
#     4   9  15  25  41  59  81 108 144 182 214 254
#     4  10  20  32  46  65  88 113 143 181 220 256
#     4   8  13  21  34  56  85 112 140 176 219 258
#     4   9  15  23  38  59  83 112 144 179 217 256
#
# _framework density 22.876104999999999
#
# number of rings (size 3 to 8) (size 9 to 14) (size 15 to 20)
#    0.000    3.125    0.000    3.375    0.000    3.750 
#    0.000    0.625    0.000    4.500    0.000    0.000 
#    0.000   12.500    0.000    0.000    0.000    0.000 
#
# Total GULP energy -178385.138716 kJ/mol
# GULP energy per Si atom -5574.535585 kJ/mol
# Density = 2.282404 g / cm^3
# Si number density = 22.876105 Si / 1000 Ang^3
#
#
#
# Elastic Constant Matrix: (Units=GPa)
#
#
# Indices 1 2 3 4 5 6 
#
# 1 63.6630 38.3017 14.9974 0.0000 13.5178 0.0000
# 2 38.3017 141.5233 16.7223 0.0000 24.6426 0.0000
# 3 14.9974 16.7223 58.5799 0.0000 -9.9115 0.0000
# 4 0.0000 0.0000 0.0000 26.0250 0.0000 -29.0365
# 5 13.5178 24.6426 -9.9115 0.0000 35.2097 0.0000
# 6 0.0000 0.0000 0.0000 -29.0365 0.0000 16.9852
#
#
#
# Elastic Compliance Matrix: (Units=1/GPa)
#
#
# Indices 1 2 3 4 5 6 
#
# 1 0.020693 -0.003780 -0.005371 0.000000 -0.006811 0.000000
# 2 -0.003780 0.009444 -0.002731 0.000000 -0.005927 0.000000
# 3 -0.005371 -0.002731 0.020893 0.000000 0.009855 0.000000
# 4 0.000000 0.000000 0.000000 -0.042349 0.000000 -0.072396
# 5 -0.006811 -0.005927 0.009855 0.000000 0.037939 0.000000
# 6 0.000000 0.000000 0.000000 -0.072396 0.000000 -0.064888
#
#
# Mechanical properties :
#
#
# Convention : Reuss Voigt Hill
#
# Bulk Modulus (GPa) = 36.67596 44.86764 40.77180
# Shear Modulus (GPa) = 342.83034 28.56031 185.69533
#
# Velocity S-wave (km/s) = 12.25517 3.53721 9.01946
# Velocity P-wave (km/s) = 14.70781 6.02813 11.23962
#
# Compressibility (1/GPa) = 0.02726582
#
# Stress axis : x y z
#
# Youngs Moduli (GPa) = 48.32471 105.89122 47.86326
#
# Poissons Ratio (x) = 0.40024 0.25709
# Poissons Ratio (y) = 0.18265 0.13071
# Poissons Ratio (z) = 0.25957 0.28919
#
# Static dielectric constant tensor:
#      x y z
#    x 1.871080 0.000000 -0.049880 
#    y 0.000000 1.850220 0.000000 
#    z -0.049880 0.000000 1.929650 
# 
# From -- ./inp_files/176888.got.cif
#   From: 2010.05.17/outbox.cif.g08.bks.cpg/sg12_89_cif.got.tgz:176888.got - 2010.06.03 13:09:07.
