data_PCOD9190010
_publ_section_title
;
Structure prediction by ZEFSAII (Michael W. Deem and Ramdas Pophale) SiO2 
 PCOD9190010
Probable space group: C 2/M
;
_chemical_formula_sum "Si O2"
_cell_formula_units_Z 40
_cell_length_a 16.201401
_cell_length_b 22.467132
_cell_length_c 12.565066
_cell_angle_alpha 90.000000
_cell_angle_beta 157.234701
_cell_angle_gamma 90.000000
_cell_volume 1769.815137
_symmetry_space_group_name_H-M "C 2/M"
_symmetry_group_IT_number 12
_symmetry_cell_setting 'monoclinic'
loop_
_space_group_symop_operation_xyz
x,y,z
-x,y,-z
-x,-y,-z
x,-y,z
1/2+x,1/2+y,z
1/2-x,1/2+y,-z
1/2-x,1/2-y,-z
1/2+x,1/2-y,z
loop_
_atom_site_type_symbol
_atom_site_label
_atom_site_fract_x
_atom_site_fract_y
_atom_site_fract_z
Si Si1 0.523025 0.374678 0.402408
Si Si2 0.202045 0.168359 0.123594
Si Si3 0.278029 0.860270 0.513405
Si Si4 0.630218 0.929941 0.805377
Si Si5 0.475232 0.233289 0.629501
O O1 0.500000 0.387170 0.500000
O O2 0.728009 0.388105 0.569952
O O3 0.528584 0.302918 0.394974
O O4 0.323599 0.408330 0.112195
O O5 0.304646 0.103777 0.225584
O O6 0.301511 0.203340 0.341343
O O7 0.300285 0.207335 0.143977
O O8 0.953612 0.156092 0.811487
O O9 0.415575 0.904728 0.604533
O O10 0.413503 0.798353 0.667808
O O11 0.623924 0.000000 0.785901
#
# Coordination Sequence:
#
# PCOD9190010 Si02
#       5
#     8   8   8   8   8
#     4  11  23  41  63  93 125 167 207 258 312 367
#     4   9  19  38  66  93 124 161 197 257 319 370
#     4  10  22  37  61  94 127 168 204 251 314 370
#     4  10  24  44  63  89 125 169 218 257 299 363
#     4  10  19  39  62  97 133 153 198 253 321 391
#
# _framework density 22.601230999999999
#
# number of rings (size 3 to 8) (size 9 to 14) (size 15 to 20)
#    0.000    2.000    2.000    1.200    0.000   13.200 
#    3.600    9.000    0.000   15.600    0.000    0.000 
#    0.000    0.000    0.000    0.000    0.000    0.000 
#
# Total GULP energy -111501.143385 kJ/mol
# GULP energy per Si atom -5575.057169 kJ/mol
# Density = 2.254979 g / cm^3
# Si number density = 22.601231 Si / 1000 Ang^3
#
#
#
# Elastic Constant Matrix: (Units=GPa)
#
#
# Indices 1 2 3 4 5 6 
#
# 1 108.6018 -10.4350 25.2809 0.0001 19.9404 0.0001
# 2 -10.4350 130.9395 15.4768 0.0000 20.2311 0.0001
# 3 25.2809 15.4768 77.6441 0.0003 25.9018 0.0006
# 4 0.0001 0.0000 0.0003 21.7510 0.0001 -1.9406
# 5 19.9404 20.2311 25.9018 0.0001 54.0162 0.0001
# 6 0.0001 0.0001 0.0006 -1.9406 0.0001 13.6395
#
#
#
# Elastic Compliance Matrix: (Units=1/GPa)
#
#
# Indices 1 2 3 4 5 6 
#
# 1 0.010591 0.001663 -0.002700 0.000000 -0.003238 0.000000
# 2 0.001663 0.008401 -0.001145 0.000000 -0.003212 0.000000
# 3 -0.002700 -0.001145 0.016084 0.000000 -0.006287 -0.000001
# 4 0.000000 0.000000 0.000000 0.046566 0.000000 0.006625
# 5 -0.003238 -0.003212 -0.006287 0.000000 0.023926 0.000000
# 6 0.000000 0.000000 -0.000001 0.006625 0.000000 0.074259
#
#
# Mechanical properties :
#
#
# Convention : Reuss Voigt Hill
#
# Bulk Modulus (GPa) = 32.55880 41.98118 37.26999
# Shear Modulus (GPa) = 25.71658 37.00551 31.36105
#
# Velocity S-wave (km/s) = 3.37685 4.05077 3.72907
# Velocity P-wave (km/s) = 5.44437 6.36344 5.92176
#
# Compressibility (1/GPa) = 0.03071366
#
# Stress axis : x y z
#
# Youngs Moduli (GPa) = 94.42172 119.03029 62.17410
#
# Poissons Ratio (x) = -0.19800 0.16785
# Poissons Ratio (y) = -0.15706 0.07118
# Poissons Ratio (z) = 0.25491 0.13627
#
# Static dielectric constant tensor:
#      x y z
#    x 2.023040 0.000000 -0.054000 
#    y 0.000000 1.837710 0.000000 
#    z -0.054000 0.000000 1.922190 
# 
# From -- ./inp_files/227687.got.cif
#   From: 2010.05.17/outbox.cif.g08.bks.cpg/sg12_114_cif.got.tgz:227687.got - 2010.06.03 13:09:07.
