data_PCOD9190665
_publ_section_title
;
Structure prediction by ZEFSAII (Michael W. Deem and Ramdas Pophale) SiO2 
 PCOD9190665
Probable space group: C 2/M
;
_chemical_formula_sum "Si O2"
_cell_formula_units_Z 56
_cell_length_a 14.447434
_cell_length_b 7.790673
_cell_length_c 20.235561
_cell_angle_alpha 90.000000
_cell_angle_beta 99.461825
_cell_angle_gamma 90.000000
_cell_volume 2246.632104
_symmetry_space_group_name_H-M "C 2/M"
_symmetry_group_IT_number 12
_symmetry_cell_setting 'monoclinic'
loop_
_space_group_symop_operation_xyz
x,y,z
-x,y,-z
-x,-y,-z
x,-y,z
1/2+x,1/2+y,z
1/2-x,1/2+y,-z
1/2-x,1/2-y,-z
1/2+x,1/2-y,z
loop_
_atom_site_type_symbol
_atom_site_label
_atom_site_fract_x
_atom_site_fract_y
_atom_site_fract_z
Si Si1 0.755467 0.703096 0.711891
Si Si2 0.691641 0.297943 0.148393
Si Si3 0.593517 0.789483 0.860182
Si Si4 0.743594 0.812789 0.424760
Si Si5 0.358270 0.203741 0.995926
Si Si6 0.542882 0.197519 0.716555
Si Si7 0.049962 0.291839 0.575370
O O1 0.736601 0.500000 0.701778
O O2 0.824640 0.719919 0.781799
O O3 0.795605 0.771637 0.646913
O O4 0.656970 0.795571 0.717697
O O5 0.693620 0.500000 0.156856
O O6 0.797813 0.241534 0.141927
O O7 0.627916 0.257615 0.078025
O O8 0.535582 0.724641 0.789603
O O9 0.587376 0.000000 0.858639
O O10 0.581218 0.730380 0.934604
O O11 0.750000 0.750000 0.500000
O O12 0.852770 0.807548 0.418172
O O13 0.698504 0.000000 0.424431
O O14 0.367620 0.000000 0.997919
O O15 0.250000 0.250000 0.000000
O O16 0.505716 0.261276 0.640827
O O17 0.511663 0.000000 0.717593
O O18 0.065142 0.500000 0.579878
O O19 0.000000 0.257185 0.500000
#
# Coordination Sequence:
#
# PCOD9190665 Si02
#       7
#     8   8   8   8   8   8   8
#     4   9  16  25  37  54  73  96 130 169 207 247
#     4   9  15  22  31  44  64  93 126 159 199 244
#     4   7  11  18  28  42  61  89 124 159 194 232
#     4  10  20  32  47  66  88 115 147 184 224 265
#     4   9  14  19  27  41  62  89 124 163 200 238
#     4   8  13  23  37  52  73 101 133 167 203 247
#     4   9  17  29  46  67  90 117 148 182 221 264
#
# _framework density 24.926199
#
# number of rings (size 3 to 8) (size 9 to 14) (size 15 to 20)
#    0.000    3.286    0.000    3.429    0.000    2.000 
#    0.000    0.714    0.000    0.000    0.000    0.000 
#    0.000    0.000    0.000    1.286    0.000   30.857 
#
# Total GULP energy -155902.607108 kJ/mol
# GULP energy per Si atom -5567.950254 kJ/mol
# Density = 2.486947 g / cm^3
# Si number density = 24.926199 Si / 1000 Ang^3
#
#
#
# Elastic Constant Matrix: (Units=GPa)
#
#
# Indices 1 2 3 4 5 6 
#
# 1 80.3379 -0.9819 7.4796 0.0000 5.2550 0.0000
# 2 -0.9819 42.2895 21.8332 0.0000 -0.6263 0.0000
# 3 7.4796 21.8332 325.5129 0.0000 45.5155 0.0000
# 4 0.0000 0.0000 0.0000 29.2188 0.0000 1.2390
# 5 5.2550 -0.6263 45.5155 0.0000 0.0529 0.0000
# 6 0.0000 0.0000 0.0000 1.2390 0.0000 -3.4573
#
#
#
# Elastic Compliance Matrix: (Units=1/GPa)
#
#
# Indices 1 2 3 4 5 6 
#
# 1 0.012105 0.001109 -0.001391 0.000000 0.007426 0.000000
# 2 0.001109 0.023374 0.000209 0.000000 -0.012886 0.000000
# 3 -0.001391 0.000209 0.000139 0.000000 0.021106 0.000000
# 4 0.000000 0.000000 0.000000 0.033712 0.000000 0.012082
# 5 0.007426 -0.012886 0.021106 0.000000 -0.145979 0.000000
# 6 0.000000 0.000000 0.000000 0.012082 0.000000 -0.284910
#
#
# Mechanical properties :
#
#
# Convention : Reuss Voigt Hill
#
# Bulk Modulus (GPa) = 28.19205 56.08912 42.14058
# Shear Modulus (GPa) = -14.30247 33.15018 9.42386
#
# Velocity S-wave (km/s) = -2.39800 3.65078 1.94651
# Velocity P-wave (km/s) = 1.91509 6.34995 4.68985
#
# Compressibility (1/GPa) = 0.03547099
#
# Stress axis : x y z
#
# Youngs Moduli (GPa) = 82.61235 42.78302 7198.33594
#
# Poissons Ratio (x) = -0.04745 10.01224
# Poissons Ratio (y) = -0.09163 -1.50127
# Poissons Ratio (z) = 0.11491 -0.00892
#
# Static dielectric constant tensor:
#      x y z
#    x -0.442130 0.000000 0.310170 
#    y 0.000000 1.913170 0.000000 
#    z 0.310170 0.000000 2.129590 
# 
# From -- ./inp_files/287053.got.cif
#   From: 2010.05.17/outbox.cif.g08.bks.cpg/sg12_144_cif.got.tgz:287053.got - 2010.06.03 13:09:07.
