data_PCOD9190884
_publ_section_title
;
Structure prediction by ZEFSAII (Michael W. Deem and Ramdas Pophale) SiO2 
 PCOD9190884
Probable space group: C 2/M
;
_chemical_formula_sum "Si O2"
_cell_formula_units_Z 46
_cell_length_a 18.219560
_cell_length_b 20.152872
_cell_length_c 8.154966
_cell_angle_alpha 90.000000
_cell_angle_beta 143.425189
_cell_angle_gamma 90.000000
_cell_volume 1784.226036
_symmetry_space_group_name_H-M "C 2/M"
_symmetry_group_IT_number 12
_symmetry_cell_setting 'monoclinic'
loop_
_space_group_symop_operation_xyz
x,y,z
-x,y,-z
-x,-y,-z
x,-y,z
1/2+x,1/2+y,z
1/2-x,1/2+y,-z
1/2-x,1/2-y,-z
1/2+x,1/2-y,z
loop_
_atom_site_type_symbol
_atom_site_label
_atom_site_fract_x
_atom_site_fract_y
_atom_site_fract_z
Si Si1 0.854269 0.500000 0.079468
Si Si2 0.000000 0.500000 0.000000
Si Si3 0.876740 0.866544 0.439633
Si Si4 0.425554 0.781216 0.612762
Si Si5 0.119532 0.650058 0.140353
Si Si6 0.266943 0.500000 0.660902
Si Si7 0.227535 0.613490 0.853714
Si Si8 0.595803 0.500000 0.420135
O O1 0.861840 0.564887 0.203781
O O2 0.946291 0.500000 0.097145
O O3 0.715108 0.500000 0.756839
O O4 0.855635 0.500000 0.666988
O O5 0.929570 0.795529 0.581449
O O6 0.751639 0.875850 0.327308
O O7 0.960729 0.929590 0.632988
O O8 0.831190 0.865839 0.170761
O O9 0.369905 0.797409 0.693688
O O10 0.342945 0.822853 0.341028
O O11 0.560153 0.813661 0.877789
O O12 0.000000 0.605732 0.000000
O O13 0.267813 0.565703 0.775833
O O14 0.372023 0.500000 0.712570
#
# Coordination Sequence:
#
# PCOD9190884 Si02
#       8
#     4   2   8   8   8   4   8   4
#     4   8  19  33  44  70 109 143 200 218 263 339
#     4  10  20  34  48  68 108 180 186 218 268 334
#     4  11  19  37  56  80 114 145 190 231 284 345
#     4   9  20  35  55  79 110 147 189 231 286 337
#     4   8  21  35  52  80 107 148 185 231 278 337
#     4  10  21  33  44  72 111 138 198 221 270 345
#     4  10  20  32  49  77 108 148 179 237 282 324
#     4   9  20  33  54  77 102 153 184 223 277 329
#
# _framework density 25.781488
#
# number of rings (size 3 to 8) (size 9 to 14) (size 15 to 20)
#    1.043    1.391    0.000    2.609    0.000    9.043 
#    6.261    0.870    0.000    2.087    0.000    2.435 
#    0.000   15.304    0.000    0.000    0.000    1.043 
#
# Total GULP energy -128557.457046 kJ/mol
# GULP energy per Si atom -5589.454654 kJ/mol
# Density = 2.572281 g / cm^3
# Si number density = 25.781488 Si / 1000 Ang^3
#
#
#
# Elastic Constant Matrix: (Units=GPa)
#
#
# Indices 1 2 3 4 5 6 
#
# 1 93.5620 32.1266 58.6231 0.0000 -3.1312 0.0000
# 2 32.1266 189.8971 53.7657 0.0000 -18.9531 0.0000
# 3 58.6231 53.7657 105.4683 0.0000 -28.9964 0.0000
# 4 0.0000 0.0000 0.0000 22.7599 0.0000 -16.9393
# 5 -3.1312 -18.9531 -28.9964 0.0000 45.3500 0.0000
# 6 0.0000 0.0000 0.0000 -16.9393 0.0000 16.2610
#
#
#
# Elastic Compliance Matrix: (Units=1/GPa)
#
#
# Indices 1 2 3 4 5 6 
#
# 1 0.017736 -0.000404 -0.011359 0.000000 -0.006207 0.000000
# 2 -0.000404 0.006181 -0.002698 0.000000 0.000830 0.000000
# 3 -0.011359 -0.002698 0.020195 0.000000 0.011001 0.000000
# 4 0.000000 0.000000 0.000000 0.195540 0.000000 0.203696
# 5 -0.006207 0.000830 0.011001 0.000000 0.029003 0.000000
# 6 0.000000 0.000000 0.000000 0.203696 0.000000 0.273690
#
#
# Mechanical properties :
#
#
# Convention : Reuss Voigt Hill
#
# Bulk Modulus (GPa) = 65.83237 75.32870 70.58054
# Shear Modulus (GPa) = 8.67557 33.16831 20.92194
#
# Velocity S-wave (km/s) = 1.83639 3.59070 2.85179
# Velocity P-wave (km/s) = 5.48513 6.81706 6.18704
#
# Compressibility (1/GPa) = 0.01519010
#
# Stress axis : x y z
#
# Youngs Moduli (GPa) = 56.38132 161.78165 49.51662
#
# Poissons Ratio (x) = 0.06537 0.56246
# Poissons Ratio (y) = 0.02278 0.13361
# Poissons Ratio (z) = 0.64044 0.43652
#
# Static dielectric constant tensor:
#      x y z
#    x 2.033810 0.000000 0.038460 
#    y 0.000000 1.881520 0.000000 
#    z 0.038460 0.000000 1.990380 
# 
# From -- ./inp_files/106299.got.cif
#   From: 2010.05.17/outbox.cif.g08.bks.cpg/sg12_54_cif.got.tgz:106299.got - 2010.06.03 13:09:07.
