data_PCOD9190253
_publ_section_title
;
Structure prediction by ZEFSAII (Michael W. Deem and Ramdas Pophale) SiO2 
 PCOD9190253
Probable space group: C 2/M
;
_chemical_formula_sum "Si O2"
_cell_formula_units_Z 52
_cell_length_a 14.601933
_cell_length_b 18.031730
_cell_length_c 19.130802
_cell_angle_alpha 90.000000
_cell_angle_beta 149.366296
_cell_angle_gamma 90.000000
_cell_volume 2566.644571
_symmetry_space_group_name_H-M "C 2/M"
_symmetry_group_IT_number 12
_symmetry_cell_setting 'monoclinic'
loop_
_space_group_symop_operation_xyz
x,y,z
-x,y,-z
-x,-y,-z
x,-y,z
1/2+x,1/2+y,z
1/2-x,1/2+y,-z
1/2-x,1/2-y,-z
1/2+x,1/2-y,z
loop_
_atom_site_type_symbol
_atom_site_label
_atom_site_fract_x
_atom_site_fract_y
_atom_site_fract_z
Si Si1 0.535966 0.413436 0.940880
Si Si2 0.438830 0.500000 0.674858
Si Si3 0.624682 0.000000 0.014606
Si Si4 0.560889 0.662704 0.312729
Si Si5 0.190388 0.646685 0.983850
Si Si6 0.080928 0.000000 0.629465
Si Si7 0.086493 0.837236 0.634136
Si Si8 0.379750 0.267710 0.777691
O O1 0.518656 0.500000 0.905641
O O2 0.405886 0.350611 0.823958
O O3 0.500000 0.413274 0.000000
O O4 0.724550 0.381154 0.034115
O O5 0.370412 0.578710 0.655691
O O6 0.417546 0.500000 0.577353
O O7 0.657831 0.500000 0.827986
O O8 0.592850 0.074688 0.950585
O O9 0.500000 0.000000 0.000000
O O10 0.539924 0.674291 0.381445
O O11 0.667798 0.720662 0.335394
O O12 0.359199 0.663279 0.146416
O O13 0.058457 0.716523 0.896182
O O14 0.000000 0.000000 0.500000
O O15 0.169899 0.079995 0.698672
O O16 0.236189 0.774855 0.729322
O O17 0.000000 0.836905 0.500000
#
# Coordination Sequence:
#
# PCOD9190253 Si02
#       8
#     8   4   4   8   8   4   8   8
#     4  10  21  38  57  79 115 154 183 222 272 337
#     4   8  16  30  52  71 101 138 176 209 266 323
#     4  10  20  28  49  77 119 148 164 218 273 339
#     4   9  19  35  53  78 110 141 178 228 269 334
#     4  10  21  35  51  87 116 140 185 219 280 339
#     4   8  16  34  54  74 103 132 175 223 272 328
#     4  10  22  38  57  82 109 146 188 230 278 330
#     4  11  24  32  59  83 112 149 179 233 276 328
#
# _framework density 20.259914999999999
#
# number of rings (size 3 to 8) (size 9 to 14) (size 15 to 20)
#    0.000    2.308    0.769    1.846   14.000    0.615 
#    0.000    0.000    0.000    0.462    0.000    0.000 
#    0.000    0.000    0.000    0.000    0.000    0.000 
#
# Total GULP energy -144743.159805 kJ/mol
# GULP energy per Si atom -5567.044608 kJ/mol
# Density = 2.021380 g / cm^3
# Si number density = 20.259915 Si / 1000 Ang^3
#
#
#
# Elastic Constant Matrix: (Units=GPa)
#
#
# Indices 1 2 3 4 5 6 
#
# 1 111.7379 42.6355 3.2308 0.0008 -17.4082 0.0006
# 2 42.6355 146.1950 11.4028 0.0004 -7.0440 0.0006
# 3 3.2308 11.4028 8.3843 -0.0031 -11.3530 -0.0002
# 4 0.0008 0.0004 -0.0031 14.6467 -0.0001 -4.4193
# 5 -17.4082 -7.0440 -11.3530 -0.0001 24.2741 0.0005
# 6 0.0006 0.0006 -0.0002 -4.4193 0.0005 40.1298
#
#
#
# Elastic Compliance Matrix: (Units=1/GPa)
#
#
# Indices 1 2 3 4 5 6 
#
# 1 0.014163 -0.005830 0.038000 0.000008 0.026238 0.000001
# 2 -0.005830 0.010545 -0.037125 -0.000008 -0.018484 -0.000001
# 3 0.038000 -0.037125 0.483874 0.000105 0.242787 0.000011
# 4 0.000008 -0.000008 0.000105 0.070621 0.000052 0.007777
# 5 0.026238 -0.018484 0.242787 0.000052 0.168201 0.000005
# 6 0.000001 -0.000001 0.000011 0.007777 0.000005 0.025776
#
#
# Mechanical properties :
#
#
# Convention : Reuss Voigt Hill
#
# Bulk Modulus (GPa) = 2.00533 42.31727 22.16130
# Shear Modulus (GPa) = 5.26696 29.74665 17.50681
#
# Velocity S-wave (km/s) = 1.61411 3.83593 2.94276
# Velocity P-wave (km/s) = 2.11323 6.36802 4.74434
#
# Compressibility (1/GPa) = 0.49867126
#
# Stress axis : x y z
#
# Youngs Moduli (GPa) = 70.60624 94.82743 2.06666
#
# Poissons Ratio (x) = 0.55285 -0.07853
# Poissons Ratio (y) = 0.41164 0.07672
# Poissons Ratio (z) = -2.68301 3.52046
#
# Static dielectric constant tensor:
#      x y z
#    x 1.765690 0.000000 -0.029410 
#    y 0.000000 1.755030 0.000000 
#    z -0.029410 0.000000 1.800030 
# 
# From -- ./inp_files/311545.got.cif
#   From: 2010.05.17/outbox.cif.g08.bks.cpg/sg12_156_cif.got.tgz:311545.got - 2010.06.03 13:09:07.
