data_PCOD9190112
_publ_section_title
;
Structure prediction by ZEFSAII (Michael W. Deem and Ramdas Pophale) SiO2 
 PCOD9190112
Probable space group: C 2/M
;
_chemical_formula_sum "Si O2"
_cell_formula_units_Z 52
_cell_length_a 27.067534
_cell_length_b 22.383305
_cell_length_c 7.366158
_cell_angle_alpha 90.000000
_cell_angle_beta 153.399893
_cell_angle_gamma 90.000000
_cell_volume 1998.296659
_symmetry_space_group_name_H-M "C 2/M"
_symmetry_group_IT_number 12
_symmetry_cell_setting 'monoclinic'
loop_
_space_group_symop_operation_xyz
x,y,z
-x,y,-z
-x,-y,-z
x,-y,z
1/2+x,1/2+y,z
1/2-x,1/2+y,-z
1/2-x,1/2-y,-z
1/2+x,1/2-y,z
loop_
_atom_site_type_symbol
_atom_site_label
_atom_site_fract_x
_atom_site_fract_y
_atom_site_fract_z
Si Si1 0.858722 0.000000 0.595643
Si Si2 0.210755 0.128033 0.153762
Si Si3 0.151046 0.123708 0.352154
Si Si4 0.153220 0.627984 0.726027
Si Si5 0.851248 0.744258 0.066514
Si Si6 0.900531 0.500000 0.313695
Si Si7 0.088044 0.752637 0.143494
Si Si8 0.394124 0.500000 0.281575
O O1 0.902636 0.059299 0.833374
O O2 0.886061 0.000000 0.474045
O O3 0.724479 0.000000 0.179201
O O4 0.226770 0.132242 0.422556
O O5 0.132940 0.184759 0.844275
O O6 0.322506 0.134450 0.406310
O O7 0.166176 0.062385 0.966927
O O8 0.226875 0.121739 0.780031
O O9 0.065089 0.176373 0.057891
O O10 0.113890 0.689965 0.688303
O O11 0.093865 0.564549 0.566405
O O12 0.899738 0.732525 0.025526
O O13 0.716780 0.744333 0.628851
O O14 0.000000 0.500000 0.500000
O O15 0.000000 0.728927 0.000000
O O16 0.500000 0.500000 0.500000
#
# Coordination Sequence:
#
# PCOD9190112 Si02
#       8
#     4   8   8   8   8   4   8   4
#     4  10  19  40  58  84 123 160 198 258 299 348
#     4  11  20  40  64  89 120 163 198 244 305 370
#     4   9  19  34  64  87 112 161 199 239 306 362
#     4  10  19  40  64  86 125 157 201 254 302 348
#     4   9  20  36  60  91 120 161 200 246 304 361
#     4  10  20  38  63  83 118 164 202 250 304 350
#     4   9  18  36  58  88 125 154 196 252 300 357
#     4  12  25  40  60  90 126 160 201 255 300 366
#
# _framework density 26.022161000000001
#
# number of rings (size 3 to 8) (size 9 to 14) (size 15 to 20)
#    0.000    2.154    3.077    1.846    0.000    2.462 
#    2.769    1.923    0.000    3.692    0.000    0.000 
#    0.000    0.000    0.000    0.000    0.000    0.000 
#
# Total GULP energy -145211.964608 kJ/mol
# GULP energy per Si atom -5585.075562 kJ/mol
# Density = 2.596293 g / cm^3
# Si number density = 26.022161 Si / 1000 Ang^3
#
#
#
# Elastic Constant Matrix: (Units=GPa)
#
#
# Indices 1 2 3 4 5 6 
#
# 1 214.8926 46.3803 44.5852 0.0000 41.6442 0.0000
# 2 46.3803 191.0788 22.2359 0.0000 15.8584 0.0000
# 3 44.5852 22.2359 81.4317 0.0000 30.8279 0.0000
# 4 0.0000 0.0000 0.0000 -70.2135 0.0000 -6.1933
# 5 41.6442 15.8584 30.8279 0.0000 47.1913 0.0000
# 6 0.0000 0.0000 0.0000 -6.1933 0.0000 44.4410
#
#
#
# Elastic Compliance Matrix: (Units=1/GPa)
#
#
# Indices 1 2 3 4 5 6 
#
# 1 0.005930 -0.000938 -0.001500 0.000000 -0.003938 0.000000
# 2 -0.000938 0.005600 -0.000819 0.000000 -0.000519 0.000000
# 3 -0.001500 -0.000819 0.016899 0.000000 -0.009441 0.000000
# 4 0.000000 0.000000 0.000000 -0.014069 0.000000 -0.001961
# 5 -0.003938 -0.000519 -0.009441 0.000000 0.031007 0.000000
# 6 0.000000 0.000000 0.000000 -0.001961 0.000000 0.022228
#
#
# Mechanical properties :
#
#
# Convention : Reuss Voigt Hill
#
# Bulk Modulus (GPa) = 45.63081 79.31175 62.47128
# Shear Modulus (GPa) = 61.41445 29.23054 45.32249
#
# Velocity S-wave (km/s) = 4.86334 3.35519 4.17788
# Velocity P-wave (km/s) = 7.00782 6.74941 6.87983
#
# Compressibility (1/GPa) = 0.02191502
#
# Stress axis : x y z
#
# Youngs Moduli (GPa) = 168.62449 178.58709 59.17493
#
# Poissons Ratio (x) = 0.16753 0.08876
# Poissons Ratio (y) = 0.15818 0.04846
# Poissons Ratio (z) = 0.25292 0.14626
#
# Static dielectric constant tensor:
#      x y z
#    x 2.001640 0.000000 -0.013170 
#    y 0.000000 2.190090 0.000000 
#    z -0.013170 0.000000 2.107170 
# 
# From -- ./inp_files/106883.got.cif
#   From: 2010.05.17/outbox.cif.g08.bks.cpg/sg12_54_cif.got.tgz:106883.got - 2010.06.03 13:09:07.
