data_PCOD9190474
_publ_section_title
;
Structure prediction by ZEFSAII (Michael W. Deem and Ramdas Pophale) SiO2 
 PCOD9190474
Probable space group: C 2/M
;
_chemical_formula_sum "Si O2"
_cell_formula_units_Z 40
_cell_length_a 13.062828
_cell_length_b 13.597117
_cell_length_c 11.605351
_cell_angle_alpha 90.000000
_cell_angle_beta 65.339987
_cell_angle_gamma 90.000000
_cell_volume 1873.313421
_symmetry_space_group_name_H-M "C 2/M"
_symmetry_group_IT_number 12
_symmetry_cell_setting 'monoclinic'
loop_
_space_group_symop_operation_xyz
x,y,z
-x,y,-z
-x,-y,-z
x,-y,z
1/2+x,1/2+y,z
1/2-x,1/2+y,-z
1/2-x,1/2-y,-z
1/2+x,1/2-y,z
loop_
_atom_site_type_symbol
_atom_site_label
_atom_site_fract_x
_atom_site_fract_y
_atom_site_fract_z
Si Si1 0.627842 0.613537 0.895674
Si Si2 0.714666 0.618049 0.435630
Si Si3 0.023494 0.884759 0.700741
Si Si4 0.132380 0.609313 0.427152
Si Si5 0.802813 0.763594 0.784798
O O1 0.665522 0.500000 0.905821
O O2 0.610940 0.623578 0.765274
O O3 0.703237 0.707111 0.900414
O O4 0.500000 0.620602 0.000000
O O5 0.717765 0.500000 0.421405
O O6 0.593160 0.641519 0.551970
O O7 0.808274 0.648251 0.485446
O O8 0.737503 0.666336 0.301573
O O9 0.911698 0.821976 0.780408
O O10 0.991290 0.000000 0.706798
O O11 0.178502 0.500000 0.391038
O O12 0.150575 0.670296 0.305194
O O13 0.000000 0.604502 0.500000
#
# Coordination Sequence:
#
# PCOD9190474 Si02
#       5
#     8   8   8   8   8
#     4  10  23  43  62  80 109 151 196 239 281 330
#     4  10  20  35  54  84 122 155 184 221 282 350
#     4  10  21  38  59  85 117 151 188 230 280 341
#     4  10  20  31  48  80 120 152 182 224 276 337
#     4  12  21  32  60  85 112 144 191 233 281 331
#
# _framework density 21.352540000000001
#
# number of rings (size 3 to 8) (size 9 to 14) (size 15 to 20)
#    0.000    1.600    2.000    3.600    2.800    2.400 
#    0.000    0.000    0.000    2.400    0.000    0.000 
#    0.000    0.000    0.000    0.000    0.000    0.000 
#
# Total GULP energy -111548.619230 kJ/mol
# GULP energy per Si atom -5577.430962 kJ/mol
# Density = 2.130394 g / cm^3
# Si number density = 21.352540 Si / 1000 Ang^3
#
#
#
# Elastic Constant Matrix: (Units=GPa)
#
#
# Indices 1 2 3 4 5 6 
#
# 1 114.4140 43.2603 17.1554 0.0000 -12.5222 0.0000
# 2 43.2603 127.6673 17.4075 0.0000 -17.8214 0.0000
# 3 17.1554 17.4075 33.6076 0.0000 -15.7345 0.0000
# 4 0.0000 0.0000 0.0000 21.6442 0.0000 -14.6452
# 5 -12.5222 -17.8214 -15.7345 0.0000 30.7596 0.0000
# 6 0.0000 0.0000 0.0000 -14.6452 0.0000 41.6389
#
#
#
# Elastic Compliance Matrix: (Units=1/GPa)
#
#
# Indices 1 2 3 4 5 6 
#
# 1 0.010463 -0.002968 -0.003438 0.000000 0.000782 0.000000
# 2 -0.002968 0.009564 -0.001854 0.000000 0.003384 0.000000
# 3 -0.003438 -0.001854 0.041173 0.000000 0.018587 0.000000
# 4 0.000000 0.000000 0.000000 0.060631 0.000000 0.021325
# 5 0.000782 0.003384 0.018587 0.000000 0.044297 0.000000
# 6 0.000000 0.000000 0.000000 0.021325 0.000000 0.031516
#
#
# Mechanical properties :
#
#
# Convention : Reuss Voigt Hill
#
# Bulk Modulus (GPa) = 22.38149 47.92615 35.15382
# Shear Modulus (GPa) = 21.82857 31.99960 26.91409
#
# Velocity S-wave (km/s) = 3.20080 3.87542 3.55415
# Velocity P-wave (km/s) = 4.91577 6.52066 5.77425
#
# Compressibility (1/GPa) = 0.04467979
#
# Stress axis : x y z
#
# Youngs Moduli (GPa) = 95.57210 104.56197 24.28786
#
# Poissons Ratio (x) = 0.31030 0.08350
# Poissons Ratio (y) = 0.28362 0.04504
# Poissons Ratio (z) = 0.32859 0.19389
#
# Static dielectric constant tensor:
#      x y z
#    x 1.847040 0.000000 -0.042620 
#    y 0.000000 1.816730 0.000000 
#    z -0.042620 0.000000 1.854750 
# 
# From -- ./inp_files/141849.got.cif
#   From: 2010.05.17/outbox.cif.g08.bks.cpg/sg12_71_cif.got.tgz:141849.got - 2010.06.03 13:09:07.
