data_PCOD9190196
_publ_section_title
;
Structure prediction by ZEFSAII (Michael W. Deem and Ramdas Pophale) SiO2 
 PCOD9190196
Probable space group: C 2/M
;
_chemical_formula_sum "Si O2"
_cell_formula_units_Z 44
_cell_length_a 26.652555
_cell_length_b 13.613482
_cell_length_c 11.666473
_cell_angle_alpha 90.000000
_cell_angle_beta 35.207495
_cell_angle_gamma 90.000000
_cell_volume 2440.486975
_symmetry_space_group_name_H-M "C 2/M"
_symmetry_group_IT_number 12
_symmetry_cell_setting 'monoclinic'
loop_
_space_group_symop_operation_xyz
x,y,z
-x,y,-z
-x,-y,-z
x,-y,z
1/2+x,1/2+y,z
1/2-x,1/2+y,-z
1/2-x,1/2-y,-z
1/2+x,1/2-y,z
loop_
_atom_site_type_symbol
_atom_site_label
_atom_site_fract_x
_atom_site_fract_y
_atom_site_fract_z
Si Si1 0.663109 0.799098 0.804797
Si Si2 0.983522 0.282730 0.747571
Si Si3 0.299440 0.000000 0.139364
Si Si4 0.965101 0.500000 0.695745
Si Si5 0.095422 0.000000 0.463694
Si Si6 0.000000 0.162777 0.500000
Si Si7 0.859434 0.782203 0.391675
Si Si8 0.574618 0.500000 0.761716
O O1 0.676166 0.907717 0.828495
O O2 0.761684 0.759661 0.615679
O O3 0.625411 0.784425 0.748400
O O4 0.593702 0.754915 0.021573
O O5 0.071490 0.241873 0.639508
O O6 0.993544 0.399238 0.705412
O O7 0.961139 0.232395 0.669381
O O8 0.197678 0.000000 0.299951
O O9 0.360170 0.000000 0.912565
O O10 0.000000 0.500000 0.500000
O O11 0.067517 0.092933 0.440025
O O12 0.046393 0.000000 0.679123
O O13 0.871810 0.896990 0.330789
O O14 0.500000 0.500000 0.000000
#
# Coordination Sequence:
#
# PCOD9190196 Si02
#       8
#     8   8   4   4   4   4   8   4
#     4  10  21  37  62  86 113 153 191 233 301 347
#     4  11  21  39  59  85 116 153 195 239 281 343
#     4  10  19  41  60  80 119 148 192 241 282 349
#     4  10  22  38  57  81 112 156 193 231 278 331
#     4  11  22  40  60  90 112 157 192 237 301 343
#     4  11  22  37  62  84 120 149 198 235 284 358
#     4  11  22  38  59  88 119 149 191 244 293 346
#     4  12  21  35  61  85 115 150 189 247 300 336
#
# _framework density 18.029188999999999
#
# number of rings (size 3 to 8) (size 9 to 14) (size 15 to 20)
#    0.000    1.273    4.545    1.636    0.000    0.727 
#    3.273    6.364    0.000    0.000    0.000    0.000 
#    0.000    0.000    0.000    0.000    0.000    0.000 
#
# Total GULP energy -122584.895790 kJ/mol
# GULP energy per Si atom -5572.040718 kJ/mol
# Density = 1.798815 g / cm^3
# Si number density = 18.029189 Si / 1000 Ang^3
#
#
#
# Elastic Constant Matrix: (Units=GPa)
#
#
# Indices 1 2 3 4 5 6 
#
# 1 95.1563 26.9654 36.9375 0.0000 15.6982 0.0000
# 2 26.9654 61.5197 1.9390 0.0000 1.8596 0.0000
# 3 36.9375 1.9390 86.4904 0.0000 26.4713 0.0000
# 4 0.0000 0.0000 0.0000 -4.1128 0.0000 24.1919
# 5 15.6982 1.8596 26.4713 0.0000 31.1087 0.0000
# 6 0.0000 0.0000 0.0000 24.1919 0.0000 8.5259
#
#
#
# Elastic Compliance Matrix: (Units=1/GPa)
#
#
# Indices 1 2 3 4 5 6 
#
# 1 0.014788 -0.006236 -0.005417 0.000000 -0.002480 0.000000
# 2 -0.006236 0.018915 0.002193 0.000000 0.000150 0.000000
# 3 -0.005417 0.002193 0.017618 0.000000 -0.012389 0.000000
# 4 0.000000 0.000000 0.000000 -0.013745 0.000000 0.038999
# 5 -0.002480 0.000150 -0.012389 0.000000 0.043931 0.000000
# 6 0.000000 0.000000 0.000000 0.038999 0.000000 0.006630
#
#
# Mechanical properties :
#
#
# Convention : Reuss Voigt Hill
#
# Bulk Modulus (GPa) = 30.86223 41.65004 36.25613
# Shear Modulus (GPa) = 42.42444 18.92598 30.67521
#
# Velocity S-wave (km/s) = 4.85614 3.24349 4.12930
# Velocity P-wave (km/s) = 6.97121 6.09742 6.54891
#
# Compressibility (1/GPa) = 0.03240207
#
# Stress axis : x y z
#
# Youngs Moduli (GPa) = 67.62218 52.86878 56.76021
#
# Poissons Ratio (x) = 0.32970 0.30744
# Poissons Ratio (y) = 0.42171 -0.12450
# Poissons Ratio (z) = 0.36628 -0.11596
#
# Static dielectric constant tensor:
#      x y z
#    x 1.588440 0.000000 0.017590 
#    y 0.000000 1.649650 0.000000 
#    z 0.017590 0.000000 1.647420 
# 
# From -- ./inp_files/183423.got.cif
#   From: 2010.05.17/outbox.cif.g08.bks.cpg/sg12_92_cif.got.tgz:183423.got - 2010.06.03 13:09:07.
