data_PCOD9190239
_publ_section_title
;
Structure prediction by ZEFSAII (Michael W. Deem and Ramdas Pophale) SiO2 
 PCOD9190239
Probable space group: C 2/M
;
_chemical_formula_sum "Si O2"
_cell_formula_units_Z 42
_cell_length_a 19.319636
_cell_length_b 10.007554
_cell_length_c 11.583156
_cell_angle_alpha 90.000000
_cell_angle_beta 68.563787
_cell_angle_gamma 90.000000
_cell_volume 2084.595678
_symmetry_space_group_name_H-M "C 2/M"
_symmetry_group_IT_number 12
_symmetry_cell_setting 'monoclinic'
loop_
_space_group_symop_operation_xyz
x,y,z
-x,y,-z
-x,-y,-z
x,-y,z
1/2+x,1/2+y,z
1/2-x,1/2+y,-z
1/2-x,1/2-y,-z
1/2+x,1/2-y,z
loop_
_atom_site_type_symbol
_atom_site_label
_atom_site_fract_x
_atom_site_fract_y
_atom_site_fract_z
Si Si1 0.635998 0.293639 0.383229
Si Si2 0.307573 0.650305 0.906273
Si Si3 0.432234 0.222659 0.952715
Si Si4 0.619087 0.000000 0.491167
Si Si5 0.000000 0.000000 0.500000
Si Si6 0.005125 0.500000 0.761153
Si Si7 0.141744 0.500000 0.855994
Si Si8 0.243077 0.000000 0.414700
O O1 0.673682 0.306744 0.235150
O O2 0.561946 0.382898 0.430574
O O3 0.690635 0.368645 0.442368
O O4 0.622230 0.139009 0.420441
O O5 0.278335 0.500000 0.927294
O O6 0.385129 0.657881 0.929593
O O7 0.250000 0.750000 0.000000
O O8 0.460377 0.131520 0.828100
O O9 0.500000 0.252485 0.000000
O O10 0.374647 0.129669 0.058012
O O11 0.543602 0.000000 0.613954
O O12 0.693517 0.000000 0.526748
O O13 0.073844 0.500000 0.807296
O O14 0.213188 0.500000 0.733322
#
# Coordination Sequence:
#
# PCOD9190239 Si02
#       8
#     8   8   8   4   2   4   4   4
#     4  11  25  43  66  93 135 177 216 272 332 399
#     4  12  27  44  67  94 130 176 214 273 341 394
#     4   9  19  37  64  95 126 162 214 263 321 387
#     4  11  24  37  67 103 124 163 233 271 311 394
#     4  10  24  48  64  84 138 184 210 252 352 386
#     4   8  18  33  61  95 124 164 199 265 318 372
#     4   8  15  34  62  91 123 161 204 255 327 380
#     4  10  19  43  65  88 131 176 211 267 337 388
#
# _framework density 20.147791999999999
#
# number of rings (size 3 to 8) (size 9 to 14) (size 15 to 20)
#    0.000    1.905    1.905    2.857    6.667    0.762 
#    0.000    0.000    0.000    0.000    0.000    0.000 
#    0.000    0.000    0.000    0.000    0.000    0.000 
#
# Total GULP energy -116950.166026 kJ/mol
# GULP energy per Si atom -5569.055525 kJ/mol
# Density = 2.010193 g / cm^3
# Si number density = 20.147792 Si / 1000 Ang^3
#
#
#
# Elastic Constant Matrix: (Units=GPa)
#
#
# Indices 1 2 3 4 5 6 
#
# 1 76.4186 45.6421 40.0119 0.0000 -6.2354 0.0000
# 2 45.6421 185.1872 77.3771 0.0000 -10.7864 0.0000
# 3 40.0119 77.3771 109.1336 0.0000 -20.8206 0.0000
# 4 0.0000 0.0000 0.0000 12.1303 0.0000 -1.2178
# 5 -6.2354 -10.7864 -20.8206 0.0000 36.1176 0.0000
# 6 0.0000 0.0000 0.0000 -1.2178 0.0000 37.7374
#
#
#
# Elastic Compliance Matrix: (Units=1/GPa)
#
#
# Indices 1 2 3 4 5 6 
#
# 1 0.016825 -0.002216 -0.004685 0.000000 -0.000458 0.000000
# 2 -0.002216 0.007994 -0.005026 0.000000 -0.000892 0.000000
# 3 -0.004685 -0.005026 0.015734 0.000000 0.006760 0.000000
# 4 0.000000 0.000000 0.000000 0.082706 0.000000 0.002669
# 5 -0.000458 -0.000892 0.006760 0.000000 0.031239 0.000000
# 6 0.000000 0.000000 0.000000 0.002669 0.000000 0.026585
#
#
# Mechanical properties :
#
#
# Convention : Reuss Voigt Hill
#
# Bulk Modulus (GPa) = 59.88083 77.42242 68.65163
# Shear Modulus (GPa) = 23.75277 31.04426 27.39851
#
# Velocity S-wave (km/s) = 3.43728 3.92960 3.69165
# Velocity P-wave (km/s) = 6.74822 7.68763 7.23319
#
# Compressibility (1/GPa) = 0.01669983
#
# Stress axis : x y z
#
# Youngs Moduli (GPa) = 59.43585 125.09381 63.55819
#
# Poissons Ratio (x) = 0.27721 0.29775
# Poissons Ratio (y) = 0.13171 0.31942
# Poissons Ratio (z) = 0.27844 0.62868
#
# Static dielectric constant tensor:
#      x y z
#    x 1.758130 0.000000 0.020730 
#    y 0.000000 1.692340 0.000000 
#    z 0.020730 0.000000 1.684590 
# 
# From -- ./inp_files/163074.got.cif
#   From: 2010.05.17/outbox.cif.g08.bks.cpg/sg12_82_cif.got.tgz:163074.got - 2010.06.03 13:09:07.
