data_PCOD9190254
_publ_section_title
;
Structure prediction by ZEFSAII (Michael W. Deem and Ramdas Pophale) SiO2 
 PCOD9190254
Probable space group: C 2/M
;
_chemical_formula_sum "Si O2"
_cell_formula_units_Z 36
_cell_length_a 11.821045
_cell_length_b 16.563140
_cell_length_c 7.683033
_cell_angle_alpha 90.000000
_cell_angle_beta 93.457904
_cell_angle_gamma 90.000000
_cell_volume 1501.550134
_symmetry_space_group_name_H-M "C 2/M"
_symmetry_group_IT_number 12
_symmetry_cell_setting 'monoclinic'
loop_
_space_group_symop_operation_xyz
x,y,z
-x,y,-z
-x,-y,-z
x,-y,z
1/2+x,1/2+y,z
1/2-x,1/2+y,-z
1/2-x,1/2-y,-z
1/2+x,1/2-y,z
loop_
_atom_site_type_symbol
_atom_site_label
_atom_site_fract_x
_atom_site_fract_y
_atom_site_fract_z
Si Si1 0.621655 0.910506 0.454800
Si Si2 0.707539 0.139969 0.816224
Si Si3 0.500000 0.171831 0.000000
Si Si4 0.833219 0.181976 0.348133
Si Si5 0.432595 0.683688 0.748491
O O1 0.500000 0.872212 0.500000
O O2 0.682632 0.913370 0.646794
O O3 0.716950 0.867433 0.347471
O O4 0.596779 0.000000 0.383335
O O5 0.688745 0.233930 0.753861
O O6 0.841557 0.137648 0.860364
O O7 0.610144 0.123871 0.946610
O O8 0.541219 0.231515 0.156694
O O9 0.874645 0.196181 0.552532
O O10 0.945133 0.143602 0.271938
#
# Coordination Sequence:
#
# PCOD9190254 Si02
#       5
#     8   8   4   8   8
#     4  10  21  35  54  81 107 139 177 217 264 317
#     4  10  20  33  54  80 109 140 175 222 261 310
#     4  10  20  28  51  82 113 138 172 218 264 314
#     4   9  19  32  57  77 106 135 175 226 265 304
#     4   9  17  32  47  82 103 133 172 214 272 302
#
# _framework density 23.975223
#
# number of rings (size 3 to 8) (size 9 to 14) (size 15 to 20)
#    0.000    2.444    0.000    3.333   12.444    0.000 
#    0.000    9.444    0.000    0.000    0.000   24.889 
#    0.000    0.000    0.000    0.000    0.000    0.000 
#
# Total GULP energy -100398.379343 kJ/mol
# GULP energy per Si atom -5577.687741 kJ/mol
# Density = 2.392065 g / cm^3
# Si number density = 23.975223 Si / 1000 Ang^3
#
#
#
# Elastic Constant Matrix: (Units=GPa)
#
#
# Indices 1 2 3 4 5 6 
#
# 1 250.8900 36.5488 37.1471 0.0000 -57.2488 0.0000
# 2 36.5488 38.9516 -1.3582 0.0000 -10.1379 0.0000
# 3 37.1471 -1.3582 70.3135 0.0000 -3.5559 0.0000
# 4 0.0000 0.0000 0.0000 3.0980 0.0000 -1.1737
# 5 -57.2488 -10.1379 -3.5559 0.0000 53.4704 0.0000
# 6 0.0000 0.0000 0.0000 -1.1737 0.0000 7.5560
#
#
#
# Elastic Compliance Matrix: (Units=1/GPa)
#
#
# Indices 1 2 3 4 5 6 
#
# 1 0.006472 -0.004667 -0.003215 0.000000 0.005831 0.000000
# 2 -0.004667 0.030415 0.003103 0.000000 0.000976 0.000000
# 3 -0.003215 0.003103 0.015889 0.000000 -0.001797 0.000000
# 4 0.000000 0.000000 0.000000 0.342980 0.000000 0.053278
# 5 0.005831 0.000976 -0.001797 0.000000 0.025010 0.000000
# 6 0.000000 0.000000 0.000000 0.053278 0.000000 0.140622
#
#
# Mechanical properties :
#
#
# Convention : Reuss Voigt Hill
#
# Bulk Modulus (GPa) = 23.13881 56.09227 39.61554
# Shear Modulus (GPa) = 8.54186 32.01269 20.27727
#
# Velocity S-wave (km/s) = 1.88958 3.65806 2.91135
# Velocity P-wave (km/s) = 3.79905 6.42562 5.27832
#
# Compressibility (1/GPa) = 0.04321744
#
# Stress axis : x y z
#
# Youngs Moduli (GPa) = 154.50674 32.87901 62.93507
#
# Poissons Ratio (x) = 0.15346 0.20231
# Poissons Ratio (y) = 0.72116 -0.19527
# Poissons Ratio (z) = 0.49668 -0.10201
#
# Static dielectric constant tensor:
#      x y z
#    x 2.011190 0.000000 -0.030590 
#    y 0.000000 1.916040 0.000000 
#    z -0.030590 0.000000 1.998950 
# 
# From -- ./inp_files/47971.got.cif
#   From: 2010.05.17/outbox.cif.g08.bks.cpg/sg12_24_cif.got.tgz:47971.got - 2010.06.03 13:09:07.
