data_PCOD9190838
_publ_section_title
;
Structure prediction by ZEFSAII (Michael W. Deem and Ramdas Pophale) SiO2 
 PCOD9190838
Probable space group: C 2/M
;
_chemical_formula_sum "Si O2"
_cell_formula_units_Z 56
_cell_length_a 29.224690
_cell_length_b 8.946915
_cell_length_c 19.281892
_cell_angle_alpha 90.000000
_cell_angle_beta 39.936178
_cell_angle_gamma 90.000000
_cell_volume 3236.407426
_symmetry_space_group_name_H-M "C 2/M"
_symmetry_group_IT_number 12
_symmetry_cell_setting 'monoclinic'
loop_
_space_group_symop_operation_xyz
x,y,z
-x,y,-z
-x,-y,-z
x,-y,z
1/2+x,1/2+y,z
1/2-x,1/2+y,-z
1/2-x,1/2-y,-z
1/2+x,1/2-y,z
loop_
_atom_site_type_symbol
_atom_site_label
_atom_site_fract_x
_atom_site_fract_y
_atom_site_fract_z
Si Si1 0.291942 0.322756 0.163616
Si Si2 0.159591 0.177281 0.374347
Si Si3 0.442202 0.822606 0.009141
Si Si4 0.464682 0.175788 0.823051
Si Si5 0.797325 0.320294 0.006431
Si Si6 0.067206 0.332534 0.370029
Si Si7 0.969763 0.177243 0.375501
O O1 0.288152 0.500000 0.160244
O O2 0.233376 0.264508 0.285965
O O3 0.369736 0.270200 0.097514
O O4 0.278344 0.246307 0.104143
O O5 0.121105 0.226122 0.347575
O O6 0.104327 0.218194 0.500119
O O7 0.170853 0.000000 0.362849
O O8 0.425011 0.000000 0.035263
O O9 0.500000 0.784464 0.000000
O O10 0.471503 0.800460 0.897294
O O11 0.520221 0.271551 0.714574
O O12 0.475324 0.000000 0.795814
O O13 0.382150 0.212104 0.899714
O O14 0.788796 0.500000 0.017342
O O15 0.750000 0.250000 0.000000
O O16 0.096135 0.500000 0.324690
O O17 0.000000 0.344729 0.500000
O O18 0.033957 0.260433 0.340710
O O19 0.977884 0.000000 0.374042
#
# Coordination Sequence:
#
# PCOD9190838 Si02
#       7
#     8   8   8   8   8   8   8
#     4  11  22  35  54  81 109 138 176 221 270 320
#     4  10  20  34  50  71 103 143 185 223 260 310
#     4   9  19  39  64  85 106 134 170 216 271 329
#     4   9  19  34  53  78 106 136 174 215 263 320
#     4  10  21  36  52  73 105 145 183 221 266 316
#     4   9  17  29  45  66  95 135 181 222 257 298
#     4  10  20  32  49  73 104 143 182 220 262 308
#
# _framework density 17.303135999999999
#
# number of rings (size 3 to 8) (size 9 to 14) (size 15 to 20)
#    0.000    2.286    0.000    3.857    2.000    6.571 
#    0.000    0.000    0.000    0.857    0.000    0.000 
#    0.000    0.000    0.000    0.000    0.000    0.000 
#
# Total GULP energy -156207.245024 kJ/mol
# GULP energy per Si atom -5578.830179 kJ/mol
# Density = 1.726375 g / cm^3
# Si number density = 17.303136 Si / 1000 Ang^3
#
#
#
# Elastic Constant Matrix: (Units=GPa)
#
#
# Indices 1 2 3 4 5 6 
#
# 1 94.7418 42.3722 40.2071 -0.0049 3.3989 0.0058
# 2 42.3722 76.7108 54.5588 -0.0037 -0.7435 0.0060
# 3 40.2071 54.5588 103.7902 -0.0009 -1.5974 0.0035
# 4 -0.0049 -0.0037 -0.0009 21.2779 0.0010 0.6325
# 5 3.3989 -0.7435 -1.5974 0.0010 10.8369 -0.0042
# 6 0.0058 0.0060 0.0035 0.6325 -0.0042 22.3936
#
#
#
# Elastic Compliance Matrix: (Units=1/GPa)
#
#
# Indices 1 2 3 4 5 6 
#
# 1 0.014638 -0.006461 -0.002357 0.000002 -0.005382 -0.000003
# 2 -0.006461 0.023672 -0.009907 0.000002 0.002190 -0.000003
# 3 -0.002357 -0.009907 0.015792 -0.000002 0.002387 0.000001
# 4 0.000002 0.000002 -0.000002 0.047037 -0.000006 -0.001329
# 5 -0.005382 0.002190 0.002387 -0.000006 0.094467 0.000018
# 6 -0.000003 -0.000003 0.000001 -0.001329 0.000018 0.044693
#
#
# Mechanical properties :
#
#
# Convention : Reuss Voigt Hill
#
# Bulk Modulus (GPa) = 60.05190 61.05766 60.55478
# Shear Modulus (GPa) = 17.64905 20.10865 18.87885
#
# Velocity S-wave (km/s) = 3.19720 3.41271 3.30671
# Velocity P-wave (km/s) = 6.95777 7.13390 7.04638
#
# Compressibility (1/GPa) = 0.01665226
#
# Stress axis : x y z
#
# Youngs Moduli (GPa) = 68.31486 42.24343 63.32185
#
# Poissons Ratio (x) = 0.27295 0.14925
# Poissons Ratio (y) = 0.44141 0.62733
# Poissons Ratio (z) = 0.16101 0.41850
#
# Static dielectric constant tensor:
#      x y z
#    x 1.570200 0.000000 -0.000600 
#    y 0.000000 1.583490 0.000000 
#    z -0.000600 0.000000 1.617830 
# 
# From -- ./inp_files/288248.got.cif
#   From: 2010.05.17/outbox.cif.g08.bks.cpg/sg12_145_cif.got.tgz:288248.got - 2010.06.03 13:09:07.
