data_PCOD9190127
_publ_section_title
;
Structure prediction by ZEFSAII (Michael W. Deem and Ramdas Pophale) SiO2 
 PCOD9190127
Probable space group: C 2/M
;
_chemical_formula_sum "Si O2"
_cell_formula_units_Z 52
_cell_length_a 23.351466
_cell_length_b 13.033107
_cell_length_c 11.497802
_cell_angle_alpha 90.000000
_cell_angle_beta 48.098954
_cell_angle_gamma 90.000000
_cell_volume 2604.501303
_symmetry_space_group_name_H-M "C 2/M"
_symmetry_group_IT_number 12
_symmetry_cell_setting 'monoclinic'
loop_
_space_group_symop_operation_xyz
x,y,z
-x,y,-z
-x,-y,-z
x,-y,z
1/2+x,1/2+y,z
1/2-x,1/2+y,-z
1/2-x,1/2-y,-z
1/2+x,1/2-y,z
loop_
_atom_site_type_symbol
_atom_site_label
_atom_site_fract_x
_atom_site_fract_y
_atom_site_fract_z
Si Si1 0.381653 0.220769 0.837801
Si Si2 0.500000 0.701113 0.500000
Si Si3 0.404314 0.381925 0.421802
Si Si4 0.740169 0.766864 0.342825
Si Si5 0.012450 0.722741 0.846104
Si Si6 0.738394 0.380483 0.930480
Si Si7 0.165115 0.383406 0.649056
O O1 0.437757 0.229171 0.651137
O O2 0.435421 0.203377 0.876499
O O3 0.313101 0.140613 0.909151
O O4 0.336571 0.328846 0.911053
O O5 0.540740 0.632661 0.541807
O O6 0.386371 0.500000 0.423912
O O7 0.329181 0.314747 0.552691
O O8 0.448989 0.327083 0.255426
O O9 0.747896 0.818128 0.207591
O O10 0.813795 0.701084 0.282342
O O11 0.719890 0.853028 0.466511
O O12 0.076981 0.636428 0.733039
O O13 0.000000 0.726969 0.000000
O O14 0.728224 0.500000 0.922787
O O15 0.177045 0.500000 0.669616
#
# Coordination Sequence:
#
# PCOD9190127 Si02
#       7
#     8   4   8   8   8   8   8
#     4  10  23  42  63  93 130 161 210 262 311 370
#     4  10  19  40  61  88 130 160 201 266 301 378
#     4  10  20  34  60  90 121 165 207 252 313 367
#     4  10  20  39  59  89 129 157 207 265 303 371
#     4  10  22  40  59  86 126 164 207 263 305 369
#     4  11  23  42  66  93 125 166 207 257 320 376
#     4  10  21  37  61  89 121 168 212 252 312 370
#
# _framework density 19.965433999999998
#
# number of rings (size 3 to 8) (size 9 to 14) (size 15 to 20)
#    0.000    1.846    1.538    2.077    0.000    4.308 
#    0.000    9.615    0.000    0.000    0.000    0.000 
#    0.000    0.000    0.000    0.000    0.000    0.000 
#
# Total GULP energy -145222.806282 kJ/mol
# GULP energy per Si atom -5585.492549 kJ/mol
# Density = 1.991999 g / cm^3
# Si number density = 19.965434 Si / 1000 Ang^3
#
#
#
# Elastic Constant Matrix: (Units=GPa)
#
#
# Indices 1 2 3 4 5 6 
#
# 1 110.9127 25.8564 32.2696 0.0000 -12.3712 0.0000
# 2 25.8564 77.4511 13.5875 0.0000 3.5031 0.0000
# 3 32.2696 13.5875 92.0921 0.0000 2.4028 0.0000
# 4 0.0000 0.0000 0.0000 9.7365 0.0000 4.7261
# 5 -12.3712 3.5031 2.4028 0.0000 31.5686 0.0000
# 6 0.0000 0.0000 0.0000 4.7261 0.0000 11.7299
#
#
#
# Elastic Compliance Matrix: (Units=1/GPa)
#
#
# Indices 1 2 3 4 5 6 
#
# 1 0.011445 -0.003415 -0.003641 0.000000 0.005141 0.000000
# 2 -0.003415 0.014329 -0.000843 0.000000 -0.002864 0.000000
# 3 -0.003641 -0.000843 0.012318 0.000000 -0.002271 0.000000
# 4 0.000000 0.000000 0.000000 0.127676 0.000000 -0.051442
# 5 0.005141 -0.002864 -0.002271 0.000000 0.034182 0.000000
# 6 0.000000 0.000000 0.000000 -0.051442 0.000000 0.105979
#
#
# Mechanical properties :
#
#
# Convention : Reuss Voigt Hill
#
# Bulk Modulus (GPa) = 44.85255 47.09808 45.97532
# Shear Modulus (GPa) = 15.19031 24.52316 19.85674
#
# Velocity S-wave (km/s) = 2.76131 3.50849 3.15708
# Velocity P-wave (km/s) = 5.71667 6.32880 6.03050
#
# Compressibility (1/GPa) = 0.02229527
#
# Stress axis : x y z
#
# Youngs Moduli (GPa) = 87.37602 69.78995 81.18192
#
# Poissons Ratio (x) = 0.23830 0.29556
# Poissons Ratio (y) = 0.29835 0.06843
# Poissons Ratio (z) = 0.31811 0.05882
#
# Static dielectric constant tensor:
#      x y z
#    x 1.753310 0.000000 -0.015890 
#    y 0.000000 1.664160 0.000000 
#    z -0.015890 0.000000 1.707250 
# 
# From -- ./inp_files/175186.got.cif
#   From: 2010.05.17/outbox.cif.g08.bks.cpg/sg12_88_cif.got.tgz:175186.got - 2010.06.03 13:09:07.
