data_PCOD9190813
_publ_section_title
;
Structure prediction by ZEFSAII (Michael W. Deem and Ramdas Pophale) SiO2 
 PCOD9190813
Probable space group: C 2/M
;
_chemical_formula_sum "Si O2"
_cell_formula_units_Z 56
_cell_length_a 32.642739
_cell_length_b 8.710462
_cell_length_c 13.148610
_cell_angle_alpha 90.000000
_cell_angle_beta 55.586763
_cell_angle_gamma 90.000000
_cell_volume 3084.271503
_symmetry_space_group_name_H-M "C 2/M"
_symmetry_group_IT_number 12
_symmetry_cell_setting 'monoclinic'
loop_
_space_group_symop_operation_xyz
x,y,z
-x,y,-z
-x,-y,-z
x,-y,z
1/2+x,1/2+y,z
1/2-x,1/2+y,-z
1/2-x,1/2-y,-z
1/2+x,1/2-y,z
loop_
_atom_site_type_symbol
_atom_site_label
_atom_site_fract_x
_atom_site_fract_y
_atom_site_fract_z
Si Si1 0.117091 0.815505 0.023792
Si Si2 0.355603 0.816160 0.449738
Si Si3 0.432873 0.685491 0.501330
Si Si4 0.243953 0.183800 0.325586
Si Si5 0.356808 0.815540 0.222142
Si Si6 0.230219 0.815907 0.922421
Si Si7 0.546047 0.686816 0.301967
O O1 0.076233 0.759157 0.161515
O O2 0.114330 0.000000 0.023052
O O3 0.113637 0.752001 0.914635
O O4 0.172071 0.775732 0.988216
O O5 0.391456 0.753975 0.486816
O O6 0.300234 0.756015 0.548096
O O7 0.372484 0.766391 0.312983
O O8 0.355016 0.000000 0.452772
O O9 0.429717 0.500000 0.502496
O O10 0.488206 0.730733 0.386755
O O11 0.429494 0.732887 0.624624
O O12 0.298734 0.228034 0.288625
O O13 0.241301 0.244034 0.213640
O O14 0.240062 0.000000 0.332769
O O15 0.359354 0.000000 0.212800
O O16 0.234794 0.000000 0.914113
O O17 0.250000 0.750000 0.000000
O O18 0.546978 0.500000 0.299845
#
# Coordination Sequence:
#
# PCOD9190813 Si02
#       7
#     8   8   8   8   8   8   8
#     4   9  18  33  55  77 101 136 177 218 260 307
#     4  11  22  35  52  78 110 137 172 221 268 314
#     4   9  18  34  57  80 104 136 174 215 264 317
#     4  10  20  35  54  74 100 141 184 217 258 311
#     4   9  20  37  53  74 106 141 176 216 261 314
#     4  10  20  32  48  76 111 141 173 216 260 311
#     4   8  16  34  57  80 104 133 173 220 263 308
#
# _framework density 18.156635999999999
#
# number of rings (size 3 to 8) (size 9 to 14) (size 15 to 20)
#    0.000    2.571    0.000    2.571    2.000    2.286 
#    0.000    3.571    0.000    4.286    0.000    0.000 
#    0.000    0.000    0.000    0.000    0.000    0.000 
#
# Total GULP energy -156208.234692 kJ/mol
# GULP energy per Si atom -5578.865525 kJ/mol
# Density = 1.811531 g / cm^3
# Si number density = 18.156636 Si / 1000 Ang^3
#
#
#
# Elastic Constant Matrix: (Units=GPa)
#
#
# Indices 1 2 3 4 5 6 
#
# 1 41.4182 13.0739 33.0275 0.0000 9.2112 0.0000
# 2 13.0739 20.1562 20.2966 0.0000 0.7553 0.0000
# 3 33.0275 20.2966 147.7283 0.0000 2.5841 0.0000
# 4 0.0000 0.0000 0.0000 27.0385 0.0000 5.3437
# 5 9.2112 0.7553 2.5841 0.0000 18.6141 0.0000
# 6 0.0000 0.0000 0.0000 5.3437 0.0000 18.6622
#
#
#
# Elastic Compliance Matrix: (Units=1/GPa)
#
#
# Indices 1 2 3 4 5 6 
#
# 1 0.038456 -0.018498 -0.005750 0.000000 -0.017481 0.000000
# 2 -0.018498 0.066505 -0.005127 0.000000 0.007167 0.000000
# 3 -0.005750 -0.005127 0.008727 0.000000 0.001842 0.000000
# 4 0.000000 0.000000 0.000000 0.039203 0.000000 -0.011225
# 5 -0.017481 0.007167 0.001842 0.000000 0.061827 0.000000
# 6 0.000000 0.000000 0.000000 -0.011225 0.000000 0.056798
#
#
# Mechanical properties :
#
#
# Convention : Reuss Voigt Hill
#
# Bulk Modulus (GPa) = 18.20262 38.01097 28.10680
# Shear Modulus (GPa) = 14.34390 22.38994 18.36692
#
# Velocity S-wave (km/s) = 2.81376 3.51544 3.18399
# Velocity P-wave (km/s) = 4.53910 6.12031 5.38803
#
# Compressibility (1/GPa) = 0.05493713
#
# Stress axis : x y z
#
# Youngs Moduli (GPa) = 26.00362 15.03640 114.58743
#
# Poissons Ratio (x) = 0.27815 0.65891
# Poissons Ratio (y) = 0.48102 0.58748
# Poissons Ratio (z) = 0.14953 0.07709
#
# Static dielectric constant tensor:
#      x y z
#    x 1.605510 0.000000 0.003140 
#    y 0.000000 1.613010 0.000000 
#    z 0.003140 0.000000 1.630490 
# 
# From -- ./inp_files/180868.got.cif
#   From: 2010.05.17/outbox.cif.g08.bks.cpg/sg12_91_cif.got.tgz:180868.got - 2010.06.03 13:09:07.
