data_PCOD9190261
_publ_section_title
;
Structure prediction by ZEFSAII (Michael W. Deem and Ramdas Pophale) SiO2 
 PCOD9190261
Probable space group: C 2/M
;
_chemical_formula_sum "Si O2"
_cell_formula_units_Z 64
_cell_length_a 17.800056
_cell_length_b 30.262910
_cell_length_c 8.676666
_cell_angle_alpha 90.000000
_cell_angle_beta 116.289289
_cell_angle_gamma 90.000000
_cell_volume 4190.528237
_symmetry_space_group_name_H-M "C 2/M"
_symmetry_group_IT_number 12
_symmetry_cell_setting 'monoclinic'
loop_
_space_group_symop_operation_xyz
x,y,z
-x,y,-z
-x,-y,-z
x,-y,z
1/2+x,1/2+y,z
1/2-x,1/2+y,-z
1/2-x,1/2-y,-z
1/2+x,1/2-y,z
loop_
_atom_site_type_symbol
_atom_site_label
_atom_site_fract_x
_atom_site_fract_y
_atom_site_fract_z
Si Si1 0.178387 0.634108 0.011894
Si Si2 0.727244 0.216366 0.614086
Si Si3 0.008003 0.310480 0.837745
Si Si4 0.700705 0.294085 0.010630
Si Si5 0.901970 0.550854 0.583657
Si Si6 0.073141 0.761056 0.665356
Si Si7 0.402417 0.948928 0.212922
Si Si8 0.833590 0.638258 0.645721
O O1 0.202300 0.638065 0.213693
O O2 0.089709 0.659034 0.915575
O O3 0.244958 0.662512 0.976145
O O4 0.157164 0.585420 0.929090
O O5 0.750000 0.250000 0.500000
O O6 0.800747 0.212156 0.807403
O O7 0.645125 0.236364 0.628151
O O8 0.711948 0.169289 0.519370
O O9 0.024230 0.276058 0.718343
O O10 0.925959 0.339665 0.737608
O O11 0.000000 0.289092 0.000000
O O12 0.750000 0.250000 0.000000
O O13 0.618556 0.292167 0.831295
O O14 0.881210 0.500000 0.601822
O O15 0.896853 0.555840 0.393536
O O16 0.844283 0.588002 0.603884
O O17 0.998144 0.558560 0.726418
O O18 0.000000 0.783494 0.500000
O O19 0.383926 0.000000 0.157171
#
# Coordination Sequence:
#
# PCOD9190261 Si02
#       8
#     8   8   8   8   8   8   8   8
#     4  11  19  32  45  65  93 124 159 200 240 280
#     4  11  22  33  48  69  93 123 162 200 242 282
#     4  10  20  29  44  69  91 124 165 199 232 279
#     4  10  20  33  48  63  92 119 154 196 235 280
#     4   9  18  29  42  63  88 120 160 201 234 273
#     4  11  21  34  50  68  90 125 157 200 237 286
#     4   9  18  30  44  61  88 122 160 198 237 275
#     4  11  20  29  46  66  92 124 162 201 234 280
#
# _framework density 15.272538000000001
#
# number of rings (size 3 to 8) (size 9 to 14) (size 15 to 20)
#    0.000    1.750    5.000    3.000    1.750    0.500 
#    0.000    1.250    0.000    0.000    0.000    0.000 
#    0.000    0.500    0.000    0.250    0.000   25.250 
#
# Total GULP energy -178319.144861 kJ/mol
# GULP energy per Si atom -5572.473277 kJ/mol
# Density = 1.523778 g / cm^3
# Si number density = 15.272538 Si / 1000 Ang^3
#
#
#
# Elastic Constant Matrix: (Units=GPa)
#
#
# Indices 1 2 3 4 5 6 
#
# 1 29.4248 16.1645 22.0444 0.0000 -7.0902 0.0000
# 2 16.1645 75.9576 38.2613 0.0000 -4.4819 0.0000
# 3 22.0444 38.2613 109.0003 0.0000 4.2767 0.0000
# 4 0.0000 0.0000 0.0000 28.7484 0.0000 -0.0916
# 5 -7.0902 -4.4819 4.2767 0.0000 21.9928 0.0000
# 6 0.0000 0.0000 0.0000 -0.0916 0.0000 18.4525
#
#
#
# Elastic Compliance Matrix: (Units=1/GPa)
#
#
# Indices 1 2 3 4 5 6 
#
# 1 0.046672 -0.004788 -0.008374 0.000000 0.015699 0.000000
# 2 -0.004788 0.016915 -0.005083 0.000000 0.002892 0.000000
# 3 -0.008374 -0.005083 0.012897 0.000000 -0.006244 0.000000
# 4 0.000000 0.000000 0.000000 0.034785 0.000000 0.000173
# 5 0.015699 0.002892 -0.006244 0.000000 0.052334 0.000000
# 6 0.000000 0.000000 0.000000 0.000173 0.000000 0.054194
#
#
# Mechanical properties :
#
#
# Convention : Reuss Voigt Hill
#
# Bulk Modulus (GPa) = 25.00343 40.81367 32.90855
# Shear Modulus (GPa) = 18.68335 23.03290 20.85812
#
# Velocity S-wave (km/s) = 3.50141 3.88767 3.69958
# Velocity P-wave (km/s) = 5.72307 6.85081 6.31217
#
# Compressibility (1/GPa) = 0.03999451
#
# Stress axis : x y z
#
# Youngs Moduli (GPa) = 21.42620 59.11915 77.53700
#
# Poissons Ratio (x) = 0.28303 0.64933
# Poissons Ratio (y) = 0.10258 0.39410
# Poissons Ratio (z) = 0.17943 0.30049
#
# Static dielectric constant tensor:
#      x y z
#    x 1.509170 0.000000 -0.011950 
#    y 0.000000 1.498190 0.000000 
#    z -0.011950 0.000000 1.568510 
# 
# From -- ./inp_files/90418.got.cif
#   From: 2010.05.17/outbox.cif.g08.bks.cpg/sg12_46_cif.got.tgz:90418.got - 2010.06.03 13:09:07.
