data_PCOD9190154
_publ_section_title
;
Structure prediction by ZEFSAII (Michael W. Deem and Ramdas Pophale) SiO2 
 PCOD9190154
Probable space group: C 2/M
;
_chemical_formula_sum "Si O2"
_cell_formula_units_Z 44
_cell_length_a 24.331502
_cell_length_b 14.458679
_cell_length_c 17.487362
_cell_angle_alpha 90.000000
_cell_angle_beta 18.725283
_cell_angle_gamma 90.000000
_cell_volume 1975.007371
_symmetry_space_group_name_H-M "C 2/M"
_symmetry_group_IT_number 12
_symmetry_cell_setting 'monoclinic'
loop_
_space_group_symop_operation_xyz
x,y,z
-x,y,-z
-x,-y,-z
x,-y,z
1/2+x,1/2+y,z
1/2-x,1/2+y,-z
1/2-x,1/2-y,-z
1/2+x,1/2-y,z
loop_
_atom_site_type_symbol
_atom_site_label
_atom_site_fract_x
_atom_site_fract_y
_atom_site_fract_z
Si Si1 0.425019 0.667261 0.269127
Si Si2 0.197062 0.699386 0.960547
Si Si3 0.987998 0.703721 0.394163
Si Si4 0.826524 0.269538 0.268903
Si Si5 0.637744 0.500000 0.251978
Si Si6 0.498574 0.000000 0.591705
Si Si7 0.403838 0.500000 0.866890
O O1 0.266899 0.677796 0.537088
O O2 0.358145 0.669581 0.270003
O O3 0.534830 0.586503 0.163480
O O4 0.556005 0.754442 0.092683
O O5 0.371765 0.759542 0.730636
O O6 0.250479 0.592911 0.885231
O O7 0.097135 0.709551 0.172477
O O8 0.820623 0.764476 0.601631
O O9 0.928712 0.598355 0.480329
O O10 0.000000 0.302382 0.000000
O O11 0.500000 0.500000 0.500000
O O12 0.544165 0.500000 0.291396
O O13 0.500000 0.000000 0.500000
O O14 0.299447 0.000000 0.876546
#
# Coordination Sequence:
#
# PCOD9190154 Si02
#       7
#     8   8   8   8   4   4   4
#     4  10  23  42  68  91 126 178 202 258 327 366
#     4  10  19  40  65  88 122 164 209 263 317 362
#     4  10  20  39  65  90 126 166 205 264 308 366
#     4  10  23  41  62  92 129 168 219 255 306 379
#     4  12  24  36  62  99 124 159 206 267 321 369
#     4  12  24  35  63 102 126 161 208 258 324 370
#     4  12  22  45  64  94 134 158 210 265 316 385
#
# _framework density 22.278399
#
# number of rings (size 3 to 8) (size 9 to 14) (size 15 to 20)
#    0.000    1.455    3.636    2.182    2.545    4.364 
#    0.000    6.818    0.000    0.000    0.000    0.000 
#    0.000    0.000    0.000    0.000    0.000    0.000 
#
# Total GULP energy -122642.234434 kJ/mol
# GULP energy per Si atom -5574.647020 kJ/mol
# Density = 2.222769 g / cm^3
# Si number density = 22.278399 Si / 1000 Ang^3
#
#
#
# Elastic Constant Matrix: (Units=GPa)
#
#
# Indices 1 2 3 4 5 6 
#
# 1 58.8527 -7.4728 10.9421 -0.0004 -10.4675 0.0006
# 2 -7.4728 82.8529 14.2978 0.0003 -23.2697 0.0005
# 3 10.9421 14.2978 121.5028 0.0007 -5.4547 0.0004
# 4 -0.0004 0.0003 0.0007 -1.6998 -0.0001 -5.9339
# 5 -10.4675 -23.2697 -5.4547 -0.0001 40.0643 -0.0005
# 6 0.0006 0.0005 0.0004 -5.9339 -0.0005 17.6971
#
#
#
# Elastic Compliance Matrix: (Units=1/GPa)
#
#
# Indices 1 2 3 4 5 6 
#
# 1 0.019113 0.004037 -0.001878 -0.000001 0.007083 -0.000001
# 2 0.004037 0.015492 -0.001746 0.000000 0.009815 0.000000
# 3 -0.001878 -0.001746 0.008590 0.000002 -0.000335 0.000001
# 4 -0.000001 0.000000 0.000002 -0.271038 -0.000002 -0.090881
# 5 0.007083 0.009815 -0.000335 -0.000002 0.032465 0.000000
# 6 -0.000001 0.000000 0.000001 -0.090881 0.000000 0.026034
#
#
# Mechanical properties :
#
#
# Convention : Reuss Voigt Hill
#
# Bulk Modulus (GPa) = 22.71664 33.19361 27.95513
# Shear Modulus (GPa) = -32.15492 27.57507 -2.28993
#
# Velocity S-wave (km/s) = -3.80323 3.52198 -1.01494
# Velocity P-wave (km/s) = 3.01118 5.60990 3.34692
#
# Compressibility (1/GPa) = 0.04402059
#
# Stress axis : x y z
#
# Youngs Moduli (GPa) = 52.31986 64.55127 116.41686
#
# Poissons Ratio (x) = -0.26061 0.21867
# Poissons Ratio (y) = -0.21123 0.20326
# Poissons Ratio (z) = 0.09828 0.11270
#
# Static dielectric constant tensor:
#      x y z
#    x 1.901120 0.000000 -0.029990 
#    y 0.000000 1.488550 0.000000 
#    z -0.029990 0.000000 1.811710 
# 
# From -- ./inp_files/290025.got.cif
#   From: 2010.05.17/outbox.cif.g08.bks.cpg/sg12_146_cif.got.tgz:290025.got - 2010.06.03 13:09:07.
