data_PCOD9190160
_publ_section_title
;
Structure prediction by ZEFSAII (Michael W. Deem and Ramdas Pophale) SiO2 
 PCOD9190160
Probable space group: C 2/M
;
_chemical_formula_sum "Si O2"
_cell_formula_units_Z 50
_cell_length_a 25.399699
_cell_length_b 13.398882
_cell_length_c 8.319401
_cell_angle_alpha 90.000000
_cell_angle_beta 49.373578
_cell_angle_gamma 90.000000
_cell_volume 2148.891272
_symmetry_space_group_name_H-M "C 2/M"
_symmetry_group_IT_number 12
_symmetry_cell_setting 'monoclinic'
loop_
_space_group_symop_operation_xyz
x,y,z
-x,y,-z
-x,-y,-z
x,-y,z
1/2+x,1/2+y,z
1/2-x,1/2+y,-z
1/2-x,1/2-y,-z
1/2+x,1/2-y,z
loop_
_atom_site_type_symbol
_atom_site_label
_atom_site_fract_x
_atom_site_fract_y
_atom_site_fract_z
Si Si1 0.904181 0.888312 0.208867
Si Si2 0.753129 0.366023 0.469379
Si Si3 0.253993 0.608092 0.145790
Si Si4 0.941322 0.887843 0.478727
Si Si5 0.500000 0.000000 0.000000
Si Si6 0.100772 0.668807 0.949532
Si Si7 0.358082 0.226162 0.813039
O O1 0.823920 0.894821 0.433382
O O2 0.956024 0.881969 0.258427
O O3 0.905292 0.781737 0.114052
O O4 0.913242 0.000000 0.111850
O O5 0.750000 0.250000 0.500000
O O6 0.763355 0.400560 0.632052
O O7 0.821212 0.377472 0.226658
O O8 0.280576 0.500000 0.040404
O O9 0.187308 0.640988 0.178010
O O10 0.308719 0.696540 0.008775
O O11 0.891723 0.795487 0.612269
O O12 0.000000 0.880246 0.500000
O O13 0.912454 0.000000 0.556835
O O14 0.550871 0.911192 0.970546
O O15 0.088869 0.683354 0.162927
#
# Coordination Sequence:
#
# PCOD9190160 Si02
#       7
#     8   8   8   8   2   8   8
#     4  10  21  40  72 104 128 169 229 287 347 399
#     4  10  19  40  65  97 129 169 218 277 339 397
#     4  11  23  38  64 100 135 165 214 279 349 396
#     4  10  23  42  65  94 134 176 216 271 345 414
#     4  12  32  48  62  98 140 200 230 266 332 408
#     4  11  26  45  69  94 139 181 233 278 331 408
#     4  11  23  41  64  96 134 171 219 280 333 406
#
# _framework density 23.267813
#
# number of rings (size 3 to 8) (size 9 to 14) (size 15 to 20)
#    0.000    1.440    3.200    2.880    7.840    0.640 
#    0.000    0.400    0.000    2.400    0.000    0.000 
#    0.000    0.000    0.000    0.000    0.000    0.000 
#
# Total GULP energy -139195.396096 kJ/mol
# GULP energy per Si atom -5567.815844 kJ/mol
# Density = 2.321485 g / cm^3
# Si number density = 23.267813 Si / 1000 Ang^3
#
#
#
# Elastic Constant Matrix: (Units=GPa)
#
#
# Indices 1 2 3 4 5 6 
#
# 1 119.0887 48.6836 3.9139 0.0000 8.1346 0.0000
# 2 48.6836 147.8512 16.7586 0.0000 1.7674 0.0000
# 3 3.9139 16.7586 24.8936 0.0000 6.8366 0.0000
# 4 0.0000 0.0000 0.0000 -1.7560 0.0000 11.4991
# 5 8.1346 1.7674 6.8366 0.0000 24.7553 0.0000
# 6 0.0000 0.0000 0.0000 11.4991 0.0000 75.2577
#
#
#
# Elastic Compliance Matrix: (Units=1/GPa)
#
#
# Indices 1 2 3 4 5 6 
#
# 1 0.009987 -0.003440 0.001709 0.000000 -0.003508 0.000000
# 2 -0.003440 0.008526 -0.005781 0.000000 0.002118 0.000000
# 3 0.001709 -0.005781 0.047432 0.000000 -0.013248 0.000000
# 4 0.000000 0.000000 0.000000 -0.284659 0.000000 0.043495
# 5 -0.003508 0.002118 -0.013248 0.000000 0.045056 0.000000
# 6 0.000000 0.000000 0.000000 0.043495 0.000000 0.006642
#
#
# Mechanical properties :
#
#
# Convention : Reuss Voigt Hill
#
# Bulk Modulus (GPa) = 19.63789 47.83840 33.73815
# Shear Modulus (GPa) = -37.03193 34.48323 -1.27435
#
# Velocity S-wave (km/s) = -3.99375 3.85387 -0.74086
# Velocity P-wave (km/s) = 3.57890 6.35670 3.71478
#
# Compressibility (1/GPa) = 0.05092197
#
# Stress axis : x y z
#
# Youngs Moduli (GPa) = 100.13086 117.28470 21.08267
#
# Poissons Ratio (x) = 0.40349 -0.03604
# Poissons Ratio (y) = 0.34447 0.12187
# Poissons Ratio (z) = -0.17115 0.67800
#
# Static dielectric constant tensor:
#      x y z
#    x 1.890920 0.000000 -0.046280 
#    y 0.000000 1.850290 0.000000 
#    z -0.046280 0.000000 1.970380 
# 
# From -- ./inp_files/96209.got.cif
#   From: 2010.05.17/outbox.cif.g08.bks.cpg/sg12_49_cif.got.tgz:96209.got - 2010.06.03 13:09:07.
