data_PCOD9190802
_publ_section_title
;
Structure prediction by ZEFSAII (Michael W. Deem and Ramdas Pophale) SiO2 
 PCOD9190802
Probable space group: C 2/M
;
_chemical_formula_sum "Si O2"
_cell_formula_units_Z 56
_cell_length_a 22.918708
_cell_length_b 7.374716
_cell_length_c 13.243340
_cell_angle_alpha 90.000000
_cell_angle_beta 80.703897
_cell_angle_gamma 90.000000
_cell_volume 2208.978343
_symmetry_space_group_name_H-M "C 2/M"
_symmetry_group_IT_number 12
_symmetry_cell_setting 'monoclinic'
loop_
_space_group_symop_operation_xyz
x,y,z
-x,y,-z
-x,-y,-z
x,-y,z
1/2+x,1/2+y,z
1/2-x,1/2+y,-z
1/2-x,1/2-y,-z
1/2+x,1/2-y,z
loop_
_atom_site_type_symbol
_atom_site_label
_atom_site_fract_x
_atom_site_fract_y
_atom_site_fract_z
Si Si1 0.410521 0.709875 0.739362
Si Si2 0.070380 0.791623 0.488597
Si Si3 0.219887 0.720835 0.187254
Si Si4 0.048049 0.221429 0.069391
Si Si5 0.893761 0.796565 0.304657
Si Si6 0.851602 0.221635 0.104360
Si Si7 0.254976 0.695489 0.385487
O O1 0.426776 0.500000 0.718026
O O2 0.408684 0.787422 0.625664
O O3 0.346775 0.718435 0.812225
O O4 0.455122 0.783491 0.812927
O O5 0.083930 0.711708 0.596207
O O6 0.000000 0.796469 0.500000
O O7 0.094363 0.000000 0.488441
O O8 0.220009 0.500000 0.181992
O O9 0.282318 0.776768 0.118541
O O10 0.228121 0.796228 0.299158
O O11 0.045913 0.000000 0.073702
O O12 0.110263 0.275247 0.001830
O O13 0.000000 0.277877 0.000000
O O14 0.888943 0.716379 0.193272
O O15 0.823831 0.815694 0.343585
O O16 0.921043 0.000000 0.288721
O O17 0.851093 0.000000 0.111928
O O18 0.225803 0.500000 0.388859
O O19 0.250000 0.750000 0.500000
#
# Coordination Sequence:
#
# PCOD9190802 Si02
#       7
#     8   8   8   8   8   8   8
#     4  10  20  32  48  75 103 125 157 206 254 288
#     4   9  17  26  40  65  98 129 155 190 241 293
#     4   9  18  32  49  70  98 134 169 196 235 297
#     4   9  18  30  47  71 100 128 157 203 255 294
#     4   8  14  24  39  59  86 121 155 185 222 276
#     4   8  15  28  46  67  93 129 166 195 234 291
#     4   9  16  26  42  65  92 124 159 193 231 277
#
# _framework density 25.351085000000001
#
# number of rings (size 3 to 8) (size 9 to 14) (size 15 to 20)
#    0.000    3.143    0.000    2.571    2.000    2.286 
#    0.000    0.000    0.000    0.857    0.000    0.000 
#    0.000    0.000    0.000    0.000    0.000    0.000 
#
# Total GULP energy -155936.525438 kJ/mol
# GULP energy per Si atom -5569.161623 kJ/mol
# Density = 2.529338 g / cm^3
# Si number density = 25.351085 Si / 1000 Ang^3
#
#
#
# Elastic Constant Matrix: (Units=GPa)
#
#
# Indices 1 2 3 4 5 6 
#
# 1 85.4335 -8.3345 36.1859 0.0000 14.7129 0.0000
# 2 -8.3345 83.9160 -0.4081 0.0000 0.1099 0.0000
# 3 36.1859 -0.4081 153.0870 0.0000 18.6624 0.0000
# 4 0.0000 0.0000 0.0000 -25.6103 0.0000 -4.8574
# 5 14.7129 0.1099 18.6624 0.0000 46.7441 0.0000
# 6 0.0000 0.0000 0.0000 -4.8574 0.0000 -8.3328
#
#
#
# Elastic Compliance Matrix: (Units=1/GPa)
#
#
# Indices 1 2 3 4 5 6 
#
# 1 0.013573 0.001338 -0.002821 0.000000 -0.003149 0.000000
# 2 0.001338 0.012049 -0.000241 0.000000 -0.000353 0.000000
# 3 -0.002821 -0.000241 0.007453 0.000000 -0.002087 0.000000
# 4 0.000000 0.000000 0.000000 -0.043900 0.000000 0.025591
# 5 -0.003149 -0.000353 -0.002087 0.000000 0.023218 0.000000
# 6 0.000000 0.000000 0.000000 0.025591 0.000000 -0.134925
#
#
# Mechanical properties :
#
#
# Convention : Reuss Voigt Hill
#
# Bulk Modulus (GPa) = 33.75269 41.92480 37.83875
# Shear Modulus (GPa) = -45.78347 22.22639 -11.77854
#
# Velocity S-wave (km/s) = -4.25429 2.96420 -2.15784
# Velocity P-wave (km/s) = 3.28465 5.31873 2.95803
#
# Compressibility (1/GPa) = 0.02962727
#
# Stress axis : x y z
#
# Youngs Moduli (GPa) = 73.67765 82.99511 134.17806
#
# Poissons Ratio (x) = -0.11108 0.37849
# Poissons Ratio (y) = -0.09861 0.03236
# Poissons Ratio (z) = 0.20783 0.02002
#
# Static dielectric constant tensor:
#      x y z
#    x 2.003100 0.000000 0.068240 
#    y 0.000000 1.994670 0.000000 
#    z 0.068240 0.000000 2.121610 
# 
# From -- ./inp_files/173862.got.cif
#   From: 2010.05.17/outbox.cif.g08.bks.cpg/sg12_87_cif.got.tgz:173862.got - 2010.06.03 13:09:07.
