data_PCOD9190745
_publ_section_title
;
Structure prediction by ZEFSAII (Michael W. Deem and Ramdas Pophale) SiO2 
 PCOD9190745
Probable space group: C 2/M
;
_chemical_formula_sum "Si O2"
_cell_formula_units_Z 60
_cell_length_a 9.844282
_cell_length_b 24.211356
_cell_length_c 18.668485
_cell_angle_alpha 90.000000
_cell_angle_beta 130.831163
_cell_angle_gamma 90.000000
_cell_volume 3366.675614
_symmetry_space_group_name_H-M "C 2/M"
_symmetry_group_IT_number 12
_symmetry_cell_setting 'monoclinic'
loop_
_space_group_symop_operation_xyz
x,y,z
-x,y,-z
-x,-y,-z
x,-y,z
1/2+x,1/2+y,z
1/2-x,1/2+y,-z
1/2-x,1/2-y,-z
1/2+x,1/2-y,z
loop_
_atom_site_type_symbol
_atom_site_label
_atom_site_fract_x
_atom_site_fract_y
_atom_site_fract_z
Si Si1 0.664656 0.290874 0.336476
Si Si2 0.053154 0.150247 0.631175
Si Si3 0.037835 0.750311 0.931666
Si Si4 0.254963 0.065892 0.481959
Si Si5 0.348266 0.934896 0.345815
Si Si6 0.716866 0.655429 0.207259
Si Si7 0.500000 0.747025 0.500000
Si Si8 0.444356 0.177788 0.765149
O O1 0.512877 0.331848 0.312381
O O2 0.754027 0.309206 0.292617
O O3 0.826556 0.285227 0.447864
O O4 0.584662 0.230556 0.296719
O O5 0.266210 0.140314 0.701249
O O6 0.918777 0.102317 0.559087
O O7 0.022799 0.205535 0.574064
O O8 0.950110 0.810181 0.882640
O O9 0.962837 0.705626 0.849520
O O10 0.250000 0.750000 0.000000
O O11 0.000000 0.735766 0.000000
O O12 0.441404 0.083542 0.584847
O O13 0.289388 0.073478 0.408260
O O14 0.229340 0.000000 0.485077
O O15 0.219205 0.904479 0.245188
O O16 0.347464 0.000000 0.333022
O O17 0.871230 0.653254 0.200645
#
# Coordination Sequence:
#
# PCOD9190745 Si02
#       8
#     8   8   8   8   8   8   4   8
#     4  10  20  32  48  71 103 146 184 215 256 326
#     4  11  21  33  49  73 108 148 183 228 268 311
#     4  11  22  38  59  84 113 144 175 216 273 345
#     4   9  19  35  54  78 104 147 202 236 261 310
#     4   9  19  35  57  80 106 143 195 238 269 311
#     4  11  21  35  57  79 108 142 177 225 278 320
#     4  10  22  28  43  72 107 142 186 212 270 314
#     4  10  22  35  49  80 117 138 174 218 268 335
#
# _framework density 17.821733999999999
#
# number of rings (size 3 to 8) (size 9 to 14) (size 15 to 20)
#    0.000    1.867    2.667    3.600    7.467    0.000 
#    0.000    1.000    0.000    0.400    0.000    0.000 
#    0.000    3.733    0.000    0.000    0.000    0.000 
#
# Total GULP energy -167138.252976 kJ/mol
# GULP energy per Si atom -5571.275099 kJ/mol
# Density = 1.778117 g / cm^3
# Si number density = 17.821734 Si / 1000 Ang^3
#
#
#
# Elastic Constant Matrix: (Units=GPa)
#
#
# Indices 1 2 3 4 5 6 
#
# 1 97.4422 18.6470 29.5939 0.0000 13.1590 0.0000
# 2 18.6470 45.2144 8.5487 0.0000 11.1199 0.0000
# 3 29.5939 8.5487 55.1835 0.0000 8.2799 0.0000
# 4 0.0000 0.0000 0.0000 26.4391 0.0000 4.0859
# 5 13.1590 11.1199 8.2799 0.0000 30.5009 0.0000
# 6 0.0000 0.0000 0.0000 4.0859 0.0000 20.7383
#
#
#
# Elastic Compliance Matrix: (Units=1/GPa)
#
#
# Indices 1 2 3 4 5 6 
#
# 1 0.013172 -0.003613 -0.006097 0.000000 -0.002710 0.000000
# 2 -0.003613 0.025632 -0.000902 0.000000 -0.007541 0.000000
# 3 -0.006097 -0.000902 0.021982 0.000000 -0.003008 0.000000
# 4 0.000000 0.000000 0.000000 0.039011 0.000000 -0.007686
# 5 -0.002710 -0.007541 -0.003008 0.000000 0.037521 0.000000
# 6 0.000000 0.000000 0.000000 -0.007686 0.000000 0.049734
#
#
# Mechanical properties :
#
#
# Convention : Reuss Voigt Hill
#
# Bulk Modulus (GPa) = 25.27670 34.60215 29.93942
# Shear Modulus (GPa) = 22.57709 24.93901 23.75805
#
# Velocity S-wave (km/s) = 3.56312 3.74486 3.65512
# Velocity P-wave (km/s) = 5.58046 6.17709 5.88634
#
# Compressibility (1/GPa) = 0.03956213
#
# Stress axis : x y z
#
# Youngs Moduli (GPa) = 75.92041 39.01367 45.49108
#
# Poissons Ratio (x) = 0.14095 0.27738
# Poissons Ratio (y) = 0.27428 0.04102
# Poissons Ratio (z) = 0.46292 0.03518
#
# Static dielectric constant tensor:
#      x y z
#    x 1.681650 0.000000 0.013470 
#    y 0.000000 1.631480 0.000000 
#    z 0.013470 0.000000 1.629210 
# 
# From -- ./inp_files/259723.got.cif
#   From: 2010.05.17/outbox.cif.g08.bks.cpg/sg12_130_cif.got.tgz:259723.got - 2010.06.03 13:09:07.
