data_PCOD9190835
_publ_section_title
;
Structure prediction by ZEFSAII (Michael W. Deem and Ramdas Pophale) SiO2 
 PCOD9190835
Probable space group: C 2/M
;
_chemical_formula_sum "Si O2"
_cell_formula_units_Z 56
_cell_length_a 19.240314
_cell_length_b 7.354478
_cell_length_c 28.356934
_cell_angle_alpha 90.000000
_cell_angle_beta 38.355702
_cell_angle_gamma 90.000000
_cell_volume 2489.970729
_symmetry_space_group_name_H-M "C 2/M"
_symmetry_group_IT_number 12
_symmetry_cell_setting 'monoclinic'
loop_
_space_group_symop_operation_xyz
x,y,z
-x,y,-z
-x,-y,-z
x,-y,z
1/2+x,1/2+y,z
1/2-x,1/2+y,-z
1/2-x,1/2-y,-z
1/2+x,1/2-y,z
loop_
_atom_site_type_symbol
_atom_site_label
_atom_site_fract_x
_atom_site_fract_y
_atom_site_fract_z
Si Si1 0.074891 0.278191 0.797837
Si Si2 0.648094 0.783051 0.659041
Si Si3 0.859865 0.716088 0.970876
Si Si4 0.264872 0.721969 0.768064
Si Si5 0.130015 0.720734 0.931229
Si Si6 0.020298 0.217107 0.629041
Si Si7 0.402690 0.722372 0.515060
O O1 0.069776 0.500000 0.800690
O O2 0.078140 0.217303 0.741748
O O3 0.189982 0.226598 0.762918
O O4 0.969836 0.214361 0.885142
O O5 0.591620 0.750586 0.638340
O O6 0.776454 0.717503 0.594007
O O7 0.653991 0.000000 0.660639
O O8 0.879340 0.500000 0.965840
O O9 0.750000 0.750000 0.000000
O O10 0.832984 0.785298 0.037345
O O11 0.266671 0.500000 0.767308
O O12 0.199896 0.784138 0.849427
O O13 0.392683 0.784539 0.700511
O O14 0.135824 0.500000 0.925788
O O15 0.000000 0.769830 0.000000
O O16 0.071929 0.281382 0.552106
O O17 0.013942 0.000000 0.628136
O O18 0.500000 0.778714 0.500000
O O19 0.402895 0.500000 0.515938
#
# Coordination Sequence:
#
# PCOD9190835 Si02
#       7
#     8   8   8   8   8   8   8
#     4   9  17  31  49  71  96 128 168 203 237 285
#     4  10  20  33  51  73 102 134 160 194 243 295
#     4  10  20  32  49  72  99 128 161 202 247 293
#     4   9  16  28  48  72  95 121 162 209 243 274
#     4   9  15  27  47  71  94 120 160 208 245 275
#     4  10  20  32  51  78 102 125 159 205 247 285
#     4   9  17  32  54  77  98 126 167 206 237 278
#
# _framework density 22.490226
#
# number of rings (size 3 to 8) (size 9 to 14) (size 15 to 20)
#    0.000    2.571    1.429    1.286    2.000    3.429 
#    0.000    0.000    0.000    5.571    0.000    0.000 
#    0.000    0.000    0.000    0.000    0.000    0.000 
#
# Total GULP energy -156364.288692 kJ/mol
# GULP energy per Si atom -5584.438882 kJ/mol
# Density = 2.243904 g / cm^3
# Si number density = 22.490226 Si / 1000 Ang^3
#
#
#
# Elastic Constant Matrix: (Units=GPa)
#
#
# Indices 1 2 3 4 5 6 
#
# 1 140.0284 -8.7036 30.9742 -0.0014 16.6756 -0.0010
# 2 -8.7036 82.0072 4.3952 0.0011 2.2400 -0.0048
# 3 30.9742 4.3952 105.9454 0.0011 16.0013 0.0020
# 4 -0.0014 0.0011 0.0011 -31.1032 0.0003 -17.0424
# 5 16.6756 2.2400 16.0013 0.0003 46.2323 0.0002
# 6 -0.0010 -0.0048 0.0020 -17.0424 0.0002 -3.9597
#
#
#
# Elastic Compliance Matrix: (Units=1/GPa)
#
#
# Indices 1 2 3 4 5 6 
#
# 1 0.007914 0.001009 -0.002023 -0.000001 -0.002203 0.000002
# 2 0.001009 0.012358 -0.000699 -0.000007 -0.000721 0.000013
# 3 -0.002023 -0.000699 0.010492 0.000002 -0.002868 -0.000003
# 4 -0.000001 -0.000007 0.000002 0.023670 0.000000 -0.101876
# 5 -0.002203 -0.000721 -0.002868 0.000000 0.023452 0.000000
# 6 0.000002 0.000013 -0.000003 -0.101876 0.000000 0.185929
#
#
# Mechanical properties :
#
#
# Convention : Reuss Voigt Hill
#
# Bulk Modulus (GPa) = 36.57833 42.36806 39.47319
# Shear Modulus (GPa) = 18.09271 22.32158 20.20714
#
# Velocity S-wave (km/s) = 2.83939 3.15382 3.00073
# Velocity P-wave (km/s) = 5.20086 5.66934 5.44015
#
# Compressibility (1/GPa) = 0.02733859
#
# Stress axis : x y z
#
# Youngs Moduli (GPa) = 126.35974 80.91777 95.30752
#
# Poissons Ratio (x) = -0.08161 0.19279
# Poissons Ratio (y) = -0.12744 0.06659
# Poissons Ratio (z) = 0.25560 0.05654
#
# Static dielectric constant tensor:
#      x y z
#    x 1.674160 0.000010 -0.019880 
#    y 0.000010 1.900600 0.000010 
#    z -0.019880 0.000010 1.784090 
# 
# From -- ./inp_files/268845.got.cif
#   From: 2010.05.17/outbox.cif.g08.bks.cpg/sg12_135_cif.got.tgz:268845.got - 2010.06.03 13:09:07.
