data_PCOD9190950
_publ_section_title
;
Structure prediction by ZEFSAII (Michael W. Deem and Ramdas Pophale) SiO2 
 PCOD9190950
Probable space group: C 2/M
;
_chemical_formula_sum "Si O2"
_cell_formula_units_Z 56
_cell_length_a 27.905441
_cell_length_b 27.453848
_cell_length_c 21.438099
_cell_angle_alpha 90.000000
_cell_angle_beta 168.650830
_cell_angle_gamma 90.000000
_cell_volume 3232.035690
_symmetry_space_group_name_H-M "C 2/M"
_symmetry_group_IT_number 12
_symmetry_cell_setting 'monoclinic'
loop_
_space_group_symop_operation_xyz
x,y,z
-x,y,-z
-x,-y,-z
x,-y,z
1/2+x,1/2+y,z
1/2-x,1/2+y,-z
1/2-x,1/2-y,-z
1/2+x,1/2-y,z
loop_
_atom_site_type_symbol
_atom_site_label
_atom_site_fract_x
_atom_site_fract_y
_atom_site_fract_z
Si Si1 0.584238 0.201686 0.779379
Si Si2 0.191222 0.684209 0.196151
Si Si3 0.559925 0.379428 0.743218
Si Si4 0.276703 0.697688 0.568147
Si Si5 0.852016 0.388066 0.689724
Si Si6 0.281321 0.557975 0.172030
Si Si7 0.707563 0.783116 0.718285
O O1 0.440917 0.193977 0.660500
O O2 0.393453 0.209108 0.480043
O O3 0.750000 0.250000 0.000000
O O4 0.741751 0.153188 0.967958
O O5 0.412328 0.661937 0.516348
O O6 0.264283 0.724533 0.240000
O O7 0.000000 0.708623 0.000000
O O8 0.045384 0.640077 0.979917
O O9 0.367578 0.404384 0.545042
O O10 0.668582 0.415104 0.829637
O O11 0.250000 0.750000 0.500000
O O12 0.254686 0.653626 0.491554
O O13 0.532551 0.695774 0.931037
O O14 0.019498 0.425931 0.865919
O O15 0.500000 0.571294 0.500000
O O16 0.289212 0.500000 0.174183
O O17 0.500000 0.800834 0.500000
#
# Coordination Sequence:
#
# PCOD9190950 Si02
#       7
#     8   8   8   8   8   8   8
#     4  12  23  36  54  81 116 158 201 239 286 350
#     4  10  20  32  50  77 114 157 198 234 282 341
#     4  11  22  38  58  83 116 158 198 240 295 350
#     4  12  23  36  54  81 116 158 201 239 286 350
#     4  11  22  38  58  83 116 158 198 240 295 350
#     4  11  24  40  62  89 117 155 203 250 299 353
#     4  12  24  34  50  80 117 158 202 240 280 338
#
# _framework density 17.326540999999999
#
# number of rings (size 3 to 8) (size 9 to 14) (size 15 to 20)
#    0.000    0.714    5.714    3.857    2.000    0.571 
#    0.000    1.429    0.000    0.000    0.000    2.000 
#    0.000    3.429    0.000    0.000    0.000    0.000 
#
# Total GULP energy -156341.547712 kJ/mol
# GULP energy per Si atom -5583.626704 kJ/mol
# Density = 1.728711 g / cm^3
# Si number density = 17.326541 Si / 1000 Ang^3
#
#
#
# Elastic Constant Matrix: (Units=GPa)
#
#
# Indices 1 2 3 4 5 6 
#
# 1 74.9904 20.9409 25.4679 0.0035 18.1035 0.0040
# 2 20.9409 55.3958 26.6621 0.0023 8.9424 0.0032
# 3 25.4679 26.6621 88.0805 0.0122 5.6529 0.0163
# 4 0.0035 0.0023 0.0122 22.0915 0.0021 -0.5322
# 5 18.1035 8.9424 5.6529 0.0021 42.6901 0.0041
# 6 0.0040 0.0032 0.0163 -0.5322 0.0041 17.5417
#
#
#
# Elastic Compliance Matrix: (Units=1/GPa)
#
#
# Indices 1 2 3 4 5 6 
#
# 1 0.016988 -0.003840 -0.003368 0.000000 -0.005954 0.000001
# 2 -0.003840 0.022565 -0.005569 0.000002 -0.002361 0.000003
# 3 -0.003368 -0.005569 0.013965 -0.000007 0.000745 -0.000012
# 4 0.000000 0.000002 -0.000007 0.045299 -0.000002 0.001374
# 5 -0.005954 -0.002361 0.000745 -0.000002 0.026345 -0.000005
# 6 0.000001 0.000003 -0.000012 0.001374 -0.000005 0.057049
#
#
# Mechanical properties :
#
#
# Convention : Reuss Voigt Hill
#
# Bulk Modulus (GPa) = 35.75827 40.51205 38.13516
# Shear Modulus (GPa) = 23.03238 26.15772 24.59505
#
# Velocity S-wave (km/s) = 3.64993 3.88969 3.77171
# Velocity P-wave (km/s) = 6.20043 6.60342 6.40509
#
# Compressibility (1/GPa) = 0.02796556
#
# Stress axis : x y z
#
# Youngs Moduli (GPa) = 58.86376 44.31678 71.60893
#
# Poissons Ratio (x) = 0.17018 0.24115
# Poissons Ratio (y) = 0.22604 0.39876
# Poissons Ratio (z) = 0.19823 0.24678
#
# Static dielectric constant tensor:
#      x y z
#    x 1.642370 0.000000 0.029130 
#    y 0.000000 1.561580 -0.000010 
#    z 0.029130 -0.000010 1.619700 
# 
# From -- ./inp_files/66855.got.cif
#   From: 2010.05.17/outbox.cif.g08.bks.cpg/sg12_34_cif.got.tgz:66855.got - 2010.06.03 13:09:07.
