data_PCOD9190392
_publ_section_title
;
Structure prediction by ZEFSAII (Michael W. Deem and Ramdas Pophale) SiO2 
 PCOD9190392
Probable space group: C 2/M
;
_chemical_formula_sum "Si O2"
_cell_formula_units_Z 56
_cell_length_a 33.350208
_cell_length_b 7.462412
_cell_length_c 13.225056
_cell_angle_alpha 90.000000
_cell_angle_beta 124.249693
_cell_angle_gamma 90.000000
_cell_volume 2720.613751
_symmetry_space_group_name_H-M "C 2/M"
_symmetry_group_IT_number 12
_symmetry_cell_setting 'monoclinic'
loop_
_space_group_symop_operation_xyz
x,y,z
-x,y,-z
-x,-y,-z
x,-y,z
1/2+x,1/2+y,z
1/2-x,1/2+y,-z
1/2-x,1/2-y,-z
1/2+x,1/2-y,z
loop_
_atom_site_type_symbol
_atom_site_label
_atom_site_fract_x
_atom_site_fract_y
_atom_site_fract_z
Si Si1 0.643158 0.279952 0.948244
Si Si2 0.885433 0.207782 0.530684
Si Si3 0.278473 0.787561 0.438115
Si Si4 0.435848 0.281849 0.001306
Si Si5 0.953950 0.780897 0.802492
Si Si6 0.246671 0.216187 0.175368
Si Si7 0.144474 0.210691 0.728315
O O1 0.643159 0.500000 0.947397
O O2 0.697684 0.221610 0.052836
O O3 0.605802 0.222322 0.981642
O O4 0.629329 0.217969 0.816042
O O5 0.832639 0.211230 0.508615
O O6 0.924411 0.285359 0.663697
O O7 0.877614 0.287136 0.407240
O O8 0.899007 0.000000 0.535614
O O9 0.250000 0.750000 0.500000
O O10 0.249921 0.725607 0.297295
O O11 0.284144 0.000000 0.437027
O O12 0.435015 0.500000 0.999837
O O13 0.489607 0.228974 0.114301
O O14 0.430862 0.225600 0.877304
O O15 0.952619 0.000000 0.799563
O O16 0.297165 0.273810 0.197122
O O17 0.245932 0.000000 0.172067
O O18 0.132913 0.000000 0.711868
#
# Coordination Sequence:
#
# PCOD9190392 Si02
#       7
#     8   8   8   8   8   8   8
#     4   9  16  26  42  63  89 117 149 185 223 260
#     4   9  17  29  46  65  90 120 148 179 224 270
#     4  10  20  31  44  66  93 118 150 185 220 263
#     4   8  14  24  40  64  89 113 148 190 223 260
#     4   8  14  25  42  64  89 116 147 184 226 266
#     4   9  18  30  45  64  86 119 154 182 214 259
#     4   9  17  29  43  64  92 120 145 180 225 265
#
# _framework density 20.583590999999998
#
# number of rings (size 3 to 8) (size 9 to 14) (size 15 to 20)
#    0.000    3.143    0.000    1.714    2.000    0.571 
#    0.000    0.714    0.000    4.286    0.000    4.000 
#    0.000    4.571    0.000    0.000    0.000    0.000 
#
# Total GULP energy -156171.627720 kJ/mol
# GULP energy per Si atom -5577.558133 kJ/mol
# Density = 2.053674 g / cm^3
# Si number density = 20.583591 Si / 1000 Ang^3
#
#
#
# Elastic Constant Matrix: (Units=GPa)
#
#
# Indices 1 2 3 4 5 6 
#
# 1 52.0913 -1.3694 59.5363 0.0000 -11.7489 0.0000
# 2 -1.3694 60.9052 9.0380 0.0000 0.0649 0.0000
# 3 59.5363 9.0380 156.0299 0.0000 7.4287 0.0000
# 4 0.0000 0.0000 0.0000 -0.0649 0.0000 4.9569
# 5 -11.7489 0.0649 7.4287 0.0000 24.5871 0.0000
# 6 0.0000 0.0000 0.0000 4.9569 0.0000 2.1972
#
#
#
# Elastic Compliance Matrix: (Units=1/GPa)
#
#
# Indices 1 2 3 4 5 6 
#
# 1 0.049560 0.004135 -0.020573 0.000000 0.029887 0.000000
# 2 0.004135 0.016908 -0.002688 0.000000 0.002744 0.000000
# 3 -0.020573 -0.002688 0.015100 0.000000 -0.014386 0.000000
# 4 0.000000 0.000000 0.000000 -0.088907 0.000000 0.200574
# 5 0.029887 0.002744 -0.014386 0.000000 0.059293 0.000000
# 6 0.000000 0.000000 0.000000 0.200574 0.000000 0.002625
#
#
# Mechanical properties :
#
#
# Convention : Reuss Voigt Hill
#
# Bulk Modulus (GPa) = 23.08587 44.82624 33.95606
# Shear Modulus (GPa) = 46.61162 18.79864 32.70513
#
# Velocity S-wave (km/s) = 4.76384 3.02534 3.99042
# Velocity P-wave (km/s) = 6.44197 5.83339 6.14522
#
# Compressibility (1/GPa) = 0.04331654
#
# Stress axis : x y z
#
# Youngs Moduli (GPa) = 20.17741 59.14389 66.22599
#
# Poissons Ratio (x) = -0.24459 1.36249
# Poissons Ratio (y) = -0.08344 0.17802
# Poissons Ratio (z) = 0.41512 0.15898
#
# Static dielectric constant tensor:
#      x y z
#    x 1.690960 0.000000 -0.018290 
#    y 0.000000 1.899060 0.000000 
#    z -0.018290 0.000000 1.757260 
# 
# From -- ./inp_files/186791.got.cif
#   From: 2010.05.17/outbox.cif.g08.bks.cpg/sg12_94_cif.got.tgz:186791.got - 2010.06.03 13:09:07.
