data_PCOD9190875
_publ_section_title
;
Structure prediction by ZEFSAII (Michael W. Deem and Ramdas Pophale) SiO2 
 PCOD9190875
Probable space group: C 2/M
;
_chemical_formula_sum "Si O2"
_cell_formula_units_Z 48
_cell_length_a 23.602900
_cell_length_b 7.543970
_cell_length_c 17.426707
_cell_angle_alpha 90.000000
_cell_angle_beta 46.037183
_cell_angle_gamma 90.000000
_cell_volume 2233.503995
_symmetry_space_group_name_H-M "C 2/M"
_symmetry_group_IT_number 12
_symmetry_cell_setting 'monoclinic'
loop_
_space_group_symop_operation_xyz
x,y,z
-x,y,-z
-x,-y,-z
x,-y,z
1/2+x,1/2+y,z
1/2-x,1/2+y,-z
1/2-x,1/2-y,-z
1/2+x,1/2-y,z
loop_
_atom_site_type_symbol
_atom_site_label
_atom_site_fract_x
_atom_site_fract_y
_atom_site_fract_z
Si Si1 0.206136 0.210099 0.934883
Si Si2 0.953271 0.283853 0.348674
Si Si3 0.583583 0.294029 0.446219
Si Si4 0.684583 0.787706 0.626141
Si Si5 0.871815 0.704861 0.840584
Si Si6 0.244613 0.286430 0.733651
O O1 0.292947 0.283155 0.876705
O O2 0.195001 0.244129 0.855800
O O3 0.206299 0.000000 0.948362
O O4 0.144081 0.287237 0.053304
O O5 0.953359 0.500000 0.350097
O O6 0.914576 0.218227 0.463659
O O7 0.898820 0.225440 0.329235
O O8 0.043234 0.219252 0.259784
O O9 0.500000 0.212591 0.500000
O O10 0.581627 0.500000 0.423440
O O11 0.665845 0.217109 0.339368
O O12 0.750000 0.750000 0.500000
O O13 0.709887 0.719273 0.685831
O O14 0.679250 0.000000 0.638035
O O15 0.874520 0.500000 0.813749
O O16 0.250316 0.500000 0.722410
#
# Coordination Sequence:
#
# PCOD9190875 Si02
#       6
#     8   8   8   8   8   8
#     4  10  20  34  55  80 103 134 175 215 260 312
#     4  10  20  34  54  78 103 135 176 217 259 308
#     4  10  20  32  49  76 108 139 170 209 261 315
#     4  10  20  35  54  76 103 140 180 214 257 309
#     4   9  19  36  55  77 106 136 169 214 265 313
#     4  10  20  34  51  74 106 140 173 211 259 311
#
# _framework density 21.490894999999998
#
# number of rings (size 3 to 8) (size 9 to 14) (size 15 to 20)
#    0.000    2.167    1.667    1.500    0.000    3.000 
#    0.000    0.833    0.000    5.000    0.000    0.000 
#    0.000    0.000    0.000    0.000    0.000    0.000 
#
# Total GULP energy -134011.143894 kJ/mol
# GULP energy per Si atom -5583.797662 kJ/mol
# Density = 2.144198 g / cm^3
# Si number density = 21.490895 Si / 1000 Ang^3
#
#
#
# Elastic Constant Matrix: (Units=GPa)
#
#
# Indices 1 2 3 4 5 6 
#
# 1 46.9260 0.0283 -9.8379 -0.0043 19.3969 0.0034
# 2 0.0283 57.4481 -17.8961 -0.0078 -7.0440 0.0159
# 3 -9.8379 -17.8961 71.2719 -0.0052 16.6889 0.0064
# 4 -0.0043 -0.0078 -0.0052 14.1431 0.0050 11.0532
# 5 19.3969 -7.0440 16.6889 0.0050 39.0962 -0.0043
# 6 0.0034 0.0159 0.0064 11.0532 -0.0043 7.2294
#
#
#
# Elastic Compliance Matrix: (Units=1/GPa)
#
#
# Indices 1 2 3 4 5 6 
#
# 1 0.031078 0.000402 0.008871 -0.000241 -0.019133 0.000334
# 2 0.000402 0.018972 0.004517 -0.000241 0.001291 0.000323
# 3 0.008871 0.004517 0.019143 -0.000236 -0.011759 0.000323
# 4 -0.000241 -0.000241 -0.000236 -0.362810 0.000285 0.554705
# 5 -0.019133 0.001291 -0.011759 0.000285 0.040322 -0.000395
# 6 0.000334 0.000323 0.000323 0.554705 -0.000395 -0.709773
#
#
# Mechanical properties :
#
#
# Convention : Reuss Voigt Hill
#
# Bulk Modulus (GPa) = 10.33343 13.35938 11.84640
# Shear Modulus (GPa) = -5.21709 25.65052 10.21672
#
# Velocity S-wave (km/s) = -1.55976 3.45853 2.18273
# Velocity P-wave (km/s) = 1.25496 4.70939 3.44625
#
# Compressibility (1/GPa) = 0.09677333
#
# Stress axis : x y z
#
# Youngs Moduli (GPa) = 32.17671 52.70894 52.23888
#
# Poissons Ratio (x) = -0.02119 -0.46341
# Poissons Ratio (y) = -0.01294 -0.23597
# Poissons Ratio (z) = -0.28544 -0.23809
#
# Static dielectric constant tensor:
#      x y z
#    x 1.810740 0.000000 -0.000400 
#    y 0.000000 1.806240 0.000000 
#    z -0.000400 0.000000 1.749070 
# 
# From -- ./inp_files/280789.got.cif
#   From: 2010.05.17/outbox.cif.g08.bks.cpg/sg12_141_cif.got.tgz:280789.got - 2010.06.03 13:09:07.
