data_PCOD9190312
_publ_section_title
;
Structure prediction by ZEFSAII (Michael W. Deem and Ramdas Pophale) SiO2 
 PCOD9190312
Probable space group: C 2/M
;
_chemical_formula_sum "Si O2"
_cell_formula_units_Z 48
_cell_length_a 17.820206
_cell_length_b 16.824302
_cell_length_c 9.845948
_cell_angle_alpha 90.000000
_cell_angle_beta 134.835301
_cell_angle_gamma 90.000000
_cell_volume 2093.327268
_symmetry_space_group_name_H-M "C 2/M"
_symmetry_group_IT_number 12
_symmetry_cell_setting 'monoclinic'
loop_
_space_group_symop_operation_xyz
x,y,z
-x,y,-z
-x,-y,-z
x,-y,z
1/2+x,1/2+y,z
1/2-x,1/2+y,-z
1/2-x,1/2-y,-z
1/2+x,1/2-y,z
loop_
_atom_site_type_symbol
_atom_site_label
_atom_site_fract_x
_atom_site_fract_y
_atom_site_fract_z
Si Si1 0.541699 0.244219 0.398192
Si Si2 0.159275 0.414980 0.119467
Si Si3 0.395029 0.411054 0.959011
Si Si4 0.924209 0.585031 0.686370
Si Si5 0.677910 0.747599 0.039979
Si Si6 0.958888 0.915512 0.601547
O O1 0.500000 0.239438 0.500000
O O2 0.598040 0.162700 0.430143
O O3 0.441868 0.247263 0.168593
O O4 0.595433 0.330314 0.445123
O O5 0.210167 0.500000 0.144409
O O6 0.139817 0.414651 0.255214
O O7 0.207420 0.330197 0.147818
O O8 0.045999 0.414676 0.896308
O O9 0.353150 0.500000 0.870331
O O10 0.320956 0.333063 0.869069
O O11 0.440474 0.415902 0.170053
O O12 0.500000 0.397825 0.000000
O O13 0.907130 0.500000 0.593660
O O14 0.750000 0.750000 0.000000
O O15 0.000000 0.915530 0.500000
O O16 0.902901 0.000000 0.558269
#
# Coordination Sequence:
#
# PCOD9190312 Si02
#       6
#     8   8   8   8   8   8
#     4   9  17  28  45  67  94 121 155 190 230 280
#     4   8  15  27  44  65  90 119 153 191 230 274
#     4   9  18  30  47  72  97 124 162 205 242 282
#     4   8  14  25  43  67  87 112 154 194 223 262
#     4  10  20  30  47  72  99 124 155 196 249 288
#     4   8  14  25  41  64  90 118 150 190 235 277
#
# _framework density 22.930004
#
# number of rings (size 3 to 8) (size 9 to 14) (size 15 to 20)
#    0.000    3.333    0.000    1.000    7.000    1.000 
#    0.000    0.000    0.000    1.000    0.000    0.000 
#    0.000    0.000    0.000    0.000    0.000    0.000 
#
# Total GULP energy -133635.976783 kJ/mol
# GULP energy per Si atom -5568.165699 kJ/mol
# Density = 2.287781 g / cm^3
# Si number density = 22.930004 Si / 1000 Ang^3
#
#
#
# Elastic Constant Matrix: (Units=GPa)
#
#
# Indices 1 2 3 4 5 6 
#
# 1 27.4142 69.9804 -8.8570 0.0000 -1.0343 0.0000
# 2 69.9804 343.7864 8.2734 0.0000 -14.0401 0.0000
# 3 -8.8570 8.2734 66.4504 0.0000 10.5497 0.0000
# 4 0.0000 0.0000 0.0000 3.9032 0.0000 -24.3958
# 5 -1.0343 -14.0401 10.5497 0.0000 23.6820 0.0000
# 6 0.0000 0.0000 0.0000 -24.3958 0.0000 11.5413
#
#
#
# Elastic Compliance Matrix: (Units=1/GPa)
#
#
# Indices 1 2 3 4 5 6 
#
# 1 0.091753 -0.019714 0.017114 0.000000 -0.015304 0.000000
# 2 -0.019714 0.007247 -0.004386 0.000000 0.005389 0.000000
# 3 0.017114 -0.004386 0.019553 0.000000 -0.010563 0.000000
# 4 0.000000 0.000000 0.000000 -0.020980 0.000000 -0.044347
# 5 -0.015304 0.005389 -0.010563 0.000000 0.049458 0.000000
# 6 0.000000 0.000000 0.000000 -0.044347 0.000000 -0.007095
#
#
# Mechanical properties :
#
#
# Convention : Reuss Voigt Hill
#
# Bulk Modulus (GPa) = 9.56192 64.04941 36.80566
# Shear Modulus (GPa) = 26.48747 32.37556 29.43152
#
# Velocity S-wave (km/s) = 3.40243 3.76164 3.58654
# Velocity P-wave (km/s) = 4.42882 6.84542 5.76517
#
# Compressibility (1/GPa) = 0.10458155
#
# Stress axis : x y z
#
# Youngs Moduli (GPa) = 10.89882 137.98166 51.14354
#
# Poissons Ratio (x) = 2.72016 -0.87525
# Poissons Ratio (y) = 0.21486 0.22429
# Poissons Ratio (z) = -0.18652 0.60512
#
# Static dielectric constant tensor:
#      x y z
#    x 1.778520 0.000000 -0.020190 
#    y 0.000000 1.986100 0.000000 
#    z -0.020190 0.000000 1.770780 
# 
# From -- ./inp_files/88163.got.cif
#   From: 2010.05.17/outbox.cif.g08.bks.cpg/sg12_45_cif.got.tgz:88163.got - 2010.06.03 13:09:07.
