data_PCOD9190018
_publ_section_title
;
Structure prediction by ZEFSAII (Michael W. Deem and Ramdas Pophale) SiO2 
 PCOD9190018
Probable space group: C 2/M
;
_chemical_formula_sum "Si O2"
_cell_formula_units_Z 64
_cell_length_a 12.936475
_cell_length_b 25.111385
_cell_length_c 12.391499
_cell_angle_alpha 90.000000
_cell_angle_beta 138.059729
_cell_angle_gamma 90.000000
_cell_volume 2690.407206
_symmetry_space_group_name_H-M "C 2/M"
_symmetry_group_IT_number 12
_symmetry_cell_setting 'monoclinic'
loop_
_space_group_symop_operation_xyz
x,y,z
-x,y,-z
-x,-y,-z
x,-y,z
1/2+x,1/2+y,z
1/2-x,1/2+y,-z
1/2-x,1/2-y,-z
1/2+x,1/2-y,z
loop_
_atom_site_type_symbol
_atom_site_label
_atom_site_fract_x
_atom_site_fract_y
_atom_site_fract_z
Si Si1 0.886583 0.561089 0.825078
Si Si2 0.782994 0.631152 0.357844
Si Si3 0.767309 0.937389 0.496260
Si Si4 0.167173 0.218623 0.672833
Si Si5 0.047916 0.673672 0.697375
Si Si6 0.112701 0.938887 0.776151
Si Si7 0.232824 0.832745 0.942377
Si Si8 0.951042 0.778562 0.841194
O O1 0.947136 0.500000 0.855944
O O2 0.854737 0.585981 0.684067
O O3 0.722578 0.558337 0.757501
O O4 0.000000 0.587194 0.000000
O O5 0.764715 0.576508 0.405638
O O6 0.869762 0.628112 0.311829
O O7 0.628005 0.663326 0.216905
O O8 0.874587 0.666655 0.519809
O O9 0.942208 0.919540 0.611400
O O10 0.764342 0.000000 0.475075
O O11 0.115732 0.273091 0.693782
O O12 0.235114 0.180333 0.817373
O O13 0.309711 0.237128 0.705511
O O14 0.000000 0.198229 0.500000
O O15 0.111080 0.673368 0.867230
O O16 0.181152 0.894469 0.908923
O O17 0.103608 0.000000 0.811289
O O18 0.104017 0.791930 0.891146
O O19 0.000000 0.763730 0.000000
#
# Coordination Sequence:
#
# PCOD9190018 Si02
#       8
#     8   8   8   8   8   8   8   8
#     4   9  19  36  56  81 120 164 211 267 319 367
#     4  10  19  39  63  89 124 168 208 260 330 388
#     4  10  20  35  61  90 123 169 220 267 321 387
#     4  11  23  43  62  94 131 166 216 270 324 396
#     4  10  21  41  64  87 128 168 208 265 330 385
#     4  10  22  40  61  92 128 169 218 271 323 378
#     4  12  24  40  69  94 126 176 221 266 325 395
#     4  11  21  40  67  91 125 170 214 260 325 388
#
# _framework density 23.788219999999999
#
# number of rings (size 3 to 8) (size 9 to 14) (size 15 to 20)
#    0.000    1.625    6.250    0.750    1.750    3.000 
#    0.000    2.500    0.000    2.250    0.000    0.000 
#    0.000    0.000    0.000    0.000    0.000    0.000 
#
# Total GULP energy -178499.392383 kJ/mol
# GULP energy per Si atom -5578.106012 kJ/mol
# Density = 2.373408 g / cm^3
# Si number density = 23.788220 Si / 1000 Ang^3
#
#
#
# Elastic Constant Matrix: (Units=GPa)
#
#
# Indices 1 2 3 4 5 6 
#
# 1 38.9924 4.3268 4.0804 0.0000 1.3616 0.0000
# 2 4.3268 54.1359 22.6574 0.0000 0.3110 0.0000
# 3 4.0804 22.6574 123.1689 0.0000 -1.3198 0.0000
# 4 0.0000 0.0000 0.0000 31.1002 0.0000 -4.1500
# 5 1.3616 0.3110 -1.3198 0.0000 30.8161 0.0000
# 6 0.0000 0.0000 0.0000 -4.1500 0.0000 23.0240
#
#
#
# Elastic Compliance Matrix: (Units=1/GPa)
#
#
# Indices 1 2 3 4 5 6 
#
# 1 0.025947 -0.001844 -0.000533 0.000000 -0.001151 0.000000
# 2 -0.001844 0.020148 -0.003648 0.000000 -0.000278 0.000000
# 3 -0.000533 -0.003648 0.008812 0.000000 0.000438 0.000000
# 4 0.000000 0.000000 0.000000 0.032947 0.000000 0.005939
# 5 -0.001151 -0.000278 0.000438 0.000000 0.032523 0.000000
# 6 0.000000 0.000000 0.000000 0.005939 0.000000 0.044503
#
#
# Mechanical properties :
#
#
# Convention : Reuss Voigt Hill
#
# Bulk Modulus (GPa) = 23.33355 30.93625 27.13490
# Shear Modulus (GPa) = 26.14853 29.33691 27.74272
#
# Velocity S-wave (km/s) = 3.31905 3.51558 3.41873
# Velocity P-wave (km/s) = 4.95159 5.43251 5.19762
#
# Compressibility (1/GPa) = 0.04285675
#
# Stress axis : x y z
#
# Youngs Moduli (GPa) = 38.54071 49.63297 113.47696
#
# Poissons Ratio (x) = 0.09154 0.06044
# Poissons Ratio (y) = 0.07108 0.41398
# Poissons Ratio (z) = 0.02053 0.18107
#
# Static dielectric constant tensor:
#      x y z
#    x 1.960830 0.000000 0.026170 
#    y 0.000000 1.939180 0.000000 
#    z 0.026170 0.000000 1.939920 
# 
# From -- ./inp_files/149775.got.cif
#   From: 2010.05.17/outbox.cif.g08.bks.cpg/sg12_75_cif.got.tgz:149775.got - 2010.06.03 13:09:07.
