data_PCOD9190733
_publ_section_title
;
Structure prediction by ZEFSAII (Michael W. Deem and Ramdas Pophale) SiO2 
 PCOD9190733
Probable space group: C 2/M
;
_chemical_formula_sum "Si O2"
_cell_formula_units_Z 56
_cell_length_a 16.459545
_cell_length_b 7.616492
_cell_length_c 24.107485
_cell_angle_alpha 90.000000
_cell_angle_beta 59.493434
_cell_angle_gamma 90.000000
_cell_volume 2603.848964
_symmetry_space_group_name_H-M "C 2/M"
_symmetry_group_IT_number 12
_symmetry_cell_setting 'monoclinic'
loop_
_space_group_symop_operation_xyz
x,y,z
-x,y,-z
-x,-y,-z
x,-y,z
1/2+x,1/2+y,z
1/2-x,1/2+y,-z
1/2-x,1/2-y,-z
1/2+x,1/2-y,z
loop_
_atom_site_type_symbol
_atom_site_label
_atom_site_fract_x
_atom_site_fract_y
_atom_site_fract_z
Si Si1 0.052292 0.715728 0.153812
Si Si2 0.225878 0.711573 0.571764
Si Si3 0.735207 0.788597 0.161165
Si Si4 0.561203 0.800576 0.705224
Si Si5 0.589033 0.295481 0.436814
Si Si6 0.956711 0.289067 0.072623
Si Si7 0.127475 0.697996 0.301296
O O1 0.052803 0.500000 0.154636
O O2 0.155561 0.769086 0.143100
O O3 0.017809 0.772243 0.104823
O O4 0.971292 0.778219 0.225114
O O5 0.217250 0.500000 0.576725
O O6 0.250000 0.750000 0.500000
O O7 0.134950 0.780320 0.636475
O O8 0.314661 0.781766 0.574583
O O9 0.705029 0.721377 0.233122
O O10 0.844594 0.748542 0.113090
O O11 0.725548 0.000000 0.167042
O O12 0.463840 0.812616 0.705787
O O13 0.594442 0.000000 0.706656
O O14 0.500000 0.217398 0.500000
O O15 0.591923 0.500000 0.452159
O O16 0.593342 0.286299 0.369397
O O17 0.965658 0.500000 0.069867
O O18 0.000000 0.221863 0.000000
O O19 0.157053 0.500000 0.306535
#
# Coordination Sequence:
#
# PCOD9190733 Si02
#       7
#     8   8   8   8   8   8   8
#     4   8  16  33  55  76 106 144 179 218 267 323
#     4  10  20  32  48  69  94 129 171 207 249 306
#     4   9  19  36  56  79 107 143 183 222 271 326
#     4   8  15  30  51  71  90 126 175 209 243 308
#     4  10  21  33  46  71 105 135 165 207 264 319
#     4  10  21  35  55  85 114 142 182 226 267 322
#     4   9  18  33  53  74  95 124 172 222 255 302
#
# _framework density 21.506623000000001
#
# number of rings (size 3 to 8) (size 9 to 14) (size 15 to 20)
#    0.000    2.857    0.000    2.571    2.000    2.286 
#    0.000    0.714    0.000    1.714    0.000    0.000 
#    0.000    0.000    0.000    0.000    0.000    0.000 
#
# Total GULP energy -155914.299895 kJ/mol
# GULP energy per Si atom -5568.367853 kJ/mol
# Density = 2.145767 g / cm^3
# Si number density = 21.506623 Si / 1000 Ang^3
#
#
#
# Elastic Constant Matrix: (Units=GPa)
#
#
# Indices 1 2 3 4 5 6 
#
# 1 81.3920 -2.0250 74.7544 0.0000 3.0662 0.0000
# 2 -2.0250 38.6656 -4.8404 0.0000 -1.1131 -0.0002
# 3 74.7544 -4.8404 176.4340 0.0000 -4.2252 0.0000
# 4 0.0000 0.0000 0.0000 23.5667 0.0000 -14.5654
# 5 3.0662 -1.1131 -4.2252 0.0000 44.0919 0.0000
# 6 0.0000 -0.0002 0.0000 -14.5654 0.0000 0.5983
#
#
#
# Elastic Compliance Matrix: (Units=1/GPa)
#
#
# Indices 1 2 3 4 5 6 
#
# 1 0.020333 -0.000085 -0.008671 0.000000 -0.002247 0.000000
# 2 -0.000085 0.025975 0.000766 0.000000 0.000735 -0.000001
# 3 -0.008671 0.000766 0.009399 0.000000 0.001523 0.000000
# 4 0.000000 0.000000 0.000000 -0.003021 0.000000 -0.073544
# 5 -0.002247 0.000735 0.001523 0.000000 0.023001 0.000000
# 6 0.000000 -0.000001 0.000000 -0.073544 0.000000 -0.118993
#
#
# Mechanical properties :
#
#
# Convention : Reuss Voigt Hill
#
# Bulk Modulus (GPa) = 25.17158 48.02997 36.60078
# Shear Modulus (GPa) = -355.02128 28.89155 -163.06486
#
# Velocity S-wave (km/s) = -12.86210 3.66919 -8.71696
# Velocity P-wave (km/s) = 14.45160 6.35073 9.17924
#
# Compressibility (1/GPa) = 0.03972734
#
# Stress axis : x y z
#
# Youngs Moduli (GPa) = 49.18201 38.49796 106.39180
#
# Poissons Ratio (x) = 0.00328 0.92253
# Poissons Ratio (y) = 0.00420 -0.08154
# Poissons Ratio (z) = 0.42646 -0.02950
#
# Static dielectric constant tensor:
#      x y z
#    x 1.390030 0.000000 0.420450 
#    y 0.000000 1.858180 0.000000 
#    z 0.420450 0.000000 1.659350 
# 
# From -- ./inp_files/338479.got.cif
#   From: 2010.05.17/outbox.cif.g08.bks.cpg/sg12_170_cif.got.tgz:338479.got - 2010.06.03 13:09:07.
