data_PCOD9190192
_publ_section_title
;
Structure prediction by ZEFSAII (Michael W. Deem and Ramdas Pophale) SiO2 
 PCOD9190192
Probable space group: C 2/M
;
_chemical_formula_sum "Si O2"
_cell_formula_units_Z 42
_cell_length_a 16.085587
_cell_length_b 17.515443
_cell_length_c 8.584905
_cell_angle_alpha 90.000000
_cell_angle_beta 116.387295
_cell_angle_gamma 90.000000
_cell_volume 2166.753972
_symmetry_space_group_name_H-M "C 2/M"
_symmetry_group_IT_number 12
_symmetry_cell_setting 'monoclinic'
loop_
_space_group_symop_operation_xyz
x,y,z
-x,y,-z
-x,-y,-z
x,-y,z
1/2+x,1/2+y,z
1/2-x,1/2+y,-z
1/2-x,1/2-y,-z
1/2+x,1/2-y,z
loop_
_atom_site_type_symbol
_atom_site_label
_atom_site_fract_x
_atom_site_fract_y
_atom_site_fract_z
Si Si1 0.165004 0.873275 0.613385
Si Si2 0.651811 0.500000 0.866640
Si Si3 0.500000 0.500000 0.000000
Si Si4 0.500000 0.745469 0.500000
Si Si5 0.327306 0.000000 0.252696
Si Si6 0.671713 0.500000 0.363769
Si Si7 0.541561 0.124528 0.776786
Si Si8 0.863695 0.590731 0.815690
O O1 0.275022 0.857516 0.704069
O O2 0.090613 0.806524 0.548079
O O3 0.152172 0.925393 0.756619
O O4 0.153579 0.927012 0.454796
O O5 0.554993 0.500000 0.876460
O O6 0.744311 0.500000 0.053195
O O7 0.599897 0.500000 0.166243
O O8 0.476856 0.797838 0.331055
O O9 0.395165 0.928518 0.280388
O O10 0.274243 0.000000 0.372965
O O11 0.441305 0.093554 0.746699
O O12 0.595010 0.122280 0.987415
O O13 0.839010 0.500000 0.814010
#
# Coordination Sequence:
#
# PCOD9190192 Si02
#       8
#     8   4   2   4   4   4   8   8
#     4  11  22  45  64  93 125 177 220 254 318 392
#     4  10  19  40  74  91 120 166 227 274 303 362
#     4  10  20  34  56 104 132 150 202 278 320 358
#     4  12  30  38  58  94 140 180 202 254 338 388
#     4  11  20  41  68 105 117 153 224 281 324 351
#     4  10  23  38  72  97 125 169 222 281 306 362
#     4  11  23  42  63 100 130 162 208 271 329 389
#     4  11  20  44  76  94 117 164 227 271 323 371
#
# _framework density 19.383832999999999
#
# number of rings (size 3 to 8) (size 9 to 14) (size 15 to 20)
#    0.000    1.143    5.714    1.714    2.667    3.429 
#    0.000    9.524    0.000    0.000    0.000    0.000 
#    0.000    0.000    0.000    0.000    0.000    0.000 
#
# Total GULP energy -116915.871629 kJ/mol
# GULP energy per Si atom -5567.422459 kJ/mol
# Density = 1.933971 g / cm^3
# Si number density = 19.383833 Si / 1000 Ang^3
#
#
#
# Elastic Constant Matrix: (Units=GPa)
#
#
# Indices 1 2 3 4 5 6 
#
# 1 169.1143 66.3468 38.7712 0.0000 8.2034 0.0000
# 2 66.3468 110.9912 51.7405 0.0000 7.6443 0.0000
# 3 38.7712 51.7405 79.3913 0.0000 9.1505 0.0000
# 4 0.0000 0.0000 0.0000 18.6247 0.0000 14.6724
# 5 8.2034 7.6443 9.1505 0.0000 42.1039 0.0000
# 6 0.0000 0.0000 0.0000 14.6724 0.0000 -20.0286
#
#
#
# Elastic Compliance Matrix: (Units=1/GPa)
#
#
# Indices 1 2 3 4 5 6 
#
# 1 0.007804 -0.004137 -0.001053 0.000000 -0.000541 0.000000
# 2 -0.004137 0.015146 -0.007822 0.000000 -0.000244 0.000000
# 3 -0.001053 -0.007822 0.018484 0.000000 -0.002392 0.000000
# 4 0.000000 0.000000 0.000000 0.034045 0.000000 0.024940
# 5 -0.000541 -0.000244 -0.002392 0.000000 0.024420 0.000000
# 6 0.000000 0.000000 0.000000 0.024940 0.000000 -0.031658
#
#
# Mechanical properties :
#
#
# Convention : Reuss Voigt Hill
#
# Bulk Modulus (GPa) = 64.89582 74.80153 69.84867
# Shear Modulus (GPa) = 50.30179 21.64923 35.97551
#
# Velocity S-wave (km/s) = 5.09968 3.34559 4.31275
# Velocity P-wave (km/s) = 8.26000 7.32102 7.80465
#
# Compressibility (1/GPa) = 0.01540931
#
# Stress axis : x y z
#
# Youngs Moduli (GPa) = 128.14487 66.02420 54.10204
#
# Poissons Ratio (x) = 0.27313 0.05695
# Poissons Ratio (y) = 0.53011 0.42321
# Poissons Ratio (z) = 0.13489 0.51647
#
# Static dielectric constant tensor:
#      x y z
#    x 1.692480 0.000000 0.009700 
#    y 0.000000 1.660880 0.000000 
#    z 0.009700 0.000000 1.706970 
# 
# From -- ./inp_files/61358.got.cif
#   From: 2010.05.17/outbox.cif.g08.bks.cpg/sg12_31_cif.got.tgz:61358.got - 2010.06.03 13:09:07.
