data_PCOD9190925
_publ_section_title
;
Structure prediction by ZEFSAII (Michael W. Deem and Ramdas Pophale) SiO2 
 PCOD9190925
Probable space group: C 2/M
;
_chemical_formula_sum "Si O2"
_cell_formula_units_Z 64
_cell_length_a 15.541347
_cell_length_b 7.600258
_cell_length_c 26.685485
_cell_angle_alpha 90.000000
_cell_angle_beta 107.013094
_cell_angle_gamma 90.000000
_cell_volume 3014.102742
_symmetry_space_group_name_H-M "C 2/M"
_symmetry_group_IT_number 12
_symmetry_cell_setting 'monoclinic'
loop_
_space_group_symop_operation_xyz
x,y,z
-x,y,-z
-x,-y,-z
x,-y,z
1/2+x,1/2+y,z
1/2-x,1/2+y,-z
1/2-x,1/2-y,-z
1/2+x,1/2-y,z
loop_
_atom_site_type_symbol
_atom_site_label
_atom_site_fract_x
_atom_site_fract_y
_atom_site_fract_z
Si Si1 0.998355 0.712255 0.057353
Si Si2 0.306474 0.211520 0.059672
Si Si3 0.260583 0.716049 0.747116
Si Si4 0.192431 0.790081 0.133958
Si Si5 0.489657 0.786402 0.556049
Si Si6 0.796751 0.807943 0.559173
Si Si7 0.627086 0.712767 0.328727
Si Si8 0.074284 0.290456 0.668860
O O1 0.993867 0.500000 0.054717
O O2 0.089494 0.759932 0.100999
O O3 0.907889 0.776824 0.068860
O O4 0.000000 0.775527 0.000000
O O5 0.255280 0.280872 0.099909
O O6 0.310635 0.000000 0.064891
O O7 0.250000 0.250000 0.000000
O O8 0.260668 0.500000 0.747738
O O9 0.284250 0.777615 0.806884
O O10 0.334020 0.769268 0.718012
O O11 0.161849 0.777352 0.712346
O O12 0.206572 0.000000 0.137953
O O13 0.500000 0.740261 0.500000
O O14 0.400725 0.694013 0.560901
O O15 0.566123 0.735469 0.609033
O O16 0.477645 0.000000 0.556654
O O17 0.750000 0.750000 0.500000
O O18 0.807429 0.717583 0.615287
O O19 0.756786 0.000000 0.562204
O O20 0.632591 0.500000 0.332133
O O21 0.522734 0.756350 0.321860
O O22 0.084646 0.500000 0.669487
#
# Coordination Sequence:
#
# PCOD9190925 Si02
#       8
#     8   8   8   8   8   8   8   8
#     4  10  20  35  55  80 113 146 173 212 269 317
#     4  10  20  34  54  79 109 142 174 214 262 310
#     4   9  19  36  57  78 104 143 183 217 260 318
#     4  10  21  36  55  82 109 138 184 224 254 309
#     4   9  18  31  51  77 104 133 173 216 264 326
#     4  10  20  32  50  75 104 135 172 219 271 323
#     4   9  19  36  56  75 104 141 177 219 271 321
#     4   9  18  34  56  78 104 139 179 222 265 314
#
# _framework density 21.233518
#
# number of rings (size 3 to 8) (size 9 to 14) (size 15 to 20)
#    0.000    2.500    1.250    0.375    1.750    2.500 
#    0.000    3.125    0.000    0.000    0.000    0.000 
#    0.000    0.000    0.000    0.000    0.000    0.000 
#
# Total GULP energy -178454.751210 kJ/mol
# GULP energy per Si atom -5576.710975 kJ/mol
# Density = 2.118519 g / cm^3
# Si number density = 21.233518 Si / 1000 Ang^3
#
#
#
# Elastic Constant Matrix: (Units=GPa)
#
#
# Indices 1 2 3 4 5 6 
#
# 1 133.0814 -4.3122 106.2111 0.0000 -1.6997 0.0000
# 2 -4.3122 37.9753 6.5834 0.0000 -1.2500 0.0000
# 3 106.2111 6.5834 230.8125 0.0000 -2.1294 0.0000
# 4 0.0000 0.0000 0.0000 9.5433 0.0000 3.0218
# 5 -1.6997 -1.2500 -2.1294 0.0000 37.6374 0.0000
# 6 0.0000 0.0000 0.0000 3.0218 0.0000 19.2755
#
#
#
# Elastic Compliance Matrix: (Units=1/GPa)
#
#
# Indices 1 2 3 4 5 6 
#
# 1 0.012084 0.002357 -0.005625 0.000000 0.000306 0.000000
# 2 0.002357 0.026950 -0.001845 0.000000 0.000897 0.000000
# 3 -0.005625 -0.001845 0.006974 0.000000 0.000079 0.000000
# 4 0.000000 0.000000 0.000000 0.110259 0.000000 -0.017285
# 5 0.000306 0.000897 0.000079 0.000000 0.026617 0.000000
# 6 0.000000 0.000000 0.000000 -0.017285 0.000000 0.054589
#
#
# Mechanical properties :
#
#
# Convention : Reuss Voigt Hill
#
# Bulk Modulus (GPa) = 27.94668 68.75932 48.35300
# Shear Modulus (GPa) = 19.25850 32.85037 26.05443
#
# Velocity S-wave (km/s) = 3.01489 3.93759 3.50672
# Velocity P-wave (km/s) = 5.03086 7.28873 6.26239
#
# Compressibility (1/GPa) = 0.03578243
#
# Stress axis : x y z
#
# Youngs Moduli (GPa) = 82.75671 37.10580 143.38531
#
# Poissons Ratio (x) = -0.08747 0.80652
# Poissons Ratio (y) = -0.19508 0.26457
# Poissons Ratio (z) = 0.46549 0.06847
#
# Static dielectric constant tensor:
#      x y z
#    x 1.882100 0.000000 -0.043060 
#    y 0.000000 1.832100 0.000000 
#    z -0.043060 0.000000 1.792960 
# 
# From -- ./inp_files/359898.got.cif
#   From: 2010.05.17/outbox.cif.g08.bks.cpg/sg12_180_cif.got.tgz:359898.got - 2010.06.03 13:09:07.
