data_PCOD9190247
_publ_section_title
;
Structure prediction by ZEFSAII (Michael W. Deem and Ramdas Pophale) SiO2 
 PCOD9190247
Probable space group: C 2/M
;
_chemical_formula_sum "Si O2"
_cell_formula_units_Z 32
_cell_length_a 20.513566
_cell_length_b 5.887838
_cell_length_c 18.482893
_cell_angle_alpha 90.000000
_cell_angle_beta 150.988818
_cell_angle_gamma 90.000000
_cell_volume 1082.657443
_symmetry_space_group_name_H-M "C 2/M"
_symmetry_group_IT_number 12
_symmetry_cell_setting 'monoclinic'
loop_
_space_group_symop_operation_xyz
x,y,z
-x,y,-z
-x,-y,-z
x,-y,z
1/2+x,1/2+y,z
1/2-x,1/2+y,-z
1/2-x,1/2-y,-z
1/2+x,1/2-y,z
loop_
_atom_site_type_symbol
_atom_site_label
_atom_site_fract_x
_atom_site_fract_y
_atom_site_fract_z
Si Si1 0.711085 0.000000 0.433465
Si Si2 0.626863 0.500000 0.915811
Si Si3 0.805081 0.247946 0.232627
Si Si4 0.529238 0.500000 0.390607
Si Si5 0.091131 0.500000 0.895864
Si Si6 0.112164 0.752798 0.172644
O O1 0.750000 0.250000 0.500000
O O2 0.813056 0.000000 0.463325
O O3 0.550555 0.000000 0.285309
O O4 0.535313 0.500000 0.753185
O O5 0.594515 0.264892 0.924944
O O6 0.779426 0.500000 0.033360
O O7 0.770423 0.500000 0.173011
O O8 0.749725 0.243102 0.259920
O O9 0.961597 0.209600 0.367933
O O10 0.751369 0.000000 0.150232
O O11 0.083852 0.500000 0.178000
O O12 0.117185 0.000000 0.216128
O O13 0.000000 0.767378 0.000000
#
# Coordination Sequence:
#
# PCOD9190247 Si02
#       6
#     4   4   8   4   4   8
#     4  12  22  32  48  65  84 107 141 179 216 252
#     4  10  20  32  52  57  86 103 141 176 215 253
#     4   8  16  24  35  55  78 103 131 159 197 243
#     4  10  20  28  45  62  82 110 132 174 211 249
#     4  10  20  36  44  68  76 108 139 179 212 255
#     4   8  12  20  32  47  70 101 130 154 183 228
#
# _framework density 29.556902999999998
#
# number of rings (size 3 to 8) (size 9 to 14) (size 15 to 20)
#    0.750    2.000    2.500    0.000    3.500    0.000 
#    0.000    0.000    0.000    0.000    0.000    0.000 
#    0.000    0.000    0.000    4.500    0.000   21.250 
#
# Total GULP energy -89251.674003 kJ/mol
# GULP energy per Si atom -5578.229625 kJ/mol
# Density = 2.948963 g / cm^3
# Si number density = 29.556903 Si / 1000 Ang^3
#
#
#
# Elastic Constant Matrix: (Units=GPa)
#
#
# Indices 1 2 3 4 5 6 
#
# 1 97.7218 69.0508 14.9668 0.0000 14.7145 0.0000
# 2 69.0508 405.9334 77.1426 0.0000 24.6528 0.0000
# 3 14.9668 77.1426 137.2848 0.0000 28.6370 0.0000
# 4 0.0000 0.0000 0.0000 27.5763 0.0000 16.8737
# 5 14.7145 24.6528 28.6370 0.0000 37.6649 0.0000
# 6 0.0000 0.0000 0.0000 16.8737 0.0000 96.3197
#
#
#
# Elastic Compliance Matrix: (Units=1/GPa)
#
#
# Indices 1 2 3 4 5 6 
#
# 1 0.012096 -0.001931 0.000580 0.000000 -0.003903 0.000000
# 2 -0.001931 0.003084 -0.001496 0.000000 -0.000127 0.000000
# 3 0.000580 -0.001496 0.009394 0.000000 -0.006390 0.000000
# 4 0.000000 0.000000 0.000000 0.040617 0.000000 -0.007115
# 5 -0.003903 -0.000127 -0.006390 0.000000 0.033016 0.000000
# 6 0.000000 0.000000 0.000000 -0.007115 0.000000 0.011629
#
#
# Mechanical properties :
#
#
# Convention : Reuss Voigt Hill
#
# Bulk Modulus (GPa) = 52.96093 107.02895 79.99494
# Shear Modulus (GPa) = 41.04309 64.29750 52.67029
#
# Velocity S-wave (km/s) = 3.73045 4.66916 4.22595
# Velocity P-wave (km/s) = 6.04253 8.08442 7.13688
#
# Compressibility (1/GPa) = 0.01888185
#
# Stress axis : x y z
#
# Youngs Moduli (GPa) = 82.66973 324.26519 106.44611
#
# Poissons Ratio (x) = 0.62612 -0.06178
# Poissons Ratio (y) = 0.15963 0.15924
# Poissons Ratio (z) = -0.04798 0.48508
#
# Static dielectric constant tensor:
#      x y z
#    x 2.357260 0.000000 -0.198280 
#    y 0.000000 2.973270 0.000000 
#    z -0.198280 0.000000 2.574750 
# 
# From -- ./inp_files/370298.got.cif
#   From: 2010.05.17/outbox.cif.g08.bks.cpg/sg12_186_cif.got.tgz:370298.got - 2010.06.03 13:09:07.
