data_PCOD9190818
_publ_section_title
;
Structure prediction by ZEFSAII (Michael W. Deem and Ramdas Pophale) SiO2 
 PCOD9190818
Probable space group: C 2/M
;
_chemical_formula_sum "Si O2"
_cell_formula_units_Z 64
_cell_length_a 9.214300
_cell_length_b 29.320286
_cell_length_c 16.811359
_cell_angle_alpha 90.000000
_cell_angle_beta 118.588075
_cell_angle_gamma 90.000000
_cell_volume 3988.124774
_symmetry_space_group_name_H-M "C 2/M"
_symmetry_group_IT_number 12
_symmetry_cell_setting 'monoclinic'
loop_
_space_group_symop_operation_xyz
x,y,z
-x,y,-z
-x,-y,-z
x,-y,z
1/2+x,1/2+y,z
1/2-x,1/2+y,-z
1/2-x,1/2-y,-z
1/2+x,1/2-y,z
loop_
_atom_site_type_symbol
_atom_site_label
_atom_site_fract_x
_atom_site_fract_y
_atom_site_fract_z
Si Si1 0.665681 0.445364 0.277227
Si Si2 0.319267 0.554526 0.274336
Si Si3 0.337913 0.444630 0.910009
Si Si4 0.191799 0.891270 0.566908
Si Si5 0.738195 0.705782 0.610143
Si Si6 0.907703 0.207867 0.606334
Si Si7 0.685115 0.119922 0.565939
Si Si8 0.498251 0.055648 0.091516
O O1 0.696008 0.500000 0.292028
O O2 0.491505 0.434868 0.275328
O O3 0.656030 0.433523 0.181655
O O4 0.800496 0.414713 0.357373
O O5 0.310587 0.500000 0.277943
O O6 0.310634 0.575016 0.360126
O O7 0.162873 0.570243 0.181204
O O8 0.339044 0.500000 0.914431
O O9 0.168337 0.429529 0.907343
O O10 0.500000 0.428639 0.000000
O O11 0.296475 0.846321 0.617719
O O12 0.258322 0.906876 0.499165
O O13 0.000000 0.877497 0.500000
O O14 0.861378 0.748136 0.646375
O O15 0.603439 0.704700 0.644864
O O16 0.655381 0.713830 0.501394
O O17 0.810522 0.162613 0.609198
O O18 0.500000 0.136957 0.500000
O O19 0.498683 0.000000 0.091700
O O20 0.500000 0.069996 0.000000
#
# Coordination Sequence:
#
# PCOD9190818 Si02
#       8
#     8   8   8   8   8   8   8   8
#     4  10  20  34  47  64  90 123 158 190 228 268
#     4  10  20  32  49  66  87 122 160 192 223 267
#     4   9  17  30  48  67  89 113 142 188 238 274
#     4  11  19  34  45  63  92 125 159 191 223 261
#     4   9  16  28  45  63  85 112 148 190 231 270
#     4   9  17  28  44  64  84 112 149 189 232 269
#     4  11  23  32  44  64  92 126 159 192 224 266
#     4   9  17  30  48  69  87 109 147 191 233 273
#
# _framework density 16.047643000000001
#
# number of rings (size 3 to 8) (size 9 to 14) (size 15 to 20)
#    0.000    2.250    3.750    0.750    7.000    4.000 
#    0.000    0.000    0.000    0.000    0.000    0.000 
#    0.000    1.000    0.000    7.250    0.000    2.250 
#
# Total GULP energy -178137.859425 kJ/mol
# GULP energy per Si atom -5566.808107 kJ/mol
# Density = 1.601112 g / cm^3
# Si number density = 16.047643 Si / 1000 Ang^3
#
#
#
# Elastic Constant Matrix: (Units=GPa)
#
#
# Indices 1 2 3 4 5 6 
#
# 1 52.0828 15.8702 22.1402 0.0000 -9.2178 0.0000
# 2 15.8702 31.8919 25.0478 0.0000 -1.0764 0.0000
# 3 22.1402 25.0478 67.9917 0.0000 -10.0710 0.0000
# 4 0.0000 0.0000 0.0000 -1.9978 0.0000 0.5454
# 5 -9.2178 -1.0764 -10.0710 0.0000 23.0650 0.0000
# 6 0.0000 0.0000 0.0000 0.5454 0.0000 17.9296
#
#
#
# Elastic Compliance Matrix: (Units=1/GPa)
#
#
# Indices 1 2 3 4 5 6 
#
# 1 0.024968 -0.009430 -0.003468 0.000000 0.008024 0.000000
# 2 -0.009430 0.048319 -0.015988 0.000000 -0.008495 0.000000
# 3 -0.003468 -0.015988 0.022891 0.000000 0.007863 0.000000
# 4 0.000000 0.000000 0.000000 -0.496434 0.000000 0.015102
# 5 0.008024 -0.008495 0.007863 0.000000 0.049599 0.000000
# 6 0.000000 0.000000 0.000000 0.015102 0.000000 0.055314
#
#
# Mechanical properties :
#
#
# Convention : Reuss Voigt Hill
#
# Bulk Modulus (GPa) = 26.03731 30.89809 28.46770
# Shear Modulus (GPa) = -22.24511 13.72658 -4.25927
#
# Velocity S-wave (km/s) = -3.72720 2.92783 -1.63092
# Velocity P-wave (km/s) = 1.50415 5.54305 3.77246
#
# Compressibility (1/GPa) = 0.03840642
#
# Stress axis : x y z
#
# Youngs Moduli (GPa) = 40.05130 20.69596 43.68459
#
# Poissons Ratio (x) = 0.19517 0.15149
# Poissons Ratio (y) = 0.37769 0.69842
# Poissons Ratio (z) = 0.13889 0.33088
#
# Static dielectric constant tensor:
#      x y z
#    x 1.586860 0.000000 0.016210 
#    y 0.000000 1.551090 0.000000 
#    z 0.016210 0.000000 1.530210 
# 
# From -- ./inp_files/200928.got.cif
#   From: 2010.05.17/outbox.cif.g08.bks.cpg/sg12_101_cif.got.tgz:200928.got - 2010.06.03 13:09:07.
