data_PCOD9190766
_publ_section_title
;
Structure prediction by ZEFSAII (Michael W. Deem and Ramdas Pophale) SiO2 
 PCOD9190766
Probable space group: C 2/M
;
_chemical_formula_sum "Si O2"
_cell_formula_units_Z 56
_cell_length_a 19.434076
_cell_length_b 7.625606
_cell_length_c 25.790789
_cell_angle_alpha 90.000000
_cell_angle_beta 40.771671
_cell_angle_gamma 90.000000
_cell_volume 2496.012872
_symmetry_space_group_name_H-M "C 2/M"
_symmetry_group_IT_number 12
_symmetry_cell_setting 'monoclinic'
loop_
_space_group_symop_operation_xyz
x,y,z
-x,y,-z
-x,-y,-z
x,-y,z
1/2+x,1/2+y,z
1/2-x,1/2+y,-z
1/2-x,1/2-y,-z
1/2+x,1/2-y,z
loop_
_atom_site_type_symbol
_atom_site_label
_atom_site_fract_x
_atom_site_fract_y
_atom_site_fract_z
Si Si1 0.322401 0.206446 0.333125
Si Si2 0.534137 0.288070 0.255607
Si Si3 0.812192 0.797498 0.742712
Si Si4 0.108484 0.703960 0.415090
Si Si5 0.597092 0.214564 0.823373
Si Si6 0.575742 0.213953 0.002784
Si Si7 0.291250 0.710024 0.918929
O O1 0.412197 0.234424 0.324429
O O2 0.205247 0.283235 0.400445
O O3 0.375396 0.276569 0.249681
O O4 0.306495 0.000000 0.336433
O O5 0.532799 0.500000 0.256705
O O6 0.603419 0.224571 0.264941
O O7 0.598635 0.224379 0.167582
O O8 0.856611 0.791260 0.658755
O O9 0.693723 0.725098 0.804901
O O10 0.797491 0.000000 0.766964
O O11 0.091920 0.500000 0.411954
O O12 0.000000 0.775864 0.500000
O O13 0.485279 0.267441 0.910023
O O14 0.598396 0.000000 0.822330
O O15 0.577906 0.000000 0.999508
O O16 0.500000 0.272632 0.000000
O O17 0.695949 0.271720 0.935930
O O18 0.296753 0.500000 0.912864
O O19 0.250000 0.750000 0.000000
#
# Coordination Sequence:
#
# PCOD9190766 Si02
#       7
#     8   8   8   8   8   8   8
#     4  10  20  34  55  79 103 137 179 217 257 313
#     4  10  20  34  51  75 110 146 182 226 270 312
#     4   9  18  33  54  79 107 142 181 219 263 315
#     4  10  21  38  60  85 111 136 165 206 259 320
#     4   8  14  26  44  67  94 126 170 218 257 300
#     4   9  15  24  42  67  93 125 169 216 257 298
#     4  10  20  32  48  72 104 142 181 224 271 314
#
# _framework density 22.435780999999999
#
# number of rings (size 3 to 8) (size 9 to 14) (size 15 to 20)
#    0.000    2.571    0.000    3.429    0.000    6.857 
#    0.000    0.714    0.000    0.429    0.000    0.000 
#    0.000    0.000    0.000    0.000    0.000    0.000 
#
# Total GULP energy -156237.677914 kJ/mol
# GULP energy per Si atom -5579.917068 kJ/mol
# Density = 2.238472 g / cm^3
# Si number density = 22.435781 Si / 1000 Ang^3
#
#
#
# Elastic Constant Matrix: (Units=GPa)
#
#
# Indices 1 2 3 4 5 6 
#
# 1 104.0311 -8.3510 20.9608 0.0008 -29.7964 -0.0006
# 2 -8.3510 47.7527 -3.8995 0.0015 0.6466 -0.0005
# 3 20.9608 -3.8995 89.5637 0.0001 -37.2281 -0.0003
# 4 0.0008 0.0015 0.0001 11.6462 -0.0001 0.2882
# 5 -29.7964 0.6466 -37.2281 -0.0001 34.6814 0.0002
# 6 -0.0006 -0.0005 -0.0003 0.2882 0.0002 11.8972
#
#
#
# Elastic Compliance Matrix: (Units=1/GPa)
#
#
# Indices 1 2 3 4 5 6 
#
# 1 0.013430 0.002404 0.003140 -0.000001 0.014864 0.000001
# 2 0.002404 0.021468 0.001922 -0.000003 0.003728 0.000001
# 3 0.003140 0.001922 0.020983 0.000000 0.025185 0.000000
# 4 -0.000001 -0.000003 0.000000 0.085916 -0.000001 -0.002081
# 5 0.014864 0.003728 0.025185 -0.000001 0.068570 0.000000
# 6 0.000001 0.000001 0.000000 -0.002081 0.000000 0.084104
#
#
# Mechanical properties :
#
#
# Convention : Reuss Voigt Hill
#
# Bulk Modulus (GPa) = 14.12191 28.75200 21.43696
# Shear Modulus (GPa) = 16.49383 27.15411 21.82397
#
# Velocity S-wave (km/s) = 2.71432 3.48272 3.12225
# Velocity P-wave (km/s) = 4.01639 5.38660 4.75115
#
# Compressibility (1/GPa) = 0.07081194
#
# Stress axis : x y z
#
# Youngs Moduli (GPa) = 74.45889 46.58085 47.65854
#
# Poissons Ratio (x) = -0.11197 -0.14965
# Poissons Ratio (y) = -0.17899 -0.09158
# Poissons Ratio (z) = -0.23381 -0.08951
#
# Static dielectric constant tensor:
#      x y z
#    x 1.886520 0.000000 0.000430 
#    y 0.000000 1.843580 0.000000 
#    z 0.000430 0.000000 1.828560 
# 
# From -- ./inp_files/363014.got.cif
#   From: 2010.05.17/outbox.cif.g08.bks.cpg/sg12_182_cif.got.tgz:363014.got - 2010.06.03 13:09:07.
