data_PCOD9190574
_publ_section_title
;
Structure prediction by ZEFSAII (Michael W. Deem and Ramdas Pophale) SiO2 
 PCOD9190574
Probable space group: C 2/M
;
_chemical_formula_sum "Si O2"
_cell_formula_units_Z 48
_cell_length_a 5.142795
_cell_length_b 27.689195
_cell_length_c 23.357133
_cell_angle_alpha 90.000000
_cell_angle_beta 112.201837
_cell_angle_gamma 90.000000
_cell_volume 3079.453712
_symmetry_space_group_name_H-M "C 2/M"
_symmetry_group_IT_number 12
_symmetry_cell_setting 'monoclinic'
loop_
_space_group_symop_operation_xyz
x,y,z
-x,y,-z
-x,-y,-z
x,-y,z
1/2+x,1/2+y,z
1/2-x,1/2+y,-z
1/2-x,1/2-y,-z
1/2+x,1/2-y,z
loop_
_atom_site_type_symbol
_atom_site_label
_atom_site_fract_x
_atom_site_fract_y
_atom_site_fract_z
Si Si1 0.441585 0.941438 0.721447
Si Si2 0.179512 0.873498 0.458492
Si Si3 0.902360 0.775245 0.425174
Si Si4 0.310895 0.441972 0.646860
Si Si5 0.663657 0.441147 0.142154
Si Si6 0.962865 0.441209 0.931552
O O1 0.569198 0.926462 0.670908
O O2 0.638760 0.924414 0.789567
O O3 0.114666 0.929410 0.699011
O O4 0.456169 0.000000 0.723520
O O5 0.500000 0.857738 0.500000
O O6 0.207926 0.916146 0.415481
O O7 0.000000 0.887439 0.500000
O O8 0.007155 0.828472 0.417777
O O9 0.575814 0.762857 0.401733
O O10 0.000000 0.771099 0.500000
O O11 0.298075 0.500000 0.639039
O O12 0.666239 0.500000 0.143990
O O13 0.340047 0.426492 0.118184
O O14 0.795643 0.426486 0.092349
O O15 0.966771 0.500000 0.933218
O O16 0.000000 0.424979 0.000000
#
# Coordination Sequence:
#
# PCOD9190574 Si02
#       6
#     8   8   8   8   8   8
#     4   9  17  29  42  53  67  94 131 165 194 221
#     4  11  21  31  45  63  80 100 124 152 197 247
#     4   9  16  28  45  63  81  98 117 144 181 230
#     4  10  20  32  43  56  76 100 129 165 198 229
#     4   9  15  23  35  48  63  87 119 151 186 227
#     4   9  15  21  30  47  69  88 108 143 193 237
#
# _framework density 15.587180999999999
#
# number of rings (size 3 to 8) (size 9 to 14) (size 15 to 20)
#    0.000    2.500    0.000    5.000    0.000    6.667 
#    0.000    0.000    0.000    0.000    0.000    0.000 
#    0.000    0.000    0.000    0.000    0.000    0.000 
#
# Total GULP energy -133683.401194 kJ/mol
# GULP energy per Si atom -5570.141716 kJ/mol
# Density = 1.555170 g / cm^3
# Si number density = 15.587181 Si / 1000 Ang^3
#
#
#
# Elastic Constant Matrix: (Units=GPa)
#
#
# Indices 1 2 3 4 5 6 
#
# 1 52.4531 1.8983 -15.8048 0.0000 -2.1713 0.0000
# 2 1.8983 21.0311 4.3441 0.0000 -2.5169 0.0000
# 3 -15.8048 4.3441 19.9177 0.0000 -5.2566 0.0000
# 4 0.0000 0.0000 0.0000 -1.0048 0.0000 1.4190
# 5 -2.1713 -2.5169 -5.2566 0.0000 19.7035 0.0000
# 6 0.0000 0.0000 0.0000 1.4190 0.0000 11.4264
#
#
#
# Elastic Compliance Matrix: (Units=1/GPa)
#
#
# Indices 1 2 3 4 5 6 
#
# 1 0.027376 -0.006674 0.025549 0.000000 0.008980 0.000000
# 2 -0.006674 0.051674 -0.016155 0.000000 0.001555 0.000000
# 3 0.025549 -0.016155 0.079822 0.000000 0.022047 0.000000
# 4 0.000000 0.000000 0.000000 -0.846732 0.000000 0.105156
# 5 0.008980 0.001555 0.022047 0.000000 0.057823 0.000000
# 6 0.000000 0.000000 0.000000 0.105156 0.000000 0.074457
#
#
# Mechanical properties :
#
#
# Convention : Reuss Voigt Hill
#
# Bulk Modulus (GPa) = 6.08599 8.25299 7.16949
# Shear Modulus (GPa) = -9.87656 12.88931 1.50637
#
# Velocity S-wave (km/s) = -2.51994 2.87874 0.98413
# Velocity P-wave (km/s) = 2.13397 4.04422 2.42919
#
# Compressibility (1/GPa) = 0.16431188
#
# Stress axis : x y z
#
# Youngs Moduli (GPa) = 36.52823 19.35204 12.52791
#
# Poissons Ratio (x) = 0.12915 -0.32007
# Poissons Ratio (y) = 0.24377 0.20239
# Poissons Ratio (z) = -0.93325 0.31264
#
# Static dielectric constant tensor:
#      x y z
#    x 1.544030 0.000000 0.008120 
#    y 0.000000 1.514170 0.000000 
#    z 0.008120 0.000000 1.530890 
# 
# From -- ./inp_files/253746.got.cif
#   From: 2010.05.17/outbox.cif.g08.bks.cpg/sg12_127_cif.got.tgz:253746.got - 2010.06.03 13:09:07.
