data_PCOD9190166
_publ_section_title
;
Structure prediction by ZEFSAII (Michael W. Deem and Ramdas Pophale) SiO2 
 PCOD9190166
Probable space group: C 2/M
;
_chemical_formula_sum "Si O2"
_cell_formula_units_Z 32
_cell_length_a 8.303590
_cell_length_b 21.960047
_cell_length_c 11.627770
_cell_angle_alpha 90.000000
_cell_angle_beta 131.007450
_cell_angle_gamma 90.000000
_cell_volume 1600.023506
_symmetry_space_group_name_H-M "C 2/M"
_symmetry_group_IT_number 12
_symmetry_cell_setting 'monoclinic'
loop_
_space_group_symop_operation_xyz
x,y,z
-x,y,-z
-x,-y,-z
x,-y,z
1/2+x,1/2+y,z
1/2-x,1/2+y,-z
1/2-x,1/2-y,-z
1/2+x,1/2-y,z
loop_
_atom_site_type_symbol
_atom_site_label
_atom_site_fract_x
_atom_site_fract_y
_atom_site_fract_z
Si Si1 0.445326 0.209090 0.741164
Si Si2 0.500000 0.867719 0.000000
Si Si3 0.500000 0.647140 0.500000
Si Si4 0.048670 0.072018 0.756366
Si Si5 0.634437 0.669388 0.180714
O O1 0.210780 0.188637 0.593389
O O2 0.458233 0.280615 0.774169
O O3 0.625760 0.188530 0.737108
O O4 0.489852 0.174631 0.882692
O O5 0.288412 0.908646 0.904950
O O6 0.510455 0.603909 0.615978
O O7 0.892274 0.103884 0.774643
O O8 0.025218 0.000000 0.739992
O O9 0.500000 0.672529 0.000000
#
# Coordination Sequence:
#
# PCOD9190166 Si02
#       5
#     8   4   4   8   8
#     4  11  22  40  67  96 126 162 206 265 321 364
#     4  10  19  40  66  92 121 164 214 260 308 366
#     4  10  25  44  66  94 127 166 210 258 316 382
#     4  11  24  42  64  92 129 171 211 254 309 376
#     4  12  23  40  67  97 130 159 212 267 312 369
#
# _framework density 19.999706
#
# number of rings (size 3 to 8) (size 9 to 14) (size 15 to 20)
#    0.000    1.000    3.750    4.500    0.000    5.500 
#    0.000    3.750    0.000    0.000    0.000    0.000 
#    0.000    0.000    0.000    0.000    0.000    0.000 
#
# Total GULP energy -89591.544671 kJ/mol
# GULP energy per Si atom -5599.471542 kJ/mol
# Density = 1.995419 g / cm^3
# Si number density = 19.999706 Si / 1000 Ang^3
#
#
#
# Elastic Constant Matrix: (Units=GPa)
#
#
# Indices 1 2 3 4 5 6 
#
# 1 97.0409 12.9657 20.1469 0.0000 7.7939 0.0000
# 2 12.9657 116.6724 28.4273 0.0000 -7.4557 0.0000
# 3 20.1469 28.4273 95.8770 0.0000 13.2898 0.0000
# 4 0.0000 0.0000 0.0000 11.1011 0.0000 -2.3805
# 5 7.7939 -7.4557 13.2898 0.0000 18.2920 0.0000
# 6 0.0000 0.0000 0.0000 -2.3805 0.0000 27.2481
#
#
#
# Elastic Compliance Matrix: (Units=1/GPa)
#
#
# Indices 1 2 3 4 5 6 
#
# 1 0.011087 -0.001155 -0.001409 0.000000 -0.004171 0.000000
# 2 -0.001155 0.010086 -0.003765 0.000000 0.007338 0.000000
# 3 -0.001409 -0.003765 0.013313 0.000000 -0.010606 0.000000
# 4 0.000000 0.000000 0.000000 0.091801 0.000000 0.008020
# 5 -0.004171 0.007338 -0.010606 0.000000 0.067143 0.000000
# 6 0.000000 0.000000 0.000000 0.008020 0.000000 0.037401
#
#
# Mechanical properties :
#
#
# Convention : Reuss Voigt Hill
#
# Bulk Modulus (GPa) = 45.81527 48.07445 46.94486
# Shear Modulus (GPa) = 19.93913 27.86492 23.90202
#
# Velocity S-wave (km/s) = 3.16091 3.73670 3.46080
# Velocity P-wave (km/s) = 6.02325 6.53506 6.28436
#
# Compressibility (1/GPa) = 0.02182679
#
# Stress axis : x y z
#
# Youngs Moduli (GPa) = 90.19713 99.15098 75.11733
#
# Poissons Ratio (x) = 0.11455 0.10584
# Poissons Ratio (y) = 0.10421 0.28280
# Poissons Ratio (z) = 0.12709 0.37328
#
# Static dielectric constant tensor:
#      x y z
#    x 1.712000 0.000000 0.000320 
#    y 0.000000 1.650110 0.000000 
#    z 0.000320 0.000000 1.711450 
# 
# From -- ./inp_files/37684.got.cif
#   From: 2010.05.17/outbox.cif.g08.bks.cpg/sg12_19_cif.got.tgz:37684.got - 2010.06.03 13:09:07.
