data_PCOD9190659
_publ_section_title
;
Structure prediction by ZEFSAII (Michael W. Deem and Ramdas Pophale) SiO2 
 PCOD9190659
Probable space group: C 2/M
;
_chemical_formula_sum "Si O2"
_cell_formula_units_Z 40
_cell_length_a 8.850991
_cell_length_b 21.085909
_cell_length_c 13.041031
_cell_angle_alpha 90.000000
_cell_angle_beta 77.034312
_cell_angle_gamma 90.000000
_cell_volume 2371.810839
_symmetry_space_group_name_H-M "C 2/M"
_symmetry_group_IT_number 12
_symmetry_cell_setting 'monoclinic'
loop_
_space_group_symop_operation_xyz
x,y,z
-x,y,-z
-x,-y,-z
x,-y,z
1/2+x,1/2+y,z
1/2-x,1/2+y,-z
1/2-x,1/2-y,-z
1/2+x,1/2-y,z
loop_
_atom_site_type_symbol
_atom_site_label
_atom_site_fract_x
_atom_site_fract_y
_atom_site_fract_z
Si Si1 0.198596 0.930663 0.653097
Si Si2 0.221514 0.297632 0.597236
Si Si3 0.593659 0.226091 0.077124
Si Si4 0.500000 0.119370 0.500000
Si Si5 0.000000 0.113210 0.500000
Si Si6 0.818771 0.803081 0.215392
O O1 0.365289 0.920096 0.574472
O O2 0.080632 0.926286 0.576325
O O3 0.165532 0.869867 0.729349
O O4 0.190093 0.000000 0.704132
O O5 0.250000 0.250000 0.500000
O O6 0.075202 0.337946 0.579202
O O7 0.370658 0.342992 0.574574
O O8 0.204306 0.254816 0.700370
O O9 0.666724 0.192815 0.165775
O O10 0.474944 0.281397 0.131578
O O11 0.500000 0.190458 0.000000
O O12 0.750000 0.250000 0.000000
#
# Coordination Sequence:
#
# PCOD9190659 Si02
#       6
#     8   8   8   4   4   8
#     4  11  22  33  47  71 109 152 187 201 234 304
#     4  11  19  29  52  81 111 129 172 214 263 309
#     4   9  20  36  54  79 100 119 160 226 287 317
#     4  10  20  32  46  72 113 151 174 214 244 289
#     4  10  20  32  46  72 113 147 172 214 246 291
#     4  11  19  31  56  77 102 135 167 211 268 311
#
# _framework density 16.864750999999998
#
# number of rings (size 3 to 8) (size 9 to 14) (size 15 to 20)
#    0.000    1.600    4.000    3.600    0.000    0.000 
#    0.000    0.000    0.000    6.000    0.000    0.000 
#    0.000    0.000    0.000    0.000    0.000    0.000 
#
# Total GULP energy -111404.169160 kJ/mol
# GULP energy per Si atom -5570.208458 kJ/mol
# Density = 1.682637 g / cm^3
# Si number density = 16.864751 Si / 1000 Ang^3
#
#
#
# Elastic Constant Matrix: (Units=GPa)
#
#
# Indices 1 2 3 4 5 6 
#
# 1 115.4487 38.6607 37.1532 0.0000 15.8184 0.0000
# 2 38.6607 99.5764 32.4746 0.0000 6.1559 0.0000
# 3 37.1532 32.4746 78.3500 0.0000 7.9533 0.0000
# 4 0.0000 0.0000 0.0000 9.3295 0.0000 0.8384
# 5 15.8184 6.1559 7.9533 0.0000 37.6839 0.0000
# 6 0.0000 0.0000 0.0000 0.8384 0.0000 -2.6943
#
#
#
# Elastic Compliance Matrix: (Units=1/GPa)
#
#
# Indices 1 2 3 4 5 6 
#
# 1 0.011352 -0.002951 -0.003807 0.000000 -0.003480 0.000000
# 2 -0.002951 0.012409 -0.003744 0.000000 0.000002 0.000000
# 3 -0.003807 -0.003744 0.016244 0.000000 -0.001219 0.000000
# 4 0.000000 0.000000 0.000000 0.104271 0.000000 0.032446
# 5 -0.003480 0.000002 -0.001219 0.000000 0.028254 0.000000
# 6 0.000000 0.000000 0.000000 0.032446 0.000000 -0.361052
#
#
# Mechanical properties :
#
#
# Convention : Reuss Voigt Hill
#
# Bulk Modulus (GPa) = 52.62760 56.66134 54.64447
# Shear Modulus (GPa) = -31.02029 21.20293 -4.90868
#
# Velocity S-wave (km/s) = -4.29342 3.54960 -1.70790
# Velocity P-wave (km/s) = 2.58755 7.10422 5.34628
#
# Compressibility (1/GPa) = 0.01900144
#
# Stress axis : x y z
#
# Youngs Moduli (GPa) = 88.09158 80.58535 61.56101
#
# Poissons Ratio (x) = 0.23779 0.23435
# Poissons Ratio (y) = 0.25994 0.23050
# Poissons Ratio (z) = 0.33534 0.30174
#
# Static dielectric constant tensor:
#      x y z
#    x 1.593640 0.000000 0.015890 
#    y 0.000000 1.617190 0.000000 
#    z 0.015890 0.000000 1.603450 
# 
# From -- ./inp_files/121314.got.cif
#   From: 2010.05.17/outbox.cif.g08.bks.cpg/sg12_61_cif.got.tgz:121314.got - 2010.06.03 13:09:07.
