data_PCOD9190300
_publ_section_title
;
Structure prediction by ZEFSAII (Michael W. Deem and Ramdas Pophale) SiO2 
 PCOD9190300
Probable space group: C 2/M
;
_chemical_formula_sum "Si O2"
_cell_formula_units_Z 56
_cell_length_a 16.133078
_cell_length_b 24.419702
_cell_length_c 9.964837
_cell_angle_alpha 90.000000
_cell_angle_beta 56.227624
_cell_angle_gamma 90.000000
_cell_volume 3263.328534
_symmetry_space_group_name_H-M "C 2/M"
_symmetry_group_IT_number 12
_symmetry_cell_setting 'monoclinic'
loop_
_space_group_symop_operation_xyz
x,y,z
-x,y,-z
-x,-y,-z
x,-y,z
1/2+x,1/2+y,z
1/2-x,1/2+y,-z
1/2-x,1/2-y,-z
1/2+x,1/2-y,z
loop_
_atom_site_type_symbol
_atom_site_label
_atom_site_fract_x
_atom_site_fract_y
_atom_site_fract_z
Si Si1 0.067691 0.061781 0.306893
Si Si2 0.784895 0.159932 0.903380
Si Si3 0.117942 0.294682 0.875102
Si Si4 0.281849 0.326394 0.218756
Si Si5 0.452549 0.384123 0.189896
Si Si6 0.476447 0.711223 0.674373
Si Si7 0.654787 0.790338 0.557256
O O1 0.154520 0.107391 0.209800
O O2 0.000000 0.071246 0.500000
O O3 0.993288 0.067437 0.245798
O O4 0.107664 0.000000 0.277551
O O5 0.680190 0.173210 0.930494
O O6 0.857775 0.211705 0.801413
O O7 0.775050 0.155031 0.071798
O O8 0.154536 0.230785 0.840978
O O9 0.147220 0.321196 0.705092
O O10 0.000000 0.295362 0.000000
O O11 0.338723 0.371241 0.258978
O O12 0.180987 0.316106 0.391045
O O13 0.488932 0.332784 0.246397
O O14 0.500000 0.385425 0.000000
O O15 0.500000 0.694802 0.500000
O O16 0.547689 0.761785 0.638909
O O17 0.750000 0.750000 0.500000
#
# Coordination Sequence:
#
# PCOD9190300 Si02
#       7
#     8   8   8   8   8   8   8
#     4  10  23  39  59  86 111 138 184 236 282 335
#     4  11  22  36  55  76 106 152 182 232 283 323
#     4  11  22  35  52  75 112 147 192 230 262 324
#     4  11  20  33  48  80 112 150 188 215 263 331
#     4  11  18  32  53  77 112 146 180 221 272 329
#     4  11  19  31  49  71 103 148 191 217 259 319
#     4  10  20  30  46  70 107 145 191 218 255 311
#
# _framework density 17.160392000000002
#
# number of rings (size 3 to 8) (size 9 to 14) (size 15 to 20)
#    0.000    1.286    5.714    5.143    2.000    1.429 
#    0.000    0.000    0.000    0.429    0.000    0.000 
#    0.000    1.143    0.000    0.000    0.000    0.000 
#
# Total GULP energy -155959.772497 kJ/mol
# GULP energy per Si atom -5569.991875 kJ/mol
# Density = 1.712133 g / cm^3
# Si number density = 17.160392 Si / 1000 Ang^3
#
#
#
# Elastic Constant Matrix: (Units=GPa)
#
#
# Indices 1 2 3 4 5 6 
#
# 1 100.8156 23.8899 38.8130 0.0000 3.9199 0.0000
# 2 23.8899 43.4326 8.4332 0.0000 -0.5940 0.0000
# 3 38.8130 8.4332 117.6609 0.0000 20.8071 0.0000
# 4 0.0000 0.0000 0.0000 4.4160 0.0000 1.0056
# 5 3.9199 -0.5940 20.8071 0.0000 34.2979 0.0000
# 6 0.0000 0.0000 0.0000 1.0056 0.0000 14.9933
#
#
#
# Elastic Compliance Matrix: (Units=1/GPa)
#
#
# Indices 1 2 3 4 5 6 
#
# 1 0.012905 -0.006321 -0.003947 0.000000 0.000810 0.000000
# 2 -0.006321 0.026523 -0.000028 0.000000 0.001199 0.000000
# 3 -0.003947 -0.000028 0.010892 0.000000 -0.006157 0.000000
# 4 0.000000 0.000000 0.000000 0.229959 0.000000 -0.015423
# 5 0.000810 0.001199 -0.006157 0.000000 0.032820 0.000000
# 6 0.000000 0.000000 0.000000 -0.015423 0.000000 0.067731
#
#
# Mechanical properties :
#
#
# Convention : Reuss Voigt Hill
#
# Bulk Modulus (GPa) = 33.63866 44.90904 39.27385
# Shear Modulus (GPa) = 12.15567 23.45966 17.80766
#
# Velocity S-wave (km/s) = 2.66438 3.70142 3.22486
# Velocity P-wave (km/s) = 5.39540 6.67041 6.06649
#
# Compressibility (1/GPa) = 0.02972770
#
# Stress axis : x y z
#
# Youngs Moduli (GPa) = 77.48888 37.70345 91.81140
#
# Poissons Ratio (x) = 0.23832 0.36240
# Poissons Ratio (y) = 0.48980 0.00256
# Poissons Ratio (z) = 0.30587 0.00105
#
# Static dielectric constant tensor:
#      x y z
#    x 1.625200 0.000000 0.010220 
#    y 0.000000 1.600450 0.000000 
#    z 0.010220 0.000000 1.628840 
# 
# From -- ./inp_files/67799.got.cif
#   From: 2010.05.17/outbox.cif.g08.bks.cpg/sg12_34_cif.got.tgz:67799.got - 2010.06.03 13:09:07.
