data_PCOD9190094
_publ_section_title
;
Structure prediction by ZEFSAII (Michael W. Deem and Ramdas Pophale) SiO2 
 PCOD9190094
Probable space group: C 2/M
;
_chemical_formula_sum "Si O2"
_cell_formula_units_Z 36
_cell_length_a 15.427838
_cell_length_b 14.862203
_cell_length_c 22.339127
_cell_angle_alpha 90.000000
_cell_angle_beta 162.205988
_cell_angle_gamma 90.000000
_cell_volume 1565.315304
_symmetry_space_group_name_H-M "C 2/M"
_symmetry_group_IT_number 12
_symmetry_cell_setting 'monoclinic'
loop_
_space_group_symop_operation_xyz
x,y,z
-x,y,-z
-x,-y,-z
x,-y,z
1/2+x,1/2+y,z
1/2-x,1/2+y,-z
1/2-x,1/2-y,-z
1/2+x,1/2-y,z
loop_
_atom_site_type_symbol
_atom_site_label
_atom_site_fract_x
_atom_site_fract_y
_atom_site_fract_z
Si Si1 0.504275 0.693324 0.371095
Si Si2 0.675653 0.000000 0.306903
Si Si3 0.133251 0.500000 0.654774
Si Si4 0.038907 0.186710 0.117416
Si Si5 0.435637 0.187353 0.755421
Si Si6 0.662150 0.500000 0.448565
O O1 0.750000 0.750000 0.500000
O O2 0.220700 0.748997 0.194476
O O3 0.640939 0.682799 0.527036
O O4 0.487233 0.593246 0.332982
O O5 0.532996 0.091558 0.190725
O O6 0.673179 0.000000 0.378444
O O7 0.000000 0.000000 0.500000
O O8 0.324297 0.588347 0.791552
O O9 0.000000 0.500000 0.500000
O O10 0.882415 0.500000 0.538896
O O11 0.061491 0.228911 0.198880
O O12 0.702269 0.189389 0.885722
#
# Coordination Sequence:
#
# PCOD9190094 Si02
#       6
#     8   4   4   8   8   4
#     4  11  21  39  62  87 125 157 208 260 317 374
#     4  10  19  39  68  93 127 157 212 268 312 375
#     4  12  23  39  62  89 130 167 209 257 316 388
#     4  11  23  39  62  91 125 166 208 257 318 378
#     4  10  22  39  61  94 121 162 211 258 316 379
#     4  10  22  38  61  97 113 164 214 254 316 377
#
# _framework density 22.998560000000001
#
# number of rings (size 3 to 8) (size 9 to 14) (size 15 to 20)
#    0.000    1.333    2.222    5.333    0.000    0.889 
#    0.000    3.333    0.000    1.333    0.000    0.000 
#    0.000    0.000    0.000    0.000    0.000    0.000 
#
# Total GULP energy -100645.575141 kJ/mol
# GULP energy per Si atom -5591.420841 kJ/mol
# Density = 2.294621 g / cm^3
# Si number density = 22.998560 Si / 1000 Ang^3
#
#
#
# Elastic Constant Matrix: (Units=GPa)
#
#
# Indices 1 2 3 4 5 6 
#
# 1 106.5705 42.7094 35.7633 0.0507 28.4706 -0.0134
# 2 42.7094 211.6077 54.4522 0.2570 37.0183 -0.0650
# 3 35.7633 54.4522 110.4555 0.2570 37.0721 -0.0899
# 4 0.0507 0.2570 0.2570 19.6977 -0.0693 22.5012
# 5 28.4706 37.0183 37.0721 -0.0693 46.5061 0.0053
# 6 -0.0134 -0.0650 -0.0899 22.5012 0.0053 35.1472
#
#
#
# Elastic Compliance Matrix: (Units=1/GPa)
#
#
# Indices 1 2 3 4 5 6 
#
# 1 0.011688 -0.001073 -0.001557 -0.000047 -0.005060 0.000030
# 2 -0.001073 0.005831 -0.001623 -0.000258 -0.002691 0.000172
# 3 -0.001557 -0.001623 0.013116 -0.000783 -0.008211 0.000533
# 4 -0.000047 -0.000258 -0.000783 0.189028 0.001154 -0.121018
# 5 -0.005060 -0.002691 -0.008211 0.001154 0.033290 -0.000772
# 6 0.000030 0.000172 0.000533 -0.121018 -0.000772 0.105929
#
#
# Mechanical properties :
#
#
# Convention : Reuss Voigt Hill
#
# Bulk Modulus (GPa) = 45.19061 77.16485 61.17773
# Shear Modulus (GPa) = 13.34172 39.98412 26.66292
#
# Velocity S-wave (km/s) = 2.41116 4.17411 3.40859
# Velocity P-wave (km/s) = 5.23866 7.54028 6.49228
#
# Compressibility (1/GPa) = 0.02212849
#
# Stress axis : x y z
#
# Youngs Moduli (GPa) = 85.55939 171.49285 76.24298
#
# Poissons Ratio (x) = 0.18403 0.11870
# Poissons Ratio (y) = 0.09182 0.12376
# Poissons Ratio (z) = 0.13320 0.27838
#
# Static dielectric constant tensor:
#      x y z
#    x 1.959930 -0.000020 -0.033550 
#    y -0.000020 1.913180 -0.000040 
#    z -0.033550 -0.000040 1.843790 
# 
# From -- ./inp_files/155055.got.cif
#   From: 2010.05.17/outbox.cif.g08.bks.cpg/sg12_78_cif.got.tgz:155055.got - 2010.06.03 13:09:07.
