data_PCOD9190540
_publ_section_title
;
Structure prediction by ZEFSAII (Michael W. Deem and Ramdas Pophale) SiO2 
 PCOD9190540
Probable space group: C 2/M
;
_chemical_formula_sum "Si O2"
_cell_formula_units_Z 36
_cell_length_a 10.143235
_cell_length_b 15.926633
_cell_length_c 13.502959
_cell_angle_alpha 90.000000
_cell_angle_beta 132.633589
_cell_angle_gamma 90.000000
_cell_volume 1604.834505
_symmetry_space_group_name_H-M "C 2/M"
_symmetry_group_IT_number 12
_symmetry_cell_setting 'monoclinic'
loop_
_space_group_symop_operation_xyz
x,y,z
-x,y,-z
-x,-y,-z
x,-y,z
1/2+x,1/2+y,z
1/2-x,1/2+y,-z
1/2-x,1/2-y,-z
1/2+x,1/2-y,z
loop_
_atom_site_type_symbol
_atom_site_label
_atom_site_fract_x
_atom_site_fract_y
_atom_site_fract_z
Si Si1 0.082490 0.898609 0.191105
Si Si2 0.219166 0.397351 0.909553
Si Si3 0.655069 0.864290 0.509400
Si Si4 0.324344 0.905234 0.705768
Si Si5 0.500000 0.703102 0.500000
O O1 0.212687 0.872552 0.165874
O O2 0.165312 0.869293 0.335551
O O3 0.081689 0.000000 0.190290
O O4 0.880018 0.871525 0.063896
O O5 0.210526 0.500000 0.904540
O O6 0.018733 0.369458 0.834912
O O7 0.500000 0.904044 0.500000
O O8 0.665854 0.906116 0.409174
O O9 0.591988 0.767898 0.471631
O O10 0.148043 0.850742 0.632256
O O11 0.302676 0.000000 0.732995
#
# Coordination Sequence:
#
# PCOD9190540 Si02
#       5
#     8   8   8   8   4
#     4   9  15  27  46  78 105 128 163 213 257 298
#     4   8  15  26  47  73 104 130 163 209 256 295
#     4  10  20  31  53  75 107 128 166 212 263 288
#     4  11  20  35  56  77  99 137 177 209 245 303
#     4  10  23  36  49  74 112 140 164 204 259 308
#
# _framework density 22.432217999999999
#
# number of rings (size 3 to 8) (size 9 to 14) (size 15 to 20)
#    0.667    1.778    2.222    3.000    0.000    0.889 
#    0.000    1.111    0.000    4.000    0.000    6.222 
#    0.000    0.000    0.000    0.000    0.000    0.000 
#
# Total GULP energy -100442.696470 kJ/mol
# GULP energy per Si atom -5580.149804 kJ/mol
# Density = 2.238116 g / cm^3
# Si number density = 22.432218 Si / 1000 Ang^3
#
#
#
# Elastic Constant Matrix: (Units=GPa)
#
#
# Indices 1 2 3 4 5 6 
#
# 1 53.1686 20.6829 22.2312 0.0000 28.2368 0.0000
# 2 20.6829 61.5746 18.4215 0.0000 28.1032 0.0000
# 3 22.2312 18.4215 130.0036 0.0000 43.5500 0.0000
# 4 0.0000 0.0000 0.0000 22.7176 0.0000 12.7877
# 5 28.2368 28.1032 43.5500 0.0000 43.8232 0.0000
# 6 0.0000 0.0000 0.0000 12.7877 0.0000 17.5128
#
#
#
# Elastic Compliance Matrix: (Units=1/GPa)
#
#
# Indices 1 2 3 4 5 6 
#
# 1 0.028990 -0.001320 0.001804 0.000000 -0.019625 0.000000
# 2 -0.001320 0.023584 0.002496 0.000000 -0.016754 0.000000
# 3 0.001804 0.002496 0.011926 0.000000 -0.014615 0.000000
# 4 0.000000 0.000000 0.000000 0.074738 0.000000 -0.054573
# 5 -0.019625 -0.016754 -0.014615 0.000000 0.060732 0.000000
# 6 0.000000 0.000000 0.000000 -0.054573 0.000000 0.096950
#
#
# Mechanical properties :
#
#
# Convention : Reuss Voigt Hill
#
# Bulk Modulus (GPa) = 14.19253 40.82425 27.50839
# Shear Modulus (GPa) = 15.90103 29.03813 22.46958
#
# Velocity S-wave (km/s) = 2.66531 3.60180 3.16834
# Velocity P-wave (km/s) = 3.97648 5.96118 5.06696
#
# Compressibility (1/GPa) = 0.07045962
#
# Stress axis : x y z
#
# Youngs Moduli (GPa) = 34.49467 42.40192 83.85329
#
# Poissons Ratio (x) = 0.05598 -0.15127
# Poissons Ratio (y) = 0.04554 -0.20933
# Poissons Ratio (z) = -0.06223 -0.10585
#
# Static dielectric constant tensor:
#      x y z
#    x 1.876510 0.000000 0.057940 
#    y 0.000000 1.844560 0.000000 
#    z 0.057940 0.000000 1.827950 
# 
# From -- ./inp_files/176969.got.cif
#   From: 2010.05.17/outbox.cif.g08.bks.cpg/sg12_89_cif.got.tgz:176969.got - 2010.06.03 13:09:07.
