data_PCOD9190350
_publ_section_title
;
Structure prediction by ZEFSAII (Michael W. Deem and Ramdas Pophale) SiO2 
 PCOD9190350
Probable space group: C 2/M
;
_chemical_formula_sum "Si O2"
_cell_formula_units_Z 40
_cell_length_a 5.368376
_cell_length_b 20.213062
_cell_length_c 21.490293
_cell_angle_alpha 90.000000
_cell_angle_beta 60.412275
_cell_angle_gamma 90.000000
_cell_volume 2027.856725
_symmetry_space_group_name_H-M "C 2/M"
_symmetry_group_IT_number 12
_symmetry_cell_setting 'monoclinic'
loop_
_space_group_symop_operation_xyz
x,y,z
-x,y,-z
-x,-y,-z
x,-y,z
1/2+x,1/2+y,z
1/2-x,1/2+y,-z
1/2-x,1/2-y,-z
1/2+x,1/2-y,z
loop_
_atom_site_type_symbol
_atom_site_label
_atom_site_fract_x
_atom_site_fract_y
_atom_site_fract_z
Si Si1 0.666561 0.579690 0.542171
Si Si2 0.667135 0.580480 0.917660
Si Si3 0.607893 0.771426 0.612717
Si Si4 0.833583 0.080089 0.833615
Si Si5 0.615790 0.644060 0.678840
O O1 0.500000 0.600870 0.500000
O O2 0.658082 0.500000 0.543779
O O3 0.556679 0.604910 0.622452
O O4 0.000000 0.600836 0.500000
O O5 0.663707 0.500000 0.919055
O O6 0.502086 0.600355 0.875270
O O7 0.000026 0.600022 0.877201
O O8 0.500000 0.602917 0.000000
O O9 0.944986 0.760730 0.574257
O O10 0.511542 0.719081 0.678794
O O11 0.458893 0.841616 0.642291
O O12 0.983559 0.110162 0.754509
O O13 0.844753 0.000000 0.828260
#
# Coordination Sequence:
#
# PCOD9190350 Si02
#       5
#     8   8   8   8   8
#     4  10  23  38  55  78 108 145 169 207 272 313
#     4   9  18  32  47  75 114 139 165 204 257 319
#     4   8  20  34  53  76 101 136 170 216 274 288
#     4  10  20  30  54  82 101 139 172 209 263 302
#     4  10  21  37  57  76 109 128 186 222 244 316
#
# _framework density 19.725256999999999
#
# number of rings (size 3 to 8) (size 9 to 14) (size 15 to 20)
#    1.200    1.400    0.000    1.200    5.600    2.400 
#    0.000    9.000    0.000    0.000    0.000   14.000 
#    0.000    0.000    0.000    0.000    0.000    0.000 
#
# Total GULP energy -111336.842291 kJ/mol
# GULP energy per Si atom -5566.842115 kJ/mol
# Density = 1.968036 g / cm^3
# Si number density = 19.725257 Si / 1000 Ang^3
#
#
#
# Elastic Constant Matrix: (Units=GPa)
#
#
# Indices 1 2 3 4 5 6 
#
# 1 177.9939 15.3224 70.1513 0.0000 26.7513 0.0000
# 2 15.3224 25.9040 27.4455 0.0000 7.2172 0.0000
# 3 70.1513 27.4455 169.7403 0.0000 25.5059 0.0000
# 4 0.0000 0.0000 0.0000 5.6751 0.0000 6.8626
# 5 26.7513 7.2172 25.5059 0.0000 25.4110 0.0000
# 6 0.0000 0.0000 0.0000 6.8626 0.0000 15.1203
#
#
#
# Elastic Compliance Matrix: (Units=1/GPa)
#
#
# Indices 1 2 3 4 5 6 
#
# 1 0.007316 -0.000576 -0.002117 0.000000 -0.005413 0.000000
# 2 -0.000576 0.047612 -0.006500 0.000000 -0.006392 0.000000
# 3 -0.002117 -0.006500 0.008485 0.000000 -0.004442 0.000000
# 4 0.000000 0.000000 0.000000 0.390561 0.000000 -0.177262
# 5 -0.005413 -0.006392 -0.004442 0.000000 0.051325 0.000000
# 6 0.000000 0.000000 0.000000 -0.177262 0.000000 0.146590
#
#
# Mechanical properties :
#
#
# Convention : Reuss Voigt Hill
#
# Bulk Modulus (GPa) = 22.20907 66.60854 44.40881
# Shear Modulus (GPa) = 7.29625 26.62256 16.95941
#
# Velocity S-wave (km/s) = 1.92535 3.67777 2.93538
# Velocity P-wave (km/s) = 4.02818 7.20251 5.83534
#
# Compressibility (1/GPa) = 0.04502664
#
# Stress axis : x y z
#
# Youngs Moduli (GPa) = 136.69362 21.00292 117.86016
#
# Poissons Ratio (x) = 0.01210 0.24950
# Poissons Ratio (y) = 0.07877 0.76608
# Poissons Ratio (z) = 0.28937 0.13652
#
# Static dielectric constant tensor:
#      x y z
#    x 1.825290 0.000000 0.001680 
#    y 0.000000 1.712550 0.000000 
#    z 0.001680 0.000000 1.645540 
# 
# From -- ./inp_files/253042.got.cif
#   From: 2010.05.17/outbox.cif.g08.bks.cpg/sg12_127_cif.got.tgz:253042.got - 2010.06.03 13:09:07.
