data_PCOD9190081
_publ_section_title
;
Structure prediction by ZEFSAII (Michael W. Deem and Ramdas Pophale) SiO2 
 PCOD9190081
Probable space group: C 2/M
;
_chemical_formula_sum "Si O2"
_cell_formula_units_Z 52
_cell_length_a 15.176967
_cell_length_b 30.345462
_cell_length_c 9.003020
_cell_angle_alpha 90.000000
_cell_angle_beta 38.408572
_cell_angle_gamma 90.000000
_cell_volume 2575.988152
_symmetry_space_group_name_H-M "C 2/M"
_symmetry_group_IT_number 12
_symmetry_cell_setting 'monoclinic'
loop_
_space_group_symop_operation_xyz
x,y,z
-x,y,-z
-x,-y,-z
x,-y,z
1/2+x,1/2+y,z
1/2-x,1/2+y,-z
1/2-x,1/2-y,-z
1/2+x,1/2-y,z
loop_
_atom_site_type_symbol
_atom_site_label
_atom_site_fract_x
_atom_site_fract_y
_atom_site_fract_z
Si Si1 0.036599 0.405081 0.222454
Si Si2 0.141205 0.223038 0.240850
Si Si3 0.172086 0.000000 0.783165
Si Si4 0.983036 0.832448 0.866251
Si Si5 0.759032 0.403322 0.772889
Si Si6 0.741740 0.797036 0.593814
Si Si7 0.000000 0.650130 0.000000
Si Si8 0.448582 0.000000 0.237749
O O1 0.157938 0.397278 0.182310
O O2 0.881597 0.390935 0.491366
O O3 0.014002 0.456812 0.226167
O O4 0.076071 0.381825 0.016159
O O5 0.082779 0.188884 0.195238
O O6 0.225941 0.207772 0.273940
O O7 0.000000 0.245135 0.500000
O O8 0.250000 0.250000 0.000000
O O9 0.215802 0.045662 0.805866
O O10 0.277701 0.000000 0.497686
O O11 0.000000 0.000000 0.000000
O O12 0.147409 0.834192 0.606276
O O13 0.881902 0.873248 0.040395
O O14 0.000000 0.805451 0.000000
O O15 0.750000 0.750000 0.500000
O O16 0.589075 0.817443 0.779974
O O17 0.500000 0.000000 0.000000
#
# Coordination Sequence:
#
# PCOD9190081 Si02
#       8
#     8   8   4   8   8   8   4   4
#     4  10  21  39  64 100 127 175 213 260 320 385
#     4  10  23  41  62  89 118 159 207 262 325 390
#     4  10  21  37  67 100 129 175 224 261 307 391
#     4  11  22  41  64  89 126 167 206 265 336 378
#     4  10  21  40  64  96 134 166 217 264 316 381
#     4  11  26  42  64  89 123 167 213 269 338 390
#     4  12  24  39  64  92 124 160 224 265 314 406
#     4  10  19  39  67  93 142 173 210 265 322 383
#
# _framework density 20.186427999999999
#
# number of rings (size 3 to 8) (size 9 to 14) (size 15 to 20)
#    0.000    1.538    0.769    3.692    5.385    3.077 
#    2.769    0.000    0.000    0.923    0.000    0.000 
#    0.000    0.000    0.000    0.000    0.000    0.000 
#
# Total GULP energy -144748.289137 kJ/mol
# GULP energy per Si atom -5567.241890 kJ/mol
# Density = 2.014048 g / cm^3
# Si number density = 20.186428 Si / 1000 Ang^3
#
#
#
# Elastic Constant Matrix: (Units=GPa)
#
#
# Indices 1 2 3 4 5 6 
#
# 1 96.0973 31.5350 22.7502 0.0000 15.1671 0.0000
# 2 31.5350 86.8861 56.7621 0.0000 -7.5032 0.0000
# 3 22.7502 56.7621 117.1554 0.0000 -1.7067 0.0000
# 4 0.0000 0.0000 0.0000 39.0143 0.0000 0.4421
# 5 15.1671 -7.5032 -1.7067 0.0000 44.6367 0.0000
# 6 0.0000 0.0000 0.0000 0.4421 0.0000 15.7141
#
#
#
# Elastic Compliance Matrix: (Units=1/GPa)
#
#
# Indices 1 2 3 4 5 6 
#
# 1 0.012925 -0.005055 -0.000137 0.000000 -0.005247 0.000000
# 2 -0.005055 0.019104 -0.008207 0.000000 0.004615 0.000000
# 3 -0.000137 -0.008207 0.012526 0.000000 -0.000854 0.000000
# 4 0.000000 0.000000 0.000000 0.025640 0.000000 -0.000721
# 5 -0.005247 0.004615 -0.000854 0.000000 0.024929 0.000000
# 6 0.000000 0.000000 0.000000 -0.000721 0.000000 0.063658
#
#
# Mechanical properties :
#
#
# Convention : Reuss Voigt Hill
#
# Bulk Modulus (GPa) = 56.31442 58.02592 57.17017
# Shear Modulus (GPa) = 26.10966 32.47910 29.29438
#
# Velocity S-wave (km/s) = 3.60033 4.01553 3.81358
# Velocity P-wave (km/s) = 6.72613 7.09273 6.91186
#
# Compressibility (1/GPa) = 0.01775744
#
# Stress axis : x y z
#
# Youngs Moduli (GPa) = 77.36665 52.34472 79.83172
#
# Poissons Ratio (x) = 0.26458 0.01097
# Poissons Ratio (y) = 0.39105 0.65520
# Poissons Ratio (z) = 0.01064 0.42960
#
# Static dielectric constant tensor:
#      x y z
#    x 1.409580 0.000000 0.003250 
#    y 0.000000 1.711350 0.000000 
#    z 0.003250 0.000000 1.782640 
# 
# From -- ./inp_files/68551.got.cif
#   From: 2010.05.17/outbox.cif.g08.bks.cpg/sg12_35_cif.got.tgz:68551.got - 2010.06.03 13:09:07.
