data_PCOD9190417
_publ_section_title
;
Structure prediction by ZEFSAII (Michael W. Deem and Ramdas Pophale) SiO2 
 PCOD9190417
Probable space group: C 2/M
;
_chemical_formula_sum "Si O2"
_cell_formula_units_Z 56
_cell_length_a 14.974780
_cell_length_b 9.475111
_cell_length_c 21.750828
_cell_angle_alpha 90.000000
_cell_angle_beta 113.525713
_cell_angle_gamma 90.000000
_cell_volume 2829.655337
_symmetry_space_group_name_H-M "C 2/M"
_symmetry_group_IT_number 12
_symmetry_cell_setting 'monoclinic'
loop_
_space_group_symop_operation_xyz
x,y,z
-x,y,-z
-x,-y,-z
x,-y,z
1/2+x,1/2+y,z
1/2-x,1/2+y,-z
1/2-x,1/2-y,-z
1/2+x,1/2-y,z
loop_
_atom_site_type_symbol
_atom_site_label
_atom_site_fract_x
_atom_site_fract_y
_atom_site_fract_z
Si Si1 0.354497 0.160584 0.964610
Si Si2 0.710665 0.328050 0.678554
Si Si3 0.890452 0.669206 0.641653
Si Si4 0.623119 0.658050 0.916493
Si Si5 0.501948 0.330877 0.428201
Si Si6 0.479361 0.160118 0.208064
Si Si7 0.327578 0.163171 0.823303
O O1 0.239994 0.150586 0.949281
O O2 0.353395 0.227128 0.896225
O O3 0.392486 0.000000 0.974327
O O4 0.405387 0.249336 0.032085
O O5 0.715164 0.500000 0.682831
O O6 0.791269 0.287811 0.649566
O O7 0.602830 0.288923 0.628799
O O8 0.745454 0.275437 0.755290
O O9 0.886988 0.500000 0.631523
O O10 0.914357 0.750673 0.586089
O O11 0.978778 0.698587 0.713825
O O12 0.583221 0.500000 0.908401
O O13 0.592322 0.733297 0.844994
O O14 0.500000 0.299561 0.500000
O O15 0.513477 0.500000 0.424208
O O16 0.575776 0.158929 0.191535
O O17 0.440334 0.000000 0.198427
O O18 0.299129 0.000000 0.829693
#
# Coordination Sequence:
#
# PCOD9190417 Si02
#       7
#     8   8   8   8   8   8   8
#     4   9  18  32  49  68  92 128 175 211 244 297
#     4   8  16  33  55  77 108 143 179 219 263 319
#     4   9  19  36  56  79 106 143 182 220 265 314
#     4  10  20  31  46  71 101 131 163 204 262 309
#     4  10  21  35  55  85 114 142 177 217 265 318
#     4   9  18  33  52  72  95 124 168 216 254 298
#     4   8  15  30  52  72  88 125 178 213 242 298
#
# _framework density 19.790396000000001
#
# number of rings (size 3 to 8) (size 9 to 14) (size 15 to 20)
#    0.000    3.000    0.000    2.143    2.000    2.571 
#    0.000    4.286    0.000    1.714    0.000    0.000 
#    0.000    0.000    0.000    0.000    0.000    0.000 
#
# Total GULP energy -156106.307508 kJ/mol
# GULP energy per Si atom -5575.225268 kJ/mol
# Density = 1.974535 g / cm^3
# Si number density = 19.790396 Si / 1000 Ang^3
#
#
#
# Elastic Constant Matrix: (Units=GPa)
#
#
# Indices 1 2 3 4 5 6 
#
# 1 46.0641 4.0794 24.4558 0.0000 -5.2482 0.0000
# 2 4.0794 30.1139 24.5855 0.0000 -3.4203 0.0000
# 3 24.4558 24.5855 59.2714 0.0000 -28.1151 0.0000
# 4 0.0000 0.0000 0.0000 15.2061 0.0000 -1.8079
# 5 -5.2482 -3.4203 -28.1151 0.0000 34.5718 0.0000
# 6 0.0000 0.0000 0.0000 -1.8079 0.0000 5.2718
#
#
#
# Elastic Compliance Matrix: (Units=1/GPa)
#
#
# Indices 1 2 3 4 5 6 
#
# 1 0.033647 0.017169 -0.028939 0.000000 -0.016728 0.000000
# 2 0.017169 0.068579 -0.050592 0.000000 -0.031752 0.000000
# 3 -0.028939 -0.050592 0.073813 0.000000 0.050629 0.000000
# 4 0.000000 0.000000 0.000000 0.068558 0.000000 0.023511
# 5 -0.016728 -0.031752 0.050629 0.000000 0.064418 0.000000
# 6 0.000000 0.000000 0.000000 0.023511 0.000000 0.197752
#
#
# Mechanical properties :
#
#
# Convention : Reuss Voigt Hill
#
# Bulk Modulus (GPa) = 19.48777 26.85452 23.17114
# Shear Modulus (GPa) = 7.70896 16.49851 12.10373
#
# Velocity S-wave (km/s) = 1.97579 2.89045 2.47573
# Velocity P-wave (km/s) = 3.88246 4.97379 4.46162
#
# Compressibility (1/GPa) = 0.05131423
#
# Stress axis : x y z
#
# Youngs Moduli (GPa) = 29.72071 14.58168 13.54776
#
# Poissons Ratio (x) = -0.25035 0.39206
# Poissons Ratio (y) = -0.51026 0.68540
# Poissons Ratio (z) = 0.86009 0.73771
#
# Static dielectric constant tensor:
#      x y z
#    x 1.720860 0.000000 0.003250 
#    y 0.000000 1.678720 0.000000 
#    z 0.003250 0.000000 1.720190 
# 
# From -- ./inp_files/268872.got.cif
#   From: 2010.05.17/outbox.cif.g08.bks.cpg/sg12_135_cif.got.tgz:268872.got - 2010.06.03 13:09:07.
