data_PCOD9190076
_publ_section_title
;
Structure prediction by ZEFSAII (Michael W. Deem and Ramdas Pophale) SiO2 
 PCOD9190076
Probable space group: C 2/M
;
_chemical_formula_sum "Si O2"
_cell_formula_units_Z 64
_cell_length_a 19.796297
_cell_length_b 7.723833
_cell_length_c 17.027675
_cell_angle_alpha 90.000000
_cell_angle_beta 91.312007
_cell_angle_gamma 90.000000
_cell_volume 2602.904989
_symmetry_space_group_name_H-M "C 2/M"
_symmetry_group_IT_number 12
_symmetry_cell_setting 'monoclinic'
loop_
_space_group_symop_operation_xyz
x,y,z
-x,y,-z
-x,-y,-z
x,-y,z
1/2+x,1/2+y,z
1/2-x,1/2+y,-z
1/2-x,1/2-y,-z
1/2+x,1/2-y,z
loop_
_atom_site_type_symbol
_atom_site_label
_atom_site_fract_x
_atom_site_fract_y
_atom_site_fract_z
Si Si1 0.963998 0.798774 0.576585
Si Si2 0.219494 0.208579 0.234946
Si Si3 0.926617 0.700551 0.012248
Si Si4 0.084205 0.209936 0.158820
Si Si5 0.031795 0.210901 0.739171
Si Si6 0.827596 0.693140 0.510245
Si Si7 0.661304 0.297698 0.660607
Si Si8 0.206437 0.708897 0.921506
O O1 0.991600 0.730246 0.659818
O O2 0.883351 0.791875 0.562687
O O3 0.000000 0.721130 0.500000
O O4 0.984335 0.000000 0.579009
O O5 0.141418 0.256205 0.223741
O O6 0.262465 0.274740 0.308805
O O7 0.257394 0.269640 0.156615
O O8 0.222611 0.000000 0.237950
O O9 0.937014 0.500000 0.034879
O O10 0.896442 0.710178 0.923684
O O11 0.869871 0.777358 0.067560
O O12 0.000000 0.784415 0.000000
O O13 0.010904 0.269271 0.186903
O O14 0.085396 0.000000 0.150340
O O15 0.109083 0.262628 0.726501
O O16 0.029900 0.000000 0.743435
O O17 0.828002 0.500000 0.540672
O O18 0.750000 0.750000 0.500000
O O19 0.852555 0.702874 0.420820
O O20 0.648773 0.500000 0.645074
O O21 0.202578 0.500000 0.916838
O O22 0.250000 0.750000 0.000000
#
# Coordination Sequence:
#
# PCOD9190076 Si02
#       8
#     8   8   8   8   8   8   8   8
#     4  10  19  39  67  89 119 163 204 247 304 364
#     4  10  22  38  58  87 120 156 199 253 306 358
#     4  10  22  38  57  83 117 155 197 249 304 354
#     4  10  21  39  60  85 117 155 200 243 296 363
#     4   9  20  38  61  88 120 158 196 240 299 361
#     4  12  26  43  64  93 126 161 207 257 306 360
#     4  11  23  42  63  89 122 160 203 245 298 365
#     4  10  20  37  59  82 113 153 199 244 299 356
#
# _framework density 24.587911999999999
#
# number of rings (size 3 to 8) (size 9 to 14) (size 15 to 20)
#    0.000    1.750    2.500    1.500    3.500    1.500 
#    0.000    1.250    0.000    0.000    0.000    0.000 
#    0.000    0.000    0.000    0.000    0.000    0.000 
#
# Total GULP energy -178908.419726 kJ/mol
# GULP energy per Si atom -5590.888116 kJ/mol
# Density = 2.453195 g / cm^3
# Si number density = 24.587912 Si / 1000 Ang^3
#
#
#
# Elastic Constant Matrix: (Units=GPa)
#
#
# Indices 1 2 3 4 5 6 
#
# 1 115.4931 2.8309 -9.4026 0.0000 -2.0881 0.0000
# 2 2.8309 45.9605 -3.7328 0.0000 -4.1397 0.0000
# 3 -9.4026 -3.7328 40.8195 0.0000 0.1988 0.0000
# 4 0.0000 0.0000 0.0000 19.8486 0.0000 5.3647
# 5 -2.0881 -4.1397 0.1988 0.0000 48.9659 0.0000
# 6 0.0000 0.0000 0.0000 5.3647 0.0000 18.0341
#
#
#
# Elastic Compliance Matrix: (Units=1/GPa)
#
#
# Indices 1 2 3 4 5 6 
#
# 1 0.008836 -0.000351 0.002002 0.000000 0.000339 0.000000
# 2 -0.000351 0.022103 0.001931 0.000000 0.001846 0.000000
# 3 0.002002 0.001931 0.025135 0.000000 0.000147 0.000000
# 4 0.000000 0.000000 0.000000 0.054786 0.000000 -0.016298
# 5 0.000339 0.001846 0.000147 0.000000 0.020592 0.000000
# 6 0.000000 0.000000 0.000000 -0.016298 0.000000 0.060299
#
#
# Mechanical properties :
#
#
# Convention : Reuss Voigt Hill
#
# Bulk Modulus (GPa) = 15.81342 20.18489 17.99916
# Shear Modulus (GPa) = 24.31117 31.54157 27.92637
#
# Velocity S-wave (km/s) = 3.14784 3.58552 3.37378
# Velocity P-wave (km/s) = 4.43365 5.03670 4.74476
#
# Compressibility (1/GPa) = 0.06323744
#
# Stress axis : x y z
#
# Youngs Moduli (GPa) = 113.17062 45.24362 39.78508
#
# Poissons Ratio (x) = 0.01589 -0.07963
# Poissons Ratio (y) = 0.03974 -0.07684
# Poissons Ratio (z) = -0.22652 -0.08738
#
# Static dielectric constant tensor:
#      x y z
#    x 2.033540 0.000000 0.006310 
#    y 0.000000 1.930870 0.000000 
#    z 0.006310 0.000000 1.959010 
# 
# From -- ./inp_files/281346.got.cif
#   From: 2010.05.17/outbox.cif.g08.bks.cpg/sg12_141_cif.got.tgz:281346.got - 2010.06.03 13:09:07.
