data_PCOD9190603
_publ_section_title
;
Structure prediction by ZEFSAII (Michael W. Deem and Ramdas Pophale) SiO2 
 PCOD9190603
Probable space group: C 2/M
;
_chemical_formula_sum "Si O2"
_cell_formula_units_Z 56
_cell_length_a 28.628775
_cell_length_b 9.599174
_cell_length_c 17.884513
_cell_angle_alpha 90.000000
_cell_angle_beta 128.660456
_cell_angle_gamma 90.000000
_cell_volume 3837.849112
_symmetry_space_group_name_H-M "C 2/M"
_symmetry_group_IT_number 12
_symmetry_cell_setting 'monoclinic'
loop_
_space_group_symop_operation_xyz
x,y,z
-x,y,-z
-x,-y,-z
x,-y,z
1/2+x,1/2+y,z
1/2-x,1/2+y,-z
1/2-x,1/2-y,-z
1/2+x,1/2-y,z
loop_
_atom_site_type_symbol
_atom_site_label
_atom_site_fract_x
_atom_site_fract_y
_atom_site_fract_z
Si Si1 0.962597 0.664157 0.126419
Si Si2 0.569964 0.660385 0.044763
Si Si3 0.430036 0.660385 0.404836
Si Si4 0.537404 0.164156 0.701226
Si Si5 0.899761 0.663982 0.785628
Si Si6 0.311323 0.833446 0.561323
Si Si7 0.100239 0.663983 0.486107
O O1 0.950043 0.500000 0.101644
O O2 0.949607 0.698542 0.199607
O O3 0.033849 0.682364 0.183127
O O4 0.928698 0.757859 0.032107
O O5 0.588659 0.500000 0.056911
O O6 0.603905 0.742442 0.144244
O O7 0.500000 0.661795 0.000000
O O8 0.500000 0.661795 0.500000
O O9 0.411341 0.500000 0.379593
O O10 0.428698 0.742141 0.325289
O O11 0.396095 0.742443 0.436434
O O12 0.466151 0.182363 0.615428
O O13 0.549957 0.000000 0.701557
O O14 0.894520 0.500000 0.799504
O O15 0.851122 0.698834 0.674225
O O16 0.250000 0.750000 0.500000
O O17 0.351123 0.801165 0.528021
O O18 0.300735 0.000000 0.550735
O O19 0.105480 0.500000 0.510464
#
# Coordination Sequence:
#
# PCOD9190603 Si02
#       7
#     8   8   8   8   8   8   8
#     4   9  15  25  42  61  81 110 145 174 203 246
#     4   9  17  26  37  58  84 109 137 170 212 256
#     4   9  17  26  37  58  84 109 137 170 212 256
#     4   9  15  25  42  61  81 110 145 174 203 246
#     4   9  16  29  44  57  78 110 146 179 209 247
#     4  10  20  32  46  64  84 110 148 188 221 252
#     4   9  16  29  44  57  78 110 146 179 209 247
#
# _framework density 14.591507
#
# number of rings (size 3 to 8) (size 9 to 14) (size 15 to 20)
#    0.000    2.857    1.429    0.857    0.000    5.143 
#    0.000    0.000    0.000    0.000    0.000    0.000 
#    0.000    1.143    0.000    3.714    0.000    4.571 
#
# Total GULP energy -155959.656016 kJ/mol
# GULP energy per Si atom -5569.987715 kJ/mol
# Density = 1.455830 g / cm^3
# Si number density = 14.591507 Si / 1000 Ang^3
#
#
#
# Elastic Constant Matrix: (Units=GPa)
#
#
# Indices 1 2 3 4 5 6 
#
# 1 75.5464 67.6332 62.3862 0.0000 -26.7625 0.0000
# 2 67.6332 94.8759 76.9047 0.0000 -31.8169 0.0000
# 3 62.3862 76.9047 92.8480 0.0000 -32.6118 0.0000
# 4 0.0000 0.0000 0.0000 16.7597 0.0000 0.7191
# 5 -26.7625 -31.8169 -32.6118 0.0000 30.5535 0.0000
# 6 0.0000 0.0000 0.0000 0.7191 0.0000 16.9692
#
#
#
# Elastic Compliance Matrix: (Units=1/GPa)
#
#
# Indices 1 2 3 4 5 6 
#
# 1 0.039766 -0.019559 -0.008701 0.000000 0.005178 0.000000
# 2 -0.019559 0.042989 -0.020411 0.000000 0.005848 0.000000
# 3 -0.008701 -0.020411 0.037402 0.000000 0.011046 0.000000
# 4 0.000000 0.000000 0.000000 0.059776 0.000000 -0.002533
# 5 0.005178 0.005848 0.011046 0.000000 0.055145 0.000000
# 6 0.000000 0.000000 0.000000 -0.002533 0.000000 0.059038
#
#
# Mechanical properties :
#
#
# Convention : Reuss Voigt Hill
#
# Bulk Modulus (GPa) = 43.82796 75.23538 59.53167
# Shear Modulus (GPa) = 12.52938 16.61289 14.57114
#
# Velocity S-wave (km/s) = 2.93350 3.37787 3.16350
# Velocity P-wave (km/s) = 6.44792 8.17841 7.36417
#
# Compressibility (1/GPa) = 0.02281648
#
# Stress axis : x y z
#
# Youngs Moduli (GPa) = 25.14691 23.26197 26.73628
#
# Poissons Ratio (x) = 0.45497 0.23263
# Poissons Ratio (y) = 0.49184 0.54571
# Poissons Ratio (z) = 0.21880 0.47480
#
# Static dielectric constant tensor:
#      x y z
#    x 1.458600 0.000000 -0.016740 
#    y 0.000000 1.486220 0.000000 
#    z -0.016740 0.000000 1.463480 
# 
# From -- ./inp_files/291665.got.cif
#   From: 2010.05.17/outbox.cif.g08.bks.cpg/sg12_146_cif.got.tgz:291665.got - 2010.06.03 13:09:07.
