data_PCOD9190077
_publ_section_title
;
Structure prediction by ZEFSAII (Michael W. Deem and Ramdas Pophale) SiO2 
 PCOD9190077
Probable space group: C 2/M
;
_chemical_formula_sum "Si O2"
_cell_formula_units_Z 40
_cell_length_a 23.172163
_cell_length_b 8.502565
_cell_length_c 10.171681
_cell_angle_alpha 90.000000
_cell_angle_beta 91.357648
_cell_angle_gamma 90.000000
_cell_volume 2003.490711
_symmetry_space_group_name_H-M "C 2/M"
_symmetry_group_IT_number 12
_symmetry_cell_setting 'monoclinic'
loop_
_space_group_symop_operation_xyz
x,y,z
-x,y,-z
-x,-y,-z
x,-y,z
1/2+x,1/2+y,z
1/2-x,1/2+y,-z
1/2-x,1/2-y,-z
1/2+x,1/2-y,z
loop_
_atom_site_type_symbol
_atom_site_label
_atom_site_fract_x
_atom_site_fract_y
_atom_site_fract_z
Si Si1 0.493598 0.309699 0.345196
Si Si2 0.812522 0.186826 0.961227
Si Si3 0.189262 0.811168 0.548501
Si Si4 0.880551 0.190944 0.712037
Si Si5 0.123602 0.685438 0.789190
O O1 0.500000 0.267397 0.500000
O O2 0.488401 0.500000 0.340440
O O3 0.552768 0.260665 0.276047
O O4 0.437463 0.238678 0.274081
O O5 0.838116 0.248858 0.824333
O O6 0.806893 0.000000 0.949688
O O7 0.750000 0.250000 0.000000
O O8 0.858635 0.228752 0.076120
O O9 0.250000 0.750000 0.500000
O O10 0.143263 0.768273 0.432970
O O11 0.171169 0.732321 0.683168
O O12 0.189567 0.000000 0.563700
O O13 0.880251 0.000000 0.718334
O O14 0.124236 0.500000 0.811064
#
# Coordination Sequence:
#
# PCOD9190077 Si02
#       5
#     8   8   8   8   8
#     4  10  19  39  67  91 119 158 205 260 318 374
#     4  11  23  42  65  91 125 164 206 257 315 376
#     4  11  21  38  62  92 122 158 206 261 316 372
#     4   9  20  38  63  90 118 155 203 256 314 375
#     4  12  25  40  59  90 128 168 209 252 303 370
#
# _framework density 19.965153000000001
#
# number of rings (size 3 to 8) (size 9 to 14) (size 15 to 20)
#    0.000    1.400    2.000    4.200    0.000    2.800 
#    0.000    9.000    0.000    0.000    0.000    0.000 
#    0.000    0.000    0.000    0.000    0.000    0.000 
#
# Total GULP energy -111795.921283 kJ/mol
# GULP energy per Si atom -5589.796064 kJ/mol
# Density = 1.991971 g / cm^3
# Si number density = 19.965153 Si / 1000 Ang^3
#
#
#
# Elastic Constant Matrix: (Units=GPa)
#
#
# Indices 1 2 3 4 5 6 
#
# 1 73.6173 6.9349 -17.8274 0.0000 -5.6724 0.0000
# 2 6.9349 35.4214 -3.4348 0.0000 -5.1271 0.0000
# 3 -17.8274 -3.4348 49.8422 0.0000 -10.8286 0.0000
# 4 0.0000 0.0000 0.0000 15.4741 0.0000 -0.2854
# 5 -5.6724 -5.1271 -10.8286 0.0000 36.1033 0.0000
# 6 0.0000 0.0000 0.0000 -0.2854 0.0000 33.5547
#
#
#
# Elastic Compliance Matrix: (Units=1/GPa)
#
#
# Indices 1 2 3 4 5 6 
#
# 1 0.015610 -0.001848 0.006345 0.000000 0.004093 0.000000
# 2 -0.001848 0.029491 0.002373 0.000000 0.004609 0.000000
# 3 0.006345 0.002373 0.024374 0.000000 0.008645 0.000000
# 4 0.000000 0.000000 0.000000 0.064634 0.000000 0.000550
# 5 0.004093 0.004609 0.008645 0.000000 0.031589 0.000000
# 6 0.000000 0.000000 0.000000 0.000550 0.000000 0.029807
#
#
# Mechanical properties :
#
#
# Convention : Reuss Voigt Hill
#
# Bulk Modulus (GPa) = 12.01727 14.46960 13.24343
# Shear Modulus (GPa) = 23.86593 28.57365 26.21979
#
# Velocity S-wave (km/s) = 3.46118 3.78719 3.62785
# Velocity P-wave (km/s) = 4.69097 5.13682 4.91895
#
# Compressibility (1/GPa) = 0.08321360
#
# Stress axis : x y z
#
# Youngs Moduli (GPa) = 64.06222 33.90910 41.02660
#
# Poissons Ratio (x) = 0.06268 -0.26032
# Poissons Ratio (y) = 0.11841 -0.09734
# Poissons Ratio (z) = -0.40648 -0.08045
#
# Static dielectric constant tensor:
#      x y z
#    x 1.654460 0.000000 0.036550 
#    y 0.000000 1.688020 0.000000 
#    z 0.036550 0.000000 1.660770 
# 
# From -- ./inp_files/92819.got.cif
#   From: 2010.05.17/outbox.cif.g08.bks.cpg/sg12_47_cif.got.tgz:92819.got - 2010.06.03 13:09:07.
