data_PCOD9190495
_publ_section_title
;
Structure prediction by ZEFSAII (Michael W. Deem and Ramdas Pophale) SiO2 
 PCOD9190495
Probable space group: C 2/M
;
_chemical_formula_sum "Si O2"
_cell_formula_units_Z 64
_cell_length_a 12.905780
_cell_length_b 24.932245
_cell_length_c 10.351347
_cell_angle_alpha 90.000000
_cell_angle_beta 104.181815
_cell_angle_gamma 90.000000
_cell_volume 3229.242787
_symmetry_space_group_name_H-M "C 2/M"
_symmetry_group_IT_number 12
_symmetry_cell_setting 'monoclinic'
loop_
_space_group_symop_operation_xyz
x,y,z
-x,y,-z
-x,-y,-z
x,-y,z
1/2+x,1/2+y,z
1/2-x,1/2+y,-z
1/2-x,1/2-y,-z
1/2+x,1/2-y,z
loop_
_atom_site_type_symbol
_atom_site_label
_atom_site_fract_x
_atom_site_fract_y
_atom_site_fract_z
Si Si1 0.622556 0.355227 0.529527
Si Si2 0.713303 0.189452 0.982584
Si Si3 0.925734 0.125913 0.083264
Si Si4 0.090013 0.618333 0.136452
Si Si5 0.694453 0.242797 0.622433
Si Si6 0.470326 0.813403 0.289175
Si Si7 0.094050 0.204952 0.262888
Si Si8 0.201714 0.062210 0.738696
O O1 0.500000 0.371581 0.500000
O O2 0.643546 0.301945 0.624202
O O3 0.631732 0.336619 0.385192
O O4 0.692552 0.402886 0.605439
O O5 0.619741 0.185447 0.849560
O O6 0.750000 0.250000 0.000000
O O7 0.817243 0.152010 0.993497
O O8 0.656829 0.168106 0.096626
O O9 0.882796 0.089319 0.187208
O O10 0.005220 0.173839 0.153718
O O11 0.000000 0.096650 0.000000
O O12 0.177797 0.571948 0.174685
O O13 0.043478 0.637437 0.261648
O O14 0.000000 0.606165 0.000000
O O15 0.750000 0.250000 0.500000
O O16 0.603052 0.197309 0.606245
O O17 0.790668 0.226600 0.747081
O O18 0.537654 0.758660 0.298280
O O19 0.179019 0.000000 0.714441
#
# Coordination Sequence:
#
# PCOD9190495 Si02
#       8
#     8   8   8   8   8   8   8   8
#     4  11  20  39  54  81 116 153 204 241 279 347
#     4  10  20  31  49  84 122 159 192 221 271 362
#     4  11  22  35  55  85 122 153 194 243 303 362
#     4   9  22  38  58  89 119 153 200 241 294 364
#     4  10  22  33  53  84 119 159 189 222 282 355
#     4  11  19  32  54  80 122 162 189 223 282 348
#     4  11  21  33  54  80 122 161 189 230 283 354
#     4  11  24  43  64  83 109 151 208 271 305 339
#
# _framework density 19.818888000000001
#
# number of rings (size 3 to 8) (size 9 to 14) (size 15 to 20)
#    0.000    1.500    3.750    1.500    5.250    0.750 
#    0.000    0.000    0.000    0.000    0.000    7.000 
#    0.000    0.000    0.000    0.000    0.000    0.000 
#
# Total GULP energy -178287.931293 kJ/mol
# GULP energy per Si atom -5571.497853 kJ/mol
# Density = 1.977378 g / cm^3
# Si number density = 19.818888 Si / 1000 Ang^3
#
#
#
# Elastic Constant Matrix: (Units=GPa)
#
#
# Indices 1 2 3 4 5 6 
#
# 1 108.0914 6.8900 25.5766 0.0000 8.2976 0.0000
# 2 6.8900 54.5818 21.8266 0.0000 13.4535 0.0000
# 3 25.5766 21.8266 65.1068 0.0000 4.5304 0.0000
# 4 0.0000 0.0000 0.0000 13.4425 0.0000 2.6460
# 5 8.2976 13.4535 4.5304 0.0000 43.1799 0.0000
# 6 0.0000 0.0000 0.0000 2.6460 0.0000 15.2329
#
#
#
# Elastic Compliance Matrix: (Units=1/GPa)
#
#
# Indices 1 2 3 4 5 6 
#
# 1 0.010333 0.000823 -0.004210 0.000000 -0.001800 0.000000
# 2 0.000823 0.022823 -0.007524 0.000000 -0.006480 0.000000
# 3 -0.004210 -0.007524 0.019458 0.000000 0.001112 0.000000
# 4 0.000000 0.000000 0.000000 0.077024 0.000000 -0.013379
# 5 -0.001800 -0.006480 0.001112 0.000000 0.025407 0.000000
# 6 0.000000 0.000000 0.000000 -0.013379 0.000000 0.067971
#
#
# Mechanical properties :
#
#
# Convention : Reuss Voigt Hill
#
# Bulk Modulus (GPa) = 32.47490 37.37407 34.92448
# Shear Modulus (GPa) = 19.59993 25.93685 22.76839
#
# Velocity S-wave (km/s) = 3.14817 3.62151 3.39311
# Velocity P-wave (km/s) = 5.44390 6.03207 5.74552
#
# Compressibility (1/GPa) = 0.03079301
#
# Stress axis : x y z
#
# Youngs Moduli (GPa) = 96.77413 43.81545 51.39240
#
# Poissons Ratio (x) = -0.03605 0.21636
# Poissons Ratio (y) = -0.07963 0.38666
# Poissons Ratio (z) = 0.40741 0.32965
#
# Static dielectric constant tensor:
#      x y z
#    x 1.806970 0.000000 -0.066710 
#    y 0.000000 1.707340 0.000000 
#    z -0.066710 0.000000 1.857660 
# 
# From -- ./inp_files/135431.got.cif
#   From: 2010.05.17/outbox.cif.g08.bks.cpg/sg12_68_cif.got.tgz:135431.got - 2010.06.03 13:09:07.
