data_PCOD9190202
_publ_section_title
;
Structure prediction by ZEFSAII (Michael W. Deem and Ramdas Pophale) SiO2 
 PCOD9190202
Probable space group: C 2/M
;
_chemical_formula_sum "Si O2"
_cell_formula_units_Z 46
_cell_length_a 14.803411
_cell_length_b 15.055869
_cell_length_c 12.298024
_cell_angle_alpha 90.000000
_cell_angle_beta 126.323870
_cell_angle_gamma 90.000000
_cell_volume 2208.342303
_symmetry_space_group_name_H-M "C 2/M"
_symmetry_group_IT_number 12
_symmetry_cell_setting 'monoclinic'
loop_
_space_group_symop_operation_xyz
x,y,z
-x,y,-z
-x,-y,-z
x,-y,z
1/2+x,1/2+y,z
1/2-x,1/2+y,-z
1/2-x,1/2-y,-z
1/2+x,1/2-y,z
loop_
_atom_site_type_symbol
_atom_site_label
_atom_site_fract_x
_atom_site_fract_y
_atom_site_fract_z
Si Si1 0.389206 0.867311 0.274553
Si Si2 0.000000 0.731353 0.000000
Si Si3 0.576042 0.341179 0.699869
Si Si4 0.842046 0.897941 0.473568
Si Si5 0.500000 0.000000 0.500000
Si Si6 0.316586 0.335970 0.003710
Si Si7 0.406528 0.104070 0.746132
O O1 0.391520 0.761768 0.294176
O O2 0.410724 0.922693 0.397373
O O3 0.274857 0.889779 0.129493
O O4 0.494665 0.890889 0.272000
O O5 0.911953 0.794669 0.996476
O O6 0.940245 0.667380 0.869552
O O7 0.441138 0.346674 0.605369
O O8 0.623253 0.392085 0.628982
O O9 0.628840 0.376556 0.849235
O O10 0.713492 0.867781 0.388710
O O11 0.847204 0.000000 0.513196
O O12 0.250000 0.250000 0.000000
O O13 0.395415 0.000000 0.771569
#
# Coordination Sequence:
#
# PCOD9190202 Si02
#       7
#     8   4   8   8   2   8   8
#     4  11  23  41  62  89 125 169 212 253 317 378
#     4  12  21  40  66  93 128 160 212 278 315 374
#     4  10  19  41  63  89 127 164 212 259 312 379
#     4  10  22  38  62  96 125 161 208 262 326 374
#     4  12  24  44  60  88 130 176 208 252 318 392
#     4  10  21  40  62  91 121 158 212 261 312 378
#     4  11  22  38  59  95 125 159 209 261 325 375
#
# _framework density 20.830103999999999
#
# number of rings (size 3 to 8) (size 9 to 14) (size 15 to 20)
#    0.000    1.391    4.348    4.435    0.000    0.696 
#    6.261    0.000    0.000    0.522    0.000    0.000 
#    0.000    0.000    0.000    0.000    0.000    0.000 
#
# Total GULP energy -128180.896174 kJ/mol
# GULP energy per Si atom -5573.082442 kJ/mol
# Density = 2.078269 g / cm^3
# Si number density = 20.830104 Si / 1000 Ang^3
#
#
#
# Elastic Constant Matrix: (Units=GPa)
#
#
# Indices 1 2 3 4 5 6 
#
# 1 85.4931 -13.3136 24.4924 0.0000 20.1240 0.0000
# 2 -13.3136 50.8323 20.7972 0.0000 11.5781 0.0000
# 3 24.4924 20.7972 113.9993 0.0000 45.6832 0.0000
# 4 0.0000 0.0000 0.0000 209.7090 0.0000 -20.0939
# 5 20.1240 11.5781 45.6832 0.0000 31.7407 0.0000
# 6 0.0000 0.0000 0.0000 -20.0939 0.0000 19.0724
#
#
#
# Elastic Compliance Matrix: (Units=1/GPa)
#
#
# Indices 1 2 3 4 5 6 
#
# 1 0.015764 0.006909 0.000869 0.000000 -0.013765 0.000000
# 2 0.006909 0.024647 -0.001471 0.000000 -0.011253 0.000000
# 3 0.000869 -0.001471 0.020932 0.000000 -0.030142 0.000000
# 4 0.000000 0.000000 0.000000 0.005304 0.000000 0.005588
# 5 -0.013765 -0.011253 -0.030142 0.000000 0.087719 0.000000
# 6 0.000000 0.000000 0.000000 0.005588 0.000000 0.058319
#
#
# Mechanical properties :
#
#
# Convention : Reuss Voigt Hill
#
# Bulk Modulus (GPa) = 13.52151 34.91963 24.22057
# Shear Modulus (GPa) = 22.24942 66.66099 44.45521
#
# Velocity S-wave (km/s) = 3.27178 5.66319 4.62473
# Velocity P-wave (km/s) = 4.55831 7.71769 6.33802
#
# Compressibility (1/GPa) = 0.07395621
#
# Stress axis : x y z
#
# Youngs Moduli (GPa) = 63.43597 40.57287 47.77291
#
# Poissons Ratio (x) = -0.28030 -0.04152
# Poissons Ratio (y) = -0.43825 0.07028
# Poissons Ratio (z) = -0.05513 0.05969
#
# Static dielectric constant tensor:
#      x y z
#    x 1.739160 0.000000 -0.000370 
#    y 0.000000 1.752440 0.000000 
#    z -0.000370 0.000000 1.796300 
# 
# From -- ./inp_files/143922.got.cif
#   From: 2010.05.17/outbox.cif.g08.bks.cpg/sg12_72_cif.got.tgz:143922.got - 2010.06.03 13:09:07.
