data_PCOD9190986
_publ_section_title
;
Structure prediction by ZEFSAII (Michael W. Deem and Ramdas Pophale) SiO2 
 PCOD9190986
Probable space group: C 2/M
;
_chemical_formula_sum "Si O2"
_cell_formula_units_Z 64
_cell_length_a 15.698208
_cell_length_b 8.666214
_cell_length_c 31.911410
_cell_angle_alpha 90.000000
_cell_angle_beta 51.481942
_cell_angle_gamma 90.000000
_cell_volume 3396.729319
_symmetry_space_group_name_H-M "C 2/M"
_symmetry_group_IT_number 12
_symmetry_cell_setting 'monoclinic'
loop_
_space_group_symop_operation_xyz
x,y,z
-x,y,-z
-x,-y,-z
x,-y,z
1/2+x,1/2+y,z
1/2-x,1/2+y,-z
1/2-x,1/2-y,-z
1/2+x,1/2-y,z
loop_
_atom_site_type_symbol
_atom_site_label
_atom_site_fract_x
_atom_site_fract_y
_atom_site_fract_z
Si Si1 0.755204 0.183077 0.174257
Si Si2 0.165485 0.685274 0.370955
Si Si3 0.818195 0.188381 0.247331
Si Si4 0.433119 0.312857 0.827387
Si Si5 0.757006 0.815156 0.564761
Si Si6 0.206073 0.824096 0.055620
Si Si7 0.577157 0.684826 0.560277
Si Si8 0.881453 0.821999 0.056170
O O1 0.777914 0.242148 0.213943
O O2 0.652737 0.254920 0.180968
O O3 0.861553 0.201077 0.111691
O O4 0.734538 0.000000 0.183539
O O5 0.163172 0.500000 0.372570
O O6 0.237676 0.735647 0.309077
O O7 0.218050 0.746371 0.397687
O O8 0.043179 0.747707 0.404584
O O9 0.942774 0.235879 0.217684
O O10 0.818938 0.000000 0.245921
O O11 0.428339 0.500000 0.829144
O O12 0.392743 0.258858 0.886031
O O13 0.647555 0.750278 0.577221
O O14 0.854956 0.774184 0.502569
O O15 0.751132 0.000000 0.568879
O O16 0.305929 0.802108 0.056885
O O17 0.179585 0.000000 0.053991
O O18 0.250000 0.750000 0.000000
O O19 0.572658 0.500000 0.564244
O O20 0.843845 0.000000 0.058984
O O21 0.000000 0.809830 0.000000
#
# Coordination Sequence:
#
# PCOD9190986 Si02
#       8
#     8   8   8   8   8   8   8   8
#     4   9  18  35  56  76 104 137 177 224 268 322
#     4  11  22  36  56  85 118 151 191 236 282 334
#     4   9  20  37  57  79 105 147 190 224 269 328
#     4   9  19  37  57  75 103 140 179 221 271 326
#     4  10  21  38  60  86 117 153 192 234 282 333
#     4  10  20  32  51  76 104 134 168 215 269 325
#     4  10  21  38  60  86 117 153 191 233 283 336
#     4   9  18  31  52  78 101 131 171 212 265 328
#
# _framework density 18.841653999999998
#
# number of rings (size 3 to 8) (size 9 to 14) (size 15 to 20)
#    0.000    2.375    0.000    1.875    1.750    4.750 
#    0.000    5.625    0.000    0.000    0.000    0.000 
#    0.000    0.000    0.000    0.000    0.000    0.000 
#
# Total GULP energy -178456.326015 kJ/mol
# GULP energy per Si atom -5576.760188 kJ/mol
# Density = 1.879877 g / cm^3
# Si number density = 18.841654 Si / 1000 Ang^3
#
#
#
# Elastic Constant Matrix: (Units=GPa)
#
#
# Indices 1 2 3 4 5 6 
#
# 1 100.4278 19.5887 74.0801 0.0001 33.4946 0.0000
# 2 19.5887 21.6347 28.7715 0.0002 9.4851 0.0001
# 3 74.0801 28.7715 113.8732 0.0000 40.0786 0.0000
# 4 0.0001 0.0002 0.0000 21.4878 0.0002 1.3419
# 5 33.4946 9.4851 40.0786 0.0002 0.7310 0.0003
# 6 0.0000 0.0001 0.0000 1.3419 0.0003 33.3351
#
#
#
# Elastic Compliance Matrix: (Units=1/GPa)
#
#
# Indices 1 2 3 4 5 6 
#
# 1 0.017751 -0.000636 -0.014865 0.000000 0.009880 0.000000
# 2 -0.000636 0.069487 -0.015846 -0.000001 -0.003684 0.000000
# 3 -0.014865 -0.015846 0.015830 0.000000 0.018826 0.000000
# 4 0.000000 -0.000001 0.000000 0.046655 0.000001 -0.001878
# 5 0.009880 -0.003684 0.018826 0.000001 -0.069107 0.000001
# 6 0.000000 0.000000 0.000000 -0.001878 0.000001 0.030074
#
#
# Mechanical properties :
#
#
# Convention : Reuss Voigt Hill
#
# Bulk Modulus (GPa) = 24.76855 53.42405 39.09630
# Shear Modulus (GPa) = 26.76075 18.67714 22.71895
#
# Velocity S-wave (km/s) = 3.77277 3.15186 3.47621
# Velocity P-wave (km/s) = 5.67032 6.45456 6.07511
#
# Compressibility (1/GPa) = 0.04037378
#
# Stress axis : x y z
#
# Youngs Moduli (GPa) = 56.33474 14.39125 63.17255
#
# Poissons Ratio (x) = 0.00915 0.93904
# Poissons Ratio (y) = 0.03581 1.00106
# Poissons Ratio (z) = 0.83740 0.22805
#
# Static dielectric constant tensor:
#      x y z
#    x 1.622030 0.000000 0.007380 
#    y 0.000000 1.653410 0.000000 
#    z 0.007380 0.000000 1.672970 
# 
# From -- ./inp_files/375461.got.cif
#   From: 2010.05.17/outbox.cif.g08.bks.cpg/sg12_188_cif.got.tgz:375461.got - 2010.06.03 13:09:07.
