data_PCOD9190970
_publ_section_title
;
Structure prediction by ZEFSAII (Michael W. Deem and Ramdas Pophale) SiO2 
 PCOD9190970
Probable space group: C 2/M
;
_chemical_formula_sum "Si O2"
_cell_formula_units_Z 56
_cell_length_a 14.170344
_cell_length_b 25.916030
_cell_length_c 8.835563
_cell_angle_alpha 90.000000
_cell_angle_beta 65.245189
_cell_angle_gamma 90.000000
_cell_volume 2946.596067
_symmetry_space_group_name_H-M "C 2/M"
_symmetry_group_IT_number 12
_symmetry_cell_setting 'monoclinic'
loop_
_space_group_symop_operation_xyz
x,y,z
-x,y,-z
-x,-y,-z
x,-y,z
1/2+x,1/2+y,z
1/2-x,1/2+y,-z
1/2-x,1/2-y,-z
1/2+x,1/2-y,z
loop_
_atom_site_type_symbol
_atom_site_label
_atom_site_fract_x
_atom_site_fract_y
_atom_site_fract_z
Si Si1 0.418415 0.796097 0.873742
Si Si2 0.152895 0.688774 0.668632
Si Si3 0.340166 0.000000 0.022298
Si Si4 0.879751 0.186552 0.055345
Si Si5 0.217129 0.393253 0.077804
Si Si6 0.700229 0.237080 0.337957
Si Si7 0.112479 0.599714 0.475865
Si Si8 0.565533 0.000000 0.708555
O O1 0.540195 0.805655 0.817566
O O2 0.362325 0.850908 0.939714
O O3 0.383510 0.782128 0.725702
O O4 0.380467 0.742798 0.975037
O O5 0.249809 0.705927 0.706056
O O6 0.152071 0.730598 0.534090
O O7 0.162129 0.636314 0.569885
O O8 0.284207 0.946874 0.011142
O O9 0.448324 0.000000 0.853262
O O10 0.365925 0.000000 0.183980
O O11 0.824249 0.138756 0.010723
O O12 0.800138 0.199268 0.246000
O O13 0.000000 0.174772 0.000000
O O14 0.178462 0.404914 0.277034
O O15 0.086558 0.548068 0.584877
O O16 0.000000 0.621613 0.500000
#
# Coordination Sequence:
#
# PCOD9190970 Si02
#       8
#     8   8   4   8   8   8   8   4
#     4  11  20  35  56  83 119 154 189 241 291 351
#     4  11  19  32  55  80 114 150 189 229 283 346
#     4  11  23  42  56  87 122 151 189 245 302 357
#     4  11  22  38  55  84 119 155 200 241 286 343
#     4  11  22  38  62  82 116 160 199 238 295 352
#     4  10  20  32  50  81 112 152 193 226 279 343
#     4  12  19  35  57  85 115 151 191 230 284 356
#     4  11  24  35  58  90 120 142 186 241 305 362
#
# _framework density 19.00498
#
# number of rings (size 3 to 8) (size 9 to 14) (size 15 to 20)
#    0.000    1.000    7.143    2.786    0.000    2.286 
#    2.571    0.357    0.000    0.000    0.000    1.000 
#    0.000    0.000    0.000    0.000    0.000    0.000 
#
# Total GULP energy -156064.334876 kJ/mol
# GULP energy per Si atom -5573.726246 kJ/mol
# Density = 1.896172 g / cm^3
# Si number density = 19.004980 Si / 1000 Ang^3
#
#
#
# Elastic Constant Matrix: (Units=GPa)
#
#
# Indices 1 2 3 4 5 6 
#
# 1 56.9945 48.3703 16.4546 0.0000 -2.1244 0.0000
# 2 48.3703 135.6286 22.8839 0.0000 7.1658 0.0000
# 3 16.4546 22.8839 72.1909 0.0000 -4.1171 0.0000
# 4 0.0000 0.0000 0.0000 30.9404 0.0000 4.7723
# 5 -2.1244 7.1658 -4.1171 0.0000 18.9562 0.0000
# 6 0.0000 0.0000 0.0000 4.7723 0.0000 28.1705
#
#
#
# Elastic Compliance Matrix: (Units=1/GPa)
#
#
# Indices 1 2 3 4 5 6 
#
# 1 0.026426 -0.009271 -0.002750 0.000000 0.005869 0.000000
# 2 -0.009271 0.011282 -0.001788 0.000000 -0.005692 0.000000
# 3 -0.002750 -0.001788 0.015256 0.000000 0.003681 0.000000
# 4 0.000000 0.000000 0.000000 0.033187 0.000000 -0.005622
# 5 0.005869 -0.005692 0.003681 0.000000 0.056362 0.000000
# 6 0.000000 0.000000 0.000000 -0.005622 0.000000 0.036451
#
#
# Mechanical properties :
#
#
# Convention : Reuss Voigt Hill
#
# Bulk Modulus (GPa) = 39.45278 48.91460 44.18369
# Shear Modulus (GPa) = 23.25271 27.42044 25.33658
#
# Velocity S-wave (km/s) = 3.50166 3.80255 3.65520
# Velocity P-wave (km/s) = 6.09533 6.71363 6.41194
#
# Compressibility (1/GPa) = 0.02534675
#
# Stress axis : x y z
#
# Youngs Moduli (GPa) = 37.84148 88.63923 65.54975
#
# Poissons Ratio (x) = 0.82174 0.18026
# Poissons Ratio (y) = 0.35081 0.11719
# Poissons Ratio (z) = 0.10406 0.15847
#
# Static dielectric constant tensor:
#      x y z
#    x 1.704920 0.000000 0.041180 
#    y 0.000000 1.696540 0.000000 
#    z 0.041180 0.000000 1.730020 
# 
# From -- ./inp_files/65825.got.cif
#   From: 2010.05.17/outbox.cif.g08.bks.cpg/sg12_33_cif.got.tgz:65825.got - 2010.06.03 13:09:07.
