data_PCOD9190674
_publ_section_title
;
Structure prediction by ZEFSAII (Michael W. Deem and Ramdas Pophale) SiO2 
 PCOD9190674
Probable space group: C 2/M
;
_chemical_formula_sum "Si O2"
_cell_formula_units_Z 56
_cell_length_a 13.561271
_cell_length_b 13.340475
_cell_length_c 19.472732
_cell_angle_alpha 90.000000
_cell_angle_beta 79.843706
_cell_angle_gamma 90.000000
_cell_volume 3467.683682
_symmetry_space_group_name_H-M "C 2/M"
_symmetry_group_IT_number 12
_symmetry_cell_setting 'monoclinic'
loop_
_space_group_symop_operation_xyz
x,y,z
-x,y,-z
-x,-y,-z
x,-y,z
1/2+x,1/2+y,z
1/2-x,1/2+y,-z
1/2-x,1/2-y,-z
1/2+x,1/2-y,z
loop_
_atom_site_type_symbol
_atom_site_label
_atom_site_fract_x
_atom_site_fract_y
_atom_site_fract_z
Si Si1 0.204838 0.119252 0.565034
Si Si2 0.786960 0.725317 0.110115
Si Si3 0.390120 0.382414 0.812434
Si Si4 0.814682 0.617930 0.964795
Si Si5 0.105541 0.239300 0.453050
Si Si6 0.491752 0.271915 0.923560
Si Si7 0.003635 0.118821 0.343778
O O1 0.157585 0.160973 0.499549
O O2 0.309008 0.176396 0.567322
O O3 0.114348 0.140598 0.629881
O O4 0.220320 0.000000 0.559758
O O5 0.711015 0.683393 0.175319
O O6 0.756148 0.833806 0.084256
O O7 0.901874 0.732511 0.115224
O O8 0.777167 0.652596 0.044541
O O9 0.366289 0.500000 0.817318
O O10 0.446442 0.348108 0.874606
O O11 0.458488 0.362981 0.737800
O O12 0.823547 0.500000 0.959566
O O13 0.918311 0.677002 0.941001
O O14 0.070038 0.182982 0.388628
O O15 0.000000 0.275620 0.500000
O O16 0.500000 0.314699 0.000000
O O17 0.016616 0.000000 0.357520
#
# Coordination Sequence:
#
# PCOD9190674 Si02
#       7
#     8   8   8   8   8   8   8
#     4   9  17  30  50  75  99 123 154 187 222 269
#     4   9  18  30  45  67  90 114 148 191 235 275
#     4  10  20  32  47  68  92 120 156 193 229 274
#     4   9  17  30  47  66  88 114 147 188 236 288
#     4   9  17  30  50  74  97 123 153 188 226 261
#     4   9  19  32  46  67  90 115 152 195 239 281
#     4   9  18  32  48  67  94 127 157 185 223 272
#
# _framework density 16.149107999999998
#
# number of rings (size 3 to 8) (size 9 to 14) (size 15 to 20)
#    0.000    2.857    0.000    1.714    0.000    7.143 
#    0.000    0.000    0.000    3.429    0.000    0.000 
#    0.000    0.000    0.000    0.000    0.000    0.000 
#
# Total GULP energy -155932.738340 kJ/mol
# GULP energy per Si atom -5569.026369 kJ/mol
# Density = 1.611235 g / cm^3
# Si number density = 16.149108 Si / 1000 Ang^3
#
#
#
# Elastic Constant Matrix: (Units=GPa)
#
#
# Indices 1 2 3 4 5 6 
#
# 1 105.8468 34.7758 41.3699 0.0000 -19.9180 0.0000
# 2 34.7758 154.4988 86.0460 0.0000 -21.6980 0.0000
# 3 41.3699 86.0460 100.5320 0.0000 -22.6754 0.0000
# 4 0.0000 0.0000 0.0000 17.9615 0.0000 -4.7787
# 5 -19.9180 -21.6980 -22.6754 0.0000 22.9104 0.0000
# 6 0.0000 0.0000 0.0000 -4.7787 0.0000 15.8832
#
#
#
# Elastic Compliance Matrix: (Units=1/GPa)
#
#
# Indices 1 2 3 4 5 6 
#
# 1 0.012125 0.000300 -0.003611 0.000000 0.007252 0.000000
# 2 0.000300 0.012421 -0.010354 0.000000 0.001777 0.000000
# 3 -0.003611 -0.010354 0.022369 0.000000 0.009194 0.000000
# 4 0.000000 0.000000 0.000000 0.060519 0.000000 0.018208
# 5 0.007252 0.001777 0.009194 0.000000 0.060735 0.000000
# 6 0.000000 0.000000 0.000000 0.018208 0.000000 0.068438
#
#
# Mechanical properties :
#
#
# Convention : Reuss Voigt Hill
#
# Bulk Modulus (GPa) = 51.05806 76.14010 63.59908
# Shear Modulus (GPa) = 18.48671 24.59676 21.54174
#
# Velocity S-wave (km/s) = 3.38709 3.90693 3.65626
# Velocity P-wave (km/s) = 6.85432 8.22208 7.56916
#
# Compressibility (1/GPa) = 0.01958555
#
# Stress axis : x y z
#
# Youngs Moduli (GPa) = 82.47512 80.50860 44.70511
#
# Poissons Ratio (x) = -0.02418 0.16143
# Poissons Ratio (y) = -0.02477 0.46288
# Poissons Ratio (z) = 0.29781 0.83359
#
# Static dielectric constant tensor:
#      x y z
#    x 1.557620 0.000000 -0.016930 
#    y 0.000000 1.513280 0.000000 
#    z -0.016930 0.000000 1.546810 
# 
# From -- ./inp_files/309449.got.cif
#   From: 2010.05.17/outbox.cif.g08.bks.cpg/sg12_155_cif.got.tgz:309449.got - 2010.06.03 13:09:07.
