data_PCOD9190804
_publ_section_title
;
Structure prediction by ZEFSAII (Michael W. Deem and Ramdas Pophale) SiO2 
 PCOD9190804
Probable space group: C 2/M
;
_chemical_formula_sum "Si O2"
_cell_formula_units_Z 64
_cell_length_a 20.771227
_cell_length_b 9.297896
_cell_length_c 17.529152
_cell_angle_alpha 90.000000
_cell_angle_beta 122.481774
_cell_angle_gamma 90.000000
_cell_volume 2855.781104
_symmetry_space_group_name_H-M "C 2/M"
_symmetry_group_IT_number 12
_symmetry_cell_setting 'monoclinic'
loop_
_space_group_symop_operation_xyz
x,y,z
-x,y,-z
-x,-y,-z
x,-y,z
1/2+x,1/2+y,z
1/2-x,1/2+y,-z
1/2-x,1/2-y,-z
1/2+x,1/2-y,z
loop_
_atom_site_type_symbol
_atom_site_label
_atom_site_fract_x
_atom_site_fract_y
_atom_site_fract_z
Si Si1 0.197984 0.163263 0.389779
Si Si2 0.323680 0.337297 0.877170
Si Si3 0.545760 0.169087 0.101396
Si Si4 0.641357 0.830177 0.772766
Si Si5 0.830119 0.168130 0.057585
Si Si6 0.465766 0.655444 0.767637
Si Si7 0.489708 0.332661 0.382054
Si Si8 0.639254 0.830430 0.499801
O O1 0.126366 0.155928 0.288994
O O2 0.280504 0.192091 0.404486
O O3 0.171397 0.276871 0.437364
O O4 0.203535 0.000000 0.427596
O O5 0.340715 0.500000 0.862018
O O6 0.368310 0.220325 0.857740
O O7 0.232159 0.318383 0.816270
O O8 0.353663 0.326473 0.983941
O O9 0.511726 0.226050 0.158196
O O10 0.541444 0.000000 0.098630
O O11 0.500000 0.228209 0.000000
O O12 0.628853 0.746562 0.845411
O O13 0.588212 0.758629 0.673781
O O14 0.622991 0.000000 0.768214
O O15 0.820329 0.000000 0.071430
O O16 0.750000 0.250000 0.000000
O O17 0.495980 0.500000 0.812322
O O18 0.484194 0.669856 0.690476
O O19 0.479178 0.500000 0.396813
O O20 0.562873 0.259438 0.469913
O O21 0.620421 0.000000 0.487691
#
# Coordination Sequence:
#
# PCOD9190804 Si02
#       8
#     8   8   8   8   8   8   8   8
#     4   8  15  28  46  69  98 131 168 203 243 298
#     4   9  20  37  54  71  92 126 168 204 247 303
#     4  11  25  39  51  72  98 128 169 217 257 289
#     4  10  20  33  51  75 100 128 163 205 252 301
#     4   9  17  30  48  71  94 120 158 199 245 295
#     4   9  19  35  52  71  98 135 172 206 245 298
#     4  10  20  32  48  75 108 138 168 201 245 302
#     4   9  15  25  44  71 102 134 163 199 245 294
#
# _framework density 22.410682999999999
#
# number of rings (size 3 to 8) (size 9 to 14) (size 15 to 20)
#    0.000    2.625    0.000    3.375    1.750    7.000 
#    0.000    0.000    0.000    0.000    0.000    0.875 
#    0.000    7.000    0.000    0.000    0.000    0.000 
#
# Total GULP energy -178411.534844 kJ/mol
# GULP energy per Si atom -5575.360464 kJ/mol
# Density = 2.235968 g / cm^3
# Si number density = 22.410683 Si / 1000 Ang^3
#
#
#
# Elastic Constant Matrix: (Units=GPa)
#
#
# Indices 1 2 3 4 5 6 
#
# 1 43.6825 22.9168 13.8858 0.0000 11.1681 0.0000
# 2 22.9168 93.5514 19.3715 0.0000 8.5157 0.0000
# 3 13.8858 19.3715 69.2598 0.0000 22.5943 0.0000
# 4 0.0000 0.0000 0.0000 26.9068 0.0000 5.3630
# 5 11.1681 8.5157 22.5943 0.0000 38.9218 0.0000
# 6 0.0000 0.0000 0.0000 5.3630 0.0000 -3.3795
#
#
#
# Elastic Compliance Matrix: (Units=1/GPa)
#
#
# Indices 1 2 3 4 5 6 
#
# 1 0.028104 -0.005932 -0.002181 0.000000 -0.005500 0.000000
# 2 -0.005932 0.012618 -0.002461 0.000000 0.000370 0.000000
# 3 -0.002181 -0.002461 0.018731 0.000000 -0.009709 0.000000
# 4 0.000000 0.000000 0.000000 0.028235 0.000000 0.044806
# 5 -0.005500 0.000370 -0.009709 0.000000 0.032826 0.000000
# 6 0.000000 0.000000 0.000000 0.044806 0.000000 -0.224799
#
#
# Mechanical properties :
#
#
# Convention : Reuss Voigt Hill
#
# Bulk Modulus (GPa) = 26.10554 35.42689 30.76622
# Shear Modulus (GPa) = -71.05479 22.51112 -24.27183
#
# Velocity S-wave (km/s) = -5.63690 3.17279 -3.29454
# Velocity P-wave (km/s) = 5.54005 5.40967 0.84487
#
# Compressibility (1/GPa) = 0.03830604
#
# Stress axis : x y z
#
# Youngs Moduli (GPa) = 35.58194 79.24963 53.38649
#
# Poissons Ratio (x) = 0.47013 0.11644
# Poissons Ratio (y) = 0.21108 0.13136
# Poissons Ratio (z) = 0.07761 0.19500
#
# Static dielectric constant tensor:
#      x y z
#    x 1.875830 0.000000 0.048570 
#    y 0.000000 1.808850 0.000000 
#    z 0.048570 0.000000 1.911040 
# 
# From -- ./inp_files/348574.got.cif
#   From: 2010.05.17/outbox.cif.g08.bks.cpg/sg12_175_cif.got.tgz:348574.got - 2010.06.03 13:09:07.
