data_PCOD9190917
_publ_section_title
;
Structure prediction by ZEFSAII (Michael W. Deem and Ramdas Pophale) SiO2 
 PCOD9190917
Probable space group: C 2/M
;
_chemical_formula_sum "Si O2"
_cell_formula_units_Z 64
_cell_length_a 24.129933
_cell_length_b 7.762435
_cell_length_c 18.079167
_cell_angle_alpha 90.000000
_cell_angle_beta 69.405585
_cell_angle_gamma 90.000000
_cell_volume 3169.946194
_symmetry_space_group_name_H-M "C 2/M"
_symmetry_group_IT_number 12
_symmetry_cell_setting 'monoclinic'
loop_
_space_group_symop_operation_xyz
x,y,z
-x,y,-z
-x,-y,-z
x,-y,z
1/2+x,1/2+y,z
1/2-x,1/2+y,-z
1/2-x,1/2-y,-z
1/2+x,1/2-y,z
loop_
_atom_site_type_symbol
_atom_site_label
_atom_site_fract_x
_atom_site_fract_y
_atom_site_fract_z
Si Si1 0.176883 0.699255 0.651218
Si Si2 0.862312 0.199001 0.480687
Si Si3 0.506198 0.707232 0.583373
Si Si4 0.391978 0.797009 0.730420
Si Si5 0.424254 0.788602 0.191696
Si Si6 0.428200 0.800604 0.028108
Si Si7 0.799363 0.301145 0.656832
Si Si8 0.438802 0.788136 0.861946
O O1 0.164783 0.500000 0.640510
O O2 0.179616 0.789627 0.570625
O O3 0.123125 0.769468 0.725982
O O4 0.237723 0.711829 0.667262
O O5 0.927501 0.260634 0.425472
O O6 0.838037 0.293862 0.563669
O O7 0.868481 0.000000 0.500756
O O8 0.500000 0.754270 0.500000
O O9 0.501569 0.500000 0.591258
O O10 0.453475 0.780622 0.656870
O O11 0.339342 0.725397 0.704095
O O12 0.402857 0.727159 0.807506
O O13 0.379848 0.000000 0.744113
O O14 0.408232 0.726646 0.116163
O O15 0.491870 0.738937 0.177689
O O16 0.423154 0.000000 0.190409
O O17 0.408478 0.000000 0.036011
O O18 0.500000 0.801998 0.000000
O O19 0.415423 0.726981 0.952961
O O20 0.785847 0.500000 0.679449
O O21 0.438284 0.000000 0.863546
#
# Coordination Sequence:
#
# PCOD9190917 Si02
#       8
#     8   8   8   8   8   8   8   8
#     4  11  22  35  52  72  96 126 165 209 247 284
#     4  11  22  37  55  73  96 125 161 202 247 293
#     4  10  20  34  51  72  99 129 157 190 240 296
#     4  10  20  32  50  74  99 129 165 205 243 283
#     4   8  14  25  44  72 101 125 152 190 239 291
#     4   7  10  19  39  68 101 128 146 179 236 291
#     4  11  23  37  50  67  94 130 171 207 246 288
#     4   8  13  24  44  73 103 124 149 191 241 288
#
# _framework density 20.189617999999999
#
# number of rings (size 3 to 8) (size 9 to 14) (size 15 to 20)
#    0.000    2.500    1.250    3.750    0.000    2.750 
#    0.000    0.000    0.000    0.750    0.000    1.750 
#    0.000    9.500    0.000    0.000    0.000    0.250 
#
# Total GULP energy -178510.845630 kJ/mol
# GULP energy per Si atom -5578.463926 kJ/mol
# Density = 2.014367 g / cm^3
# Si number density = 20.189618 Si / 1000 Ang^3
#
#
#
# Elastic Constant Matrix: (Units=GPa)
#
#
# Indices 1 2 3 4 5 6 
#
# 1 81.7706 0.6520 35.6259 0.0000 28.4804 0.0000
# 2 0.6520 32.8264 -1.5666 0.0000 2.2330 0.0000
# 3 35.6259 -1.5666 99.2312 0.0000 41.9131 0.0000
# 4 0.0000 0.0000 0.0000 -12.4483 0.0000 -5.3560
# 5 28.4804 2.2330 41.9131 0.0000 31.0905 0.0000
# 6 0.0000 0.0000 0.0000 -5.3560 0.0000 -14.2465
#
#
#
# Elastic Compliance Matrix: (Units=1/GPa)
#
#
# Indices 1 2 3 4 5 6 
#
# 1 0.018046 0.000948 0.001271 0.000000 -0.018313 0.000000
# 2 0.000948 0.031129 0.003396 0.000000 -0.007682 0.000000
# 3 0.001271 0.003396 0.023850 0.000000 -0.033560 0.000000
# 4 0.000000 0.000000 0.000000 -0.095834 0.000000 0.036029
# 5 -0.018313 -0.007682 -0.033560 0.000000 0.094734 0.000000
# 6 0.000000 0.000000 0.000000 0.036029 0.000000 -0.083738
#
#
# Mechanical properties :
#
#
# Convention : Reuss Voigt Hill
#
# Bulk Modulus (GPa) = 11.86879 31.47231 21.67055
# Shear Modulus (GPa) = 991.45155 12.82025 502.13590
#
# Velocity S-wave (km/s) = 22.18414 2.52264 15.78765
# Velocity P-wave (km/s) = 25.73078 4.90990 18.52269
#
# Compressibility (1/GPa) = 0.08425459
#
# Stress axis : x y z
#
# Youngs Moduli (GPa) = 55.41290 32.12429 41.92884
#
# Poissons Ratio (x) = -0.03045 -0.05329
# Poissons Ratio (y) = -0.05252 -0.14238
# Poissons Ratio (z) = -0.07042 -0.10909
#
# Static dielectric constant tensor:
#      x y z
#    x 1.715610 0.000000 0.032440 
#    y 0.000000 1.735970 0.000000 
#    z 0.032440 0.000000 1.732440 
# 
# From -- ./inp_files/287591.got.cif
#   From: 2010.05.17/outbox.cif.g08.bks.cpg/sg12_144_cif.got.tgz:287591.got - 2010.06.03 13:09:07.
