data_PCOD9190953
_publ_section_title
;
Structure prediction by ZEFSAII (Michael W. Deem and Ramdas Pophale) SiO2 
 PCOD9190953
Probable space group: C 2/M
;
_chemical_formula_sum "Si O2"
_cell_formula_units_Z 64
_cell_length_a 16.817286
_cell_length_b 23.322030
_cell_length_c 22.463224
_cell_angle_alpha 90.000000
_cell_angle_beta 154.958394
_cell_angle_gamma 90.000000
_cell_volume 3729.222324
_symmetry_space_group_name_H-M "C 2/M"
_symmetry_group_IT_number 12
_symmetry_cell_setting 'monoclinic'
loop_
_space_group_symop_operation_xyz
x,y,z
-x,y,-z
-x,-y,-z
x,-y,z
1/2+x,1/2+y,z
1/2-x,1/2+y,-z
1/2-x,1/2-y,-z
1/2+x,1/2-y,z
loop_
_atom_site_type_symbol
_atom_site_label
_atom_site_fract_x
_atom_site_fract_y
_atom_site_fract_z
Si Si1 0.090148 0.566410 0.380388
Si Si2 0.839280 0.680660 0.626550
Si Si3 0.917336 0.231173 0.878040
Si Si4 0.832494 0.066610 0.925670
Si Si5 0.040865 0.124962 0.876374
Si Si6 0.376216 0.805356 0.070334
Si Si7 0.648147 0.893144 0.549764
Si Si8 0.027264 0.273527 0.410328
O O1 0.105805 0.500000 0.371091
O O2 0.203365 0.614905 0.421094
O O3 0.133309 0.570529 0.479504
O O4 0.874780 0.588979 0.227499
O O5 0.934445 0.710434 0.632962
O O6 0.654215 0.718670 0.512689
O O7 0.981882 0.682977 0.778753
O O8 0.692814 0.234484 0.728456
O O9 0.977361 0.177738 0.876535
O O10 0.005937 0.287474 0.907315
O O11 0.000000 0.224399 0.000000
O O12 0.819364 0.000000 0.901167
O O13 0.887885 0.076160 0.030895
O O14 0.000000 0.092037 0.000000
O O15 0.858618 0.106583 0.716948
O O16 0.219375 0.145369 0.959111
O O17 0.250000 0.750000 0.000000
O O18 0.500000 0.911330 0.500000
O O19 0.597052 0.828081 0.495751
#
# Coordination Sequence:
#
# PCOD9190953 Si02
#       8
#     8   8   8   8   8   8   8   8
#     4  10  22  38  54  75 107 149 194 231 272 319
#     4  10  20  35  55  76 109 144 185 231 279 331
#     4  11  22  32  53  77 112 144 179 217 268 345
#     4  10  20  33  51  75 103 141 188 226 259 314
#     4  11  20  33  53  74 112 142 182 217 268 322
#     4  10  20  32  50  78 105 142 179 219 270 333
#     4  11  21  32  51  79 113 147 180 224 271 331
#     4  10  20  34  51  79 110 145 180 220 287 335
#
# _framework density 17.161754999999999
#
# number of rings (size 3 to 8) (size 9 to 14) (size 15 to 20)
#    0.000    1.625    2.500    4.125    3.500    2.750 
#    0.000    0.000    0.000    0.000    0.000    2.625 
#    0.000    3.500    0.000    0.000    0.000    0.000 
#
# Total GULP energy -178526.118774 kJ/mol
# GULP energy per Si atom -5578.941212 kJ/mol
# Density = 1.712269 g / cm^3
# Si number density = 17.161755 Si / 1000 Ang^3
#
#
#
# Elastic Constant Matrix: (Units=GPa)
#
#
# Indices 1 2 3 4 5 6 
#
# 1 38.6622 4.9760 18.1774 0.0050 -4.0681 0.0025
# 2 4.9760 54.6001 7.8932 0.0105 4.4557 0.0025
# 3 18.1774 7.8932 111.4110 0.0190 -12.2750 0.0032
# 4 0.0050 0.0105 0.0190 10.4521 0.0032 -7.7689
# 5 -4.0681 4.4557 -12.2750 0.0032 27.3183 -0.0018
# 6 0.0025 0.0025 0.0032 -7.7689 -0.0018 12.2862
#
#
#
# Elastic Compliance Matrix: (Units=1/GPa)
#
#
# Indices 1 2 3 4 5 6 
#
# 1 0.028399 -0.002205 -0.004178 -0.000014 0.002711 -0.000013
# 2 -0.002205 0.019057 -0.001440 -0.000032 -0.004084 -0.000024
# 3 -0.004178 -0.001440 0.010223 -0.000032 0.004206 -0.000021
# 4 -0.000014 -0.000032 -0.000032 0.180517 -0.000025 0.114146
# 5 0.002711 -0.004084 0.004206 -0.000025 0.039565 -0.000011
# 6 -0.000013 -0.000024 -0.000021 0.114146 -0.000011 0.153570
#
#
# Mechanical properties :
#
#
# Convention : Reuss Voigt Hill
#
# Bulk Modulus (GPa) = 23.79196 29.64072 26.71634
# Shear Modulus (GPa) = 10.84623 21.58644 16.21633
#
# Velocity S-wave (km/s) = 2.51669 3.55043 3.07728
# Velocity P-wave (km/s) = 4.72635 5.84091 5.31294
#
# Compressibility (1/GPa) = 0.04203100
#
# Stress axis : x y z
#
# Youngs Moduli (GPa) = 35.21288 52.47284 97.81869
#
# Poissons Ratio (x) = 0.11572 0.40873
# Poissons Ratio (y) = 0.07765 0.14089
# Poissons Ratio (z) = 0.14714 0.07558
#
# Static dielectric constant tensor:
#      x y z
#    x 1.606390 0.000000 0.007140 
#    y 0.000000 1.598480 0.000000 
#    z 0.007140 0.000000 1.583150 
# 
# From -- ./inp_files/91096.got.cif
#   From: 2010.05.17/outbox.cif.g08.bks.cpg/sg12_46_cif.got.tgz:91096.got - 2010.06.03 13:09:07.
