data_PCOD9190599
_publ_section_title
;
Structure prediction by ZEFSAII (Michael W. Deem and Ramdas Pophale) SiO2 
 PCOD9190599
Probable space group: C 2/M
;
_chemical_formula_sum "Si O2"
_cell_formula_units_Z 48
_cell_length_a 18.426222
_cell_length_b 11.363329
_cell_length_c 20.349024
_cell_angle_alpha 90.000000
_cell_angle_beta 153.393836
_cell_angle_gamma 90.000000
_cell_volume 1908.196799
_symmetry_space_group_name_H-M "C 2/M"
_symmetry_group_IT_number 12
_symmetry_cell_setting 'monoclinic'
loop_
_space_group_symop_operation_xyz
x,y,z
-x,y,-z
-x,-y,-z
x,-y,z
1/2+x,1/2+y,z
1/2-x,1/2+y,-z
1/2-x,1/2-y,-z
1/2+x,1/2-y,z
loop_
_atom_site_type_symbol
_atom_site_label
_atom_site_fract_x
_atom_site_fract_y
_atom_site_fract_z
Si Si1 0.213159 0.367628 0.135582
Si Si2 0.943253 0.372670 0.545878
Si Si3 0.935409 0.124849 0.522899
Si Si4 0.933251 0.215033 0.089912
Si Si5 0.074369 0.627404 0.801138
Si Si6 0.694772 0.368601 0.202354
O O1 0.166563 0.500000 0.118504
O O2 0.408641 0.370327 0.302387
O O3 0.166621 0.252869 0.140230
O O4 0.131679 0.332924 0.000902
O O5 0.862857 0.500000 0.469880
O O6 0.850308 0.250057 0.460934
O O7 0.006065 0.370298 0.672061
O O8 0.109556 0.368190 0.637540
O O9 0.000000 0.121062 0.500000
O O10 0.849387 0.000000 0.464627
O O11 0.979226 0.262201 0.198720
O O12 0.075548 0.149029 0.166984
O O13 0.769894 0.137989 0.957634
O O14 0.029147 0.500000 0.792371
O O15 0.663726 0.500000 0.148793
#
# Coordination Sequence:
#
# PCOD9190599 Si02
#       6
#     8   8   8   8   8   8
#     4  10  20  32  47  72 101 129 164 205 243 288
#     4   9  18  34  52  74 102 129 163 204 244 292
#     4   9  17  31  49  70  97 127 160 203 252 294
#     4  11  20  30  47  71 101 139 168 196 232 292
#     4  10  20  32  45  68 103 138 165 198 242 288
#     4  10  20  33  50  71  98 136 171 199 237 286
#
# _framework density 25.154639
#
# number of rings (size 3 to 8) (size 9 to 14) (size 15 to 20)
#    0.000    2.167    3.333    1.500    0.000    3.667 
#    0.000    0.833    0.000    0.000    0.000    4.667 
#    0.000    2.667    0.000    0.000    0.000    0.000 
#
# Total GULP energy -133873.301808 kJ/mol
# GULP energy per Si atom -5578.054242 kJ/mol
# Density = 2.509739 g / cm^3
# Si number density = 25.154639 Si / 1000 Ang^3
#
#
#
# Elastic Constant Matrix: (Units=GPa)
#
#
# Indices 1 2 3 4 5 6 
#
# 1 73.3615 30.0580 18.1406 -0.0005 -1.8215 -0.0002
# 2 30.0580 281.8108 21.9857 -0.0007 -7.9342 -0.0001
# 3 18.1406 21.9857 79.6894 -0.0016 -1.5710 -0.0005
# 4 -0.0005 -0.0007 -0.0016 -76.8418 -0.0010 -27.9268
# 5 -1.8215 -7.9342 -1.5710 -0.0010 25.6214 -0.0002
# 6 -0.0002 -0.0001 -0.0005 -27.9268 -0.0002 24.7167
#
#
#
# Elastic Compliance Matrix: (Units=1/GPa)
#
#
# Indices 1 2 3 4 5 6 
#
# 1 0.014941 -0.001345 -0.003021 0.000000 0.000460 0.000000
# 2 -0.001345 0.003777 -0.000716 0.000000 0.001030 0.000000
# 3 -0.003021 -0.000716 0.013441 0.000000 0.000388 0.000000
# 4 0.000000 0.000000 0.000000 -0.009225 0.000000 -0.010424
# 5 0.000460 0.001030 0.000388 0.000000 0.039405 0.000000
# 6 0.000000 0.000000 0.000000 -0.010424 0.000000 0.028681
#
#
# Mechanical properties :
#
#
# Convention : Reuss Voigt Hill
#
# Bulk Modulus (GPa) = 45.46273 63.91446 54.68859
# Shear Modulus (GPa) = 46.07676 19.01110 32.54393
#
# Velocity S-wave (km/s) = 4.28453 2.75211 3.60078
# Velocity P-wave (km/s) = 6.52601 5.96344 6.25105
#
# Compressibility (1/GPa) = 0.02199604
#
# Stress axis : x y z
#
# Youngs Moduli (GPa) = 66.93163 264.77780 74.39666
#
# Poissons Ratio (x) = 0.35611 0.22475
# Poissons Ratio (y) = 0.09002 0.05323
# Poissons Ratio (z) = 0.20220 0.18945
#
# Static dielectric constant tensor:
#      x y z
#    x 2.023620 0.000000 -0.093250 
#    y 0.000000 1.985500 0.000000 
#    z -0.093250 0.000000 2.022350 
# 
# From -- ./inp_files/320761.got.cif
#   From: 2010.05.17/outbox.cif.g08.bks.cpg/sg12_161_cif.got.tgz:320761.got - 2010.06.03 13:09:07.
