data_PCOD9190264
_publ_section_title
;
Structure prediction by ZEFSAII (Michael W. Deem and Ramdas Pophale) SiO2 
 PCOD9190264
Probable space group: C 2/M
;
_chemical_formula_sum "Si O2"
_cell_formula_units_Z 48
_cell_length_a 8.459622
_cell_length_b 23.771743
_cell_length_c 13.642226
_cell_angle_alpha 90.000000
_cell_angle_beta 113.447201
_cell_angle_gamma 90.000000
_cell_volume 2516.916496
_symmetry_space_group_name_H-M "C 2/M"
_symmetry_group_IT_number 12
_symmetry_cell_setting 'monoclinic'
loop_
_space_group_symop_operation_xyz
x,y,z
-x,y,-z
-x,-y,-z
x,-y,z
1/2+x,1/2+y,z
1/2-x,1/2+y,-z
1/2-x,1/2-y,-z
1/2+x,1/2-y,z
loop_
_atom_site_type_symbol
_atom_site_label
_atom_site_fract_x
_atom_site_fract_y
_atom_site_fract_z
Si Si1 0.789895 0.000000 0.558339
Si Si2 0.545984 0.880074 0.306412
Si Si3 0.985455 0.500000 0.334348
Si Si4 0.728583 0.802945 0.215420
Si Si5 0.076011 0.780758 0.923283
Si Si6 0.848777 0.706589 0.381898
Si Si7 0.650173 0.376589 0.462926
O O1 0.886774 0.060043 0.585836
O O2 0.676423 0.000000 0.430453
O O3 0.651757 0.000000 0.611640
O O4 0.466406 0.941380 0.273917
O O5 0.654634 0.860062 0.240874
O O6 0.412477 0.832033 0.306849
O O7 0.673497 0.882471 0.431512
O O8 0.867076 0.810634 0.163235
O O9 0.567702 0.765785 0.137642
O O10 0.797925 0.765998 0.323745
O O11 0.250000 0.750000 0.000000
O O12 0.000000 0.812791 0.000000
O O13 0.695178 0.671597 0.395712
O O14 0.000000 0.713149 0.500000
O O15 0.500000 0.360813 0.500000
#
# Coordination Sequence:
#
# PCOD9190264 Si02
#       7
#     4   8   4   8   8   8   8
#     4   9  15  30  50  62  94 145 200 236 246 280
#     4  10  20  33  51  74 105 150 182 219 258 317
#     4   9  16  32  52  68  96 146 193 222 252 302
#     4  11  20  35  55  80 114 137 175 221 272 328
#     4   9  20  37  57  79 104 133 175 225 279 325
#     4  10  21  34  48  76 116 157 179 203 264 330
#     4  10  20  29  46  72 106 145 191 224 258 296
#
# _framework density 19.070955999999999
#
# number of rings (size 3 to 8) (size 9 to 14) (size 15 to 20)
#    0.000    2.167    3.333    0.250    2.333    3.333 
#    0.000    0.000    0.000    0.000    0.000    5.833 
#    0.000    0.167    0.000    0.000    0.000    0.000 
#
# Total GULP energy -133855.066890 kJ/mol
# GULP energy per Si atom -5577.294454 kJ/mol
# Density = 1.902755 g / cm^3
# Si number density = 19.070956 Si / 1000 Ang^3
#
#
#
# Elastic Constant Matrix: (Units=GPa)
#
#
# Indices 1 2 3 4 5 6 
#
# 1 90.9481 33.3582 25.4900 0.0000 -32.3777 0.0000
# 2 33.3582 74.9915 18.7092 0.0000 -20.3559 0.0000
# 3 25.4900 18.7092 53.3746 0.0000 -13.6792 0.0000
# 4 0.0000 0.0000 0.0000 0.6235 0.0000 -0.7540
# 5 -32.3777 -20.3559 -13.6792 0.0000 44.0452 0.0000
# 6 0.0000 0.0000 0.0000 -0.7540 0.0000 17.5667
#
#
#
# Elastic Compliance Matrix: (Units=1/GPa)
#
#
# Indices 1 2 3 4 5 6 
#
# 1 0.016969 -0.003940 -0.004338 0.000000 0.009306 0.000000
# 2 -0.003940 0.016925 -0.003030 0.000000 0.003985 0.000000
# 3 -0.004338 -0.003030 0.022483 0.000000 0.002393 0.000000
# 4 0.000000 0.000000 0.000000 1.691573 0.000000 0.072602
# 5 0.009306 0.003985 0.002393 0.000000 0.032130 0.000000
# 6 0.000000 0.000000 0.000000 0.072602 0.000000 0.060042
#
#
# Mechanical properties :
#
#
# Convention : Reuss Voigt Hill
#
# Bulk Modulus (GPa) = 29.61969 41.60320 35.61144
# Shear Modulus (GPa) = 2.66810 21.89754 12.28282
#
# Velocity S-wave (km/s) = 1.18409 3.39221 2.54059
# Velocity P-wave (km/s) = 4.17546 6.09960 5.22683
#
# Compressibility (1/GPa) = 0.03376133
#
# Stress axis : x y z
#
# Youngs Moduli (GPa) = 58.93065 59.08417 44.47896
#
# Poissons Ratio (x) = 0.23280 0.19294
# Poissons Ratio (y) = 0.23219 0.13476
# Poissons Ratio (z) = 0.25563 0.17901
#
# Static dielectric constant tensor:
#      x y z
#    x 1.709850 0.000000 0.002430 
#    y 0.000000 1.689660 0.000000 
#    z 0.002430 0.000000 1.701230 
# 
# From -- ./inp_files/196941.got.cif
#   From: 2010.05.17/outbox.cif.g08.bks.cpg/sg12_99_cif.got.tgz:196941.got - 2010.06.03 13:09:07.
