data_PCOD9190164
_publ_section_title
;
Structure prediction by ZEFSAII (Michael W. Deem and Ramdas Pophale) SiO2 
 PCOD9190164
Probable space group: C 2/M
;
_chemical_formula_sum "Si O2"
_cell_formula_units_Z 32
_cell_length_a 10.861467
_cell_length_b 21.833110
_cell_length_c 17.654024
_cell_angle_alpha 90.000000
_cell_angle_beta 22.218166
_cell_angle_gamma 90.000000
_cell_volume 1583.047332
_symmetry_space_group_name_H-M "C 2/M"
_symmetry_group_IT_number 12
_symmetry_cell_setting 'monoclinic'
loop_
_space_group_symop_operation_xyz
x,y,z
-x,y,-z
-x,-y,-z
x,-y,z
1/2+x,1/2+y,z
1/2-x,1/2+y,-z
1/2-x,1/2-y,-z
1/2+x,1/2-y,z
loop_
_atom_site_type_symbol
_atom_site_label
_atom_site_fract_x
_atom_site_fract_y
_atom_site_fract_z
Si Si1 0.281811 0.500000 0.405478
Si Si2 0.274420 0.123394 0.906110
Si Si3 0.398697 0.374328 0.278069
Si Si4 0.822806 0.744369 0.368988
Si Si5 0.845728 0.500000 0.343495
O O1 0.469256 0.436221 0.284535
O O2 0.158610 0.500000 0.561965
O O3 0.000000 0.500000 0.500000
O O4 0.474922 0.184799 0.771583
O O5 0.485384 0.062276 0.779538
O O6 0.000000 0.118432 0.000000
O O7 0.081729 0.123061 0.094528
O O8 0.500553 0.308905 0.252902
O O9 0.000000 0.372234 0.500000
O O10 0.500000 0.742637 0.500000
O O11 0.750000 0.750000 0.500000
O O12 0.500000 0.500000 0.500000
#
# Coordination Sequence:
#
# PCOD9190164 Si02
#       5
#     4   8   8   8   4
#     4  10  19  40  66  89 122 167 211 259 313 378
#     4  12  23  41  68  97 126 172 222 266 324 392
#     4  10  21  38  62  94 128 167 214 266 316 377
#     4  11  23  42  64  95 134 173 215 270 326 384
#     4  12  26  44  65  97 133 167 209 271 332 390
#
# _framework density 20.214176999999999
#
# number of rings (size 3 to 8) (size 9 to 14) (size 15 to 20)
#    0.000    1.000    0.000   10.125    0.000    0.000 
#    0.000    5.000    0.000    0.000    0.000    0.000 
#    0.000    0.000    0.000    0.000    0.000    0.000 
#
# Total GULP energy -89291.282171 kJ/mol
# GULP energy per Si atom -5580.705136 kJ/mol
# Density = 2.016817 g / cm^3
# Si number density = 20.214177 Si / 1000 Ang^3
#
#
#
# Elastic Constant Matrix: (Units=GPa)
#
#
# Indices 1 2 3 4 5 6 
#
# 1 106.9922 40.3225 74.3113 0.0189 26.7976 0.0631
# 2 40.3225 244.6613 105.1935 0.3038 17.2668 -0.0707
# 3 74.3113 105.1935 148.1496 2.2985 47.4812 -0.6151
# 4 0.0189 0.3038 2.2985 -51.3721 -0.0849 45.6282
# 5 26.7976 17.2668 47.4812 -0.0849 59.3375 -0.0857
# 6 0.0631 -0.0707 -0.6151 45.6282 -0.0857 14.1552
#
#
#
# Elastic Compliance Matrix: (Units=1/GPa)
#
#
# Indices 1 2 3 4 5 6 
#
# 1 0.014545 0.001004 -0.007809 -0.000180 -0.000612 0.000177
# 2 0.001004 0.006172 -0.005598 -0.000103 0.002231 0.000129
# 3 -0.007809 -0.005598 0.017460 0.000360 -0.008816 -0.000450
# 4 -0.000180 -0.000103 0.000360 -0.005032 -0.000161 0.016234
# 5 -0.000612 0.002231 -0.008816 -0.000161 0.023535 0.000292
# 6 0.000177 0.000129 -0.000450 0.016234 0.000292 0.018300
#
#
# Mechanical properties :
#
#
# Convention : Reuss Voigt Hill
#
# Bulk Modulus (GPa) = 74.79534 104.38419 89.58977
# Shear Modulus (GPa) = 47.96524 23.08916 35.52720
#
# Velocity S-wave (km/s) = 4.87648 3.38335 4.19685
# Velocity P-wave (km/s) = 8.29388 8.18620 8.24022
#
# Compressibility (1/GPa) = 0.01336982
#
# Stress axis : x y z
#
# Youngs Moduli (GPa) = 68.75237 162.03063 57.27464
#
# Poissons Ratio (x) = -0.16263 0.44723
# Poissons Ratio (y) = -0.06901 0.32065
# Poissons Ratio (z) = 0.53686 0.90711
#
# Static dielectric constant tensor:
#      x y z
#    x 1.741130 0.005030 -0.111990 
#    y 0.005030 2.207750 -0.004390 
#    z -0.111990 -0.004390 1.691420 
# 
# From -- ./inp_files/48349.got.cif
#   From: 2010.05.17/outbox.cif.g08.bks.cpg/sg12_25_cif.got.tgz:48349.got - 2010.06.03 13:09:07.
