data_PCOD9190604
_publ_section_title
;
Structure prediction by ZEFSAII (Michael W. Deem and Ramdas Pophale) SiO2 
 PCOD9190604
Probable space group: C 2/M
;
_chemical_formula_sum "Si O2"
_cell_formula_units_Z 36
_cell_length_a 22.794028
_cell_length_b 13.160127
_cell_length_c 10.838374
_cell_angle_alpha 90.000000
_cell_angle_beta 134.509581
_cell_angle_gamma 90.000000
_cell_volume 2318.547334
_symmetry_space_group_name_H-M "C 2/M"
_symmetry_group_IT_number 12
_symmetry_cell_setting 'monoclinic'
loop_
_space_group_symop_operation_xyz
x,y,z
-x,y,-z
-x,-y,-z
x,-y,z
1/2+x,1/2+y,z
1/2-x,1/2+y,-z
1/2-x,1/2-y,-z
1/2+x,1/2-y,z
loop_
_atom_site_type_symbol
_atom_site_label
_atom_site_fract_x
_atom_site_fract_y
_atom_site_fract_z
Si Si1 0.313761 0.880179 0.799972
Si Si2 0.000000 0.758308 0.500000
Si Si3 0.566805 0.239255 0.200028
Si Si4 0.053016 0.380566 0.799973
Si Si5 0.879154 0.879154 0.500000
O O1 0.358395 0.812896 0.762288
O O2 0.217240 0.858976 0.666242
O O3 0.324483 0.000000 0.785710
O O4 0.362864 0.862863 1.000000
O O5 0.045013 0.686749 0.666243
O O6 0.935383 0.827234 0.478915
O O7 0.519387 0.156129 0.214291
O O8 0.596011 0.327773 0.333757
O O9 0.500000 0.274272 0.000000
O O10 0.045499 0.500000 0.762289
O O11 0.891851 0.000000 0.521085
#
# Coordination Sequence:
#
# PCOD9190604 Si02
#       5
#     8   4   8   8   8
#     4   9  17  30  49  71  92 114 143 183 229 271
#     4  10  20  32  46  64  90 124 156 184 214 256
#     4   9  17  30  49  71  92 114 143 183 229 271
#     4   9  17  30  49  71  92 114 143 183 229 271
#     4  10  20  32  46  64  90 124 156 184 214 256
#
# _framework density 15.526964
#
# number of rings (size 3 to 8) (size 9 to 14) (size 15 to 20)
#    0.000    2.667    0.000    2.000    0.000    4.000 
#    0.000    0.000    0.000    1.333    0.000    0.000 
#    0.000    0.000    0.000    0.000    0.000    0.000 
#
# Total GULP energy -100330.329811 kJ/mol
# GULP energy per Si atom -5573.907212 kJ/mol
# Density = 1.549162 g / cm^3
# Si number density = 15.526964 Si / 1000 Ang^3
#
#
#
# Elastic Constant Matrix: (Units=GPa)
#
#
# Indices 1 2 3 4 5 6 
#
# 1 112.8335 78.0294 89.8209 0.0000 -1.5223 0.0000
# 2 78.0294 112.8845 89.7658 0.0000 1.8176 0.0000
# 3 89.8209 89.7658 122.0662 0.0000 -0.1239 0.0000
# 4 0.0000 0.0000 0.0000 23.6435 0.0000 1.7721
# 5 -1.5223 1.8176 -0.1239 0.0000 23.6977 0.0000
# 6 0.0000 0.0000 0.0000 1.7721 0.0000 17.4713
#
#
#
# Elastic Compliance Matrix: (Units=1/GPa)
#
#
# Indices 1 2 3 4 5 6 
#
# 1 0.022976 -0.005947 -0.012532 0.000000 0.001866 0.000000
# 2 -0.005947 0.022944 -0.012499 0.000000 -0.002207 0.000000
# 3 -0.012532 -0.012499 0.026606 0.000000 0.000293 0.000000
# 4 0.000000 0.000000 0.000000 0.042619 0.000000 -0.004323
# 5 0.001866 -0.002207 0.000293 0.000000 0.042489 0.000000
# 6 0.000000 0.000000 0.000000 -0.004323 0.000000 0.057675
#
#
# Mechanical properties :
#
#
# Convention : Reuss Voigt Hill
#
# Bulk Modulus (GPa) = 94.60171 95.89071 95.24621
# Shear Modulus (GPa) = 17.80710 18.97370 18.39040
#
# Velocity S-wave (km/s) = 3.39019 3.49948 3.44527
# Velocity P-wave (km/s) = 8.73980 8.84421 8.79216
#
# Compressibility (1/GPa) = 0.01057063
#
# Stress axis : x y z
#
# Youngs Moduli (GPa) = 43.52392 43.58431 37.58618
#
# Poissons Ratio (x) = 0.25918 0.47101
# Poissons Ratio (y) = 0.25882 0.46980
# Poissons Ratio (z) = 0.54542 0.54477
#
# Static dielectric constant tensor:
#      x y z
#    x 1.490240 0.000000 0.000180 
#    y 0.000000 1.490230 0.000000 
#    z 0.000180 0.000000 1.511600 
# 
# From -- ./inp_files/58681.got.cif
#   From: 2010.05.17/outbox.cif.g08.bks.cpg/sg12_30_cif.got.tgz:58681.got - 2010.06.03 13:09:07.
