data_PCOD9190359
_publ_section_title
;
Structure prediction by ZEFSAII (Michael W. Deem and Ramdas Pophale) SiO2 
 PCOD9190359
Probable space group: C 2/M
;
_chemical_formula_sum "Si O2"
_cell_formula_units_Z 50
_cell_length_a 15.190251
_cell_length_b 18.281893
_cell_length_c 12.096438
_cell_angle_alpha 90.000000
_cell_angle_beta 128.783146
_cell_angle_gamma 90.000000
_cell_volume 2618.617907
_symmetry_space_group_name_H-M "C 2/M"
_symmetry_group_IT_number 12
_symmetry_cell_setting 'monoclinic'
loop_
_space_group_symop_operation_xyz
x,y,z
-x,y,-z
-x,-y,-z
x,-y,z
1/2+x,1/2+y,z
1/2-x,1/2+y,-z
1/2-x,1/2-y,-z
1/2+x,1/2-y,z
loop_
_atom_site_type_symbol
_atom_site_label
_atom_site_fract_x
_atom_site_fract_y
_atom_site_fract_z
Si Si1 0.723510 0.204463 0.817637
Si Si2 0.573430 0.500000 0.729563
Si Si3 0.830850 0.000000 0.443532
Si Si4 0.879075 0.838386 0.147977
Si Si5 0.624402 0.897310 0.276676
Si Si6 0.454399 0.078059 0.340579
Si Si7 0.000000 0.500000 0.000000
Si Si8 0.923367 0.233575 0.828124
O O1 0.672267 0.285895 0.796369
O O2 0.623270 0.147645 0.732923
O O3 0.807493 0.198231 0.780224
O O4 0.795839 0.179603 0.980979
O O5 0.437349 0.500000 0.609255
O O6 0.622224 0.500000 0.644074
O O7 0.614143 0.424059 0.817402
O O8 0.749393 0.070304 0.390141
O O9 0.001113 0.810055 0.201068
O O10 0.553592 0.916936 0.329765
O O11 0.611551 0.811715 0.246787
O O12 0.565873 0.937300 0.126376
O O13 0.500000 0.077355 0.500000
O O14 0.393745 0.000000 0.272042
O O15 0.000000 0.242760 0.000000
#
# Coordination Sequence:
#
# PCOD9190359 Si02
#       8
#     8   4   4   8   8   8   2   8
#     4  10  22  41  64  95 121 166 214 264 316 377
#     4  11  24  44  59  91 129 167 205 261 319 390
#     4  10  24  40  60  92 125 160 213 268 314 372
#     4  10  22  41  66  90 128 166 208 272 322 372
#     4  11  20  40  65  95 122 163 211 267 322 362
#     4  11  24  42  62  92 134 168 206 257 316 393
#     4  10  20  30  68 100 114 154 206 276 324 360
#     4  10  20  38  62  94 128 156 208 268 313 373
#
# _framework density 19.094041000000001
#
# number of rings (size 3 to 8) (size 9 to 14) (size 15 to 20)
#    0.000    1.600    4.000    0.960    1.120    3.840 
#    7.200    2.800    0.000    0.000    0.000    0.000 
#    0.000    0.000    0.000    0.000    0.000    0.000 
#
# Total GULP energy -139209.197711 kJ/mol
# GULP energy per Si atom -5568.367908 kJ/mol
# Density = 1.905058 g / cm^3
# Si number density = 19.094041 Si / 1000 Ang^3
#
#
#
# Elastic Constant Matrix: (Units=GPa)
#
#
# Indices 1 2 3 4 5 6 
#
# 1 101.9400 38.3097 24.9104 0.0000 17.2724 0.0000
# 2 38.3097 142.7127 24.0775 0.0000 12.7646 0.0000
# 3 24.9104 24.0775 30.8108 0.0000 8.3759 0.0000
# 4 0.0000 0.0000 0.0000 14.9583 0.0000 4.5833
# 5 17.2724 12.7646 8.3759 0.0000 15.3517 0.0000
# 6 0.0000 0.0000 0.0000 4.5833 0.0000 49.0988
#
#
#
# Elastic Compliance Matrix: (Units=1/GPa)
#
#
# Indices 1 2 3 4 5 6 
#
# 1 0.013931 -0.001595 -0.007181 0.000000 -0.010430 0.000000
# 2 -0.001595 0.008451 -0.004570 0.000000 -0.002739 0.000000
# 3 -0.007181 -0.004570 0.045327 0.000000 -0.012851 0.000000
# 4 0.000000 0.000000 0.000000 0.068821 0.000000 -0.006424
# 5 -0.010430 -0.002739 -0.012851 0.000000 0.086163 0.000000
# 6 0.000000 0.000000 0.000000 -0.006424 0.000000 0.020967
#
#
# Mechanical properties :
#
#
# Convention : Reuss Voigt Hill
#
# Bulk Modulus (GPa) = 24.38065 50.00652 37.19358
# Shear Modulus (GPa) = 17.60406 28.42615 23.01511
#
# Velocity S-wave (km/s) = 3.03968 3.86261 3.47559
# Velocity P-wave (km/s) = 5.01159 6.79260 5.96890
#
# Compressibility (1/GPa) = 0.04101614
#
# Stress axis : x y z
#
# Youngs Moduli (GPa) = 71.78115 118.32479 22.06182
#
# Poissons Ratio (x) = 0.18876 0.15844
# Poissons Ratio (y) = 0.11451 0.10082
# Poissons Ratio (z) = 0.51549 0.54076
#
# Static dielectric constant tensor:
#      x y z
#    x 1.673760 0.000000 0.006650 
#    y 0.000000 1.670760 0.000000 
#    z 0.006650 0.000000 1.636440 
# 
# From -- ./inp_files/145771.got.cif
#   From: 2010.05.17/outbox.cif.g08.bks.cpg/sg12_73_cif.got.tgz:145771.got - 2010.06.03 13:09:07.
