data_PCOD9190294
_publ_section_title
;
Structure prediction by ZEFSAII (Michael W. Deem and Ramdas Pophale) SiO2 
 PCOD9190294
Probable space group: C 2/M
;
_chemical_formula_sum "Si O2"
_cell_formula_units_Z 56
_cell_length_a 29.379795
_cell_length_b 11.190891
_cell_length_c 14.655892
_cell_angle_alpha 90.000000
_cell_angle_beta 147.809359
_cell_angle_gamma 90.000000
_cell_volume 2567.079965
_symmetry_space_group_name_H-M "C 2/M"
_symmetry_group_IT_number 12
_symmetry_cell_setting 'monoclinic'
loop_
_space_group_symop_operation_xyz
x,y,z
-x,y,-z
-x,-y,-z
x,-y,z
1/2+x,1/2+y,z
1/2-x,1/2+y,-z
1/2-x,1/2-y,-z
1/2+x,1/2-y,z
loop_
_atom_site_type_symbol
_atom_site_label
_atom_site_fract_x
_atom_site_fract_y
_atom_site_fract_z
Si Si1 0.497702 0.736176 0.649545
Si Si2 0.111181 0.644421 0.287146
Si Si3 0.138359 0.500000 0.738142
Si Si4 0.908822 0.643776 0.951791
Si Si5 0.637741 0.367451 0.455955
Si Si6 0.513864 0.000000 0.373050
Si Si7 0.774812 0.367699 0.853057
Si Si8 0.140946 0.240853 0.752867
O O1 0.453421 0.649548 0.646522
O O2 0.588527 0.708437 0.755479
O O3 0.431527 0.742089 0.450656
O O4 0.496729 0.871125 0.689320
O O5 0.125736 0.500000 0.331352
O O6 0.132425 0.669439 0.217071
O O7 0.150776 0.748234 0.417472
O O8 0.009088 0.667716 0.119214
O O9 0.105272 0.500000 0.577801
O O10 0.178477 0.373882 0.823564
O O11 0.056529 0.500000 0.666445
O O12 0.902690 0.500000 0.947626
O O13 0.855617 0.699078 0.945408
O O14 0.640557 0.500000 0.415871
O O15 0.708456 0.369655 0.655805
O O16 0.805481 0.500000 0.929441
O O17 0.718604 0.330335 0.842817
#
# Coordination Sequence:
#
# PCOD9190294 Si02
#       8
#     8   8   4   8   8   4   8   8
#     4   8  14  23  38  62  93 127 159 190 227 273
#     4   9  18  34  57  74  87 120 165 204 236 278
#     4   7  10  18  32  52  84 117 148 188 227 252
#     4   8  16  34  56  73  88 115 164 208 233 274
#     4  10  20  30  44  73 108 130 148 190 246 289
#     4   7  10  18  34  54  78 117 158 188 219 254
#     4   9  17  29  47  71  99 128 155 192 241 284
#     4   8  13  23  39  61  91 127 159 191 225 273
#
# _framework density 21.814668999999999
#
# number of rings (size 3 to 8) (size 9 to 14) (size 15 to 20)
#    0.000    3.571    0.000    2.571    1.000    1.143 
#    1.286    4.286    3.143    0.857    0.000    0.000 
#    0.000    0.000    0.000    0.000    0.000    0.000 
#
# Total GULP energy -155881.825887 kJ/mol
# GULP energy per Si atom -5567.208067 kJ/mol
# Density = 2.176502 g / cm^3
# Si number density = 21.814669 Si / 1000 Ang^3
#
#
#
# Elastic Constant Matrix: (Units=GPa)
#
#
# Indices 1 2 3 4 5 6 
#
# 1 89.2833 13.1455 32.7387 0.0000 12.6580 0.0000
# 2 13.1455 72.2451 24.5299 0.0000 -9.8786 0.0000
# 3 32.7387 24.5299 60.7069 0.0000 -12.9628 0.0000
# 4 0.0000 0.0000 0.0000 -8.2083 0.0000 -13.6731
# 5 12.6580 -9.8786 -12.9628 0.0000 31.0314 0.0000
# 6 0.0000 0.0000 0.0000 -13.6731 0.0000 18.2852
#
#
#
# Elastic Compliance Matrix: (Units=1/GPa)
#
#
# Indices 1 2 3 4 5 6 
#
# 1 0.017299 -0.000883 -0.011571 0.000000 -0.012171 0.000000
# 2 -0.000883 0.016286 -0.005403 0.000000 0.003288 0.000000
# 3 -0.011571 -0.005403 0.028037 0.000000 0.014712 0.000000
# 4 0.000000 0.000000 0.000000 -0.054252 0.000000 -0.040568
# 5 -0.012171 0.003288 0.014712 0.000000 0.044383 0.000000
# 6 0.000000 0.000000 0.000000 -0.040568 0.000000 0.024354
#
#
# Mechanical properties :
#
#
# Convention : Reuss Voigt Hill
#
# Bulk Modulus (GPa) = 38.59659 40.34038 39.46848
# Shear Modulus (GPa) = 41.50847 18.34305 29.92576
#
# Velocity S-wave (km/s) = 4.36682 2.90290 3.70782
# Velocity P-wave (km/s) = 6.56938 5.45603 6.03842
#
# Compressibility (1/GPa) = 0.02590903
#
# Stress axis : x y z
#
# Youngs Moduli (GPa) = 57.80740 61.40086 35.66671
#
# Poissons Ratio (x) = 0.05422 0.41271
# Poissons Ratio (y) = 0.05105 0.19269
# Poissons Ratio (z) = 0.66890 0.33172
#
# Static dielectric constant tensor:
#      x y z
#    x 1.878910 0.000000 -0.017950 
#    y 0.000000 1.858280 0.000000 
#    z -0.017950 0.000000 1.869210 
# 
# From -- ./inp_files/245721.got.cif
#   From: 2010.05.17/outbox.cif.g08.bks.cpg/sg12_123_cif.got.tgz:245721.got - 2010.06.03 13:09:07.
