data_PCOD9190747
_publ_section_title
;
Structure prediction by ZEFSAII (Michael W. Deem and Ramdas Pophale) SiO2 
 PCOD9190747
Probable space group: C 2/M
;
_chemical_formula_sum "Si O2"
_cell_formula_units_Z 48
_cell_length_a 29.495755
_cell_length_b 7.258268
_cell_length_c 12.939939
_cell_angle_alpha 90.000000
_cell_angle_beta 139.297453
_cell_angle_gamma 90.000000
_cell_volume 1806.593018
_symmetry_space_group_name_H-M "C 2/M"
_symmetry_group_IT_number 12
_symmetry_cell_setting 'monoclinic'
loop_
_space_group_symop_operation_xyz
x,y,z
-x,y,-z
-x,-y,-z
x,-y,z
1/2+x,1/2+y,z
1/2-x,1/2+y,-z
1/2-x,1/2-y,-z
1/2+x,1/2-y,z
loop_
_atom_site_type_symbol
_atom_site_label
_atom_site_fract_x
_atom_site_fract_y
_atom_site_fract_z
Si Si1 0.051443 0.276164 0.494391
Si Si2 0.253170 0.722642 0.352149
Si Si3 0.366073 0.791895 0.698089
Si Si4 0.169748 0.281331 0.835219
Si Si5 0.996869 0.274662 0.816797
Si Si6 0.356748 0.223828 0.988781
O O1 0.049220 0.500000 0.485249
O O2 0.128418 0.213014 0.663712
O O3 0.027992 0.215923 0.340573
O O4 0.000000 0.225323 0.500000
O O5 0.258470 0.500000 0.364769
O O6 0.325884 0.797030 0.517995
O O7 0.192889 0.786084 0.328757
O O8 0.218313 0.779956 0.184488
O O9 0.440937 0.710318 0.803910
O O10 0.377023 0.000000 0.755536
O O11 0.161222 0.500000 0.816539
O O12 0.250000 0.250000 0.000000
O O13 0.132416 0.215282 0.875591
O O14 0.994700 0.500000 0.816534
O O15 0.077263 0.220299 0.965573
O O16 0.356114 0.000000 0.987750
#
# Coordination Sequence:
#
# PCOD9190747 Si02
#       6
#     8   8   8   8   8   8
#     4   9  15  27  46  68  93 120 152 191 230 269
#     4   9  18  32  48  68  97 126 150 185 235 284
#     4   9  18  31  49  72  93 119 156 194 231 272
#     4  10  20  32  48  71  96 124 156 190 230 275
#     4   9  16  27  46  71  93 116 155 199 230 263
#     4   9  17  30  47  69  96 123 153 192 235 274
#
# _framework density 26.569348999999999
#
# number of rings (size 3 to 8) (size 9 to 14) (size 15 to 20)
#    0.000    2.833    1.667    0.000    2.333    0.667 
#    0.000    3.333    0.000    2.500    0.000    4.667 
#    0.000    0.000    0.000    0.000    0.000    0.000 
#
# Total GULP energy -134126.272266 kJ/mol
# GULP energy per Si atom -5588.594678 kJ/mol
# Density = 2.650888 g / cm^3
# Si number density = 26.569349 Si / 1000 Ang^3
#
#
#
# Elastic Constant Matrix: (Units=GPa)
#
#
# Indices 1 2 3 4 5 6 
#
# 1 51.2092 -5.2755 6.9121 0.0000 17.9084 0.0000
# 2 -5.2755 123.2819 -10.1598 0.0000 -2.9991 0.0000
# 3 6.9121 -10.1598 132.8185 0.0000 3.1030 0.0000
# 4 0.0000 0.0000 0.0000 9.4228 0.0000 -0.2086
# 5 17.9084 -2.9991 3.1030 0.0000 51.1483 0.0000
# 6 0.0000 0.0000 0.0000 -0.2086 0.0000 -12.3735
#
#
#
# Elastic Compliance Matrix: (Units=1/GPa)
#
#
# Indices 1 2 3 4 5 6 
#
# 1 0.022439 0.000695 -0.000933 0.000000 -0.007759 0.000000
# 2 0.000695 0.008194 0.000586 0.000000 0.000202 0.000000
# 3 -0.000933 0.000586 0.007625 0.000000 -0.000101 0.000000
# 4 0.000000 0.000000 0.000000 0.106086 0.000000 -0.001789
# 5 -0.007759 0.000202 -0.000101 0.000000 0.022286 0.000000
# 6 0.000000 0.000000 0.000000 -0.001789 0.000000 -0.080788
#
#
# Mechanical properties :
#
#
# Convention : Reuss Voigt Hill
#
# Bulk Modulus (GPa) = 25.67247 32.25146 28.96196
# Shear Modulus (GPa) = 50.95196 30.69505 40.82350
#
# Velocity S-wave (km/s) = 4.38390 3.40263 3.92406
# Velocity P-wave (km/s) = 5.94207 5.25377 5.60849
#
# Compressibility (1/GPa) = 0.03895224
#
# Stress axis : x y z
#
# Youngs Moduli (GPa) = 44.56586 122.03446 131.15034
#
# Poissons Ratio (x) = -0.08476 0.12241
# Poissons Ratio (y) = -0.03095 -0.07685
# Poissons Ratio (z) = 0.04160 -0.07151
#
# Static dielectric constant tensor:
#      x y z
#    x 2.113960 0.000000 -0.032870 
#    y 0.000000 2.068850 0.000000 
#    z -0.032870 0.000000 2.126700 
# 
# From -- ./inp_files/153723.got.cif
#   From: 2010.05.17/outbox.cif.g08.bks.cpg/sg12_77_cif.got.tgz:153723.got - 2010.06.03 13:09:07.
