data_PCOD9190640
_publ_section_title
;
Structure prediction by ZEFSAII (Michael W. Deem and Ramdas Pophale) SiO2 
 PCOD9190640
Probable space group: C 2/M
;
_chemical_formula_sum "Si O2"
_cell_formula_units_Z 56
_cell_length_a 7.436903
_cell_length_b 30.653154
_cell_length_c 11.381072
_cell_angle_alpha 90.000000
_cell_angle_beta 113.775101
_cell_angle_gamma 90.000000
_cell_volume 2374.300023
_symmetry_space_group_name_H-M "C 2/M"
_symmetry_group_IT_number 12
_symmetry_cell_setting 'monoclinic'
loop_
_space_group_symop_operation_xyz
x,y,z
-x,y,-z
-x,-y,-z
x,-y,z
1/2+x,1/2+y,z
1/2-x,1/2+y,-z
1/2-x,1/2-y,-z
1/2+x,1/2-y,z
loop_
_atom_site_type_symbol
_atom_site_label
_atom_site_fract_x
_atom_site_fract_y
_atom_site_fract_z
Si Si1 0.032791 0.801372 0.641630
Si Si2 0.821248 0.390839 0.028586
Si Si3 0.926349 0.390440 0.685019
Si Si4 0.957588 0.887853 0.241535
Si Si5 0.272455 0.703341 0.948239
Si Si6 0.690184 0.549700 0.462270
Si Si7 0.949801 0.293826 0.679327
O O1 0.969478 0.838027 0.717711
O O2 0.265235 0.794146 0.719102
O O3 0.000000 0.818853 0.500000
O O4 0.935453 0.753578 0.616233
O O5 0.619081 0.401601 0.907503
O O6 0.820668 0.338342 0.014127
O O7 0.000000 0.410467 0.000000
O O8 0.883794 0.397708 0.180833
O O9 0.738876 0.388974 0.726348
O O10 0.868340 0.427701 0.578929
O O11 0.937217 0.342868 0.624565
O O12 0.117563 0.920274 0.336528
O O13 0.156595 0.706787 0.797240
O O14 0.500000 0.693725 0.000000
O O15 0.250000 0.750000 0.000000
O O16 0.500000 0.549339 0.500000
O O17 0.731919 0.500000 0.440377
#
# Coordination Sequence:
#
# PCOD9190640 Si02
#       7
#     8   8   8   8   8   8   8
#     4  11  20  31  47  68  98 133 168 202 243 290
#     4   9  17  30  48  67  95 130 162 200 249 294
#     4   8  16  30  45  65  94 130 161 195 241 291
#     4   9  16  28  45  67  95 128 161 197 243 289
#     4  11  20  31  46  67  97 132 172 209 244 287
#     4   9  16  28  47  70  97 128 160 195 245 308
#     4  10  20  32  46  67  98 131 167 203 239 287
#
# _framework density 23.585899000000001
#
# number of rings (size 3 to 8) (size 9 to 14) (size 15 to 20)
#    0.000    2.429    0.000    5.571    0.000    0.000 
#    0.000    0.714    0.000    4.286    0.000    0.000 
#    0.000   37.714    0.000    0.000    0.000    0.000 
#
# Total GULP energy -156248.088064 kJ/mol
# GULP energy per Si atom -5580.288859 kJ/mol
# Density = 2.353222 g / cm^3
# Si number density = 23.585899 Si / 1000 Ang^3
#
#
#
# Elastic Constant Matrix: (Units=GPa)
#
#
# Indices 1 2 3 4 5 6 
#
# 1 61.1634 26.1656 33.1020 0.0000 8.3842 0.0000
# 2 26.1656 139.4232 83.7266 0.0000 8.9607 0.0000
# 3 33.1020 83.7266 189.8329 0.0000 29.2964 0.0000
# 4 0.0000 0.0000 0.0000 9.7224 0.0000 4.7960
# 5 8.3842 8.9607 29.2964 0.0000 28.4069 0.0000
# 6 0.0000 0.0000 0.0000 4.7960 0.0000 17.3346
#
#
#
# Elastic Compliance Matrix: (Units=1/GPa)
#
#
# Indices 1 2 3 4 5 6 
#
# 1 0.018691 -0.002222 -0.001827 0.000000 -0.002932 0.000000
# 2 -0.002222 0.010084 -0.004365 0.000000 0.001977 0.000000
# 3 -0.001827 -0.004365 0.008582 0.000000 -0.006934 0.000000
# 4 0.000000 0.000000 0.000000 0.119112 0.000000 -0.032955
# 5 -0.002932 0.001977 -0.006934 0.000000 0.042596 0.000000
# 6 0.000000 0.000000 0.000000 -0.032955 0.000000 0.066806
#
#
# Mechanical properties :
#
#
# Convention : Reuss Voigt Hill
#
# Bulk Modulus (GPa) = 48.71332 75.15642 61.93487
# Shear Modulus (GPa) = 17.26875 27.58779 22.42827
#
# Velocity S-wave (km/s) = 2.70879 3.42376 3.08704
# Velocity P-wave (km/s) = 5.52103 6.89664 6.24682
#
# Compressibility (1/GPa) = 0.02052827
#
# Stress axis : x y z
#
# Youngs Moduli (GPa) = 53.50222 99.16981 116.52759
#
# Poissons Ratio (x) = 0.22039 0.21284
# Poissons Ratio (y) = 0.11890 0.50864
# Poissons Ratio (z) = 0.09773 0.43288
#
# Static dielectric constant tensor:
#      x y z
#    x 1.972680 0.000000 -0.033520 
#    y 0.000000 1.842260 0.000000 
#    z -0.033520 0.000000 1.835980 
# 
# From -- ./inp_files/200973.got.cif
#   From: 2010.05.17/outbox.cif.g08.bks.cpg/sg12_101_cif.got.tgz:200973.got - 2010.06.03 13:09:07.
