data_PCOD9190783
_publ_section_title
;
Structure prediction by ZEFSAII (Michael W. Deem and Ramdas Pophale) SiO2 
 PCOD9190783
Probable space group: C 2/M
;
_chemical_formula_sum "Si O2"
_cell_formula_units_Z 48
_cell_length_a 20.180384
_cell_length_b 8.586640
_cell_length_c 16.542031
_cell_angle_alpha 90.000000
_cell_angle_beta 107.509005
_cell_angle_gamma 90.000000
_cell_volume 2733.628451
_symmetry_space_group_name_H-M "C 2/M"
_symmetry_group_IT_number 12
_symmetry_cell_setting 'monoclinic'
loop_
_space_group_symop_operation_xyz
x,y,z
-x,y,-z
-x,-y,-z
x,-y,z
1/2+x,1/2+y,z
1/2-x,1/2+y,-z
1/2-x,1/2-y,-z
1/2+x,1/2-y,z
loop_
_atom_site_type_symbol
_atom_site_label
_atom_site_fract_x
_atom_site_fract_y
_atom_site_fract_z
Si Si1 0.886883 0.313867 0.741102
Si Si2 0.099444 0.810426 0.595337
Si Si3 0.947150 0.811841 0.596883
Si Si4 0.220154 0.186502 0.072512
Si Si5 0.265730 0.311615 0.257437
Si Si6 0.567422 0.688067 0.074298
O O1 0.889122 0.500000 0.743251
O O2 0.915642 0.253713 0.667052
O O3 0.806746 0.264654 0.726802
O O4 0.929668 0.249820 0.833316
O O5 0.093794 0.762511 0.499452
O O6 0.167585 0.757144 0.667617
O O7 0.027476 0.764731 0.612281
O O8 0.100476 0.000000 0.595495
O O9 0.945455 0.000000 0.599672
O O10 0.262751 0.248008 0.165397
O O11 0.139904 0.235848 0.058423
O O12 0.222049 0.000000 0.072327
O O13 0.250000 0.250000 0.000000
O O14 0.267273 0.500000 0.254497
O O15 0.566411 0.500000 0.076741
O O16 0.500000 0.740860 0.000000
#
# Coordination Sequence:
#
# PCOD9190783 Si02
#       6
#     8   8   8   8   8   8
#     4  10  20  32  48  73 103 130 155 193 247 294
#     4   8  16  32  53  73  93 126 169 204 234 275
#     4   9  17  32  53  73  95 126 166 205 236 276
#     4  10  20  34  52  74  99 126 159 199 242 287
#     4   9  18  34  52  70  97 130 163 198 237 285
#     4   9  19  36  55  72  92 125 168 204 233 277
#
# _framework density 17.559080000000002
#
# number of rings (size 3 to 8) (size 9 to 14) (size 15 to 20)
#    0.000    2.833    0.000    2.000    0.000    3.667 
#    0.000   10.000    0.000    0.000    0.000    0.000 
#    0.000    0.000    0.000    0.000    0.000    0.000 
#
# Total GULP energy -133825.825171 kJ/mol
# GULP energy per Si atom -5576.076049 kJ/mol
# Density = 1.751912 g / cm^3
# Si number density = 17.559080 Si / 1000 Ang^3
#
#
#
# Elastic Constant Matrix: (Units=GPa)
#
#
# Indices 1 2 3 4 5 6 
#
# 1 102.8261 22.6399 129.8261 0.0000 1.4271 0.0000
# 2 22.6399 10.2831 30.5479 0.0000 0.2517 0.0000
# 3 129.8261 30.5479 203.9114 0.0000 1.2982 0.0000
# 4 0.0000 0.0000 0.0000 28.3325 0.0000 -5.5820
# 5 1.4271 0.2517 1.2982 0.0000 44.2018 0.0000
# 6 0.0000 0.0000 0.0000 -5.5820 0.0000 21.8636
#
#
#
# Elastic Compliance Matrix: (Units=1/GPa)
#
#
# Indices 1 2 3 4 5 6 
#
# 1 0.054415 -0.030417 -0.030084 0.000000 -0.000700 0.000000
# 2 -0.030417 0.192238 -0.009434 0.000000 0.000165 0.000000
# 3 -0.030084 -0.009434 0.025469 0.000000 0.000277 0.000000
# 4 0.000000 0.000000 0.000000 0.037165 0.000000 0.009489
# 5 -0.000700 0.000165 0.000277 0.000000 0.022637 0.000000
# 6 0.000000 0.000000 0.000000 0.009489 0.000000 0.048161
#
#
# Mechanical properties :
#
#
# Convention : Reuss Voigt Hill
#
# Bulk Modulus (GPa) = 7.56132 75.89427 41.72780
# Shear Modulus (GPa) = 8.86465 27.81336 18.33901
#
# Velocity S-wave (km/s) = 2.24932 3.98425 3.23525
# Velocity P-wave (km/s) = 3.32588 8.03005 6.14586
#
# Compressibility (1/GPa) = 0.13225207
#
# Stress axis : x y z
#
# Youngs Moduli (GPa) = 18.37732 5.20189 39.26310
#
# Poissons Ratio (x) = 0.15823 1.18117
# Poissons Ratio (y) = 0.55899 0.37042
# Poissons Ratio (z) = 0.55285 0.04908
#
# Static dielectric constant tensor:
#      x y z
#    x 1.594020 0.000000 0.016800 
#    y 0.000000 1.597970 0.000000 
#    z 0.016800 0.000000 1.569840 
# 
# From -- ./inp_files/229883.got.cif
#   From: 2010.05.17/outbox.cif.g08.bks.cpg/sg12_115_cif.got.tgz:229883.got - 2010.06.03 13:09:07.
