data_PCOD9190908
_publ_section_title
;
Structure prediction by ZEFSAII (Michael W. Deem and Ramdas Pophale) SiO2 
 PCOD9190908
Probable space group: C 2/M
;
_chemical_formula_sum "Si O2"
_cell_formula_units_Z 56
_cell_length_a 25.693650
_cell_length_b 10.139764
_cell_length_c 11.259762
_cell_angle_alpha 90.000000
_cell_angle_beta 119.080040
_cell_angle_gamma 90.000000
_cell_volume 2563.688593
_symmetry_space_group_name_H-M "C 2/M"
_symmetry_group_IT_number 12
_symmetry_cell_setting 'monoclinic'
loop_
_space_group_symop_operation_xyz
x,y,z
-x,y,-z
-x,-y,-z
x,-y,z
1/2+x,1/2+y,z
1/2-x,1/2+y,-z
1/2-x,1/2-y,-z
1/2+x,1/2-y,z
loop_
_atom_site_type_symbol
_atom_site_label
_atom_site_fract_x
_atom_site_fract_y
_atom_site_fract_z
Si Si1 0.304966 0.846866 0.591101
Si Si2 0.018903 0.150626 0.268517
Si Si3 0.608354 0.344387 0.168825
Si Si4 0.050518 0.354575 0.658901
Si Si5 0.822363 0.850357 0.972943
Si Si6 0.219904 0.144042 0.815463
Si Si7 0.871048 0.243891 0.452081
O O1 0.250000 0.750000 0.500000
O O2 0.345396 0.761928 0.726868
O O3 0.344530 0.846615 0.515400
O O4 0.291928 0.000000 0.609157
O O5 0.046213 0.178771 0.168330
O O6 0.075948 0.167936 0.421212
O O7 0.970970 0.250975 0.267519
O O8 0.997725 0.000000 0.249744
O O9 0.622507 0.500000 0.213901
O O10 0.617686 0.331519 0.037590
O O11 0.057162 0.500000 0.718304
O O12 0.106176 0.314052 0.641308
O O13 0.000000 0.358361 0.500000
O O14 0.770755 0.752793 0.873412
O O15 0.803121 0.000000 0.925251
O O16 0.822045 0.838780 0.114665
O O17 0.181298 0.151906 0.654068
O O18 0.247998 0.000000 0.858445
#
# Coordination Sequence:
#
# PCOD9190908 Si02
#       7
#     8   8   8   8   8   8   8
#     4  11  22  33  47  70 100 131 163 200 243 292
#     4   9  18  31  49  74 100 125 156 198 246 292
#     4   9  18  33  51  70  96 130 164 198 242 295
#     4   9  18  32  49  70  97 127 159 195 240 295
#     4   9  19  35  52  71  99 134 168 204 246 290
#     4  10  20  33  51  75 100 129 169 210 244 285
#     4  10  20  32  50  73 100 131 163 199 243 294
#
# _framework density 21.843526000000001
#
# number of rings (size 3 to 8) (size 9 to 14) (size 15 to 20)
#    0.000    2.429    0.000    2.143    0.000   12.286 
#    0.000    0.000    0.000    0.857    0.000    5.000 
#    0.000    0.000    0.000    0.000    0.000    0.000 
#
# Total GULP energy -156147.477869 kJ/mol
# GULP energy per Si atom -5576.695638 kJ/mol
# Density = 2.179381 g / cm^3
# Si number density = 21.843526 Si / 1000 Ang^3
#
#
#
# Elastic Constant Matrix: (Units=GPa)
#
#
# Indices 1 2 3 4 5 6 
#
# 1 96.4709 58.1388 29.7045 0.0000 -51.2709 0.0000
# 2 58.1388 130.1061 37.8115 0.0000 -19.3161 0.0000
# 3 29.7045 37.8115 65.7377 0.0000 -18.9550 0.0000
# 4 0.0000 0.0000 0.0000 11.4843 0.0000 -8.9501
# 5 -51.2709 -19.3161 -18.9550 0.0000 39.7777 0.0000
# 6 0.0000 0.0000 0.0000 -8.9501 0.0000 22.9011
#
#
#
# Elastic Compliance Matrix: (Units=1/GPa)
#
#
# Indices 1 2 3 4 5 6 
#
# 1 0.047399 -0.013637 0.002472 0.000000 0.055651 0.000000
# 2 -0.013637 0.013331 -0.005457 0.000000 -0.013704 0.000000
# 3 0.002472 -0.005457 0.020158 0.000000 0.010142 0.000000
# 4 0.000000 0.000000 0.000000 0.125213 0.000000 0.048935
# 5 0.055651 -0.013704 0.010142 0.000000 0.095048 0.000000
# 6 0.000000 0.000000 0.000000 0.048935 0.000000 0.062791
#
#
# Mechanical properties :
#
#
# Convention : Reuss Voigt Hill
#
# Bulk Modulus (GPa) = 20.98873 60.40270 40.69571
# Shear Modulus (GPa) = 12.10458 25.94327 19.02392
#
# Velocity S-wave (km/s) = 2.35659 3.45002 2.95433
# Velocity P-wave (km/s) = 4.12725 6.60172 5.50531
#
# Compressibility (1/GPa) = 0.04764462
#
# Stress axis : x y z
#
# Youngs Moduli (GPa) = 21.09728 75.01131 49.60719
#
# Poissons Ratio (x) = 1.02294 -0.12264
# Poissons Ratio (y) = 0.28771 0.27073
# Poissons Ratio (z) = -0.05216 0.40937
#
# Static dielectric constant tensor:
#      x y z
#    x 1.848840 0.000000 -0.010890 
#    y 0.000000 1.768840 0.000000 
#    z -0.010890 0.000000 1.799200 
# 
# From -- ./inp_files/181146.got.cif
#   From: 2010.05.17/outbox.cif.g08.bks.cpg/sg12_91_cif.got.tgz:181146.got - 2010.06.03 13:09:07.
