data_PCOD9190921
_publ_section_title
;
Structure prediction by ZEFSAII (Michael W. Deem and Ramdas Pophale) SiO2 
 PCOD9190921
Probable space group: C 2/M
;
_chemical_formula_sum "Si O2"
_cell_formula_units_Z 64
_cell_length_a 32.330773
_cell_length_b 8.554748
_cell_length_c 15.080411
_cell_angle_alpha 90.000000
_cell_angle_beta 62.171379
_cell_angle_gamma 90.000000
_cell_volume 3688.583603
_symmetry_space_group_name_H-M "C 2/M"
_symmetry_group_IT_number 12
_symmetry_cell_setting 'monoclinic'
loop_
_space_group_symop_operation_xyz
x,y,z
-x,y,-z
-x,-y,-z
x,-y,z
1/2+x,1/2+y,z
1/2-x,1/2+y,-z
1/2-x,1/2-y,-z
1/2+x,1/2-y,z
loop_
_atom_site_type_symbol
_atom_site_label
_atom_site_fract_x
_atom_site_fract_y
_atom_site_fract_z
Si Si1 0.553601 0.311697 0.047126
Si Si2 0.326658 0.686994 0.573203
Si Si3 0.635215 0.188575 0.086704
Si Si4 0.721523 0.188856 0.877884
Si Si5 0.174899 0.687014 0.230118
Si Si6 0.635116 0.812931 0.639716
Si Si7 0.054424 0.188817 0.844883
Si Si8 0.720261 0.189420 0.675624
O O1 0.555000 0.500000 0.046743
O O2 0.589370 0.248109 0.083221
O O3 0.499625 0.265430 0.116823
O O4 0.566708 0.261569 0.933533
O O5 0.326616 0.500000 0.570957
O O6 0.337116 0.741112 0.662548
O O7 0.360701 0.751780 0.464246
O O8 0.273374 0.743122 0.605269
O O9 0.642211 0.238417 0.181392
O O10 0.634793 0.000000 0.085427
O O11 0.680895 0.239307 0.984979
O O12 0.771981 0.262546 0.845837
O O13 0.708658 0.230148 0.789127
O O14 0.726214 0.000000 0.877513
O O15 0.173267 0.500000 0.238614
O O16 0.589901 0.757166 0.738387
O O17 0.680971 0.753281 0.647623
O O18 0.636198 0.000000 0.638050
O O19 0.056682 0.000000 0.839770
O O20 0.720675 0.000000 0.670324
#
# Coordination Sequence:
#
# PCOD9190921 Si02
#       8
#     8   8   8   8   8   8   8   8
#     4   9  19  35  55  76 102 133 165 199 240 294
#     4  10  20  35  51  68  97 137 172 208 248 289
#     4  10  20  32  50  75 103 131 165 209 253 293
#     4   9  17  31  48  70 102 137 167 199 241 294
#     4  10  20  33  48  71 101 133 169 211 250 289
#     4  11  20  31  51  77 101 130 167 206 247 297
#     4   9  19  36  53  75 105 133 161 199 244 293
#     4   8  16  29  46  70 100 130 163 199 238 285
#
# _framework density 17.350833999999999
#
# number of rings (size 3 to 8) (size 9 to 14) (size 15 to 20)
#    0.000    2.500    0.000    4.125    0.000    3.500 
#    0.000    8.125    0.000    0.750    0.000    5.250 
#    0.000    0.000    0.000    0.000    0.000    0.000 
#
# Total GULP energy -178544.737464 kJ/mol
# GULP energy per Si atom -5579.523046 kJ/mol
# Density = 1.731134 g / cm^3
# Si number density = 17.350834 Si / 1000 Ang^3
#
#
#
# Elastic Constant Matrix: (Units=GPa)
#
#
# Indices 1 2 3 4 5 6 
#
# 1 118.5828 25.3127 80.1311 0.0000 18.7776 0.0000
# 2 25.3127 27.9805 34.5638 0.0000 1.3497 0.0000
# 3 80.1311 34.5638 150.2230 0.0000 1.9497 0.0000
# 4 0.0000 0.0000 0.0000 24.7477 0.0000 -1.1488
# 5 18.7776 1.3497 1.9497 0.0000 13.4877 0.0000
# 6 0.0000 0.0000 0.0000 -1.1488 0.0000 25.5341
#
#
#
# Elastic Compliance Matrix: (Units=1/GPa)
#
#
# Indices 1 2 3 4 5 6 
#
# 1 0.019666 -0.005603 -0.008870 0.000000 -0.025536 0.000000
# 2 -0.005603 0.051677 -0.008952 0.000000 0.003923 0.000000
# 3 -0.008870 -0.008952 0.013301 0.000000 0.011322 0.000000
# 4 0.000000 0.000000 0.000000 0.040492 0.000000 0.001822
# 5 -0.025536 0.003923 0.011322 0.000000 0.107664 0.000000
# 6 0.000000 0.000000 0.000000 0.001822 0.000000 0.039245
#
#
# Mechanical properties :
#
#
# Convention : Reuss Voigt Hill
#
# Bulk Modulus (GPa) = 26.45886 64.08906 45.27396
# Shear Modulus (GPa) = 15.08323 23.20582 19.14453
#
# Velocity S-wave (km/s) = 2.95160 3.66108 3.32532
# Velocity P-wave (km/s) = 5.18637 7.40869 6.39481
#
# Compressibility (1/GPa) = 0.03779452
#
# Stress axis : x y z
#
# Youngs Moduli (GPa) = 50.84862 19.35092 75.18323
#
# Poissons Ratio (x) = 0.10842 0.66685
# Poissons Ratio (y) = 0.28489 0.67307
# Poissons Ratio (z) = 0.45101 0.17324
#
# Static dielectric constant tensor:
#      x y z
#    x 1.581850 0.000000 0.011200 
#    y 0.000000 1.587340 0.000000 
#    z 0.011200 0.000000 1.581770 
# 
# From -- ./inp_files/248994.got.cif
#   From: 2010.05.17/outbox.cif.g08.bks.cpg/sg12_125_cif.got.tgz:248994.got - 2010.06.03 13:09:07.
