data_PCOD9190911
_publ_section_title
;
Structure prediction by ZEFSAII (Michael W. Deem and Ramdas Pophale) SiO2 
 PCOD9190911
Probable space group: C 2/M
;
_chemical_formula_sum "Si O2"
_cell_formula_units_Z 64
_cell_length_a 19.159422
_cell_length_b 9.453152
_cell_length_c 22.178698
_cell_angle_alpha 90.000000
_cell_angle_beta 123.738628
_cell_angle_gamma 90.000000
_cell_volume 3340.404474
_symmetry_space_group_name_H-M "C 2/M"
_symmetry_group_IT_number 12
_symmetry_cell_setting 'monoclinic'
loop_
_space_group_symop_operation_xyz
x,y,z
-x,y,-z
-x,-y,-z
x,-y,z
1/2+x,1/2+y,z
1/2-x,1/2+y,-z
1/2-x,1/2-y,-z
1/2+x,1/2-y,z
loop_
_atom_site_type_symbol
_atom_site_label
_atom_site_fract_x
_atom_site_fract_y
_atom_site_fract_z
Si Si1 0.382829 0.340674 0.290459
Si Si2 0.736093 0.833632 0.931717
Si Si3 0.138920 0.659552 0.453459
Si Si4 0.459533 0.161121 0.420907
Si Si5 0.051696 0.335833 0.786401
Si Si6 0.196443 0.337970 0.146039
Si Si7 0.279726 0.332612 0.613101
Si Si8 0.372560 0.169088 0.761383
O O1 0.411064 0.500000 0.315289
O O2 0.389892 0.249546 0.354058
O O3 0.437407 0.267914 0.264464
O O4 0.288405 0.341822 0.220787
O O5 0.637846 0.821165 0.865627
O O6 0.792269 0.763029 0.905854
O O7 0.754904 0.000000 0.946906
O O8 0.750000 0.750000 0.000000
O O9 0.166403 0.500000 0.448164
O O10 0.186821 0.689637 0.539753
O O11 0.164118 0.770214 0.414673
O O12 0.040313 0.655789 0.416198
O O13 0.500000 0.225272 0.500000
O O14 0.431847 0.000000 0.420563
O O15 0.047985 0.500000 0.763765
O O16 0.966943 0.306777 0.782541
O O17 0.175243 0.500000 0.117674
O O18 0.137295 0.291248 0.172956
O O19 0.291410 0.500000 0.627167
O O20 0.308457 0.250747 0.686691
O O21 0.355653 0.000000 0.749643
#
# Coordination Sequence:
#
# PCOD9190911 Si02
#       8
#     8   8   8   8   8   8   8   8
#     4  10  20  34  52  76 105 136 174 223 274 319
#     4  10  20  37  62  88 113 144 178 212 252 304
#     4   9  19  35  48  65  94 131 176 219 267 324
#     4  10  21  34  49  67  93 133 178 222 267 317
#     4   9  19  36  58  82 106 140 181 213 250 309
#     4   9  20  37  56  81 112 144 177 215 264 318
#     4  10  20  32  50  73  97 130 171 220 271 319
#     4  10  20  35  55  78 107 140 176 218 263 311
#
# _framework density 19.159355999999999
#
# number of rings (size 3 to 8) (size 9 to 14) (size 15 to 20)
#    0.000    2.375    0.000    1.875    1.750    6.250 
#    0.000    0.625    0.000    3.750    0.000    0.000 
#    0.000    0.000    0.000    0.000    0.000    0.000 
#
# Total GULP energy -178556.540282 kJ/mol
# GULP energy per Si atom -5579.891884 kJ/mol
# Density = 1.911575 g / cm^3
# Si number density = 19.159356 Si / 1000 Ang^3
#
#
#
# Elastic Constant Matrix: (Units=GPa)
#
#
# Indices 1 2 3 4 5 6 
#
# 1 66.0557 16.8842 3.0691 0.0000 -11.3058 0.0000
# 2 16.8842 73.1602 45.4447 0.0000 -12.8298 0.0000
# 3 3.0691 45.4447 72.7981 0.0000 -21.5782 0.0000
# 4 0.0000 0.0000 0.0000 31.8511 0.0000 -6.1128
# 5 -11.3058 -12.8298 -21.5782 0.0000 21.6647 0.0000
# 6 0.0000 0.0000 0.0000 -6.1128 0.0000 14.6296
#
#
#
# Elastic Compliance Matrix: (Units=1/GPa)
#
#
# Indices 1 2 3 4 5 6 
#
# 1 0.018675 -0.006427 0.007073 0.000000 0.012985 0.000000
# 2 -0.006427 0.024551 -0.016657 0.000000 -0.005406 0.000000
# 3 0.007073 -0.016657 0.031226 0.000000 0.024928 0.000000
# 4 0.000000 0.000000 0.000000 0.034133 0.000000 0.014262
# 5 0.012985 -0.005406 0.024928 0.000000 0.074562 0.000000
# 6 0.000000 0.000000 0.000000 0.014262 0.000000 0.074314
#
#
# Mechanical properties :
#
#
# Convention : Reuss Voigt Hill
#
# Bulk Modulus (GPa) = 23.56776 38.09000 30.82888
# Shear Modulus (GPa) = 16.46765 23.40347 19.93556
#
# Velocity S-wave (km/s) = 2.93492 3.49881 3.22920
# Velocity P-wave (km/s) = 4.87982 6.02047 5.47990
#
# Compressibility (1/GPa) = 0.04243085
#
# Stress axis : x y z
#
# Youngs Moduli (GPa) = 53.54690 40.73184 32.02476
#
# Poissons Ratio (x) = 0.26177 -0.22653
# Poissons Ratio (y) = 0.34412 0.53345
# Poissons Ratio (z) = -0.37876 0.67848
#
# Static dielectric constant tensor:
#      x y z
#    x 1.695960 0.000000 -0.004570 
#    y 0.000000 1.660600 0.000000 
#    z -0.004570 0.000000 1.663580 
# 
# From -- ./inp_files/320065.got.cif
#   From: 2010.05.17/outbox.cif.g08.bks.cpg/sg12_161_cif.got.tgz:320065.got - 2010.06.03 13:09:07.
