data_PCOD9190220
_publ_section_title
;
Structure prediction by ZEFSAII (Michael W. Deem and Ramdas Pophale) SiO2 
 PCOD9190220
Probable space group: C 2/M
;
_chemical_formula_sum "Si O2"
_cell_formula_units_Z 50
_cell_length_a 19.569106
_cell_length_b 24.087617
_cell_length_c 5.344487
_cell_angle_alpha 90.000000
_cell_angle_beta 61.426380
_cell_angle_gamma 90.000000
_cell_volume 2212.411478
_symmetry_space_group_name_H-M "C 2/M"
_symmetry_group_IT_number 12
_symmetry_cell_setting 'monoclinic'
loop_
_space_group_symop_operation_xyz
x,y,z
-x,y,-z
-x,-y,-z
x,-y,z
1/2+x,1/2+y,z
1/2-x,1/2+y,-z
1/2-x,1/2-y,-z
1/2+x,1/2-y,z
loop_
_atom_site_type_symbol
_atom_site_label
_atom_site_fract_x
_atom_site_fract_y
_atom_site_fract_z
Si Si1 0.772186 0.614367 0.513304
Si Si2 0.083271 0.128214 0.295542
Si Si3 0.201735 0.792031 0.320355
Si Si4 0.116677 0.937527 0.740997
Si Si5 0.651607 0.186383 0.237559
Si Si6 0.500000 0.000000 0.500000
Si Si7 0.930929 0.394570 0.920716
O O1 0.718333 0.666563 0.519646
O O2 0.710185 0.565588 0.615769
O O3 0.807398 0.632303 0.715489
O O4 0.847087 0.602992 0.208270
O O5 0.150873 0.172805 0.213535
O O6 0.097308 0.084350 0.496934
O O7 0.000000 0.154766 0.500000
O O8 0.083544 0.099930 0.024479
O O9 0.154360 0.734957 0.440754
O O10 0.289717 0.786130 0.064658
O O11 0.089623 0.000000 0.817102
O O12 0.577480 0.160639 0.234756
O O13 0.450273 0.950268 0.733566
O O14 0.000000 0.388387 0.000000
#
# Coordination Sequence:
#
# PCOD9190220 Si02
#       7
#     8   8   8   8   8   2   8
#     4  10  21  40  67  97 130 170 227 277 340 410
#     4  11  23  43  63  97 139 176 222 274 347 409
#     4   9  20  38  65  98 130 174 222 275 337 403
#     4  11  24  42  67  98 131 173 232 279 333 408
#     4  10  19  41  69  91 132 173 220 278 336 408
#     4  12  26  48  68  82 148 176 224 294 346 416
#     4  11  25  44  63  98 128 177 223 279 350 415
#
# _framework density 22.599775000000001
#
# number of rings (size 3 to 8) (size 9 to 14) (size 15 to 20)
#    0.000    1.600    1.600    2.640    1.120    1.920 
#    5.760    0.000    0.000    0.000    0.000    0.000 
#    0.000    0.000    0.000    0.000    0.000    0.000 
#
# Total GULP energy -139172.081067 kJ/mol
# GULP energy per Si atom -5566.883243 kJ/mol
# Density = 2.254834 g / cm^3
# Si number density = 22.599775 Si / 1000 Ang^3
#
#
#
# Elastic Constant Matrix: (Units=GPa)
#
#
# Indices 1 2 3 4 5 6 
#
# 1 75.0987 52.8162 40.5166 0.0000 -9.9035 0.0000
# 2 52.8162 124.5241 22.5578 0.0000 -1.3304 0.0000
# 3 40.5166 22.5578 99.1112 0.0000 -16.4903 0.0000
# 4 0.0000 0.0000 0.0000 17.6648 0.0000 0.5502
# 5 -9.9035 -1.3304 -16.4903 0.0000 40.0926 0.0000
# 6 0.0000 0.0000 0.0000 0.5502 0.0000 1.5783
#
#
#
# Elastic Compliance Matrix: (Units=1/GPa)
#
#
# Indices 1 2 3 4 5 6 
#
# 1 0.023709 -0.008709 -0.007282 0.000000 0.002572 0.000000
# 2 -0.008709 0.011586 0.000676 0.000000 -0.001489 0.000000
# 3 -0.007282 0.000676 0.013544 0.000000 0.003794 0.000000
# 4 0.000000 0.000000 0.000000 0.057231 0.000000 -0.019951
# 5 0.002572 -0.001489 0.003794 0.000000 0.027089 0.000000
# 6 0.000000 0.000000 0.000000 -0.019951 0.000000 0.640537
#
#
# Mechanical properties :
#
#
# Convention : Reuss Voigt Hill
#
# Bulk Modulus (GPa) = 54.92129 58.94613 56.93371
# Shear Modulus (GPa) = 6.16981 24.05671 15.11326
#
# Velocity S-wave (km/s) = 1.65407 3.26616 2.58880
# Velocity P-wave (km/s) = 5.29173 6.35318 5.84659
#
# Compressibility (1/GPa) = 0.01820788
#
# Stress axis : x y z
#
# Youngs Moduli (GPa) = 42.17818 86.30874 73.83287
#
# Poissons Ratio (x) = 0.75170 0.53765
# Poissons Ratio (y) = 0.36735 -0.04988
# Poissons Ratio (z) = 0.30714 -0.05831
#
# Static dielectric constant tensor:
#      x y z
#    x 1.857750 0.000000 0.012390 
#    y 0.000000 1.882210 0.000000 
#    z 0.012390 0.000000 1.889020 
# 
# From -- ./inp_files/17586.got.cif
#   From: 2010.05.17/outbox.cif.g08.bks.cpg/sg12_9_cif.got.tgz:17586.got - 2010.06.03 13:09:07.
