data_PCOD9190423
_publ_section_title
;
Structure prediction by ZEFSAII (Michael W. Deem and Ramdas Pophale) SiO2 
 PCOD9190423
Probable space group: C 2/M
;
_chemical_formula_sum "Si O2"
_cell_formula_units_Z 48
_cell_length_a 20.931476
_cell_length_b 14.853625
_cell_length_c 7.413135
_cell_angle_alpha 90.000000
_cell_angle_beta 110.742668
_cell_angle_gamma 90.000000
_cell_volume 2155.408938
_symmetry_space_group_name_H-M "C 2/M"
_symmetry_group_IT_number 12
_symmetry_cell_setting 'monoclinic'
loop_
_space_group_symop_operation_xyz
x,y,z
-x,y,-z
-x,-y,-z
x,-y,z
1/2+x,1/2+y,z
1/2-x,1/2+y,-z
1/2-x,1/2-y,-z
1/2+x,1/2-y,z
loop_
_atom_site_type_symbol
_atom_site_label
_atom_site_fract_x
_atom_site_fract_y
_atom_site_fract_z
Si Si1 0.855982 0.602696 0.573856
Si Si2 0.074712 0.216871 0.863728
Si Si3 0.797276 0.104771 0.016454
Si Si4 0.925287 0.216871 0.714305
Si Si5 0.855981 0.602696 0.138109
Si Si6 0.297275 0.395229 0.578098
O O1 0.869047 0.500000 0.645601
O O2 0.909247 0.677343 0.686354
O O3 0.855828 0.602039 0.355829
O O4 0.779303 0.629870 0.558647
O O5 0.090754 0.322656 0.867858
O O6 0.999999 0.196539 0.711336
O O7 0.140424 0.164915 0.852855
O O8 0.072112 0.192156 0.072111
O O9 0.720698 0.129871 0.000042
O O10 0.795944 0.110508 0.795944
O O11 0.807956 0.000000 0.072900
O O12 0.859574 0.164916 0.572007
O O13 0.869045 0.500000 0.092493
O O14 0.307956 0.500000 0.543014
#
# Coordination Sequence:
#
# PCOD9190423 Si02
#       6
#     8   8   8   8   8   8
#     4   9  18  33  52  70  89 121 163 198 228 268
#     4  10  20  31  46  72 101 125 150 186 235 283
#     4   8  15  30  51  72  93 119 155 196 232 271
#     4  10  20  31  46  72 101 125 150 186 235 283
#     4   9  18  33  52  70  89 121 163 198 228 268
#     4   8  15  30  51  72  93 119 155 196 232 271
#
# _framework density 22.269555
#
# number of rings (size 3 to 8) (size 9 to 14) (size 15 to 20)
#    0.000    3.000    0.000    3.000    0.000    2.667 
#    0.000    6.667    0.000    3.000    0.000    2.333 
#    0.000    0.000    0.000    0.000    0.000    0.000 
#
# Total GULP energy -133984.017184 kJ/mol
# GULP energy per Si atom -5582.667383 kJ/mol
# Density = 2.221887 g / cm^3
# Si number density = 22.269555 Si / 1000 Ang^3
#
#
#
# Elastic Constant Matrix: (Units=GPa)
#
#
# Indices 1 2 3 4 5 6 
#
# 1 49.2377 11.3876 11.9667 0.0000 12.6554 0.0000
# 2 11.3876 27.2790 -7.4478 0.0000 9.3461 0.0000
# 3 11.9667 -7.4478 56.7216 0.0000 -16.3764 0.0000
# 4 0.0000 0.0000 0.0000 12.1416 0.0000 -3.1682
# 5 12.6554 9.3461 -16.3764 0.0000 20.2887 0.0000
# 6 0.0000 0.0000 0.0000 -3.1682 0.0000 5.7578
#
#
#
# Elastic Compliance Matrix: (Units=1/GPa)
#
#
# Indices 1 2 3 4 5 6 
#
# 1 0.034828 -0.008351 -0.017740 0.000000 -0.032197 0.000000
# 2 -0.008351 0.045531 0.004158 0.000000 -0.012409 0.000000
# 3 -0.017740 0.004158 0.032023 0.000000 0.034998 0.000000
# 4 0.000000 0.000000 0.000000 0.096169 0.000000 0.052916
# 5 -0.032197 -0.012409 0.034998 0.000000 0.103337 0.000000
# 6 0.000000 0.000000 0.000000 0.052916 0.000000 0.202792
#
#
# Mechanical properties :
#
#
# Convention : Reuss Voigt Hill
#
# Bulk Modulus (GPa) = 14.59538 18.33904 16.46721
# Shear Modulus (GPa) = 8.60013 15.45975 12.02994
#
# Velocity S-wave (km/s) = 1.96729 2.63765 2.32673
# Velocity P-wave (km/s) = 3.42469 4.18678 3.82476
#
# Compressibility (1/GPa) = 0.06851483
#
# Stress axis : x y z
#
# Youngs Moduli (GPa) = 28.71244 21.96301 31.22749
#
# Poissons Ratio (x) = 0.18342 0.55398
# Poissons Ratio (y) = 0.23979 -0.12984
# Poissons Ratio (z) = 0.50936 -0.09132
#
# Static dielectric constant tensor:
#      x y z
#    x 1.833950 0.000000 -0.025330 
#    y 0.000000 1.785350 0.000000 
#    z -0.025330 0.000000 1.885000 
# 
# From -- ./inp_files/75439.got.cif
#   From: 2010.05.17/outbox.cif.g08.bks.cpg/sg12_38_cif.got.tgz:75439.got - 2010.06.03 13:09:07.
