data_PCOD9190044
_publ_section_title
;
Structure prediction by ZEFSAII (Michael W. Deem and Ramdas Pophale) SiO2 
 PCOD9190044
Probable space group: C 2/M
;
_chemical_formula_sum "Si O2"
_cell_formula_units_Z 52
_cell_length_a 8.804040
_cell_length_b 32.814756
_cell_length_c 15.674091
_cell_angle_alpha 90.000000
_cell_angle_beta 36.891520
_cell_angle_gamma 90.000000
_cell_volume 2718.336652
_symmetry_space_group_name_H-M "C 2/M"
_symmetry_group_IT_number 12
_symmetry_cell_setting 'monoclinic'
loop_
_space_group_symop_operation_xyz
x,y,z
-x,y,-z
-x,-y,-z
x,-y,z
1/2+x,1/2+y,z
1/2-x,1/2+y,-z
1/2-x,1/2-y,-z
1/2+x,1/2-y,z
loop_
_atom_site_type_symbol
_atom_site_label
_atom_site_fract_x
_atom_site_fract_y
_atom_site_fract_z
Si Si1 0.695421 0.911472 0.247164
Si Si2 0.259804 0.000000 0.047703
Si Si3 0.881932 0.338269 0.461575
Si Si4 0.686187 0.000000 0.334842
Si Si5 0.616679 0.694927 0.260925
Si Si6 0.000000 0.356074 0.000000
Si Si7 0.274174 0.088247 0.966922
Si Si8 0.803778 0.725484 0.348942
O O1 0.510460 0.880612 0.378305
O O2 0.671099 0.906397 0.156750
O O3 0.648989 0.957978 0.298553
O O4 0.991602 0.900024 0.126037
O O5 0.500000 0.000000 0.000000
O O6 0.278321 0.959700 0.983214
O O7 0.989277 0.000000 0.217896
O O8 0.580670 0.337459 0.610893
O O9 0.912688 0.306384 0.369745
O O10 0.000000 0.326012 0.500000
O O11 0.500000 0.000000 0.500000
O O12 0.807843 0.709528 0.249902
O O13 0.453215 0.733091 0.300874
O O14 0.763852 0.673242 0.119672
O O15 0.031869 0.385548 0.065885
O O16 0.500000 0.730449 0.500000
#
# Coordination Sequence:
#
# PCOD9190044 Si02
#       8
#     8   4   8   4   8   4   8   8
#     4  10  21  38  61  89 119 153 192 245 286 341
#     4  10  19  39  65  85 116 167 200 237 292 349
#     4  11  20  36  61  85 113 151 192 238 292 342
#     4  10  21  37  63  94 123 153 204 249 289 345
#     4  11  23  38  58  82 114 151 194 238 295 345
#     4  12  24  37  56  86 118 152 190 243 292 354
#     4  10  21  38  60  87 117 154 201 233 285 351
#     4  10  21  39  60  83 109 148 196 241 286 355
#
# _framework density 19.129345000000001
#
# number of rings (size 3 to 8) (size 9 to 14) (size 15 to 20)
#    0.000    1.538    0.769    6.000    0.000    3.692 
#    0.000    1.538    0.000    0.923    0.000    0.000 
#    0.000    0.000    0.000    0.000    0.000    0.000 
#
# Total GULP energy -145055.721414 kJ/mol
# GULP energy per Si atom -5579.066208 kJ/mol
# Density = 1.908581 g / cm^3
# Si number density = 19.129345 Si / 1000 Ang^3
#
#
#
# Elastic Constant Matrix: (Units=GPa)
#
#
# Indices 1 2 3 4 5 6 
#
# 1 94.4913 46.5767 9.8199 0.0000 4.1356 0.0000
# 2 46.5767 120.4043 40.8658 0.0000 -7.4956 0.0000
# 3 9.8199 40.8658 55.2619 0.0000 -1.3233 0.0000
# 4 0.0000 0.0000 0.0000 15.5480 0.0000 -1.4521
# 5 4.1356 -7.4956 -1.3233 0.0000 17.2378 0.0000
# 6 0.0000 0.0000 0.0000 -1.4521 0.0000 20.7332
#
#
#
# Elastic Compliance Matrix: (Units=1/GPa)
#
#
# Indices 1 2 3 4 5 6 
#
# 1 0.013793 -0.006443 0.002171 0.000000 -0.005944 0.000000
# 2 -0.006443 0.014410 -0.009341 0.000000 0.007094 0.000000
# 3 0.002171 -0.009341 0.024553 0.000000 -0.002698 0.000000
# 4 0.000000 0.000000 0.000000 0.064741 0.000000 0.004534
# 5 -0.005944 0.007094 -0.002698 0.000000 0.062316 0.000000
# 6 0.000000 0.000000 0.000000 0.004534 0.000000 0.048549
#
#
# Mechanical properties :
#
#
# Convention : Reuss Voigt Hill
#
# Bulk Modulus (GPa) = 39.16930 51.63138 45.40034
# Shear Modulus (GPa) = 18.93244 22.23014 20.58129
#
# Velocity S-wave (km/s) = 3.14937 3.41265 3.28365
# Velocity P-wave (km/s) = 5.80906 6.52515 6.17749
#
# Compressibility (1/GPa) = 0.02553020
#
# Stress axis : x y z
#
# Youngs Moduli (GPa) = 72.49957 69.39812 40.72830
#
# Poissons Ratio (x) = 0.44710 -0.08841
# Poissons Ratio (y) = 0.46708 0.38045
# Poissons Ratio (z) = -0.15739 0.64825
#
# Static dielectric constant tensor:
#      x y z
#    x 1.682010 0.000000 -0.007930 
#    y 0.000000 1.631240 0.000000 
#    z -0.007930 0.000000 1.661070 
# 
# From -- ./inp_files/201230.got.cif
#   From: 2010.05.17/outbox.cif.g08.bks.cpg/sg12_101_cif.got.tgz:201230.got - 2010.06.03 13:09:07.
