data_PCOD9190035
_publ_section_title
;
Structure prediction by ZEFSAII (Michael W. Deem and Ramdas Pophale) SiO2 
 PCOD9190035
Probable space group: C 2/M
;
_chemical_formula_sum "Si O2"
_cell_formula_units_Z 40
_cell_length_a 10.120470
_cell_length_b 24.001945
_cell_length_c 11.499387
_cell_angle_alpha 90.000000
_cell_angle_beta 40.430691
_cell_angle_gamma 90.000000
_cell_volume 1811.550147
_symmetry_space_group_name_H-M "C 2/M"
_symmetry_group_IT_number 12
_symmetry_cell_setting 'monoclinic'
loop_
_space_group_symop_operation_xyz
x,y,z
-x,y,-z
-x,-y,-z
x,-y,z
1/2+x,1/2+y,z
1/2-x,1/2+y,-z
1/2-x,1/2-y,-z
1/2+x,1/2-y,z
loop_
_atom_site_type_symbol
_atom_site_label
_atom_site_fract_x
_atom_site_fract_y
_atom_site_fract_z
Si Si1 0.559162 0.683224 0.236168
Si Si2 0.404550 0.193874 0.812652
Si Si3 0.775218 0.623617 0.695277
Si Si4 0.671395 0.118879 0.779941
Si Si5 0.741656 0.500000 0.820487
Si Si6 0.063459 0.500000 0.820444
O O1 0.505583 0.747829 0.293080
O O2 0.397147 0.645738 0.275999
O O3 0.635075 0.648233 0.294410
O O4 0.761768 0.694860 0.022364
O O5 0.261331 0.162272 0.817838
O O6 0.588583 0.155008 0.729257
O O7 0.776473 0.558202 0.728764
O O8 0.000000 0.636441 0.500000
O O9 0.690283 0.056272 0.722046
O O10 0.500000 0.117081 0.000000
O O11 0.877499 0.500000 0.849597
O O12 0.500000 0.500000 0.000000
O O13 0.000000 0.500000 0.000000
#
# Coordination Sequence:
#
# PCOD9190035 Si02
#       6
#     8   8   8   8   4   4
#     4  10  21  37  65  94 120 160 213 257 308 366
#     4  10  19  39  64  92 122 160 211 261 302 364
#     4  12  26  41  60  92 135 170 205 255 319 388
#     4   9  18  32  57  88 119 146 197 266 307 349
#     4  12  25  43  71  90 118 168 218 268 315 369
#     4  10  20  35  61  94 117 141 195 266 321 356
#
# _framework density 22.080537
#
# number of rings (size 3 to 8) (size 9 to 14) (size 15 to 20)
#    0.000    1.600    2.000    3.300    5.600    4.000 
#    0.000    1.000    0.000    1.200    0.000    0.000 
#    0.000    0.000    0.000    0.000    0.000    0.000 
#
# Total GULP energy -111585.915453 kJ/mol
# GULP energy per Si atom -5579.295773 kJ/mol
# Density = 2.203028 g / cm^3
# Si number density = 22.080537 Si / 1000 Ang^3
#
#
#
# Elastic Constant Matrix: (Units=GPa)
#
#
# Indices 1 2 3 4 5 6 
#
# 1 172.4333 101.5415 0.8589 0.0000 -18.9515 0.0000
# 2 101.5415 226.1496 8.8658 0.0000 -9.4890 0.0000
# 3 0.8589 8.8658 22.6449 0.0000 -3.1213 0.0000
# 4 0.0000 0.0000 0.0000 5.1644 0.0000 -4.6275
# 5 -18.9515 -9.4890 -3.1213 0.0000 8.8259 0.0000
# 6 0.0000 0.0000 0.0000 -4.6275 0.0000 50.8549
#
#
#
# Elastic Compliance Matrix: (Units=1/GPa)
#
#
# Indices 1 2 3 4 5 6 
#
# 1 0.010172 -0.003919 0.003762 0.000000 0.018959 0.000000
# 2 -0.003919 0.006171 -0.002642 0.000000 -0.002715 0.000000
# 3 0.003762 -0.002642 0.048119 0.000000 0.022255 0.000000
# 4 0.000000 0.000000 0.000000 0.210824 0.000000 0.019184
# 5 0.018959 -0.002715 0.022255 0.000000 0.158964 0.000000
# 6 0.000000 0.000000 0.000000 0.019184 0.000000 0.021409
#
#
# Mechanical properties :
#
#
# Convention : Reuss Voigt Hill
#
# Bulk Modulus (GPa) = 16.98815 71.52890 44.25852
# Shear Modulus (GPa) = 10.39762 33.63315 22.01538
#
# Velocity S-wave (km/s) = 2.17237 3.90706 3.16103
# Velocity P-wave (km/s) = 3.74201 7.26762 5.78018
#
# Compressibility (1/GPa) = 0.05886457
#
# Stress axis : x y z
#
# Youngs Moduli (GPa) = 98.30574 162.04061 20.78168
#
# Poissons Ratio (x) = 0.63510 -0.07818
# Poissons Ratio (y) = 0.38530 0.05490
# Poissons Ratio (z) = -0.36982 0.42807
#
# Static dielectric constant tensor:
#      x y z
#    x 3.591490 0.000000 0.635530 
#    y 0.000000 2.103450 0.000000 
#    z 0.635530 0.000000 2.129380 
# 
# From -- ./inp_files/90767.got.cif
#   From: 2010.05.17/outbox.cif.g08.bks.cpg/sg12_46_cif.got.tgz:90767.got - 2010.06.03 13:09:07.
