data_PCOD9190716
_publ_section_title
;
Structure prediction by ZEFSAII (Michael W. Deem and Ramdas Pophale) SiO2 
 PCOD9190716
Probable space group: C 2/M
;
_chemical_formula_sum "Si O2"
_cell_formula_units_Z 56
_cell_length_a 26.292973
_cell_length_b 9.530973
_cell_length_c 12.962693
_cell_angle_alpha 90.000000
_cell_angle_beta 107.646383
_cell_angle_gamma 90.000000
_cell_volume 3095.567430
_symmetry_space_group_name_H-M "C 2/M"
_symmetry_group_IT_number 12
_symmetry_cell_setting 'monoclinic'
loop_
_space_group_symop_operation_xyz
x,y,z
-x,y,-z
-x,-y,-z
x,-y,z
1/2+x,1/2+y,z
1/2-x,1/2+y,-z
1/2-x,1/2-y,-z
1/2+x,1/2-y,z
loop_
_atom_site_type_symbol
_atom_site_label
_atom_site_fract_x
_atom_site_fract_y
_atom_site_fract_z
Si Si1 0.371605 0.837936 0.769734
Si Si2 0.606298 0.663674 0.525687
Si Si3 0.960785 0.833380 0.722106
Si Si4 0.216515 0.337446 0.123768
Si Si5 0.196373 0.662379 0.483951
Si Si6 0.420372 0.666144 0.256034
Si Si7 0.816326 0.338223 0.136979
O O1 0.424114 0.747936 0.780600
O O2 0.332653 0.787729 0.836537
O O3 0.336505 0.834166 0.643652
O O4 0.385838 0.000000 0.799214
O O5 0.622971 0.500000 0.527661
O O6 0.565378 0.691277 0.407003
O O7 0.657475 0.762466 0.541908
O O8 0.579208 0.682775 0.619682
O O9 0.022626 0.791900 0.755657
O O10 0.958026 0.000000 0.739181
O O11 0.228237 0.500000 0.159835
O O12 0.268939 0.243070 0.166626
O O13 0.199284 0.335716 0.993652
O O14 0.207193 0.500000 0.516641
O O15 0.250000 0.750000 0.500000
O O16 0.411838 0.500000 0.230131
O O17 0.371385 0.756696 0.185375
O O18 0.820237 0.500000 0.172114
#
# Coordination Sequence:
#
# PCOD9190716 Si02
#       7
#     8   8   8   8   8   8   8
#     4   9  19  35  55  74  98 137 173 206 258 312
#     4   9  18  33  52  73 101 139 177 210 250 301
#     4   9  18  34  54  78 104 135 176 216 251 300
#     4   9  19  38  58  75 102 137 172 211 262 316
#     4  10  20  32  47  73 106 135 169 210 253 306
#     4  10  20  34  54  77 106 140 173 211 260 310
#     4  10  21  35  54  81 105 130 171 220 261 305
#
# _framework density 18.090384
#
# number of rings (size 3 to 8) (size 9 to 14) (size 15 to 20)
#    0.000    2.571    0.000    1.286    2.000    4.571 
#    0.000    0.714    0.000    8.571    0.000    0.000 
#    0.000    0.000    0.000    0.000    0.000    0.000 
#
# Total GULP energy -156227.354321 kJ/mol
# GULP energy per Si atom -5579.548369 kJ/mol
# Density = 1.804921 g / cm^3
# Si number density = 18.090384 Si / 1000 Ang^3
#
#
#
# Elastic Constant Matrix: (Units=GPa)
#
#
# Indices 1 2 3 4 5 6 
#
# 1 197.1938 98.5586 28.9044 0.0000 5.1678 0.0000
# 2 98.5586 90.1232 24.5583 0.0000 10.3864 0.0000
# 3 28.9044 24.5583 12.6289 0.0000 2.0341 0.0000
# 4 0.0000 0.0000 0.0000 21.9175 0.0000 0.7132
# 5 5.1678 10.3864 2.0341 0.0000 25.2133 0.0000
# 6 0.0000 0.0000 0.0000 0.7132 0.0000 35.0372
#
#
#
# Elastic Compliance Matrix: (Units=1/GPa)
#
#
# Indices 1 2 3 4 5 6 
#
# 1 0.011463 -0.011889 -0.003573 0.000000 0.002836 0.000000
# 2 -0.011889 0.036898 -0.043045 0.000000 -0.009290 0.000000
# 3 -0.003573 -0.043045 0.170305 0.000000 0.004725 0.000000
# 4 0.000000 0.000000 0.000000 0.045656 0.000000 -0.000929
# 5 0.002836 -0.009290 0.004725 0.000000 0.042526 0.000000
# 6 0.000000 0.000000 0.000000 -0.000929 0.000000 0.028560
#
#
# Mechanical properties :
#
#
# Convention : Reuss Voigt Hill
#
# Bulk Modulus (GPa) = 9.83742 67.10983 38.47363
# Shear Modulus (GPa) = 10.28162 26.29524 18.28843
#
# Velocity S-wave (km/s) = 2.38659 3.81668 3.18299
# Velocity P-wave (km/s) = 3.61167 7.52331 5.90103
#
# Compressibility (1/GPa) = 0.10165262
#
# Stress axis : x y z
#
# Youngs Moduli (GPa) = 87.24029 27.10200 5.87181
#
# Poissons Ratio (x) = 0.32221 0.02098
# Poissons Ratio (y) = 1.03718 0.25275
# Poissons Ratio (z) = 0.31170 1.16660
#
# Static dielectric constant tensor:
#      x y z
#    x 1.596920 0.000000 -0.009790 
#    y 0.000000 1.615870 0.000000 
#    z -0.009790 0.000000 1.621450 
# 
# From -- ./inp_files/237811.got.cif
#   From: 2010.05.17/outbox.cif.g08.bks.cpg/sg12_119_cif.got.tgz:237811.got - 2010.06.03 13:09:07.
