data_PCOD9190117
_publ_section_title
;
Structure prediction by ZEFSAII (Michael W. Deem and Ramdas Pophale) SiO2 
 PCOD9190117
Probable space group: C 2/M
;
_chemical_formula_sum "Si O2"
_cell_formula_units_Z 60
_cell_length_a 17.873139
_cell_length_b 14.615425
_cell_length_c 19.771531
_cell_angle_alpha 90.000000
_cell_angle_beta 35.556337
_cell_angle_gamma 90.000000
_cell_volume 3003.341146
_symmetry_space_group_name_H-M "C 2/M"
_symmetry_group_IT_number 12
_symmetry_cell_setting 'monoclinic'
loop_
_space_group_symop_operation_xyz
x,y,z
-x,y,-z
-x,-y,-z
x,-y,z
1/2+x,1/2+y,z
1/2-x,1/2+y,-z
1/2-x,1/2-y,-z
1/2+x,1/2-y,z
loop_
_atom_site_type_symbol
_atom_site_label
_atom_site_fract_x
_atom_site_fract_y
_atom_site_fract_z
Si Si1 0.377086 0.716499 0.459805
Si Si2 0.007024 0.599755 0.684244
Si Si3 0.500000 0.746502 0.500000
Si Si4 0.402593 0.395314 0.747646
Si Si5 0.800714 0.897358 0.109547
Si Si6 0.887139 0.697139 0.275216
Si Si7 0.134594 0.823755 0.081822
Si Si8 0.245333 0.241951 0.245924
O O1 0.432237 0.816762 0.402233
O O2 0.436557 0.687277 0.488425
O O3 0.450168 0.643423 0.359659
O O4 0.227294 0.722891 0.587498
O O5 0.049571 0.500000 0.628930
O O6 0.047795 0.613050 0.732674
O O7 0.853747 0.606582 0.789854
O O8 0.624828 0.792185 0.373467
O O9 0.398264 0.500000 0.728355
O O10 0.352222 0.385335 0.861163
O O11 0.317970 0.328446 0.761478
O O12 0.824914 0.818074 0.146587
O O13 0.833646 0.000000 0.108004
O O14 0.861043 0.875297 0.992557
O O15 0.825678 0.691506 0.245814
O O16 0.000045 0.770635 0.186890
O O17 0.250000 0.750000 0.000000
#
# Coordination Sequence:
#
# PCOD9190117 Si02
#       8
#     8   8   4   8   8   8   8   8
#     4  10  19  40  59  92 128 158 198 252 314 365
#     4  11  21  37  63  90 119 161 205 247 305 368
#     4   8  16  34  60  84 120 160 192 234 302 374
#     4  11  22  39  66  93 124 167 208 250 306 378
#     4  11  22  41  66  88 119 165 212 254 305 371
#     4  11  23  38  65  89 127 162 199 260 310 362
#     4  12  21  42  63  87 119 164 214 253 305 364
#     4  10  20  40  61  90 129 160 200 253 314 364
#
# _framework density 19.97775
#
# number of rings (size 3 to 8) (size 9 to 14) (size 15 to 20)
#    0.000    1.333    6.667    0.800    0.000    1.600 
#    0.000   17.333    0.000    0.800    0.000    0.000 
#    0.000    0.000    0.000    0.000    0.000    0.000 
#
# Total GULP energy -167055.030114 kJ/mol
# GULP energy per Si atom -5568.501004 kJ/mol
# Density = 1.993228 g / cm^3
# Si number density = 19.977750 Si / 1000 Ang^3
#
#
#
# Elastic Constant Matrix: (Units=GPa)
#
#
# Indices 1 2 3 4 5 6 
#
# 1 63.9119 -1.1952 6.9067 0.0000 5.0399 0.0000
# 2 -1.1952 98.3158 18.7179 0.0000 8.5608 0.0000
# 3 6.9067 18.7179 81.3563 0.0000 13.2092 0.0001
# 4 0.0000 0.0000 0.0000 11.5619 0.0000 -1.3338
# 5 5.0399 8.5608 13.2092 0.0000 34.4592 0.0000
# 6 0.0000 0.0000 0.0001 -1.3338 0.0000 4.9196
#
#
#
# Elastic Compliance Matrix: (Units=1/GPa)
#
#
# Indices 1 2 3 4 5 6 
#
# 1 0.015943 0.000592 -0.001159 0.000000 -0.002034 0.000000
# 2 0.000592 0.010767 -0.002217 0.000000 -0.001912 0.000000
# 3 -0.001159 -0.002217 0.013632 0.000000 -0.004505 0.000000
# 4 0.000000 0.000000 0.000000 0.089283 0.000000 0.024207
# 5 -0.002034 -0.001912 -0.004505 0.000000 0.031519 0.000000
# 6 0.000000 0.000000 0.000000 0.024207 0.000000 0.209832
#
#
# Mechanical properties :
#
#
# Convention : Reuss Voigt Hill
#
# Bulk Modulus (GPa) = 28.75836 32.49365 30.62600
# Shear Modulus (GPa) = 12.88205 24.79846 18.84026
#
# Velocity S-wave (km/s) = 2.54209 3.52704 3.07426
# Velocity P-wave (km/s) = 4.80028 5.73471 5.28817
#
# Compressibility (1/GPa) = 0.03477250
#
# Stress axis : x y z
#
# Youngs Moduli (GPa) = 62.72220 92.87605 73.35916
#
# Poissons Ratio (x) = -0.05495 0.08505
# Poissons Ratio (y) = -0.03711 0.16264
# Poissons Ratio (z) = 0.07271 0.20591
#
# Static dielectric constant tensor:
#      x y z
#    x 1.800040 0.000000 -0.007870 
#    y 0.000000 1.691600 0.000000 
#    z -0.007870 0.000000 1.757640 
# 
# From -- ./inp_files/322115.got.cif
#   From: 2010.05.17/outbox.cif.g08.bks.cpg/sg12_162_cif.got.tgz:322115.got - 2010.06.03 13:09:07.
