data_PCOD9190854
_publ_section_title
;
Structure prediction by ZEFSAII (Michael W. Deem and Ramdas Pophale) SiO2 
 PCOD9190854
Probable space group: C 2/M
;
_chemical_formula_sum "Si O2"
_cell_formula_units_Z 48
_cell_length_a 16.681955
_cell_length_b 31.233423
_cell_length_c 17.152740
_cell_angle_alpha 90.000000
_cell_angle_beta 162.757109
_cell_angle_gamma 90.000000
_cell_volume 2649.183526
_symmetry_space_group_name_H-M "C 2/M"
_symmetry_group_IT_number 12
_symmetry_cell_setting 'monoclinic'
loop_
_space_group_symop_operation_xyz
x,y,z
-x,y,-z
-x,-y,-z
x,-y,z
1/2+x,1/2+y,z
1/2-x,1/2+y,-z
1/2-x,1/2-y,-z
1/2+x,1/2-y,z
loop_
_atom_site_type_symbol
_atom_site_label
_atom_site_fract_x
_atom_site_fract_y
_atom_site_fract_z
Si Si1 0.285438 0.833832 0.231162
Si Si2 0.456143 0.336106 0.635373
Si Si3 0.546065 0.424812 0.634569
Si Si4 0.125526 0.364197 0.855314
Si Si5 0.787278 0.765999 0.232348
Si Si6 0.530888 0.047662 0.851416
O O1 0.500000 0.836218 0.500000
O O2 0.371937 0.858745 0.234496
O O3 0.252377 0.783668 0.177076
O O4 0.000000 0.848862 0.000000
O O5 0.531651 0.375130 0.647125
O O6 0.582772 0.293811 0.715545
O O7 0.135350 0.339634 0.350955
O O8 0.605960 0.345120 0.855940
O O9 0.500000 0.428888 0.500000
O O10 0.289760 0.447964 0.435413
O O11 0.817504 0.443344 0.925363
O O12 0.112145 0.413538 0.870248
O O13 0.000000 0.767752 0.500000
O O14 0.500000 0.781980 0.000000
O O15 0.601960 0.000000 0.890879
#
# Coordination Sequence:
#
# PCOD9190854 Si02
#       6
#     8   8   8   8   8   8
#     4  10  21  37  56  77 101 131 167 211 263 311
#     4  10  20  33  51  76 106 139 173 207 245 291
#     4  10  20  32  49  74 104 138 173 205 239 286
#     4  10  21  36  54  76 101 133 171 211 258 307
#     4  10  20  33  51  76 107 141 173 206 245 290
#     4  10  21  35  51  73 101 134 169 209 256 298
#
# _framework density 18.118790000000001
#
# number of rings (size 3 to 8) (size 9 to 14) (size 15 to 20)
#    0.000    2.000    0.000    3.500    0.000    6.000 
#    0.000    0.000    0.000    1.000    0.000    0.000 
#    0.000    0.000    0.000    0.000    0.000    0.000 
#
# Total GULP energy -133961.155326 kJ/mol
# GULP energy per Si atom -5581.714805 kJ/mol
# Density = 1.807755 g / cm^3
# Si number density = 18.118790 Si / 1000 Ang^3
#
#
#
# Elastic Constant Matrix: (Units=GPa)
#
#
# Indices 1 2 3 4 5 6 
#
# 1 81.9527 47.2446 4.1362 0.0048 -12.6564 0.0034
# 2 47.2446 52.3545 13.6872 -0.0095 -12.8303 0.0086
# 3 4.1362 13.6872 75.6513 0.0130 5.5839 0.0227
# 4 0.0048 -0.0095 0.0130 28.1577 0.0056 -8.8542
# 5 -12.6564 -12.8303 5.5839 0.0056 23.6555 0.0019
# 6 0.0034 0.0086 0.0227 -8.8542 0.0019 3.6384
#
#
#
# Elastic Compliance Matrix: (Units=1/GPa)
#
#
# Indices 1 2 3 4 5 6 
#
# 1 0.026053 -0.024265 0.002960 -0.000040 0.000080 -0.000082
# 2 -0.024265 0.046616 -0.008157 0.000029 0.014227 0.000025
# 3 0.002960 -0.008157 0.015004 -0.000137 -0.006382 -0.000406
# 4 -0.000040 0.000029 -0.000137 0.151273 -0.000039 0.368130
# 5 0.000080 0.014227 -0.006382 -0.000039 0.051539 -0.000118
# 6 -0.000082 0.000025 -0.000406 0.368130 -0.000118 1.170704
#
#
# Mechanical properties :
#
#
# Convention : Reuss Voigt Hill
#
# Bulk Modulus (GPa) = 34.78438 37.78829 36.28633
# Shear Modulus (GPa) = 3.26862 20.74970 12.00916
#
# Velocity S-wave (km/s) = 1.34459 3.38776 2.57729
# Velocity P-wave (km/s) = 4.65298 6.01695 5.37838
#
# Compressibility (1/GPa) = 0.02874854
#
# Stress axis : x y z
#
# Youngs Moduli (GPa) = 38.38269 21.45182 66.64949
#
# Poissons Ratio (x) = 0.52052 -0.19727
# Poissons Ratio (y) = 0.93134 0.54369
# Poissons Ratio (z) = -0.11360 0.17499
#
# Static dielectric constant tensor:
#      x y z
#    x 1.605240 -0.000020 -0.021770 
#    y -0.000020 1.642290 -0.000220 
#    z -0.021770 -0.000220 1.260090 
# 
# From -- ./inp_files/12842.got.cif
#   From: 2010.05.17/outbox.cif.g08.bks.cpg/sg12_7_cif.got.tgz:12842.got - 2010.06.03 13:09:07.
