data_PCOD9190093
_publ_section_title
;
Structure prediction by ZEFSAII (Michael W. Deem and Ramdas Pophale) SiO2 
 PCOD9190093
Probable space group: C 2/M
;
_chemical_formula_sum "Si O2"
_cell_formula_units_Z 64
_cell_length_a 9.519216
_cell_length_b 18.471491
_cell_length_c 29.103462
_cell_angle_alpha 90.000000
_cell_angle_beta 139.069828
_cell_angle_gamma 90.000000
_cell_volume 3352.594895
_symmetry_space_group_name_H-M "C 2/M"
_symmetry_group_IT_number 12
_symmetry_cell_setting 'monoclinic'
loop_
_space_group_symop_operation_xyz
x,y,z
-x,y,-z
-x,-y,-z
x,-y,z
1/2+x,1/2+y,z
1/2-x,1/2+y,-z
1/2-x,1/2-y,-z
1/2+x,1/2-y,z
loop_
_atom_site_type_symbol
_atom_site_label
_atom_site_fract_x
_atom_site_fract_y
_atom_site_fract_z
Si Si1 0.043018 0.582493 0.801126
Si Si2 0.294340 0.691878 0.316900
Si Si3 0.001675 0.913067 0.054099
Si Si4 0.885243 0.321109 0.019109
Si Si5 0.006379 0.586075 0.555156
Si Si6 0.808410 0.416336 0.841861
Si Si7 0.385236 0.679218 0.520266
Si Si8 0.583463 0.662543 0.299087
O O1 0.050461 0.500000 0.785518
O O2 0.282219 0.611698 0.867569
O O3 0.893192 0.633274 0.734477
O O4 0.938638 0.580063 0.826095
O O5 0.441628 0.671544 0.396588
O O6 0.439226 0.689332 0.306689
O O7 0.184655 0.769376 0.297735
O O8 0.003733 0.000000 0.054309
O O9 0.000000 0.889856 0.000000
O O10 0.794678 0.883229 0.028099
O O11 0.064509 0.356854 0.096667
O O12 0.750000 0.250000 0.000000
O O13 0.000000 0.305047 0.000000
O O14 0.016415 0.500000 0.559352
O O15 0.788085 0.615192 0.523555
O O16 0.000000 0.609101 0.500000
O O17 0.216241 0.618633 0.630814
O O18 0.805139 0.500000 0.859147
O O19 0.572386 0.386625 0.770813
O O20 0.500000 0.688149 0.500000
O O21 0.250000 0.750000 0.500000
#
# Coordination Sequence:
#
# PCOD9190093 Si02
#       8
#     8   8   8   8   8   8   8   8
#     4   9  20  39  66  94 123 163 209 251 301 376
#     4  11  23  38  64  92 126 164 207 257 316 367
#     4  10  19  39  68  92 122 163 207 251 308 372
#     4  12  27  41  63  93 127 162 209 266 313 372
#     4  11  23  41  65  94 124 163 217 266 313 377
#     4  10  22  42  66  92 127 166 207 256 316 375
#     4  12  23  40  65  92 127 165 210 259 320 376
#     4  11  23  40  65  94 126 167 209 258 311 378
#
# _framework density 19.089690999999998
#
# number of rings (size 3 to 8) (size 9 to 14) (size 15 to 20)
#    0.000    1.250    3.750    2.250    1.750    3.250 
#    0.000    0.000    0.000    0.000    0.000    0.000 
#    0.000    0.000    0.000    0.000    0.000    0.000 
#
# Total GULP energy -178731.409729 kJ/mol
# GULP energy per Si atom -5585.356554 kJ/mol
# Density = 1.904624 g / cm^3
# Si number density = 19.089691 Si / 1000 Ang^3
#
#
#
# Elastic Constant Matrix: (Units=GPa)
#
#
# Indices 1 2 3 4 5 6 
#
# 1 100.6108 38.5037 42.5382 0.0000 12.3154 0.0000
# 2 38.5037 90.4369 73.7135 0.0000 -2.0553 0.0000
# 3 42.5382 73.7135 171.2524 0.0000 17.1402 0.0001
# 4 0.0000 0.0000 0.0000 27.6374 0.0000 4.4965
# 5 12.3154 -2.0553 17.1402 0.0000 23.9616 0.0000
# 6 0.0000 0.0000 0.0001 4.4965 0.0000 27.5920
#
#
#
# Elastic Compliance Matrix: (Units=1/GPa)
#
#
# Indices 1 2 3 4 5 6 
#
# 1 0.012998 -0.005609 -0.000105 0.000000 -0.007087 0.000000
# 2 -0.005609 0.020700 -0.008598 0.000000 0.010809 0.000000
# 3 -0.000105 -0.008598 0.010378 0.000000 -0.008107 0.000000
# 4 0.000000 0.000000 0.000000 0.037168 0.000000 -0.006057
# 5 -0.007087 0.010809 -0.008107 0.000000 0.052102 0.000000
# 6 0.000000 0.000000 0.000000 -0.006057 0.000000 0.037230
#
#
# Mechanical properties :
#
#
# Convention : Reuss Voigt Hill
#
# Bulk Modulus (GPa) = 64.72488 74.64566 69.68527
# Shear Modulus (GPa) = 24.46772 29.67451 27.07111
#
# Velocity S-wave (km/s) = 3.58400 3.94696 3.76985
# Velocity P-wave (km/s) = 7.14885 7.74331 7.45201
#
# Compressibility (1/GPa) = 0.01545001
#
# Stress axis : x y z
#
# Youngs Moduli (GPa) = 76.93616 48.30966 96.35870
#
# Poissons Ratio (x) = 0.27099 0.01010
# Poissons Ratio (y) = 0.43157 0.82854
# Poissons Ratio (z) = 0.00806 0.41539
#
# Static dielectric constant tensor:
#      x y z
#    x 1.633270 0.000000 -0.157250 
#    y 0.000000 1.674350 0.000000 
#    z -0.157250 0.000000 2.241350 
# 
# From -- ./inp_files/373003.got.cif
#   From: 2010.05.17/outbox.cif.g08.bks.cpg/sg12_187_cif.got.tgz:373003.got - 2010.06.03 13:09:07.
