data_PCOD9190846
_publ_section_title
;
Structure prediction by ZEFSAII (Michael W. Deem and Ramdas Pophale) SiO2 
 PCOD9190846
Probable space group: C 2/M
;
_chemical_formula_sum "Si O2"
_cell_formula_units_Z 40
_cell_length_a 8.141899
_cell_length_b 17.689097
_cell_length_c 12.788567
_cell_angle_alpha 90.000000
_cell_angle_beta 79.824132
_cell_angle_gamma 90.000000
_cell_volume 1812.873715
_symmetry_space_group_name_H-M "C 2/M"
_symmetry_group_IT_number 12
_symmetry_cell_setting 'monoclinic'
loop_
_space_group_symop_operation_xyz
x,y,z
-x,y,-z
-x,-y,-z
x,-y,z
1/2+x,1/2+y,z
1/2-x,1/2+y,-z
1/2-x,1/2-y,-z
1/2+x,1/2-y,z
loop_
_atom_site_type_symbol
_atom_site_label
_atom_site_fract_x
_atom_site_fract_y
_atom_site_fract_z
Si Si1 0.652906 0.800036 0.423813
Si Si2 0.230167 0.860573 0.182078
Si Si3 0.060702 0.710906 0.114266
Si Si4 0.005317 0.852657 0.622193
Si Si5 0.300800 0.582165 0.031814
O O1 0.500000 0.840754 0.500000
O O2 0.750000 0.750000 0.500000
O O3 0.802433 0.849990 0.362362
O O4 0.569731 0.733583 0.365482
O O5 0.122912 0.791866 0.143934
O O6 0.405432 0.823620 0.195287
O O7 0.120258 0.895193 0.286974
O O8 0.264400 0.914454 0.080423
O O9 0.212393 0.651382 0.099551
O O10 0.000000 0.716486 0.000000
O O11 0.000000 0.875510 0.500000
O O12 0.262252 0.500000 0.082740
O O13 0.500000 0.589340 0.000000
#
# Coordination Sequence:
#
# PCOD9190846 Si02
#       5
#     8   8   8   8   8
#     4   7  12  22  35  53  84 123 154 184 224 266
#     4  11  19  30  51  75 102 132 162 197 242 290
#     4  10  20  32  49  74 102 127 160 202 246 291
#     4   9  16  26  40  64  98 129 159 192 229 276
#     4  10  21  37  53  70  95 126 162 204 249 297
#
# _framework density 22.064415
#
# number of rings (size 3 to 8) (size 9 to 14) (size 15 to 20)
#    0.000    3.000    0.000    5.400    0.000    3.600 
#    0.000    0.000    0.000    0.600    0.000    0.000 
#    0.000    4.800    0.000    0.000    0.000    0.000 
#
# Total GULP energy -111523.960615 kJ/mol
# GULP energy per Si atom -5576.198031 kJ/mol
# Density = 2.201420 g / cm^3
# Si number density = 22.064415 Si / 1000 Ang^3
#
#
#
# Elastic Constant Matrix: (Units=GPa)
#
#
# Indices 1 2 3 4 5 6 
#
# 1 106.0127 7.2518 8.2114 0.0000 -22.2041 0.0000
# 2 7.2518 54.2698 1.7248 0.0000 7.3521 0.0000
# 3 8.2114 1.7248 70.9961 0.0000 -16.6309 0.0000
# 4 0.0000 0.0000 0.0000 4.8660 0.0000 0.9734
# 5 -22.2041 7.3521 -16.6309 0.0000 35.6366 0.0000
# 6 0.0000 0.0000 0.0000 0.9734 0.0000 3.7086
#
#
#
# Elastic Compliance Matrix: (Units=1/GPa)
#
#
# Indices 1 2 3 4 5 6 
#
# 1 0.011192 -0.002568 0.000590 0.000000 0.007779 0.000000
# 2 -0.002568 0.019698 -0.001693 0.000000 -0.006454 0.000000
# 3 0.000590 -0.001693 0.015972 0.000000 0.008171 0.000000
# 4 0.000000 0.000000 0.000000 0.216897 0.000000 -0.056931
# 5 0.007779 -0.006454 0.008171 0.000000 0.038052 0.000000
# 6 0.000000 0.000000 0.000000 -0.056931 0.000000 0.284587
#
#
# Mechanical properties :
#
#
# Convention : Reuss Voigt Hill
#
# Bulk Modulus (GPa) = 25.30417 29.51718 27.41067
# Shear Modulus (GPa) = 8.23840 23.11495 15.67668
#
# Velocity S-wave (km/s) = 1.93440 3.24020 2.66840
# Velocity P-wave (km/s) = 4.05985 5.23500 4.68442
#
# Compressibility (1/GPa) = 0.03951918
#
# Stress axis : x y z
#
# Youngs Moduli (GPa) = 89.34945 50.76705 62.60872
#
# Poissons Ratio (x) = 0.13037 -0.03694
# Poissons Ratio (y) = 0.22946 0.10602
# Poissons Ratio (z) = -0.05272 0.08597
#
# Static dielectric constant tensor:
#      x y z
#    x 1.899570 0.000000 -0.030370 
#    y 0.000000 1.797070 0.000000 
#    z -0.030370 0.000000 1.945140 
# 
# From -- ./inp_files/195025.got.cif
#   From: 2010.05.17/outbox.cif.g08.bks.cpg/sg12_98_cif.got.tgz:195025.got - 2010.06.03 13:09:07.
