data_PCOD9190123
_publ_section_title
;
Structure prediction by ZEFSAII (Michael W. Deem and Ramdas Pophale) SiO2 
 PCOD9190123
Probable space group: C 2/M
;
_chemical_formula_sum "Si O2"
_cell_formula_units_Z 60
_cell_length_a 16.758616
_cell_length_b 20.476680
_cell_length_c 9.310167
_cell_angle_alpha 90.000000
_cell_angle_beta 100.974563
_cell_angle_gamma 90.000000
_cell_volume 3136.455822
_symmetry_space_group_name_H-M "C 2/M"
_symmetry_group_IT_number 12
_symmetry_cell_setting 'monoclinic'
loop_
_space_group_symop_operation_xyz
x,y,z
-x,y,-z
-x,-y,-z
x,-y,z
1/2+x,1/2+y,z
1/2-x,1/2+y,-z
1/2-x,1/2-y,-z
1/2+x,1/2-y,z
loop_
_atom_site_type_symbol
_atom_site_label
_atom_site_fract_x
_atom_site_fract_y
_atom_site_fract_z
Si Si1 0.500000 0.342505 0.000000
Si Si2 0.586602 0.808551 0.596003
Si Si3 0.808594 0.658175 0.626010
Si Si4 0.860908 0.201246 0.767033
Si Si5 0.385125 0.661026 0.474567
Si Si6 0.586491 0.425051 0.778830
Si Si7 0.216882 0.574271 0.121849
Si Si8 0.207233 0.311452 0.895769
O O1 0.569918 0.298185 0.090895
O O2 0.458041 0.386327 0.109114
O O3 0.500000 0.832763 0.500000
O O4 0.651111 0.845186 0.515606
O O5 0.585212 0.731866 0.561080
O O6 0.624614 0.806527 0.771140
O O7 0.841312 0.726236 0.703718
O O8 0.712019 0.664010 0.579669
O O9 0.820241 0.598581 0.739388
O O10 0.894029 0.156795 0.648251
O O11 0.778950 0.173422 0.807197
O O12 0.422422 0.608829 0.379506
O O13 0.559643 0.500000 0.767543
O O14 0.684352 0.423707 0.837661
O O15 0.193155 0.500000 0.080169
O O16 0.194122 0.629489 0.000122
O O17 0.250000 0.250000 0.000000
#
# Coordination Sequence:
#
# PCOD9190123 Si02
#       8
#     4   8   8   8   8   8   8   8
#     4  12  25  34  56  90 129 158 200 256 308 364
#     4  11  23  36  63  95 123 152 207 272 319 371
#     4  10  19  40  61  85 121 157 202 255 311 369
#     4  11  21  35  58  88 118 160 201 253 308 361
#     4  10  20  38  60  83 118 160 204 255 304 365
#     4  10  22  39  57  84 124 168 203 245 303 374
#     4  10  21  39  65  90 120 164 211 251 312 388
#     4  12  20  38  64  94 128 165 204 263 322 371
#
# _framework density 19.129871999999999
#
# number of rings (size 3 to 8) (size 9 to 14) (size 15 to 20)
#    0.000    1.333    5.333    1.800    3.733    0.000 
#    0.000    3.333    0.000    2.400    0.000    0.000 
#    0.000    0.000    0.000    0.000    0.000    0.000 
#
# Total GULP energy -167185.298125 kJ/mol
# GULP energy per Si atom -5572.843271 kJ/mol
# Density = 1.908633 g / cm^3
# Si number density = 19.129872 Si / 1000 Ang^3
#
#
#
# Elastic Constant Matrix: (Units=GPa)
#
#
# Indices 1 2 3 4 5 6 
#
# 1 69.5965 12.3172 42.0469 0.0000 18.6469 0.0000
# 2 12.3172 54.7004 47.3885 0.0000 4.0210 0.0000
# 3 42.0469 47.3885 125.4291 0.0000 11.6184 0.0000
# 4 0.0000 0.0000 0.0000 22.5003 0.0000 -7.4084
# 5 18.6469 4.0210 11.6184 0.0000 28.4708 0.0000
# 6 0.0000 0.0000 0.0000 -7.4084 0.0000 -15.0001
#
#
#
# Elastic Compliance Matrix: (Units=1/GPa)
#
#
# Indices 1 2 3 4 5 6 
#
# 1 0.021165 0.001939 -0.006774 0.000000 -0.011371 0.000000
# 2 0.001939 0.027358 -0.010923 0.000000 -0.000676 0.000000
# 3 -0.006774 -0.010923 0.014359 0.000000 0.000120 0.000000
# 4 0.000000 0.000000 0.000000 0.038227 0.000000 -0.018880
# 5 -0.011371 -0.000676 0.000120 0.000000 0.042618 0.000000
# 6 0.000000 0.000000 0.000000 -0.018880 0.000000 -0.057342
#
#
# Mechanical properties :
#
#
# Convention : Reuss Voigt Hill
#
# Bulk Modulus (GPa) = 31.88336 50.35901 41.12118
# Shear Modulus (GPa) = 38.95362 17.05910 28.00636
#
# Velocity S-wave (km/s) = 4.51740 2.98946 3.83039
# Velocity P-wave (km/s) = 6.62663 6.18852 6.41132
#
# Compressibility (1/GPa) = 0.03136432
#
# Stress axis : x y z
#
# Youngs Moduli (GPa) = 47.24855 36.55269 69.64104
#
# Poissons Ratio (x) = -0.07086 0.47175
# Poissons Ratio (y) = -0.09160 0.76071
# Poissons Ratio (z) = 0.32006 0.39928
#
# Static dielectric constant tensor:
#      x y z
#    x 1.703460 0.000000 0.019030 
#    y 0.000000 1.649090 0.000000 
#    z 0.019030 0.000000 1.739730 
# 
# From -- ./inp_files/77555.got.cif
#   From: 2010.05.17/outbox.cif.g08.bks.cpg/sg12_39_cif.got.tgz:77555.got - 2010.06.03 13:09:07.
