data_PCOD9190695
_publ_section_title
;
Structure prediction by ZEFSAII (Michael W. Deem and Ramdas Pophale) SiO2 
 PCOD9190695
Probable space group: C 2/M
;
_chemical_formula_sum "Si O2"
_cell_formula_units_Z 56
_cell_length_a 27.349537
_cell_length_b 14.383569
_cell_length_c 10.755577
_cell_angle_alpha 90.000000
_cell_angle_beta 54.583669
_cell_angle_gamma 90.000000
_cell_volume 3448.165155
_symmetry_space_group_name_H-M "C 2/M"
_symmetry_group_IT_number 12
_symmetry_cell_setting 'monoclinic'
loop_
_space_group_symop_operation_xyz
x,y,z
-x,y,-z
-x,-y,-z
x,-y,z
1/2+x,1/2+y,z
1/2-x,1/2+y,-z
1/2-x,1/2-y,-z
1/2+x,1/2-y,z
loop_
_atom_site_type_symbol
_atom_site_label
_atom_site_fract_x
_atom_site_fract_y
_atom_site_fract_z
Si Si1 0.003900 0.391690 0.642429
Si Si2 0.133619 0.390744 0.565193
Si Si3 0.833005 0.723255 0.243023
Si Si4 0.893801 0.723889 0.901193
Si Si5 0.280413 0.110633 0.109820
Si Si6 0.737217 0.606915 0.723776
Si Si7 0.825573 0.891097 0.916586
O O1 0.990545 0.500000 0.692971
O O2 0.071106 0.371511 0.589522
O O3 0.000000 0.382015 0.500000
O O4 0.954998 0.325467 0.776752
O O5 0.132968 0.500000 0.604264
O O6 0.143440 0.325543 0.669381
O O7 0.191778 0.378287 0.392325
O O8 0.787066 0.655115 0.236495
O O9 0.798221 0.820058 0.309333
O O10 0.885193 0.737799 0.062576
O O11 0.880365 0.820399 0.851554
O O12 0.836945 0.656420 0.954601
O O13 0.218615 0.132944 0.131644
O O14 0.287062 0.000000 0.103451
O O15 0.724792 0.500000 0.707754
O O16 0.713306 0.621228 0.899190
O O17 0.842035 0.000000 0.883743
#
# Coordination Sequence:
#
# PCOD9190695 Si02
#       7
#     8   8   8   8   8   8   8
#     4  10  22  35  49  71  97 128 161 195 237 286
#     4  10  20  32  47  70 100 130 158 191 239 290
#     4   9  19  30  49  70  97 129 159 194 237 287
#     4   9  19  31  49  69  96 131 160 197 235 279
#     4   9  17  27  45  72  99 123 152 194 241 283
#     4   9  18  31  49  73 100 127 157 199 239 280
#     4   9  17  30  50  75  97 123 160 202 242 277
#
# _framework density 16.240521000000001
#
# number of rings (size 3 to 8) (size 9 to 14) (size 15 to 20)
#    0.857    1.857    0.000    1.714    2.000    0.571 
#    0.000    1.429    0.000    1.286    0.000    4.000 
#    0.000    0.000    0.000    0.000    0.000    0.000 
#
# Total GULP energy -155890.488358 kJ/mol
# GULP energy per Si atom -5567.517441 kJ/mol
# Density = 1.620356 g / cm^3
# Si number density = 16.240521 Si / 1000 Ang^3
#
#
#
# Elastic Constant Matrix: (Units=GPa)
#
#
# Indices 1 2 3 4 5 6 
#
# 1 110.2202 62.0145 36.6063 0.0000 -4.7103 0.0000
# 2 62.0145 83.0345 40.4427 0.0000 -13.9886 0.0000
# 3 36.6063 40.4427 57.4504 0.0000 -21.8230 0.0000
# 4 0.0000 0.0000 0.0000 20.8358 0.0000 -3.6027
# 5 -4.7103 -13.9886 -21.8230 0.0000 19.5111 0.0000
# 6 0.0000 0.0000 0.0000 -3.6027 0.0000 24.8888
#
#
#
# Elastic Compliance Matrix: (Units=1/GPa)
#
#
# Indices 1 2 3 4 5 6 
#
# 1 0.017641 -0.011389 -0.008184 0.000000 -0.013060 0.000000
# 2 -0.011389 0.025737 -0.008513 0.000000 0.006181 0.000000
# 3 -0.008184 -0.008513 0.044415 0.000000 0.041599 0.000000
# 4 0.000000 0.000000 0.000000 0.049226 0.000000 0.007126
# 5 -0.013060 0.006181 0.041599 0.000000 0.099060 0.000000
# 6 0.000000 0.000000 0.000000 0.007126 0.000000 0.041210
#
#
# Mechanical properties :
#
#
# Convention : Reuss Voigt Hill
#
# Bulk Modulus (GPa) = 31.62426 58.75911 45.19168
# Shear Modulus (GPa) = 14.53486 20.48991 17.51238
#
# Velocity S-wave (km/s) = 2.99486 3.55583 3.28733
# Velocity P-wave (km/s) = 5.61014 7.28819 6.50351
#
# Compressibility (1/GPa) = 0.03162129
#
# Stress axis : x y z
#
# Youngs Moduli (GPa) = 56.68724 38.85496 22.51484
#
# Poissons Ratio (x) = 0.44253 0.18426
# Poissons Ratio (y) = 0.64562 0.19166
# Poissons Ratio (z) = 0.46392 0.33076
#
# Static dielectric constant tensor:
#      x y z
#    x 1.522910 0.000000 0.016880 
#    y 0.000000 1.561970 0.000000 
#    z 0.016880 0.000000 1.544840 
# 
# From -- ./inp_files/183453.got.cif
#   From: 2010.05.17/outbox.cif.g08.bks.cpg/sg12_92_cif.got.tgz:183453.got - 2010.06.03 13:09:07.
