data_PCOD9190920
_publ_section_title
;
Structure prediction by ZEFSAII (Michael W. Deem and Ramdas Pophale) SiO2 
 PCOD9190920
Probable space group: C 2/M
;
_chemical_formula_sum "Si O2"
_cell_formula_units_Z 56
_cell_length_a 28.610649
_cell_length_b 7.503903
_cell_length_c 17.583034
_cell_angle_alpha 90.000000
_cell_angle_beta 41.605702
_cell_angle_gamma 90.000000
_cell_volume 2506.554937
_symmetry_space_group_name_H-M "C 2/M"
_symmetry_group_IT_number 12
_symmetry_cell_setting 'monoclinic'
loop_
_space_group_symop_operation_xyz
x,y,z
-x,y,-z
-x,-y,-z
x,-y,z
1/2+x,1/2+y,z
1/2-x,1/2+y,-z
1/2-x,1/2-y,-z
1/2+x,1/2-y,z
loop_
_atom_site_type_symbol
_atom_site_label
_atom_site_fract_x
_atom_site_fract_y
_atom_site_fract_z
Si Si1 0.033348 0.718264 0.700003
Si Si2 0.043607 0.718067 0.520181
Si Si3 0.419136 0.205482 0.955982
Si Si4 0.169380 0.713514 0.618046
Si Si5 0.299036 0.215187 0.704959
Si Si6 0.348279 0.790579 0.192461
Si Si7 0.274591 0.288566 0.054927
O O1 0.030102 0.500000 0.703902
O O2 0.014426 0.774401 0.637700
O O3 0.112692 0.772363 0.624785
O O4 0.981218 0.783406 0.829408
O O5 0.042986 0.500000 0.519937
O O6 0.124695 0.775602 0.414245
O O7 0.000000 0.777356 0.500000
O O8 0.439005 0.000000 0.946663
O O9 0.395955 0.284946 0.065681
O O10 0.348905 0.206968 0.989600
O O11 0.163456 0.500000 0.628942
O O12 0.250000 0.750000 0.500000
O O13 0.148056 0.784933 0.727284
O O14 0.232709 0.276540 0.736192
O O15 0.282009 0.268277 0.812552
O O16 0.299159 0.000000 0.700965
O O17 0.365727 0.000000 0.176041
O O18 0.283443 0.500000 0.051861
O O19 0.250000 0.250000 0.000000
#
# Coordination Sequence:
#
# PCOD9190920 Si02
#       7
#     8   8   8   8   8   8   8
#     4   9  18  31  50  75 103 134 170 213 256 305
#     4   9  17  28  46  72  98 125 164 213 253 290
#     4   9  18  33  52  74 102 135 168 209 259 308
#     4  10  20  34  53  78 104 135 174 213 257 306
#     4   9  18  32  51  74  98 129 170 211 250 301
#     4   9  18  32  51  75 103 132 163 207 259 308
#     4  10  20  32  50  75 101 134 173 214 255 303
#
# _framework density 22.341422999999999
#
# number of rings (size 3 to 8) (size 9 to 14) (size 15 to 20)
#    0.000    2.714    0.000    1.286    2.000    2.857 
#    0.000    3.571    0.000    1.286    0.000    5.000 
#    0.000    0.000    0.000    0.000    0.000    0.000 
#
# Total GULP energy -156315.671197 kJ/mol
# GULP energy per Si atom -5582.702543 kJ/mol
# Density = 2.229057 g / cm^3
# Si number density = 22.341423 Si / 1000 Ang^3
#
#
#
# Elastic Constant Matrix: (Units=GPa)
#
#
# Indices 1 2 3 4 5 6 
#
# 1 110.8099 -0.8842 58.3302 -0.0041 35.8661 0.0037
# 2 -0.8842 60.3795 4.4407 -0.0345 2.9511 0.0154
# 3 58.3302 4.4407 141.4962 -0.0084 9.5568 0.0052
# 4 -0.0041 -0.0345 -0.0084 6.9262 0.0015 -7.8188
# 5 35.8661 2.9511 9.5568 0.0015 31.3548 -0.0027
# 6 0.0037 0.0154 0.0052 -7.8188 -0.0027 8.5816
#
#
#
# Elastic Compliance Matrix: (Units=1/GPa)
#
#
# Indices 1 2 3 4 5 6 
#
# 1 0.018842 0.001718 -0.006488 -0.000040 -0.019737 -0.000050
# 2 0.001718 0.016820 -0.001017 -0.001719 -0.003238 -0.001598
# 3 -0.006488 -0.001017 0.009461 -0.000067 0.004634 -0.000061
# 4 -0.000040 -0.001719 -0.000067 -5.058238 0.000080 -4.608652
# 5 -0.019737 -0.003238 0.004634 0.000080 0.053362 0.000101
# 6 -0.000050 -0.001598 -0.000061 -4.608652 0.000101 -4.082497
#
#
# Mechanical properties :
#
#
# Convention : Reuss Voigt Hill
#
# Bulk Modulus (GPa) = 29.80911 48.49544 39.15227
# Shear Modulus (GPa) = -0.55435 26.09244 12.76904
#
# Velocity S-wave (km/s) = -0.49867 3.42116 2.39329
# Velocity P-wave (km/s) = 3.61109 6.11223 5.01993
#
# Compressibility (1/GPa) = 0.03354679
#
# Stress axis : x y z
#
# Youngs Moduli (GPa) = 53.07347 59.45455 105.69752
#
# Poissons Ratio (x) = -0.10213 0.68578
# Poissons Ratio (y) = -0.09117 0.10753
# Poissons Ratio (z) = 0.34435 0.06048
#
# Static dielectric constant tensor:
#      x y z
#    x 1.790870 -0.000010 0.029370 
#    y -0.000010 1.856910 0.000020 
#    z 0.029370 0.000020 1.829260 
# 
# From -- ./inp_files/292406.got.cif
#   From: 2010.05.17/outbox.cif.g08.bks.cpg/sg12_147_cif.got.tgz:292406.got - 2010.06.03 13:09:07.
