data_PCOD9190266
_publ_section_title
;
Structure prediction by ZEFSAII (Michael W. Deem and Ramdas Pophale) SiO2 
 PCOD9190266
Probable space group: C 2/M
;
_chemical_formula_sum "Si O2"
_cell_formula_units_Z 48
_cell_length_a 20.309812
_cell_length_b 22.665525
_cell_length_c 18.109379
_cell_angle_alpha 90.000000
_cell_angle_beta 159.762185
_cell_angle_gamma 90.000000
_cell_volume 2883.684945
_symmetry_space_group_name_H-M "C 2/M"
_symmetry_group_IT_number 12
_symmetry_cell_setting 'monoclinic'
loop_
_space_group_symop_operation_xyz
x,y,z
-x,y,-z
-x,-y,-z
x,-y,z
1/2+x,1/2+y,z
1/2-x,1/2+y,-z
1/2-x,1/2-y,-z
1/2+x,1/2-y,z
loop_
_atom_site_type_symbol
_atom_site_label
_atom_site_fract_x
_atom_site_fract_y
_atom_site_fract_z
Si Si1 0.630990 0.838405 0.874517
Si Si2 0.217228 0.886431 0.220416
Si Si3 0.645104 0.254423 0.094384
Si Si4 0.961699 0.569353 0.341332
Si Si5 0.940284 0.219404 0.294771
Si Si6 0.344568 0.220348 0.670584
O O1 0.612550 0.897567 0.809047
O O2 0.592113 0.784511 0.775778
O O3 0.471245 0.832352 0.770484
O O4 0.831389 0.824798 0.124649
O O5 0.213730 0.816316 0.200103
O O6 0.342231 0.901155 0.423552
O O7 0.316103 0.917997 0.255241
O O8 0.000000 0.905355 0.000000
O O9 0.824888 0.220729 0.249937
O O10 0.500000 0.224865 0.000000
O O11 0.499452 0.262853 0.872065
O O12 0.986836 0.500000 0.358047
O O13 0.164705 0.207465 0.533499
O O14 0.250000 0.250000 0.500000
#
# Coordination Sequence:
#
# PCOD9190266 Si02
#       6
#     8   8   8   8   8   8
#     4   9  18  32  48  69  92 122 172 210 249 296
#     4  10  22  33  49  65  99 139 179 212 238 274
#     4  10  20  29  46  76  98 129 167 201 245 301
#     4  11  23  36  49  68  98 139 182 217 242 278
#     4   9  17  32  50  69  93 123 161 211 254 302
#     4   9  19  29  49  71  92 123 164 204 257 302
#
# _framework density 16.64537
#
# number of rings (size 3 to 8) (size 9 to 14) (size 15 to 20)
#    0.000    2.333    1.667    2.000    9.333    2.000 
#    0.000    0.000    0.000    0.000    0.000    0.000 
#    0.000   10.667    0.000   12.000    1.333    0.000 
#
# Total GULP energy -133738.927728 kJ/mol
# GULP energy per Si atom -5572.455322 kJ/mol
# Density = 1.660748 g / cm^3
# Si number density = 16.645370 Si / 1000 Ang^3
#
#
#
# Elastic Constant Matrix: (Units=GPa)
#
#
# Indices 1 2 3 4 5 6 
#
# 1 75.2051 21.0949 23.5230 0.0000 21.0835 0.0000
# 2 21.0949 55.0872 30.1876 0.0000 -8.8764 0.0000
# 3 23.5230 30.1876 89.1603 0.0000 18.3281 0.0000
# 4 0.0000 0.0000 0.0000 7.1626 0.0000 -4.5726
# 5 21.0835 -8.8764 18.3281 0.0000 30.8837 0.0000
# 6 0.0000 0.0000 0.0000 -4.5726 0.0000 12.9817
#
#
#
# Elastic Compliance Matrix: (Units=1/GPa)
#
#
# Indices 1 2 3 4 5 6 
#
# 1 0.021838 -0.013271 0.002939 0.000000 -0.020467 0.000000
# 2 -0.013271 0.035479 -0.014202 0.000000 0.027685 0.000000
# 3 0.002939 -0.014202 0.018793 0.000000 -0.017241 0.000000
# 4 0.000000 0.000000 0.000000 0.180114 0.000000 0.063442
# 5 -0.020467 0.027685 -0.017241 0.000000 0.064540 0.000000
# 6 0.000000 0.000000 0.000000 0.063442 0.000000 0.099377
#
#
# Mechanical properties :
#
#
# Convention : Reuss Voigt Hill
#
# Bulk Modulus (GPa) = 36.98020 41.00706 38.99363
# Shear Modulus (GPa) = 10.45537 19.84877 15.15207
#
# Velocity S-wave (km/s) = 2.50896 3.45693 3.02037
# Velocity P-wave (km/s) = 5.53696 6.37362 5.96997
#
# Compressibility (1/GPa) = 0.02704150
#
# Stress axis : x y z
#
# Youngs Moduli (GPa) = 45.79190 28.18601 53.21154
#
# Poissons Ratio (x) = 0.37405 -0.15639
# Poissons Ratio (y) = 0.60770 0.75571
# Poissons Ratio (z) = -0.13458 0.40030
#
# Static dielectric constant tensor:
#      x y z
#    x 1.653510 0.000000 0.011030 
#    y 0.000000 1.525050 0.000000 
#    z 0.011030 0.000000 1.596520 
# 
# From -- ./inp_files/285940.got.cif
#   From: 2010.05.17/outbox.cif.g08.bks.cpg/sg12_143_cif.got.tgz:285940.got - 2010.06.03 13:09:07.
