data_PCOD9190327
_publ_section_title
;
Structure prediction by ZEFSAII (Michael W. Deem and Ramdas Pophale) SiO2 
 PCOD9190327
Probable space group: C 2/M
;
_chemical_formula_sum "Si O2"
_cell_formula_units_Z 56
_cell_length_a 23.236917
_cell_length_b 23.634190
_cell_length_c 15.783469
_cell_angle_alpha 90.000000
_cell_angle_beta 157.359178
_cell_angle_gamma 90.000000
_cell_volume 3336.793960
_symmetry_space_group_name_H-M "C 2/M"
_symmetry_group_IT_number 12
_symmetry_cell_setting 'monoclinic'
loop_
_space_group_symop_operation_xyz
x,y,z
-x,y,-z
-x,-y,-z
x,-y,z
1/2+x,1/2+y,z
1/2-x,1/2+y,-z
1/2-x,1/2-y,-z
1/2+x,1/2-y,z
loop_
_atom_site_type_symbol
_atom_site_label
_atom_site_fract_x
_atom_site_fract_y
_atom_site_fract_z
Si Si1 0.000000 0.366755 0.500000
Si Si2 0.500000 0.590338 0.000000
Si Si3 0.430331 0.322070 0.761338
Si Si4 0.842005 0.564555 0.433987
Si Si5 0.904036 0.781455 0.547623
Si Si6 0.908320 0.337028 0.651799
Si Si7 0.872518 0.283214 0.936156
Si Si8 0.653712 0.758978 0.785138
O O1 0.103905 0.404611 0.579389
O O2 0.098844 0.322680 0.690107
O O3 0.486029 0.627687 0.895847
O O4 0.337784 0.562448 0.794357
O O5 0.461930 0.319751 0.703884
O O6 0.252039 0.324819 0.524685
O O7 0.503911 0.266262 0.902854
O O8 0.897581 0.500000 0.511435
O O9 0.903289 0.605675 0.591350
O O10 0.920509 0.717132 0.605455
O O11 0.733418 0.793519 0.288250
O O12 0.011017 0.780449 0.611726
O O13 0.037862 0.334044 0.897901
O O14 0.757206 0.259478 0.848901
O O15 0.750000 0.750000 0.000000
#
# Coordination Sequence:
#
# PCOD9190327 Si02
#       8
#     4   4   8   8   8   8   8   8
#     4  12  21  36  52  80 108 138 173 220 256 308
#     4  10  21  38  54  76 106 138 175 222 274 308
#     4  10  20  30  49  71 103 138 170 204 255 319
#     4  11  22  37  55  75  99 137 186 227 267 305
#     4  11  19  29  47  76 102 138 168 195 250 321
#     4  10  20  33  46  72 103 135 167 214 254 301
#     4  11  18  30  46  73 108 142 163 202 252 319
#     4  12  19  30  49  71 110 142 164 197 255 315
#
# _framework density 16.782575999999999
#
# number of rings (size 3 to 8) (size 9 to 14) (size 15 to 20)
#    0.000    1.143    5.714    4.714    0.000    1.714 
#    0.000    0.000    0.000    0.000    0.000    9.000 
#    0.000    2.286    0.000    0.000    0.000    0.000 
#
# Total GULP energy -155944.184977 kJ/mol
# GULP energy per Si atom -5569.435178 kJ/mol
# Density = 1.674438 g / cm^3
# Si number density = 16.782576 Si / 1000 Ang^3
#
#
#
# Elastic Constant Matrix: (Units=GPa)
#
#
# Indices 1 2 3 4 5 6 
#
# 1 86.8458 36.9481 16.4935 0.0000 2.7811 0.0000
# 2 36.9481 78.4038 35.5094 0.0000 -5.3030 0.0000
# 3 16.4935 35.5094 110.1223 0.0000 -18.2035 0.0000
# 4 0.0000 0.0000 0.0000 3.4936 0.0000 4.9563
# 5 2.7811 -5.3030 -18.2035 0.0000 33.2139 0.0000
# 6 0.0000 0.0000 0.0000 4.9563 0.0000 10.1568
#
#
#
# Elastic Compliance Matrix: (Units=1/GPa)
#
#
# Indices 1 2 3 4 5 6 
#
# 1 0.014593 -0.006873 -0.000388 0.000000 -0.002532 0.000000
# 2 -0.006873 0.018175 -0.004680 0.000000 0.000912 0.000000
# 3 -0.000388 -0.004680 0.011579 0.000000 0.005631 0.000000
# 4 0.000000 0.000000 0.000000 0.930217 0.000000 -0.453927
# 5 -0.002532 0.000912 0.005631 0.000000 0.033552 0.000000
# 6 0.000000 0.000000 0.000000 -0.453927 0.000000 0.319963
#
#
# Mechanical properties :
#
#
# Convention : Reuss Voigt Hill
#
# Bulk Modulus (GPa) = 48.86450 50.36376 49.61413
# Shear Modulus (GPa) = 3.67976 21.80092 12.74034
#
# Velocity S-wave (km/s) = 1.48235 3.60810 2.75824
# Velocity P-wave (km/s) = 5.66650 6.88713 6.30642
#
# Compressibility (1/GPa) = 0.02046476
#
# Stress axis : x y z
#
# Youngs Moduli (GPa) = 68.52414 55.02156 86.36307
#
# Poissons Ratio (x) = 0.37814 0.03352
# Poissons Ratio (y) = 0.47094 0.40421
# Poissons Ratio (z) = 0.02660 0.25752
#
# Static dielectric constant tensor:
#      x y z
#    x 1.678320 0.000000 -0.050810 
#    y 0.000000 1.531920 0.000000 
#    z -0.050810 0.000000 1.756430 
# 
# From -- ./inp_files/294124.got.cif
#   From: 2010.05.17/outbox.cif.g08.bks.cpg/sg12_148_cif.got.tgz:294124.got - 2010.06.03 13:09:07.
