data_PCOD9190582
_publ_section_title
;
Structure prediction by ZEFSAII (Michael W. Deem and Ramdas Pophale) SiO2 
 PCOD9190582
Probable space group: C 2/M
;
_chemical_formula_sum "Si O2"
_cell_formula_units_Z 40
_cell_length_a 31.104339
_cell_length_b 7.272485
_cell_length_c 7.223268
_cell_angle_alpha 90.000000
_cell_angle_beta 88.368288
_cell_angle_gamma 90.000000
_cell_volume 1633.282845
_symmetry_space_group_name_H-M "C 2/M"
_symmetry_group_IT_number 12
_symmetry_cell_setting 'monoclinic'
loop_
_space_group_symop_operation_xyz
x,y,z
-x,y,-z
-x,-y,-z
x,-y,z
1/2+x,1/2+y,z
1/2-x,1/2+y,-z
1/2-x,1/2-y,-z
1/2+x,1/2-y,z
loop_
_atom_site_type_symbol
_atom_site_label
_atom_site_fract_x
_atom_site_fract_y
_atom_site_fract_z
Si Si1 0.127677 0.725194 0.321895
Si Si2 0.146956 0.276023 0.902024
Si Si3 0.297284 0.218693 0.417570
Si Si4 0.035106 0.719400 0.261062
Si Si5 0.444702 0.219223 0.181792
O O1 0.126399 0.500000 0.327720
O O2 0.165007 0.787505 0.453146
O O3 0.078170 0.785478 0.357816
O O4 0.141704 0.781426 0.113594
O O5 0.145602 0.500000 0.907776
O O6 0.189642 0.217050 0.789246
O O7 0.104183 0.216355 0.794487
O O8 0.250000 0.250000 0.500000
O O9 0.301951 0.000000 0.413194
O O10 0.032915 0.500000 0.295355
O O11 0.986348 0.790638 0.287034
O O12 0.045472 0.742491 0.039687
O O13 0.443683 0.000000 0.217277
#
# Coordination Sequence:
#
# PCOD9190582 Si02
#       5
#     8   8   8   8   8
#     4   8  14  25  40  58  82 110 136 164 202 246
#     4   8  14  25  40  58  82 110 136 164 202 246
#     4  10  20  32  45  61  81 107 140 176 211 244
#     4   7   9  15  30  52  78 107 132 153 187 238
#     4   7   9  15  30  52  78 107 132 153 187 238
#
# _framework density 24.490552999999998
#
# number of rings (size 3 to 8) (size 9 to 14) (size 15 to 20)
#    0.000    4.000    0.000    3.600    0.000    0.800 
#    0.000    1.000    0.000    6.000    0.000    0.000 
#    0.000    3.200    0.000   10.000    0.000    8.000 
#
# Total GULP energy -111569.250237 kJ/mol
# GULP energy per Si atom -5578.462512 kJ/mol
# Density = 2.443481 g / cm^3
# Si number density = 24.490553 Si / 1000 Ang^3
#
#
#
# Elastic Constant Matrix: (Units=GPa)
#
#
# Indices 1 2 3 4 5 6 
#
# 1 116.7864 0.6122 47.9542 0.0000 -25.1654 0.0000
# 2 0.6122 99.1798 -1.6802 0.0000 0.9462 0.0000
# 3 47.9542 -1.6802 78.4195 0.0000 -18.5187 0.0000
# 4 0.0000 0.0000 0.0000 527.0477 0.0000 776.6898
# 5 -25.1654 0.9462 -18.5187 0.0000 46.3573 0.0000
# 6 0.0000 0.0000 0.0000 776.6898 0.0000 1135.8548
#
#
#
# Elastic Compliance Matrix: (Units=1/GPa)
#
#
# Indices 1 2 3 4 5 6 
#
# 1 0.012068 -0.000222 -0.006444 0.000000 0.003981 0.000000
# 2 -0.000222 0.010091 0.000303 0.000000 -0.000205 0.000000
# 3 -0.006444 0.000303 0.017525 0.000000 0.003496 0.000000
# 4 0.000000 0.000000 0.000000 -0.247069 0.000000 0.168944
# 5 0.003981 -0.000205 0.003496 0.000000 0.025134 0.000000
# 6 0.000000 0.000000 0.000000 0.168944 0.000000 -0.114642
#
#
# Mechanical properties :
#
#
# Convention : Reuss Voigt Hill
#
# Bulk Modulus (GPa) = 37.09371 43.12867 40.11119
# Shear Modulus (GPa) = -18.16972 358.35191 170.09110
#
# Velocity S-wave (km/s) = -2.72675 12.10951 8.34281
# Velocity P-wave (km/s) = 2.29465 14.60030 10.45070
#
# Compressibility (1/GPa) = 0.02695875
#
# Stress axis : x y z
#
# Youngs Moduli (GPa) = 82.86551 99.09658 57.06231
#
# Poissons Ratio (x) = 0.02196 0.36771
# Poissons Ratio (y) = 0.01837 -0.01731
# Poissons Ratio (z) = 0.53399 -0.03006
#
# Static dielectric constant tensor:
#      x y z
#    x 1.944780 0.000000 -0.016290 
#    y 0.000000 2.095250 0.000000 
#    z -0.016290 0.000000 1.980520 
# 
# From -- ./inp_files/41083.got.cif
#   From: 2010.05.17/outbox.cif.g08.bks.cpg/sg12_21_cif.got.tgz:41083.got - 2010.06.03 13:09:07.
