data_PCOD9190052
_publ_section_title
;
Structure prediction by ZEFSAII (Michael W. Deem and Ramdas Pophale) SiO2 
 PCOD9190052
Probable space group: C 2/M
;
_chemical_formula_sum "Si O2"
_cell_formula_units_Z 48
_cell_length_a 11.890636
_cell_length_b 23.595779
_cell_length_c 9.345216
_cell_angle_alpha 90.000000
_cell_angle_beta 109.584999
_cell_angle_gamma 90.000000
_cell_volume 2470.282433
_symmetry_space_group_name_H-M "C 2/M"
_symmetry_group_IT_number 12
_symmetry_cell_setting 'monoclinic'
loop_
_space_group_symop_operation_xyz
x,y,z
-x,y,-z
-x,-y,-z
x,-y,z
1/2+x,1/2+y,z
1/2-x,1/2+y,-z
1/2-x,1/2-y,-z
1/2+x,1/2-y,z
loop_
_atom_site_type_symbol
_atom_site_label
_atom_site_fract_x
_atom_site_fract_y
_atom_site_fract_z
Si Si1 0.029808 0.566850 0.674490
Si Si2 0.257454 0.358801 0.799004
Si Si3 0.560526 0.768733 0.678166
Si Si4 0.028661 0.934509 0.183277
Si Si5 0.841643 0.154752 0.155876
Si Si6 0.582442 0.852503 0.175705
O O1 0.038703 0.500000 0.678760
O O2 0.153671 0.594609 0.776632
O O3 0.000000 0.586208 0.500000
O O4 0.931201 0.589817 0.740597
O O5 0.183898 0.304589 0.711144
O O6 0.358902 0.391696 0.753079
O O7 0.312932 0.341336 0.974653
O O8 0.500000 0.761115 0.500000
O O9 0.585230 0.709185 0.763259
O O10 0.474072 0.805216 0.744275
O O11 0.916693 0.902975 0.207846
O O12 0.049161 0.000000 0.236472
O O13 0.000000 0.936290 0.000000
O O14 0.717116 0.156288 0.185924
O O15 0.500000 0.854579 0.000000
#
# Coordination Sequence:
#
# PCOD9190052 Si02
#       6
#     8   8   8   8   8   8
#     4  10  21  39  63  92 127 167 205 251 314 377
#     4  10  19  39  65  91 121 167 211 257 302 378
#     4  11  25  42  62  92 125 168 207 258 323 388
#     4   9  20  37  61  92 124 162 206 251 307 372
#     4  11  23  39  62  93 125 162 206 268 314 367
#     4  11  22  39  63  94 123 156 211 267 312 362
#
# _framework density 19.430975
#
# number of rings (size 3 to 8) (size 9 to 14) (size 15 to 20)
#    0.000    1.667    3.333    3.000    2.333    3.000 
#    3.000    0.000    0.000    0.500    0.000    0.000 
#    0.000    0.000    0.000    0.000    0.000    0.000 
#
# Total GULP energy -133964.611406 kJ/mol
# GULP energy per Si atom -5581.858809 kJ/mol
# Density = 1.938675 g / cm^3
# Si number density = 19.430975 Si / 1000 Ang^3
#
#
#
# Elastic Constant Matrix: (Units=GPa)
#
#
# Indices 1 2 3 4 5 6 
#
# 1 99.2584 39.0315 24.7155 0.0000 2.8614 0.0000
# 2 39.0315 118.6759 57.9197 0.0000 7.8008 0.0000
# 3 24.7155 57.9197 106.9483 0.0000 3.5871 0.0000
# 4 0.0000 0.0000 0.0000 -302.4730 0.0000 -403.2269
# 5 2.8614 7.8008 3.5871 0.0000 16.3004 0.0000
# 6 0.0000 0.0000 0.0000 -403.2269 0.0000 -476.4897
#
#
#
# Elastic Compliance Matrix: (Units=1/GPa)
#
#
# Indices 1 2 3 4 5 6 
#
# 1 0.011627 -0.003400 -0.000838 0.000000 -0.000230 0.000000
# 2 -0.003400 0.012733 -0.005970 0.000000 -0.004183 0.000000
# 3 -0.000838 -0.005970 0.012771 0.000000 0.000194 0.000000
# 4 0.000000 0.000000 0.000000 0.025803 0.000000 -0.021835
# 5 -0.000230 -0.004183 0.000194 0.000000 0.063348 0.000000
# 6 0.000000 0.000000 0.000000 -0.021835 0.000000 0.016379
#
#
# Mechanical properties :
#
#
# Convention : Reuss Voigt Hill
#
# Bulk Modulus (GPa) = 59.82611 63.13513 61.48062
# Shear Modulus (GPa) = 29.64765 -138.98476 -54.66855
#
# Velocity S-wave (km/s) = 3.91038 -8.46656 -5.30997
# Velocity P-wave (km/s) = 7.15849 7.93816 2.42595
#
# Compressibility (1/GPa) = 0.01671511
#
# Stress axis : x y z
#
# Youngs Moduli (GPa) = 86.00705 78.53585 78.30544
#
# Poissons Ratio (x) = 0.26702 0.06562
# Poissons Ratio (y) = 0.29242 0.46747
# Poissons Ratio (z) = 0.07207 0.46884
#
# Static dielectric constant tensor:
#      x y z
#    x 1.690480 0.000000 0.008460 
#    y 0.000000 1.681460 0.000000 
#    z 0.008460 0.000000 1.630870 
# 
# From -- ./inp_files/51439.got.cif
#   From: 2010.05.17/outbox.cif.g08.bks.cpg/sg12_26_cif.got.tgz:51439.got - 2010.06.03 13:09:07.
