data_PCOD9190822
_publ_section_title
;
Structure prediction by ZEFSAII (Michael W. Deem and Ramdas Pophale) SiO2 
 PCOD9190822
Probable space group: C 2/M
;
_chemical_formula_sum "Si O2"
_cell_formula_units_Z 64
_cell_length_a 23.589373
_cell_length_b 7.473721
_cell_length_c 20.693809
_cell_angle_alpha 90.000000
_cell_angle_beta 53.886919
_cell_angle_gamma 90.000000
_cell_volume 2947.320183
_symmetry_space_group_name_H-M "C 2/M"
_symmetry_group_IT_number 12
_symmetry_cell_setting 'monoclinic'
loop_
_space_group_symop_operation_xyz
x,y,z
-x,y,-z
-x,-y,-z
x,-y,z
1/2+x,1/2+y,z
1/2-x,1/2+y,-z
1/2-x,1/2-y,-z
1/2+x,1/2-y,z
loop_
_atom_site_type_symbol
_atom_site_label
_atom_site_fract_x
_atom_site_fract_y
_atom_site_fract_z
Si Si1 0.491317 0.785883 0.170006
Si Si2 0.200097 0.218686 0.272931
Si Si3 0.784050 0.217496 0.883967
Si Si4 0.549714 0.718991 0.408255
Si Si5 0.663164 0.793839 0.749000
Si Si6 0.183552 0.212666 0.589056
Si Si7 0.028773 0.214895 0.667031
Si Si8 0.139299 0.706990 0.036054
O O1 0.415439 0.714701 0.198329
O O2 0.496455 0.758902 0.243842
O O3 0.561300 0.713850 0.088808
O O4 0.490302 0.000000 0.161176
O O5 0.192408 0.268165 0.203143
O O6 0.130762 0.274934 0.358054
O O7 0.273728 0.285291 0.251730
O O8 0.201980 0.000000 0.274198
O O9 0.832743 0.285276 0.908975
O O10 0.784926 0.000000 0.887801
O O11 0.704332 0.281154 0.951292
O O12 0.500000 0.777173 0.500000
O O13 0.549434 0.500000 0.408854
O O14 0.517886 0.779189 0.361016
O O15 0.687839 0.792046 0.657835
O O16 0.655636 0.000000 0.775227
O O17 0.250000 0.250000 0.500000
O O18 0.109797 0.275636 0.608122
O O19 0.178080 0.000000 0.601370
O O20 0.028323 0.000000 0.662875
O O21 0.132783 0.500000 0.020614
#
# Coordination Sequence:
#
# PCOD9190822 Si02
#       8
#     8   8   8   8   8   8   8   8
#     4   9  17  30  47  68  94 124 152 187 236 283
#     4   9  17  29  47  68  94 125 157 194 237 281
#     4   9  17  30  48  72  96 123 160 198 234 279
#     4   9  17  27  43  68  92 114 147 194 238 271
#     4   9  18  32  49  68  92 125 160 191 233 285
#     4  10  20  32  49  71  93 120 157 199 240 278
#     4   9  18  31  48  70  91 116 156 197 232 273
#     4   9  17  29  47  71  99 125 154 194 239 283
#
# _framework density 21.714641
#
# number of rings (size 3 to 8) (size 9 to 14) (size 15 to 20)
#    0.000    2.875    0.000    1.125    1.750    2.000 
#    0.000    1.250    0.000    4.875    0.000    0.000 
#    0.000    8.000    0.000    0.000    0.000    0.000 
#
# Total GULP energy -178554.161787 kJ/mol
# GULP energy per Si atom -5579.817556 kJ/mol
# Density = 2.166522 g / cm^3
# Si number density = 21.714641 Si / 1000 Ang^3
#
#
#
# Elastic Constant Matrix: (Units=GPa)
#
#
# Indices 1 2 3 4 5 6 
#
# 1 63.2954 -1.9753 28.4990 0.0003 -13.1580 0.0001
# 2 -1.9753 63.3749 -4.5992 -0.0176 -1.0303 0.0003
# 3 28.4990 -4.5992 97.8176 0.0020 -35.6791 -0.0005
# 4 0.0003 -0.0176 0.0020 5.5991 0.0016 7.1666
# 5 -13.1580 -1.0303 -35.6791 0.0016 30.3628 -0.0010
# 6 0.0001 0.0003 -0.0005 7.1666 -0.0010 4.7492
#
#
#
# Elastic Compliance Matrix: (Units=1/GPa)
#
#
# Indices 1 2 3 4 5 6 
#
# 1 0.018337 0.000312 -0.004245 -0.000001 0.002969 0.000001
# 2 0.000312 0.015945 0.001585 -0.000053 0.002538 0.000079
# 3 -0.004245 0.001585 0.019047 0.000017 0.020596 -0.000019
# 4 -0.000001 -0.000053 0.000017 -0.191735 0.000037 0.289334
# 5 0.002969 0.002538 0.020596 0.000037 0.058510 -0.000042
# 6 0.000001 0.000079 -0.000019 0.289334 -0.000042 -0.226050
#
#
# Mechanical properties :
#
#
# Convention : Reuss Voigt Hill
#
# Bulk Modulus (GPa) = 20.56249 29.81521 25.18885
# Shear Modulus (GPa) = -17.54147 21.64645 2.05249
#
# Velocity S-wave (km/s) = -2.84530 3.16073 0.97327
# Velocity P-wave (km/s) = 1.14206 5.20390 3.59001
#
# Compressibility (1/GPa) = 0.04863224
#
# Stress axis : x y z
#
# Youngs Moduli (GPa) = 54.53407 62.71525 52.50245
#
# Poissons Ratio (x) = -0.01955 0.22287
# Poissons Ratio (y) = -0.01700 -0.08320
# Poissons Ratio (z) = 0.23149 -0.09939
#
# Static dielectric constant tensor:
#      x y z
#    x 1.791210 0.000000 -0.044830 
#    y 0.000000 1.833270 0.000000 
#    z -0.044830 0.000000 1.762750 
# 
# From -- ./inp_files/324080.got.cif
#   From: 2010.05.17/outbox.cif.g08.bks.cpg/sg12_163_cif.got.tgz:324080.got - 2010.06.03 13:09:07.
