data_PCOD9190098
_publ_section_title
;
Structure prediction by ZEFSAII (Michael W. Deem and Ramdas Pophale) SiO2 
 PCOD9190098
Probable space group: C 2/M
;
_chemical_formula_sum "Si O2"
_cell_formula_units_Z 56
_cell_length_a 19.900609
_cell_length_b 21.500976
_cell_length_c 16.681631
_cell_angle_alpha 90.000000
_cell_angle_beta 21.688082
_cell_angle_gamma 90.000000
_cell_volume 2637.790806
_symmetry_space_group_name_H-M "C 2/M"
_symmetry_group_IT_number 12
_symmetry_cell_setting 'monoclinic'
loop_
_space_group_symop_operation_xyz
x,y,z
-x,y,-z
-x,-y,-z
x,-y,z
1/2+x,1/2+y,z
1/2-x,1/2+y,-z
1/2-x,1/2-y,-z
1/2+x,1/2-y,z
loop_
_atom_site_type_symbol
_atom_site_label
_atom_site_fract_x
_atom_site_fract_y
_atom_site_fract_z
Si Si1 0.216112 0.070744 0.281911
Si Si2 0.839548 0.347075 0.296399
Si Si3 0.385085 0.872418 0.425124
Si Si4 0.620460 0.926983 0.293629
Si Si5 0.443698 0.261398 0.437122
Si Si6 0.287486 0.201118 0.145742
Si Si7 0.510415 0.427625 0.892195
O O1 0.288952 0.100119 0.285942
O O2 0.278784 0.125764 0.154639
O O3 0.000000 0.069416 0.500000
O O4 0.281189 0.000000 0.201169
O O5 0.902707 0.373467 0.310840
O O6 0.649086 0.310895 0.519029
O O7 0.993999 0.295037 0.100707
O O8 0.516881 0.918970 0.326075
O O9 0.425894 0.805737 0.418792
O O10 0.181575 0.890468 0.673152
O O11 0.500000 0.899913 0.500000
O O12 0.645563 0.000000 0.284711
O O13 0.821525 0.900078 0.069956
O O14 0.318396 0.273489 0.656863
O O15 0.653753 0.274408 0.225313
O O16 0.532068 0.500000 0.843517
O O17 0.500000 0.426621 0.000000
#
# Coordination Sequence:
#
# PCOD9190098 Si02
#       7
#     8   8   8   8   8   8   8
#     4  10  19  39  69  92 117 164 217 261 312 387
#     4  11  24  41  60  93 133 164 196 273 335 375
#     4  12  25  37  64  95 129 164 214 261 322 387
#     4  10  21  40  62  88 126 165 211 265 309 365
#     4  10  22  41  61  89 122 167 216 260 306 381
#     4  10  21  41  66  88 124 164 212 262 316 375
#     4  10  21  39  63  87 121 169 214 259 310 370
#
# _framework density 21.229887000000002
#
# number of rings (size 3 to 8) (size 9 to 14) (size 15 to 20)
#    0.000    1.571    4.286    2.571    2.000    6.286 
#    0.000    0.000    0.000    0.000    0.000    0.000 
#    0.000    0.000    0.000    0.000    0.000    0.000 
#
# Total GULP energy -156038.821383 kJ/mol
# GULP energy per Si atom -5572.815049 kJ/mol
# Density = 2.118157 g / cm^3
# Si number density = 21.229887 Si / 1000 Ang^3
#
#
#
# Elastic Constant Matrix: (Units=GPa)
#
#
# Indices 1 2 3 4 5 6 
#
# 1 118.4663 13.1066 64.5192 -0.0101 -25.6659 0.0182
# 2 13.1066 69.2146 25.1507 -0.0113 -3.9850 0.0417
# 3 64.5192 25.1507 93.9309 0.0055 -35.2240 0.0269
# 4 -0.0101 -0.0113 0.0055 18.4342 0.0026 -10.2857
# 5 -25.6659 -3.9850 -35.2240 0.0026 37.0894 -0.0040
# 6 0.0182 0.0417 0.0269 -10.2857 -0.0040 12.3718
#
#
#
# Elastic Compliance Matrix: (Units=1/GPa)
#
#
# Indices 1 2 3 4 5 6 
#
# 1 0.013547 0.000848 -0.009292 0.000017 0.000641 0.000012
# 2 0.000848 0.016383 -0.006351 -0.000021 -0.003684 -0.000062
# 3 -0.009292 -0.006351 0.024946 -0.000049 0.016579 -0.000055
# 4 0.000017 -0.000021 -0.000049 0.101186 -0.000035 0.084124
# 5 0.000641 -0.003684 0.016579 -0.000035 0.042755 -0.000040
# 6 0.000012 -0.000062 -0.000055 0.084124 -0.000040 0.150769
#
#
# Mechanical properties :
#
#
# Convention : Reuss Voigt Hill
#
# Bulk Modulus (GPa) = 39.54600 54.12941 46.83771
# Shear Modulus (GPa) = 12.89982 25.50143 19.20062
#
# Velocity S-wave (km/s) = 2.46768 3.46960 3.01061
# Velocity P-wave (km/s) = 5.17564 6.45004 5.84766
#
# Compressibility (1/GPa) = 0.02528701
#
# Stress axis : x y z
#
# Youngs Moduli (GPa) = 73.81876 61.03960 40.08681
#
# Poissons Ratio (x) = -0.05176 0.37247
# Poissons Ratio (y) = -0.06260 0.25458
# Poissons Ratio (z) = 0.68589 0.38764
#
# Static dielectric constant tensor:
#      x y z
#    x 1.808090 0.000000 -0.034470 
#    y 0.000000 1.780880 -0.000030 
#    z -0.034470 -0.000030 1.892000 
# 
# From -- ./inp_files/286013.got.cif
#   From: 2010.05.17/outbox.cif.g08.bks.cpg/sg12_144_cif.got.tgz:286013.got - 2010.06.03 13:09:07.
