data_PCOD9190352
_publ_section_title
;
Structure prediction by ZEFSAII (Michael W. Deem and Ramdas Pophale) SiO2 
 PCOD9190352
Probable space group: C 2/M
;
_chemical_formula_sum "Si O2"
_cell_formula_units_Z 36
_cell_length_a 10.147288
_cell_length_b 20.795787
_cell_length_c 8.456398
_cell_angle_alpha 90.000000
_cell_angle_beta 53.306096
_cell_angle_gamma 90.000000
_cell_volume 1430.863018
_symmetry_space_group_name_H-M "C 2/M"
_symmetry_group_IT_number 12
_symmetry_cell_setting 'monoclinic'
loop_
_space_group_symop_operation_xyz
x,y,z
-x,y,-z
-x,-y,-z
x,-y,z
1/2+x,1/2+y,z
1/2-x,1/2+y,-z
1/2-x,1/2-y,-z
1/2+x,1/2-y,z
loop_
_atom_site_type_symbol
_atom_site_label
_atom_site_fract_x
_atom_site_fract_y
_atom_site_fract_z
Si Si1 0.393497 0.000000 0.408939
Si Si2 0.638816 0.779238 0.271473
Si Si3 0.684990 0.500000 0.815850
Si Si4 0.000000 0.838301 0.000000
Si Si5 0.614724 0.901327 0.117465
Si Si6 0.596404 0.373802 0.273871
O O1 0.500000 0.000000 0.500000
O O2 0.449044 0.060761 0.268500
O O3 0.213141 0.000000 0.608196
O O4 0.500000 0.798771 0.500000
O O5 0.589733 0.825919 0.162287
O O6 0.624843 0.703118 0.269884
O O7 0.831715 0.797456 0.148125
O O8 0.772778 0.436686 0.828270
O O9 0.500000 0.500000 0.000000
O O10 0.988789 0.875367 0.838835
O O11 0.729239 0.908205 0.883005
O O12 0.500000 0.394856 0.500000
#
# Coordination Sequence:
#
# PCOD9190352 Si02
#       6
#     4   8   4   4   8   8
#     4   8  16  32  52  81 111 148 194 239 299 353
#     4  10  20  35  58  87 124 159 196 248 296 356
#     4  10  20  30  56  89 113 142 203 250 285 350
#     4  10  20  36  58  81 118 161 204 236 298 346
#     4   9  17  34  53  80 116 152 193 243 298 348
#     4  10  22  37  58  90 125 155 201 244 291 362
#
# _framework density 25.159642000000002
#
# number of rings (size 3 to 8) (size 9 to 14) (size 15 to 20)
#    0.000    2.667    0.000    4.667    6.222    3.556 
#    0.000    2.222    0.000    0.000    0.000    1.556 
#    0.000    0.000    0.000    0.000    0.000    0.000 
#
# Total GULP energy -100282.469152 kJ/mol
# GULP energy per Si atom -5571.248286 kJ/mol
# Density = 2.510238 g / cm^3
# Si number density = 25.159642 Si / 1000 Ang^3
#
#
#
# Elastic Constant Matrix: (Units=GPa)
#
#
# Indices 1 2 3 4 5 6 
#
# 1 87.6644 10.2583 59.6000 0.0000 16.3034 0.0000
# 2 10.2583 59.5412 36.9744 0.0000 -5.9522 0.0000
# 3 59.6000 36.9744 322.0331 0.0000 -24.4418 0.0000
# 4 0.0000 0.0000 0.0000 52.7483 0.0000 -8.3620
# 5 16.3034 -5.9522 -24.4418 0.0000 39.2380 0.0000
# 6 0.0000 0.0000 0.0000 -8.3620 0.0000 15.0513
#
#
#
# Elastic Compliance Matrix: (Units=1/GPa)
#
#
# Indices 1 2 3 4 5 6 
#
# 1 0.015493 -0.001455 -0.003365 0.000000 -0.008754 0.000000
# 2 -0.001455 0.018308 -0.001654 0.000000 0.002351 0.000000
# 3 -0.003365 -0.001654 0.004204 0.000000 0.003766 0.000000
# 4 0.000000 0.000000 0.000000 0.020789 0.000000 0.011550
# 5 -0.008754 0.002351 0.003766 0.000000 0.031825 0.000000
# 6 0.000000 0.000000 0.000000 0.011550 0.000000 0.072856
#
#
# Mechanical properties :
#
#
# Convention : Reuss Voigt Hill
#
# Bulk Modulus (GPa) = 39.90920 75.87825 57.89372
# Shear Modulus (GPa) = 27.05993 45.56793 36.31393
#
# Velocity S-wave (km/s) = 3.28308 4.26038 3.80325
# Velocity P-wave (km/s) = 5.50167 7.37735 6.50744
#
# Compressibility (1/GPa) = 0.02505688
#
# Stress axis : x y z
#
# Youngs Moduli (GPa) = 64.54545 54.62058 237.88337
#
# Poissons Ratio (x) = 0.07947 0.80041
# Poissons Ratio (y) = 0.09391 0.39354
# Poissons Ratio (z) = 0.21718 0.09036
#
# Static dielectric constant tensor:
#      x y z
#    x 2.170500 0.000000 -0.052040 
#    y 0.000000 2.025790 0.000000 
#    z -0.052040 0.000000 2.033620 
# 
# From -- ./inp_files/50367.got.cif
#   From: 2010.05.17/outbox.cif.g08.bks.cpg/sg12_26_cif.got.tgz:50367.got - 2010.06.03 13:09:07.
