data_PCOD9190383
_publ_section_title
;
Structure prediction by ZEFSAII (Michael W. Deem and Ramdas Pophale) SiO2 
 PCOD9190383
Probable space group: C 2/M
;
_chemical_formula_sum "Si O2"
_cell_formula_units_Z 64
_cell_length_a 20.611164
_cell_length_b 7.390847
_cell_length_c 21.625056
_cell_angle_alpha 90.000000
_cell_angle_beta 44.090945
_cell_angle_gamma 90.000000
_cell_volume 2292.123197
_symmetry_space_group_name_H-M "C 2/M"
_symmetry_group_IT_number 12
_symmetry_cell_setting 'monoclinic'
loop_
_space_group_symop_operation_xyz
x,y,z
-x,y,-z
-x,-y,-z
x,-y,z
1/2+x,1/2+y,z
1/2-x,1/2+y,-z
1/2-x,1/2-y,-z
1/2+x,1/2-y,z
loop_
_atom_site_type_symbol
_atom_site_label
_atom_site_fract_x
_atom_site_fract_y
_atom_site_fract_z
Si Si1 0.436864 0.278631 0.296488
Si Si2 0.678547 0.781030 0.801039
Si Si3 0.375295 0.720733 0.904379
Si Si4 0.634379 0.286540 0.394165
Si Si5 0.471131 0.715521 0.646456
Si Si6 0.737853 0.212574 0.436081
Si Si7 0.475589 0.710321 0.950755
Si Si8 0.775399 0.215444 0.855472
O O1 0.435019 0.500000 0.298335
O O2 0.527783 0.228216 0.196006
O O3 0.454538 0.213514 0.354999
O O4 0.336546 0.213252 0.342328
O O5 0.767344 0.717458 0.700915
O O6 0.577771 0.715686 0.848869
O O7 0.699102 0.719648 0.858148
O O8 0.678324 0.000000 0.800558
O O9 0.371559 0.500000 0.907949
O O10 0.396391 0.786264 0.959598
O O11 0.295502 0.786983 0.911268
O O12 0.630484 0.500000 0.384357
O O13 0.552452 0.212875 0.406057
O O14 0.649079 0.275536 0.457546
O O15 0.488355 0.500000 0.631019
O O16 0.372721 0.739640 0.750963
O O17 0.750000 0.250000 0.500000
O O18 0.736397 0.000000 0.429070
O O19 0.453416 0.500000 0.975010
O O20 0.500000 0.797552 0.000000
O O21 0.764395 0.000000 0.868464
#
# Coordination Sequence:
#
# PCOD9190383 Si02
#       8
#     8   8   8   8   8   8   8   8
#     4   8  14  26  47  71  88 111 154 199 231 265
#     4   9  17  30  50  73  93 116 149 191 238 284
#     4   8  13  25  46  68  89 115 152 195 232 271
#     4   9  17  31  52  75  95 115 145 190 241 286
#     4   7  11  23  45  71  92 108 140 193 237 269
#     4  11  22  34  48  68  97 130 161 192 227 270
#     4  10  20  31  43  64  96 131 163 195 232 273
#     4   7  11  22  43  69  90 110 144 190 234 274
#
# _framework density 27.921710000000001
#
# number of rings (size 3 to 8) (size 9 to 14) (size 15 to 20)
#    0.000    3.375    0.000    4.125    0.000    1.750 
#    0.000    1.250    0.000    6.000    0.000    5.250 
#    0.000    0.000    0.000    0.000    0.000    0.000 
#
# Total GULP energy -178869.901077 kJ/mol
# GULP energy per Si atom -5589.684409 kJ/mol
# Density = 2.785816 g / cm^3
# Si number density = 27.921710 Si / 1000 Ang^3
#
#
#
# Elastic Constant Matrix: (Units=GPa)
#
#
# Indices 1 2 3 4 5 6 
#
# 1 283.0302 4.6945 41.5926 -0.0001 27.3418 0.0008
# 2 4.6945 109.5085 -1.0542 -0.0007 -0.6286 0.0030
# 3 41.5926 -1.0542 84.2411 -0.0001 29.3248 0.0004
# 4 -0.0001 -0.0007 -0.0001 7.6188 0.0000 -2.4867
# 5 27.3418 -0.6286 29.3248 0.0000 65.2339 -0.0001
# 6 0.0008 0.0030 0.0004 -2.4867 -0.0001 5.8702
#
#
#
# Elastic Compliance Matrix: (Units=1/GPa)
#
#
# Indices 1 2 3 4 5 6 
#
# 1 0.003858 -0.000186 -0.001593 0.000000 -0.000903 0.000000
# 2 -0.000186 0.009142 0.000176 -0.000001 0.000087 -0.000005
# 3 -0.001593 0.000176 0.014732 0.000000 -0.005953 -0.000001
# 4 0.000000 -0.000001 0.000000 0.152313 0.000000 0.064522
# 5 -0.000903 0.000087 -0.005953 0.000000 0.018385 0.000001
# 6 0.000000 -0.000005 -0.000001 0.064522 0.000001 0.197685
#
#
# Mechanical properties :
#
#
# Convention : Reuss Voigt Hill
#
# Bulk Modulus (GPa) = 40.77365 63.02730 51.90047
# Shear Modulus (GPa) = 12.27011 44.51437 28.39224
#
# Velocity S-wave (km/s) = 2.09857 3.99715 3.19227
# Velocity P-wave (km/s) = 4.52842 6.62758 5.67588
#
# Compressibility (1/GPa) = 0.02452564
#
# Stress axis : x y z
#
# Youngs Moduli (GPa) = 259.23335 109.38681 67.88141
#
# Poissons Ratio (x) = 0.02033 0.10811
# Poissons Ratio (y) = 0.04819 -0.01194
# Poissons Ratio (z) = 0.41288 -0.01924
#
# Static dielectric constant tensor:
#      x y z
#    x 2.003150 0.000000 -0.001130 
#    y 0.000000 2.034770 0.000000 
#    z -0.001130 0.000000 2.332140 
# 
# From -- ./inp_files/319907.got.cif
#   From: 2010.05.17/outbox.cif.g08.bks.cpg/sg12_160_cif.got.tgz:319907.got - 2010.06.03 13:09:07.
