data_PCOD9190756
_publ_section_title
;
Structure prediction by ZEFSAII (Michael W. Deem and Ramdas Pophale) SiO2 
 PCOD9190756
Probable space group: C 2/M
;
_chemical_formula_sum "Si O2"
_cell_formula_units_Z 64
_cell_length_a 15.111401
_cell_length_b 7.744385
_cell_length_c 31.302071
_cell_angle_alpha 90.000000
_cell_angle_beta 119.281015
_cell_angle_gamma 90.000000
_cell_volume 3195.188214
_symmetry_space_group_name_H-M "C 2/M"
_symmetry_group_IT_number 12
_symmetry_cell_setting 'monoclinic'
loop_
_space_group_symop_operation_xyz
x,y,z
-x,y,-z
-x,-y,-z
x,-y,z
1/2+x,1/2+y,z
1/2-x,1/2+y,-z
1/2-x,1/2-y,-z
1/2+x,1/2-y,z
loop_
_atom_site_type_symbol
_atom_site_label
_atom_site_fract_x
_atom_site_fract_y
_atom_site_fract_z
Si Si1 0.104071 0.208777 0.237371
Si Si2 0.830881 0.201165 0.313544
Si Si3 0.785811 0.789099 0.130589
Si Si4 0.146986 0.707651 0.500511
Si Si5 0.402992 0.711166 0.240387
Si Si6 0.513106 0.291211 0.872715
Si Si7 0.934760 0.296779 0.945616
Si Si8 0.424743 0.795255 0.425417
O O1 0.211143 0.276328 0.278281
O O2 0.011467 0.260497 0.246409
O O3 0.071739 0.264265 0.181942
O O4 0.108098 0.000000 0.238312
O O5 0.882661 0.276685 0.283073
O O6 0.869559 0.269332 0.367690
O O7 0.855725 0.000000 0.319967
O O8 0.817731 0.733872 0.185897
O O9 0.878430 0.740660 0.121448
O O10 0.677718 0.723650 0.089016
O O11 0.782930 0.000000 0.130804
O O12 0.144922 0.500000 0.500484
O O13 0.250000 0.750000 0.500000
O O14 0.136774 0.770146 0.547431
O O15 0.041316 0.770242 0.453925
O O16 0.400464 0.500000 0.240432
O O17 0.510774 0.500000 0.874047
O O18 0.492982 0.220975 0.914703
O O19 0.920211 0.500000 0.951616
O O20 0.000000 0.221856 0.000000
O O21 0.432691 0.000000 0.433589
#
# Coordination Sequence:
#
# PCOD9190756 Si02
#       8
#     8   8   8   8   8   8   8   8
#     4   9  18  34  53  72  97 132 169 203 248 304
#     4  11  21  32  51  80 108 134 167 209 249 289
#     4   8  15  31  51  68  93 130 165 198 243 300
#     4   9  19  37  60  79 100 136 178 216 256 299
#     4   8  16  31  50  70  95 131 169 199 239 299
#     4   9  18  33  53  72  92 127 171 207 243 295
#     4  10  20  32  48  72 100 129 161 202 256 307
#     4   9  20  38  54  74 107 143 172 203 254 310
#
# _framework density 20.030117000000001
#
# number of rings (size 3 to 8) (size 9 to 14) (size 15 to 20)
#    0.000    2.875    0.000    3.375    0.000    4.250 
#    0.000    6.875    0.000    2.250    0.000    0.000 
#    0.000    0.000    0.000    0.000    0.000    0.000 
#
# Total GULP energy -178474.209839 kJ/mol
# GULP energy per Si atom -5577.319057 kJ/mol
# Density = 1.998453 g / cm^3
# Si number density = 20.030117 Si / 1000 Ang^3
#
#
#
# Elastic Constant Matrix: (Units=GPa)
#
#
# Indices 1 2 3 4 5 6 
#
# 1 108.0361 -0.0359 74.6399 0.0000 -38.0784 0.0000
# 2 -0.0359 24.2265 3.3219 0.0000 7.2067 0.0000
# 3 74.6399 3.3219 153.6513 0.0000 -48.2164 0.0000
# 4 0.0000 0.0000 0.0000 8.7365 0.0000 -1.4854
# 5 -38.0784 7.2067 -48.2164 0.0000 -43.4977 0.0000
# 6 0.0000 0.0000 0.0000 -1.4854 0.0000 20.7950
#
#
#
# Elastic Compliance Matrix: (Units=1/GPa)
#
#
# Indices 1 2 3 4 5 6 
#
# 1 0.013352 0.001958 -0.007489 0.000000 -0.003062 0.000000
# 2 0.001958 0.039789 -0.000208 0.000000 0.005109 0.000000
# 3 -0.007489 -0.000208 0.009049 0.000000 -0.003510 0.000000
# 4 0.000000 0.000000 0.000000 0.115869 0.000000 0.008277
# 5 -0.003062 0.005109 -0.003510 0.000000 -0.015572 0.000000
# 6 0.000000 0.000000 0.000000 0.008277 0.000000 0.048680
#
#
# Mechanical properties :
#
#
# Convention : Reuss Voigt Hill
#
# Bulk Modulus (GPa) = 19.71964 49.08507 34.40235
# Shear Modulus (GPa) = 20.87257 11.07265 15.97261
#
# Velocity S-wave (km/s) = 3.23160 2.35372 2.82694
# Velocity P-wave (km/s) = 4.87757 5.65203 5.27902
#
# Compressibility (1/GPa) = 0.05071087
#
# Stress axis : x y z
#
# Youngs Moduli (GPa) = 74.89747 25.13272 110.50383
#
# Poissons Ratio (x) = -0.04920 0.82758
# Poissons Ratio (y) = -0.14662 0.02298
# Poissons Ratio (z) = 0.56092 0.00523
#
# Static dielectric constant tensor:
#      x y z
#    x 1.697910 0.000000 -0.004860 
#    y 0.000000 1.743560 0.000000 
#    z -0.004860 0.000000 1.699060 
# 
# From -- ./inp_files/375119.got.cif
#   From: 2010.05.17/outbox.cif.g08.bks.cpg/sg12_188_cif.got.tgz:375119.got - 2010.06.03 13:09:07.
