data_PCOD9190492
_publ_section_title
;
Structure prediction by ZEFSAII (Michael W. Deem and Ramdas Pophale) SiO2 
 PCOD9190492
Probable space group: C 2/M
;
_chemical_formula_sum "Si O2"
_cell_formula_units_Z 56
_cell_length_a 28.546754
_cell_length_b 10.910006
_cell_length_c 14.772996
_cell_angle_alpha 90.000000
_cell_angle_beta 141.652893
_cell_angle_gamma 90.000000
_cell_volume 2854.558332
_symmetry_space_group_name_H-M "C 2/M"
_symmetry_group_IT_number 12
_symmetry_cell_setting 'monoclinic'
loop_
_space_group_symop_operation_xyz
x,y,z
-x,y,-z
-x,-y,-z
x,-y,z
1/2+x,1/2+y,z
1/2-x,1/2+y,-z
1/2-x,1/2-y,-z
1/2+x,1/2-y,z
loop_
_atom_site_type_symbol
_atom_site_label
_atom_site_fract_x
_atom_site_fract_y
_atom_site_fract_z
Si Si1 0.466563 0.642666 0.102899
Si Si2 0.865954 0.853724 0.694206
Si Si3 0.314758 0.731308 0.808821
Si Si4 0.831261 0.143680 0.441328
Si Si5 0.146553 0.143456 0.793997
Si Si6 0.255268 0.867478 0.127275
Si Si7 0.513064 0.356984 0.384637
O O1 0.444018 0.500000 0.049228
O O2 0.543958 0.668010 0.166890
O O3 0.488119 0.649164 0.241285
O O4 0.399326 0.734178 0.976166
O O5 0.825607 0.802208 0.720893
O O6 0.838325 0.806028 0.554606
O O7 0.855279 0.000000 0.679274
O O8 0.253977 0.839989 0.720713
O O9 0.273441 0.636699 0.813504
O O10 0.901397 0.194322 0.487503
O O11 0.847748 0.000000 0.473141
O O12 0.195559 0.247395 0.819249
O O13 0.059509 0.186305 0.668974
O O14 0.151558 0.000000 0.768521
O O15 0.183295 0.139067 0.950571
O O16 0.292486 0.000000 0.165290
O O17 0.517341 0.500000 0.416230
#
# Coordination Sequence:
#
# PCOD9190492 Si02
#       7
#     8   8   8   8   8   8   8
#     4   9  16  28  50  79 101 121 161 216 264 300
#     4   9  18  32  51  74 101 132 168 211 257 306
#     4  12  19  28  49  77 107 132 164 211 261 315
#     4   9  20  34  48  72 104 139 174 210 252 303
#     4   9  17  33  56  78 101 134 176 218 263 313
#     4  10  20  31  49  81 112 134 164 216 274 317
#     4   8  14  31  55  73  96 129 171 218 257 297
#
# _framework density 19.617744999999999
#
# number of rings (size 3 to 8) (size 9 to 14) (size 15 to 20)
#    0.000    2.571    1.429    3.857    0.000    1.714 
#    0.000    0.714    0.000    7.714    0.000    8.000 
#    0.000    0.000    0.000    0.000    0.000    0.000 
#
# Total GULP energy -155880.164886 kJ/mol
# GULP energy per Si atom -5567.148746 kJ/mol
# Density = 1.957309 g / cm^3
# Si number density = 19.617745 Si / 1000 Ang^3
#
#
#
# Elastic Constant Matrix: (Units=GPa)
#
#
# Indices 1 2 3 4 5 6 
#
# 1 118.7643 33.0235 21.1655 0.0000 16.3142 0.0000
# 2 33.0235 42.4000 13.7286 0.0000 9.5476 0.0000
# 3 21.1655 13.7286 90.1852 0.0000 15.9087 0.0000
# 4 0.0000 0.0000 0.0000 21.7257 0.0000 7.3087
# 5 16.3142 9.5476 15.9087 0.0000 34.4878 0.0000
# 6 0.0000 0.0000 0.0000 7.3087 0.0000 18.2450
#
#
#
# Elastic Compliance Matrix: (Units=1/GPa)
#
#
# Indices 1 2 3 4 5 6 
#
# 1 0.011110 -0.007742 -0.000958 0.000000 -0.002671 0.000000
# 2 -0.007742 0.031230 -0.002240 0.000000 -0.003950 0.000000
# 3 -0.000958 -0.002240 0.012480 0.000000 -0.004684 0.000000
# 4 0.000000 0.000000 0.000000 0.053197 0.000000 -0.021310
# 5 -0.002671 -0.003950 -0.004684 0.000000 0.033513 0.000000
# 6 0.000000 0.000000 0.000000 -0.021310 0.000000 0.063346
#
#
# Mechanical properties :
#
#
# Convention : Reuss Voigt Hill
#
# Bulk Modulus (GPa) = 30.35802 43.02051 36.68926
# Shear Modulus (GPa) = 21.03164 27.12048 24.07606
#
# Velocity S-wave (km/s) = 3.27780 3.72216 3.50703
# Velocity P-wave (km/s) = 5.46202 6.36000 5.92804
#
# Compressibility (1/GPa) = 0.03294023
#
# Stress axis : x y z
#
# Youngs Moduli (GPa) = 90.00685 32.02099 80.12611
#
# Poissons Ratio (x) = 0.24790 0.07675
# Poissons Ratio (y) = 0.69682 0.17950
# Poissons Ratio (z) = 0.08621 0.07174
#
# Static dielectric constant tensor:
#      x y z
#    x 1.742250 0.000000 -0.028560 
#    y 0.000000 1.655120 0.000000 
#    z -0.028560 0.000000 1.756760 
# 
# From -- ./inp_files/245686.got.cif
#   From: 2010.05.17/outbox.cif.g08.bks.cpg/sg12_123_cif.got.tgz:245686.got - 2010.06.03 13:09:07.
