data_PCOD9190345
_publ_section_title
;
Structure prediction by ZEFSAII (Michael W. Deem and Ramdas Pophale) SiO2 
 PCOD9190345
Probable space group: C 2/M
;
_chemical_formula_sum "Si O2"
_cell_formula_units_Z 56
_cell_length_a 9.731849
_cell_length_b 18.267507
_cell_length_c 19.422416
_cell_angle_alpha 90.000000
_cell_angle_beta 60.281698
_cell_angle_gamma 90.000000
_cell_volume 2998.708979
_symmetry_space_group_name_H-M "C 2/M"
_symmetry_group_IT_number 12
_symmetry_cell_setting 'monoclinic'
loop_
_space_group_symop_operation_xyz
x,y,z
-x,y,-z
-x,-y,-z
x,-y,z
1/2+x,1/2+y,z
1/2-x,1/2+y,-z
1/2-x,1/2-y,-z
1/2+x,1/2-y,z
loop_
_atom_site_type_symbol
_atom_site_label
_atom_site_fract_x
_atom_site_fract_y
_atom_site_fract_z
Si Si1 0.688125 0.338957 0.447223
Si Si2 0.344806 0.703367 0.778877
Si Si3 0.315529 0.085279 0.833240
Si Si4 0.796771 0.166837 0.269266
Si Si5 0.813609 0.782260 0.054725
Si Si6 0.185834 0.669406 0.442211
Si Si7 0.690990 0.086267 0.721051
O O1 0.500000 0.338128 0.500000
O O2 0.745232 0.367312 0.506947
O O3 0.744515 0.254320 0.425386
O O4 0.749315 0.383528 0.367032
O O5 0.315661 0.766181 0.728269
O O6 0.524525 0.694775 0.760941
O O7 0.237561 0.729638 0.869428
O O8 0.281402 0.630188 0.758559
O O9 0.218827 0.109526 0.789039
O O10 0.260110 0.139361 0.907161
O O11 0.502147 0.098788 0.773618
O O12 0.292672 0.000000 0.853888
O O13 0.733234 0.136569 0.357356
O O14 0.750000 0.750000 0.000000
O O15 0.000000 0.788948 0.000000
O O16 0.000000 0.671169 0.500000
O O17 0.720023 0.000000 0.718962
#
# Coordination Sequence:
#
# PCOD9190345 Si02
#       7
#     8   8   8   8   8   8   8
#     4  10  20  33  51  80 114 150 196 242 293 336
#     4  11  22  38  60  89 116 149 198 238 291 347
#     4  10  23  41  61  87 118 158 194 232 292 351
#     4  11  21  36  62  84 118 156 195 251 280 344
#     4  11  22  39  64  91 115 147 184 238 290 348
#     4  10  20  30  53  82 112 148 192 248 292 332
#     4  11  22  39  60  81 119 162 198 241 288 346
#
# _framework density 18.674703999999998
#
# number of rings (size 3 to 8) (size 9 to 14) (size 15 to 20)
#    0.000    1.429    1.429    6.000    4.000    1.143 
#    0.000    1.429    0.000    5.143    0.000    0.000 
#    0.000    0.000    0.000    0.000    0.000    0.000 
#
# Total GULP energy -156384.324364 kJ/mol
# GULP energy per Si atom -5585.154442 kJ/mol
# Density = 1.863220 g / cm^3
# Si number density = 18.674704 Si / 1000 Ang^3
#
#
#
# Elastic Constant Matrix: (Units=GPa)
#
#
# Indices 1 2 3 4 5 6 
#
# 1 103.0730 49.3233 36.6718 0.0000 6.3798 0.0000
# 2 49.3233 99.1859 50.4851 0.0000 1.8046 0.0000
# 3 36.6718 50.4851 121.8455 0.0000 5.1059 0.0000
# 4 0.0000 0.0000 0.0000 18.0587 0.0000 7.9828
# 5 6.3798 1.8046 5.1059 0.0000 37.4196 0.0000
# 6 0.0000 0.0000 0.0000 7.9828 0.0000 5.3766
#
#
#
# Elastic Compliance Matrix: (Units=1/GPa)
#
#
# Indices 1 2 3 4 5 6 
#
# 1 0.013074 -0.005708 -0.001497 0.000000 -0.001750 0.000000
# 2 -0.005708 0.015269 -0.004645 0.000000 0.000871 0.000000
# 3 -0.001497 -0.004645 0.010623 0.000000 -0.000970 0.000000
# 4 0.000000 0.000000 0.000000 0.161124 0.000000 -0.239227
# 5 -0.001750 0.000871 -0.000970 0.000000 0.027113 0.000000
# 6 0.000000 0.000000 0.000000 -0.239227 0.000000 0.541181
#
#
# Mechanical properties :
#
#
# Convention : Reuss Voigt Hill
#
# Bulk Modulus (GPa) = 65.50191 66.34051 65.92121
# Shear Modulus (GPa) = 6.27218 24.67925 15.47572
#
# Velocity S-wave (km/s) = 1.83465 3.63923 2.88184
# Velocity P-wave (km/s) = 6.29597 7.29795 6.81540
#
# Compressibility (1/GPa) = 0.01526673
#
# Stress axis : x y z
#
# Youngs Moduli (GPa) = 76.48775 65.49229 94.13686
#
# Poissons Ratio (x) = 0.37382 0.14088
# Poissons Ratio (y) = 0.43658 0.43727
# Poissons Ratio (z) = 0.11447 0.30422
#
# Static dielectric constant tensor:
#      x y z
#    x 1.629500 0.000000 0.015780 
#    y 0.000000 1.648480 0.000000 
#    z 0.015780 0.000000 1.639440 
# 
# From -- ./inp_files/257032.got.cif
#   From: 2010.05.17/outbox.cif.g08.bks.cpg/sg12_129_cif.got.tgz:257032.got - 2010.06.03 13:09:07.
