data_PCOD9190887
_publ_section_title
;
Structure prediction by ZEFSAII (Michael W. Deem and Ramdas Pophale) SiO2 
 PCOD9190887
Probable space group: C 2/M
;
_chemical_formula_sum "Si O2"
_cell_formula_units_Z 40
_cell_length_a 11.855199
_cell_length_b 31.017089
_cell_length_c 4.967208
_cell_angle_alpha 90.000000
_cell_angle_beta 85.312045
_cell_angle_gamma 90.000000
_cell_volume 1820.400316
_symmetry_space_group_name_H-M "C 2/M"
_symmetry_group_IT_number 12
_symmetry_cell_setting 'monoclinic'
loop_
_space_group_symop_operation_xyz
x,y,z
-x,y,-z
-x,-y,-z
x,-y,z
1/2+x,1/2+y,z
1/2-x,1/2+y,-z
1/2-x,1/2-y,-z
1/2+x,1/2-y,z
loop_
_atom_site_type_symbol
_atom_site_label
_atom_site_fract_x
_atom_site_fract_y
_atom_site_fract_z
Si Si1 0.376215 0.050183 0.397897
Si Si2 0.875465 0.829161 0.078948
Si Si3 0.781452 0.592220 0.947033
Si Si4 0.128129 0.229267 0.428683
Si Si5 0.428552 0.547987 0.744636
O O1 0.500000 0.049340 0.500000
O O2 0.299509 0.069827 0.655148
O O3 0.349237 0.000000 0.334390
O O4 0.380217 0.081286 0.137101
O O5 0.767372 0.859876 0.069975
O O6 0.878881 0.812483 0.380624
O O7 0.866098 0.788248 0.878031
O O8 0.000000 0.849779 0.000000
O O9 0.684247 0.569415 0.139489
O O10 0.250000 0.250000 0.500000
O O11 0.000000 0.250512 0.500000
O O12 0.500000 0.571157 0.500000
O O13 0.402439 0.500000 0.644990
O O14 0.500000 0.544617 0.000000
#
# Coordination Sequence:
#
# PCOD9190887 Si02
#       5
#     8   8   8   8   8
#     4  11  24  41  59  80 112 161 217 265 307 355
#     4  10  22  39  62  92 125 157 191 240 308 376
#     4  12  22  38  61  84 115 156 198 248 306 364
#     4  10  21  41  66  93 125 163 204 246 302 376
#     4  10  20  32  49  78 112 145 186 233 281 339
#
# _framework density 21.973189999999999
#
# number of rings (size 3 to 8) (size 9 to 14) (size 15 to 20)
#    0.000    1.400    0.000    6.000    0.000    5.600 
#    0.000    6.000    0.000    0.000    0.000    0.000 
#    0.000    0.000    0.000    0.000    0.000    0.000 
#
# Total GULP energy -111476.192136 kJ/mol
# GULP energy per Si atom -5573.809607 kJ/mol
# Density = 2.192318 g / cm^3
# Si number density = 21.973190 Si / 1000 Ang^3
#
#
#
# Elastic Constant Matrix: (Units=GPa)
#
#
# Indices 1 2 3 4 5 6 
#
# 1 126.9380 24.4413 13.6774 0.0000 0.8202 0.0000
# 2 24.4413 40.1820 5.2890 0.0000 -2.0103 0.0000
# 3 13.6774 5.2890 102.2357 0.0000 -2.9951 0.0000
# 4 0.0000 0.0000 0.0000 25.6664 0.0000 2.3113
# 5 0.8202 -2.0103 -2.9951 0.0000 47.9062 0.0000
# 6 0.0000 0.0000 0.0000 2.3113 0.0000 30.8469
#
#
#
# Elastic Compliance Matrix: (Units=1/GPa)
#
#
# Indices 1 2 3 4 5 6 
#
# 1 0.009019 -0.005384 -0.000941 0.000000 -0.000439 0.000000
# 2 -0.005384 0.028317 -0.000708 0.000000 0.001236 0.000000
# 3 -0.000941 -0.000708 0.009962 0.000000 0.000609 0.000000
# 4 0.000000 0.000000 0.000000 0.039226 0.000000 -0.002939
# 5 -0.000439 0.001236 0.000609 0.000000 0.020972 0.000000
# 6 0.000000 0.000000 0.000000 -0.002939 0.000000 0.032638
#
#
# Mechanical properties :
#
#
# Convention : Reuss Voigt Hill
#
# Bulk Modulus (GPa) = 30.09265 39.57455 34.83360
# Shear Modulus (GPa) = 30.25230 35.94708 33.09969
#
# Velocity S-wave (km/s) = 3.71453 4.04908 3.88541
# Velocity P-wave (km/s) = 5.66761 6.31740 6.00131
#
# Compressibility (1/GPa) = 0.03323070
#
# Stress axis : x y z
#
# Youngs Moduli (GPa) = 110.88039 35.31482 100.38455
#
# Poissons Ratio (x) = 0.19013 0.09445
# Poissons Ratio (y) = 0.59697 0.07111
# Poissons Ratio (z) = 0.10433 0.02502
#
# Static dielectric constant tensor:
#      x y z
#    x 2.101550 0.000000 0.152300 
#    y 0.000000 1.810950 0.000000 
#    z 0.152300 0.000000 1.892540 
# 
# From -- ./inp_files/7589.got.cif
#   From: 2010.05.17/outbox.cif.g08.bks.cpg/sg12_4_cif.got.tgz:7589.got - 2010.06.03 13:09:07.
