data_PCOD9190232
_publ_section_title
;
Structure prediction by ZEFSAII (Michael W. Deem and Ramdas Pophale) SiO2 
 PCOD9190232
Probable space group: C 2/M
;
_chemical_formula_sum "Si O2"
_cell_formula_units_Z 40
_cell_length_a 15.469899
_cell_length_b 17.838832
_cell_length_c 16.695540
_cell_angle_alpha 90.000000
_cell_angle_beta 26.751876
_cell_angle_gamma 90.000000
_cell_volume 2073.910849
_symmetry_space_group_name_H-M "C 2/M"
_symmetry_group_IT_number 12
_symmetry_cell_setting 'monoclinic'
loop_
_space_group_symop_operation_xyz
x,y,z
-x,y,-z
-x,-y,-z
x,-y,z
1/2+x,1/2+y,z
1/2-x,1/2+y,-z
1/2-x,1/2-y,-z
1/2+x,1/2-y,z
loop_
_atom_site_type_symbol
_atom_site_label
_atom_site_fract_x
_atom_site_fract_y
_atom_site_fract_z
Si Si1 0.353299 0.000000 0.427906
Si Si2 0.697126 0.732779 0.174578
Si Si3 0.506754 0.000000 0.121414
Si Si4 0.976140 0.163379 0.840947
Si Si5 0.922577 0.000000 0.844908
Si Si6 0.075568 0.643568 0.524127
Si Si7 0.500000 0.873274 0.000000
O O1 0.429247 0.074388 0.409772
O O2 0.413017 0.000000 0.286250
O O3 0.122769 0.000000 0.630877
O O4 0.583529 0.687337 0.199708
O O5 0.553533 0.787869 0.338847
O O6 0.815886 0.677069 0.132344
O O7 0.855965 0.783912 0.998682
O O8 0.457109 0.073075 0.110850
O O9 0.736322 0.000000 0.943667
O O10 0.203289 0.169420 0.664853
O O11 0.920814 0.076264 0.897127
O O12 0.000000 0.618602 0.500000
#
# Coordination Sequence:
#
# PCOD9190232 Si02
#       7
#     4   8   4   8   4   8   4
#     4  10  24  41  69  90 122 173 213 250 323 379
#     4  11  22  40  60  96 129 167 205 259 317 372
#     4  11  22  45  65  93 126 171 204 262 319 365
#     4  10  22  39  66  89 128 171 210 251 318 377
#     4  10  19  42  64  93 120 162 216 253 300 386
#     4  11  23  41  63  94 126 163 214 264 307 370
#     4  11  24  40  68  95 130 160 216 263 304 382
#
# _framework density 19.287233000000001
#
# number of rings (size 3 to 8) (size 9 to 14) (size 15 to 20)
#    0.000    1.400    2.000    3.300    2.800    0.000 
#    7.200    2.000    0.000    8.400    0.000    0.000 
#    0.000    0.000    0.000    0.000    0.000    0.000 
#
# Total GULP energy -111815.050323 kJ/mol
# GULP energy per Si atom -5590.752516 kJ/mol
# Density = 1.924333 g / cm^3
# Si number density = 19.287233 Si / 1000 Ang^3
#
#
#
# Elastic Constant Matrix: (Units=GPa)
#
#
# Indices 1 2 3 4 5 6 
#
# 1 126.8041 48.6995 65.3351 0.0103 -20.8691 0.1371
# 2 48.6995 111.1231 44.7005 0.0054 -15.3464 0.2484
# 3 65.3351 44.7005 63.1553 0.0162 -12.3591 0.0970
# 4 0.0103 0.0054 0.0162 10.5577 -0.0052 -15.2980
# 5 -20.8691 -15.3464 -12.3591 -0.0052 27.9255 0.0495
# 6 0.1371 0.2484 0.0970 -15.2980 0.0495 88.6566
#
#
#
# Elastic Compliance Matrix: (Units=1/GPa)
#
#
# Indices 1 2 3 4 5 6 
#
# 1 0.017652 -0.000083 -0.017112 -0.000006 0.005573 -0.000013
# 2 -0.000083 0.012858 -0.008369 -0.000045 0.003300 -0.000036
# 3 -0.017112 -0.008369 0.039477 -0.000040 0.000084 0.000000
# 4 -0.000006 -0.000045 -0.000040 0.126295 -0.000062 0.021793
# 5 0.005573 0.003300 0.000084 -0.000062 0.041825 -0.000052
# 6 -0.000013 -0.000036 0.000000 0.021793 -0.000052 0.015040
#
#
# Mechanical properties :
#
#
# Convention : Reuss Voigt Hill
#
# Bulk Modulus (GPa) = 53.02618 68.72806 60.87712
# Shear Modulus (GPa) = 16.09995 34.91780 25.50888
#
# Velocity S-wave (km/s) = 2.89233 4.25951 3.64067
# Velocity P-wave (km/s) = 6.22147 7.73967 7.02172
#
# Compressibility (1/GPa) = 0.01885861
#
# Stress axis : x y z
#
# Youngs Moduli (GPa) = 56.65059 77.77468 25.33146
#
# Poissons Ratio (x) = 0.00644 0.43348
# Poissons Ratio (y) = 0.00469 0.21200
# Poissons Ratio (z) = 0.96941 0.65089
#
# Static dielectric constant tensor:
#      x y z
#    x 1.661710 0.000000 -0.001930 
#    y 0.000000 1.675120 0.000000 
#    z -0.001930 0.000000 1.638280 
# 
# From -- ./inp_files/216675.got.cif
#   From: 2010.05.17/outbox.cif.g08.bks.cpg/sg12_109_cif.got.tgz:216675.got - 2010.06.03 13:09:07.
