data_PCOD9190187
_publ_section_title
;
Structure prediction by ZEFSAII (Michael W. Deem and Ramdas Pophale) SiO2 
 PCOD9190187
Probable space group: C 2/M
;
_chemical_formula_sum "Si O2"
_cell_formula_units_Z 46
_cell_length_a 14.739407
_cell_length_b 7.526711
_cell_length_c 24.169853
_cell_angle_alpha 90.000000
_cell_angle_beta 139.927825
_cell_angle_gamma 90.000000
_cell_volume 1726.147509
_symmetry_space_group_name_H-M "C 2/M"
_symmetry_group_IT_number 12
_symmetry_cell_setting 'monoclinic'
loop_
_space_group_symop_operation_xyz
x,y,z
-x,y,-z
-x,-y,-z
x,-y,z
1/2+x,1/2+y,z
1/2-x,1/2+y,-z
1/2-x,1/2-y,-z
1/2+x,1/2-y,z
loop_
_atom_site_type_symbol
_atom_site_label
_atom_site_fract_x
_atom_site_fract_y
_atom_site_fract_z
Si Si1 0.000000 0.500000 0.000000
Si Si2 0.500000 0.249561 0.500000
Si Si3 0.231823 0.710908 0.191175
Si Si4 0.302465 0.710628 0.634399
Si Si5 0.471543 0.289945 0.607423
Si Si6 0.494864 0.786376 0.826725
Si Si7 0.697429 0.299412 0.051341
O O1 0.074385 0.656280 0.995597
O O2 0.661190 0.312619 0.585827
O O3 0.471371 0.187506 0.549705
O O4 0.201849 0.500000 0.162167
O O5 0.378226 0.721846 0.292006
O O6 0.113151 0.778661 0.177375
O O7 0.239170 0.805128 0.136254
O O8 0.268331 0.500000 0.618765
O O9 0.357841 0.764982 0.600034
O O10 0.427573 0.733596 0.736647
O O11 0.450472 0.500000 0.584104
O O12 0.657128 0.733274 0.908588
O O13 0.493109 0.000000 0.827302
O O14 0.659911 0.500000 0.017617
#
# Coordination Sequence:
#
# PCOD9190187 Si02
#       7
#     2   4   8   8   8   8   8
#     4  12  26  48  80 106 148 182 206 280 352 398
#     4  12  22  38  54  88 131 176 233 298 343 397
#     4  10  19  40  68  98 131 177 229 282 337 402
#     4  11  23  38  57  87 128 175 225 283 350 403
#     4  10  21  36  60  87 122 176 231 279 345 406
#     4  10  22  40  68  99 129 173 232 280 329 409
#     4  11  24  45  74 107 140 180 226 271 339 419
#
# _framework density 26.648942000000002
#
# number of rings (size 3 to 8) (size 9 to 14) (size 15 to 20)
#    0.000    1.391    4.348    1.304    1.217    1.391 
#    0.000    2.609    0.000    0.000    0.000    0.000 
#    0.000    0.000    0.000    0.000    0.000    0.000 
#
# Total GULP energy -128500.153227 kJ/mol
# GULP energy per Si atom -5586.963184 kJ/mol
# Density = 2.658829 g / cm^3
# Si number density = 26.648942 Si / 1000 Ang^3
#
#
#
# Elastic Constant Matrix: (Units=GPa)
#
#
# Indices 1 2 3 4 5 6 
#
# 1 185.6446 30.5380 38.7069 0.0000 28.6800 0.0000
# 2 30.5380 137.0400 38.0352 0.0000 13.0460 0.0000
# 3 38.7069 38.0352 132.5278 0.0000 7.7722 0.0000
# 4 0.0000 0.0000 0.0000 -55.5208 0.0000 13.8487
# 5 28.6800 13.0460 7.7722 0.0000 70.4692 0.0000
# 6 0.0000 0.0000 0.0000 13.8487 0.0000 0.8836
#
#
#
# Elastic Compliance Matrix: (Units=1/GPa)
#
#
# Indices 1 2 3 4 5 6 
#
# 1 0.006154 -0.000759 -0.001450 0.000000 -0.002204 0.000000
# 2 -0.000759 0.008129 -0.002054 0.000000 -0.000969 0.000000
# 3 -0.001450 -0.002054 0.008557 0.000000 0.000027 0.000000
# 4 0.000000 0.000000 0.000000 -0.003669 0.000000 0.057500
# 5 -0.002204 -0.000969 0.000027 0.000000 0.015264 0.000000
# 6 0.000000 0.000000 0.000000 0.057500 0.000000 0.230526
#
#
# Mechanical properties :
#
#
# Convention : Reuss Voigt Hill
#
# Bulk Modulus (GPa) = 69.86775 74.41919 72.14347
# Shear Modulus (GPa) = 17.96878 26.36188 22.16533
#
# Velocity S-wave (km/s) = 2.59950 3.14861 2.88714
# Velocity P-wave (km/s) = 5.94009 6.41909 6.18423
#
# Compressibility (1/GPa) = 0.01431276
#
# Stress axis : x y z
#
# Youngs Moduli (GPa) = 162.48426 123.01992 116.86029
#
# Poissons Ratio (x) = 0.09338 0.16949
# Poissons Ratio (y) = 0.12334 0.24008
# Poissons Ratio (z) = 0.23566 0.25273
#
# Static dielectric constant tensor:
#      x y z
#    x 2.032180 0.000000 -0.040040 
#    y 0.000000 2.102530 0.000000 
#    z -0.040040 0.000000 1.866660 
# 
# From -- ./inp_files/360349.got.cif
#   From: 2010.05.17/outbox.cif.g08.bks.cpg/sg12_181_cif.got.tgz:360349.got - 2010.06.03 13:09:07.
