data_PCOD9190720
_publ_section_title
;
Structure prediction by ZEFSAII (Michael W. Deem and Ramdas Pophale) SiO2 
 PCOD9190720
Probable space group: C 2/M
;
_chemical_formula_sum "Si O2"
_cell_formula_units_Z 64
_cell_length_a 20.046538
_cell_length_b 8.544582
_cell_length_c 23.009584
_cell_angle_alpha 90.000000
_cell_angle_beta 60.948424
_cell_angle_gamma 90.000000
_cell_volume 3445.413078
_symmetry_space_group_name_H-M "C 2/M"
_symmetry_group_IT_number 12
_symmetry_cell_setting 'monoclinic'
loop_
_space_group_symop_operation_xyz
x,y,z
-x,y,-z
-x,-y,-z
x,-y,z
1/2+x,1/2+y,z
1/2-x,1/2+y,-z
1/2-x,1/2-y,-z
1/2+x,1/2-y,z
loop_
_atom_site_type_symbol
_atom_site_label
_atom_site_fract_x
_atom_site_fract_y
_atom_site_fract_z
Si Si1 0.895835 0.311635 0.199362
Si Si2 0.374533 0.184609 0.553333
Si Si3 0.562063 0.810617 0.163475
Si Si4 0.769544 0.813032 0.692352
Si Si5 0.514460 0.184904 0.586188
Si Si6 0.582970 0.311279 0.939107
Si Si7 0.331929 0.687245 0.983274
Si Si8 0.102734 0.690110 0.273852
O O1 0.894751 0.500000 0.202545
O O2 0.816426 0.254988 0.260416
O O3 0.901868 0.261694 0.129741
O O4 0.973726 0.259883 0.197769
O O5 0.304336 0.264401 0.615384
O O6 0.444705 0.196338 0.569622
O O7 0.410452 0.249271 0.477978
O O8 0.358297 0.000000 0.553486
O O9 0.606239 0.745950 0.089251
O O10 0.601121 0.762098 0.207458
O O11 0.564358 0.000000 0.160200
O O12 0.825787 0.748361 0.718795
O O13 0.770619 0.000000 0.695699
O O14 0.475688 0.245727 0.661322
O O15 0.529604 0.000000 0.588257
O O16 0.584523 0.500000 0.932511
O O17 0.500000 0.268705 0.000000
O O18 0.643845 0.262813 0.962202
O O19 0.331553 0.500000 0.982805
O O20 0.250000 0.750000 0.000000
O O21 0.103254 0.500000 0.276353
#
# Coordination Sequence:
#
# PCOD9190720 Si02
#       8
#     8   8   8   8   8   8   8   8
#     4  10  22  37  54  76 104 139 173 209 255 306
#     4   8  13  25  46  70  97 130 169 210 250 295
#     4  10  21  38  57  77 102 137 177 211 253 307
#     4  10  20  32  47  75 108 135 166 208 258 306
#     4   7  11  23  45  71  96 125 166 212 251 290
#     4  10  21  39  59  79 101 131 173 214 251 298
#     4  11  24  40  58  81 108 135 167 211 260 306
#     4   9  18  33  53  75 100 132 172 215 253 299
#
# _framework density 18.575420999999999
#
# number of rings (size 3 to 8) (size 9 to 14) (size 15 to 20)
#    0.000    2.625    1.250    2.250    1.750    2.750 
#    0.000    5.000    0.000    0.750    0.000    0.000 
#    0.000    0.000    0.000    0.000    0.000    0.750 
#
# Total GULP energy -178319.697879 kJ/mol
# GULP energy per Si atom -5572.490559 kJ/mol
# Density = 1.853314 g / cm^3
# Si number density = 18.575421 Si / 1000 Ang^3
#
#
#
# Elastic Constant Matrix: (Units=GPa)
#
#
# Indices 1 2 3 4 5 6 
#
# 1 60.5257 10.8528 5.6196 0.0000 -22.0581 0.0006
# 2 10.8528 10.0763 8.0387 0.0000 -4.5321 0.0010
# 3 5.6196 8.0387 57.5844 0.0000 -30.8948 0.0001
# 4 0.0000 0.0000 0.0000 23.4128 0.0000 -5.9205
# 5 -22.0581 -4.5321 -30.8948 0.0000 29.4971 0.0000
# 6 0.0006 0.0010 0.0001 -5.9205 0.0000 15.9571
#
#
#
# Elastic Compliance Matrix: (Units=1/GPa)
#
#
# Indices 1 2 3 4 5 6 
#
# 1 0.046944 -0.051113 0.039207 0.000000 0.068316 0.000001
# 2 -0.051113 0.167380 -0.057269 -0.000002 -0.072488 -0.000008
# 3 0.039207 -0.057269 0.074289 0.000000 0.098329 0.000001
# 4 0.000000 -0.000002 0.000000 0.047134 0.000000 0.017488
# 5 0.068316 -0.072488 0.098329 0.000000 0.176840 0.000000
# 6 0.000001 -0.000008 0.000001 0.017488 0.000000 0.069157
#
#
# Mechanical properties :
#
#
# Convention : Reuss Voigt Hill
#
# Bulk Modulus (GPa) = 6.65501 19.68984 13.17242
# Shear Modulus (GPa) = 6.49197 20.68509 13.58853
#
# Velocity S-wave (km/s) = 1.87150 3.34064 2.70762
# Velocity P-wave (km/s) = 2.87411 5.05003 4.10873
#
# Compressibility (1/GPa) = 0.15026281
#
# Stress axis : x y z
#
# Youngs Moduli (GPa) = 21.30191 5.97443 13.46092
#
# Poissons Ratio (x) = 0.30537 -0.52776
# Poissons Ratio (y) = 1.08881 0.77089
# Poissons Ratio (z) = -0.83518 0.34215
#
# Static dielectric constant tensor:
#      x y z
#    x 1.634650 0.000000 -0.009560 
#    y 0.000000 1.638540 0.000000 
#    z -0.009560 0.000000 1.671110 
# 
# From -- ./inp_files/345987.got.cif
#   From: 2010.05.17/outbox.cif.g08.bks.cpg/sg12_173_cif.got.tgz:345987.got - 2010.06.03 13:09:07.
