data_PCOD9190113
_publ_section_title
;
Structure prediction by ZEFSAII (Michael W. Deem and Ramdas Pophale) SiO2 
 PCOD9190113
Probable space group: C 2/M
;
_chemical_formula_sum "Si O2"
_cell_formula_units_Z 64
_cell_length_a 14.745709
_cell_length_b 18.271820
_cell_length_c 12.065930
_cell_angle_alpha 90.000000
_cell_angle_beta 89.225945
_cell_angle_gamma 90.000000
_cell_volume 3250.638202
_symmetry_space_group_name_H-M "C 2/M"
_symmetry_group_IT_number 12
_symmetry_cell_setting 'monoclinic'
loop_
_space_group_symop_operation_xyz
x,y,z
-x,y,-z
-x,-y,-z
x,-y,z
1/2+x,1/2+y,z
1/2-x,1/2+y,-z
1/2-x,1/2-y,-z
1/2+x,1/2-y,z
loop_
_atom_site_type_symbol
_atom_site_label
_atom_site_fract_x
_atom_site_fract_y
_atom_site_fract_z
Si Si1 0.526813 0.368990 0.376623
Si Si2 0.373071 0.278342 0.913238
Si Si3 0.786352 0.327670 0.545322
Si Si4 0.317423 0.415221 0.779471
Si Si5 0.178851 0.784244 0.849599
Si Si6 0.341942 0.584281 0.295942
Si Si7 0.952439 0.292524 0.701547
Si Si8 0.360878 0.150618 0.306850
O O1 0.500000 0.391309 0.500000
O O2 0.625546 0.392252 0.331542
O O3 0.450071 0.406148 0.303291
O O4 0.518994 0.281166 0.365297
O O5 0.358831 0.361507 0.871607
O O6 0.276727 0.240646 0.888962
O O7 0.437411 0.236599 0.826332
O O8 0.387546 0.275225 0.044198
O O9 0.750000 0.250000 0.500000
O O10 0.706619 0.376843 0.598100
O O11 0.860242 0.316701 0.641762
O O12 0.833639 0.359236 0.434992
O O13 0.330448 0.500000 0.802383
O O14 0.211073 0.397607 0.760879
O O15 0.184170 0.866926 0.808729
O O16 0.155617 0.731942 0.745837
O O17 0.316404 0.500000 0.290244
O O18 0.030427 0.353670 0.700454
#
# Coordination Sequence:
#
# PCOD9190113 Si02
#       8
#     8   8   8   8   8   8   8   8
#     4  11  21  35  58  84 120 158 199 249 300 371
#     4   9  20  37  66  84 114 155 206 255 296 357
#     4  12  20  37  60  86 125 162 202 247 295 366
#     4  10  22  39  56  85 120 159 205 248 304 363
#     4  10  19  40  58  91 116 154 203 250 307 357
#     4  12  24  37  58  92 129 160 194 249 322 376
#     4  11  20  36  60  93 115 157 208 253 295 354
#     4  11  21  35  61  86 118 160 200 253 297 354
#
# _framework density 19.688441999999998
#
# number of rings (size 3 to 8) (size 9 to 14) (size 15 to 20)
#    0.000    1.250    3.750    4.500    0.000    3.500 
#    0.000    0.625    0.000    3.750    0.000    2.625 
#    0.000    0.000    0.000    0.000    0.000    0.000 
#
# Total GULP energy -178565.003697 kJ/mol
# GULP energy per Si atom -5580.156366 kJ/mol
# Density = 1.964363 g / cm^3
# Si number density = 19.688442 Si / 1000 Ang^3
#
#
#
# Elastic Constant Matrix: (Units=GPa)
#
#
# Indices 1 2 3 4 5 6 
#
# 1 88.9620 11.3036 15.4148 0.0000 1.8011 0.0000
# 2 11.3036 63.9502 12.7296 0.0000 -0.2976 0.0000
# 3 15.4148 12.7296 93.1900 0.0000 -13.9201 0.0000
# 4 0.0000 0.0000 0.0000 1.4467 0.0000 -0.0859
# 5 1.8011 -0.2976 -13.9201 0.0000 23.2965 0.0000
# 6 0.0000 0.0000 0.0000 -0.0859 0.0000 19.3337
#
#
#
# Elastic Compliance Matrix: (Units=1/GPa)
#
#
# Indices 1 2 3 4 5 6 
#
# 1 0.011856 -0.001697 -0.002053 0.000000 -0.002165 0.000000
# 2 -0.001697 0.016349 -0.002088 0.000000 -0.000908 0.000000
# 3 -0.002053 -0.002088 0.012490 0.000000 0.007595 0.000000
# 4 0.000000 0.000000 0.000000 0.691404 0.000000 0.003073
# 5 -0.002165 -0.000908 0.007595 0.000000 0.047619 0.000000
# 6 0.000000 0.000000 0.000000 0.003073 0.000000 0.051737
#
#
# Mechanical properties :
#
#
# Convention : Reuss Voigt Hill
#
# Bulk Modulus (GPa) = 34.46030 36.11090 35.28560
# Shear Modulus (GPa) = 5.86302 22.59233 14.22768
#
# Velocity S-wave (km/s) = 1.72753 3.39114 2.69111
# Velocity P-wave (km/s) = 4.63896 5.80638 5.25519
#
# Compressibility (1/GPa) = 0.02901890
#
# Stress axis : x y z
#
# Youngs Moduli (GPa) = 84.34635 61.16747 80.06395
#
# Poissons Ratio (x) = 0.10381 0.16434
# Poissons Ratio (y) = 0.14314 0.16718
# Poissons Ratio (z) = 0.17313 0.12772
#
# Static dielectric constant tensor:
#      x y z
#    x 1.763800 0.000000 -0.011380 
#    y 0.000000 1.665990 0.000000 
#    z -0.011380 0.000000 1.728700 
# 
# From -- ./inp_files/146135.got.cif
#   From: 2010.05.17/outbox.cif.g08.bks.cpg/sg12_74_cif.got.tgz:146135.got - 2010.06.03 13:09:07.
