data_PCOD9190968
_publ_section_title
;
Structure prediction by ZEFSAII (Michael W. Deem and Ramdas Pophale) SiO2 
 PCOD9190968
Probable space group: C 2/M
;
_chemical_formula_sum "Si O2"
_cell_formula_units_Z 64
_cell_length_a 12.127682
_cell_length_b 26.649415
_cell_length_c 20.643512
_cell_angle_alpha 90.000000
_cell_angle_beta 149.440191
_cell_angle_gamma 90.000000
_cell_volume 3392.240602
_symmetry_space_group_name_H-M "C 2/M"
_symmetry_group_IT_number 12
_symmetry_cell_setting 'monoclinic'
loop_
_space_group_symop_operation_xyz
x,y,z
-x,y,-z
-x,-y,-z
x,-y,z
1/2+x,1/2+y,z
1/2-x,1/2+y,-z
1/2-x,1/2-y,-z
1/2+x,1/2-y,z
loop_
_atom_site_type_symbol
_atom_site_label
_atom_site_fract_x
_atom_site_fract_y
_atom_site_fract_z
Si Si1 0.886655 0.293462 0.036294
Si Si2 0.938387 0.125383 0.673965
Si Si3 0.174211 0.398771 0.923284
Si Si4 0.562714 0.945278 0.455734
Si Si5 0.662894 0.723530 0.788705
Si Si6 0.739580 0.667345 0.150099
Si Si7 0.129911 0.101555 0.208454
Si Si8 0.644569 0.057979 0.138116
O O1 0.853645 0.345456 0.055129
O O2 0.139903 0.279424 0.162615
O O3 0.750000 0.250000 0.000000
O O4 0.780251 0.298183 0.911996
O O5 0.735041 0.099292 0.535843
O O6 0.909947 0.114887 0.736640
O O7 0.972473 0.184417 0.678086
O O8 0.155347 0.096048 0.762700
O O9 0.176031 0.380082 0.849586
O O10 0.995200 0.433064 0.867295
O O11 0.411237 0.418365 0.064317
O O12 0.500000 0.946279 0.500000
O O13 0.334099 0.935118 0.306319
O O14 0.653680 0.000000 0.484504
O O15 0.618626 0.782140 0.779760
O O16 0.697282 0.650355 0.201688
O O17 0.500000 0.680668 0.000000
O O18 0.716433 0.000000 0.170781
O O19 0.500000 0.067413 0.000000
#
# Coordination Sequence:
#
# PCOD9190968 Si02
#       8
#     8   8   8   8   8   8   8   8
#     4  11  17  28  46  74 114 148 178 203 257 328
#     4  11  20  34  55  82 109 137 185 235 276 330
#     4  11  19  33  50  81 118 142 176 223 268 346
#     4   9  20  38  58  77  98 138 190 237 281 323
#     4  11  19  27  48  81 112 143 180 213 269 324
#     4  10  20  32  50  80 115 154 181 210 262 336
#     4  10  20  34  55  78 110 142 182 229 271 322
#     4  11  21  33  52  79 111 141 168 228 301 332
#
# _framework density 18.866586999999999
#
# number of rings (size 3 to 8) (size 9 to 14) (size 15 to 20)
#    0.000    1.500    6.250    1.125    0.000    1.000 
#    0.000    1.250    0.000    3.000    0.000    1.750 
#    0.000    0.000    0.000    0.000    0.000    0.000 
#
# Total GULP energy -178394.794286 kJ/mol
# GULP energy per Si atom -5574.837321 kJ/mol
# Density = 1.882365 g / cm^3
# Si number density = 18.866587 Si / 1000 Ang^3
#
#
#
# Elastic Constant Matrix: (Units=GPa)
#
#
# Indices 1 2 3 4 5 6 
#
# 1 64.3883 15.4256 20.8838 -0.0021 11.7193 -0.0015
# 2 15.4256 68.3108 23.7760 -0.0012 5.0229 -0.0015
# 3 20.8838 23.7760 48.2205 -0.0160 12.6596 -0.0064
# 4 -0.0021 -0.0012 -0.0160 20.9514 -0.0034 8.3282
# 5 11.7193 5.0229 12.6596 -0.0034 12.2537 -0.0012
# 6 -0.0015 -0.0015 -0.0064 8.3282 -0.0012 21.9073
#
#
#
# Elastic Compliance Matrix: (Units=1/GPa)
#
#
# Indices 1 2 3 4 5 6 
#
# 1 0.019859 -0.002105 -0.003846 -0.000004 -0.014156 0.000001
# 2 -0.002105 0.017947 -0.008967 -0.000006 0.003920 0.000001
# 3 -0.003846 -0.008967 0.034159 0.000021 -0.027937 0.000000
# 4 -0.000004 -0.000006 0.000021 0.056226 -0.000002 -0.021375
# 5 -0.014156 0.003920 -0.027937 -0.000002 0.122402 -0.000002
# 6 0.000001 0.000001 0.000000 -0.021375 -0.000002 0.053773
#
#
# Mechanical properties :
#
#
# Convention : Reuss Voigt Hill
#
# Bulk Modulus (GPa) = 23.73614 33.45450 28.59532
# Shear Modulus (GPa) = 14.35769 19.07810 16.71790
#
# Velocity S-wave (km/s) = 2.76164 3.18340 2.97999
# Velocity P-wave (km/s) = 4.77255 5.59310 5.19904
#
# Compressibility (1/GPa) = 0.04212985
#
# Stress axis : x y z
#
# Youngs Moduli (GPa) = 50.35443 55.71987 29.27444
#
# Poissons Ratio (x) = 0.11728 0.11260
# Poissons Ratio (y) = 0.10599 0.26249
# Poissons Ratio (z) = 0.19369 0.49962
#
# Static dielectric constant tensor:
#      x y z
#    x 1.728090 0.000000 0.014630 
#    y 0.000000 1.684720 0.000000 
#    z 0.014630 0.000000 1.660860 
# 
# From -- ./inp_files/307507.got.cif
#   From: 2010.05.17/outbox.cif.g08.bks.cpg/sg12_154_cif.got.tgz:307507.got - 2010.06.03 13:09:07.
