data_PCOD9190999
_publ_section_title
;
Structure prediction by ZEFSAII (Michael W. Deem and Ramdas Pophale) SiO2 
 PCOD9190999
Probable space group: C 2/M
;
_chemical_formula_sum "Si O2"
_cell_formula_units_Z 56
_cell_length_a 29.225268
_cell_length_b 11.557409
_cell_length_c 9.781578
_cell_angle_alpha 90.000000
_cell_angle_beta 59.320017
_cell_angle_gamma 90.000000
_cell_volume 2841.461676
_symmetry_space_group_name_H-M "C 2/M"
_symmetry_group_IT_number 12
_symmetry_cell_setting 'monoclinic'
loop_
_space_group_symop_operation_xyz
x,y,z
-x,y,-z
-x,-y,-z
x,-y,z
1/2+x,1/2+y,z
1/2-x,1/2+y,-z
1/2-x,1/2-y,-z
1/2+x,1/2-y,z
loop_
_atom_site_type_symbol
_atom_site_label
_atom_site_fract_x
_atom_site_fract_y
_atom_site_fract_z
Si Si1 0.305328 0.870282 0.699396
Si Si2 0.596456 0.632529 0.197817
Si Si3 0.781069 0.695499 0.290352
Si Si4 0.008827 0.865262 0.828055
Si Si5 0.898296 0.796747 0.500000
Si Si6 0.818409 0.119540 0.408341
Si Si7 0.159287 0.373158 0.058722
O O1 0.259346 0.789528 0.712103
O O2 0.364019 0.819547 0.577058
O O3 0.302793 0.869680 0.867159
O O4 0.299898 0.000000 0.656103
O O5 0.619171 0.500000 0.148480
O O6 0.544777 0.636230 0.179929
O O7 0.585671 0.651283 0.377053
O O8 0.629230 0.748931 0.108488
O O9 0.825040 0.767009 0.307376
O O10 0.742625 0.625494 0.449001
O O11 0.807647 0.626364 0.129969
O O12 0.052153 0.791871 0.678079
O O13 0.027570 0.000000 0.802696
O O14 0.000000 0.830635 0.000000
O O15 0.854937 0.873524 0.485769
O O16 0.829511 0.000000 0.315893
O O17 0.130348 0.500000 0.113698
#
# Coordination Sequence:
#
# PCOD9190999 Si02
#       7
#     8   8   8   8   8   8   8
#     4   9  19  36  56  82 113 151 196 236 281 339
#     4  10  21  37  60  88 114 149 195 236 285 345
#     4  10  20  33  52  78 110 151 191 234 276 336
#     4  10  21  36  58  85 116 146 183 241 296 341
#     4  10  20  36  58  83 114 149 186 235 288 343
#     4  10  20  32  51  78 109 145 187 232 282 333
#     4  10  21  37  57  82 117 155 190 237 290 338
#
# _framework density 19.708167
#
# number of rings (size 3 to 8) (size 9 to 14) (size 15 to 20)
#    0.000    2.143    0.000    3.000    2.000    2.286 
#    0.000    5.000    0.000    4.286    0.000    0.000 
#    0.000    0.000    0.000    0.000    0.000    0.000 
#
# Total GULP energy -155944.936579 kJ/mol
# GULP energy per Si atom -5569.462021 kJ/mol
# Density = 1.966331 g / cm^3
# Si number density = 19.708167 Si / 1000 Ang^3
#
#
#
# Elastic Constant Matrix: (Units=GPa)
#
#
# Indices 1 2 3 4 5 6 
#
# 1 72.1618 24.7886 26.4794 0.0000 24.3061 0.0000
# 2 24.7886 124.7326 26.1022 0.0000 5.3278 0.0000
# 3 26.4794 26.1022 99.2688 0.0000 21.9822 0.0000
# 4 0.0000 0.0000 0.0000 -12.2836 0.0000 -6.5167
# 5 24.3061 5.3278 21.9822 0.0000 21.2991 0.0000
# 6 0.0000 0.0000 0.0000 -6.5167 0.0000 11.4382
#
#
#
# Elastic Compliance Matrix: (Units=1/GPa)
#
#
# Indices 1 2 3 4 5 6 
#
# 1 0.024069 -0.003744 0.000569 0.000000 -0.027118 0.000000
# 2 -0.003744 0.009067 -0.002371 0.000000 0.004452 0.000000
# 3 0.000569 -0.002371 0.013686 0.000000 -0.014181 0.000000
# 4 0.000000 0.000000 0.000000 -0.062514 0.000000 -0.035616
# 5 -0.027118 0.004452 -0.014181 0.000000 0.091419 0.000000
# 6 0.000000 0.000000 0.000000 -0.035616 0.000000 0.067135
#
#
# Mechanical properties :
#
#
# Convention : Reuss Voigt Hill
#
# Bulk Modulus (GPa) = 27.98795 50.10038 39.04416
# Shear Modulus (GPa) = 30.14518 18.67695 24.41107
#
# Velocity S-wave (km/s) = 3.91523 3.08177 3.52323
# Velocity P-wave (km/s) = 5.88818 6.17571 6.03366
#
# Compressibility (1/GPa) = 0.03572966
#
# Stress axis : x y z
#
# Youngs Moduli (GPa) = 41.54682 110.28624 73.06962
#
# Poissons Ratio (x) = 0.41293 -0.04160
# Poissons Ratio (y) = 0.15556 0.17327
# Poissons Ratio (z) = -0.02365 0.26152
#
# Static dielectric constant tensor:
#      x y z
#    x 1.692860 0.000000 0.006250 
#    y 0.000000 1.737660 0.000000 
#    z 0.006250 0.000000 1.706460 
# 
# From -- ./inp_files/103137.got.cif
#   From: 2010.05.17/outbox.cif.g08.bks.cpg/sg12_52_cif.got.tgz:103137.got - 2010.06.03 13:09:07.
