data_PCOD9190036
_publ_section_title
;
Structure prediction by ZEFSAII (Michael W. Deem and Ramdas Pophale) SiO2 
 PCOD9190036
Probable space group: C 2/M
;
_chemical_formula_sum "Si O2"
_cell_formula_units_Z 56
_cell_length_a 17.518988
_cell_length_b 22.566125
_cell_length_c 7.706575
_cell_angle_alpha 90.000000
_cell_angle_beta 63.491768
_cell_angle_gamma 90.000000
_cell_volume 2726.386870
_symmetry_space_group_name_H-M "C 2/M"
_symmetry_group_IT_number 12
_symmetry_cell_setting 'monoclinic'
loop_
_space_group_symop_operation_xyz
x,y,z
-x,y,-z
-x,-y,-z
x,-y,z
1/2+x,1/2+y,z
1/2-x,1/2+y,-z
1/2-x,1/2-y,-z
1/2+x,1/2-y,z
loop_
_atom_site_type_symbol
_atom_site_label
_atom_site_fract_x
_atom_site_fract_y
_atom_site_fract_z
Si Si1 0.214584 0.568994 0.811993
Si Si2 0.079867 0.734991 0.314195
Si Si3 0.259404 0.733635 0.194470
Si Si4 0.519735 0.366142 0.280255
Si Si5 0.598765 0.176809 0.942290
Si Si6 0.356786 0.433714 0.379595
Si Si7 0.307701 0.399842 0.071005
O O1 0.193598 0.500000 0.811561
O O2 0.136807 0.613336 0.855259
O O3 0.292402 0.582783 0.600329
O O4 0.246740 0.580924 0.975659
O O5 0.162472 0.745685 0.351661
O O6 0.048630 0.797056 0.258831
O O7 0.000000 0.712331 0.500000
O O8 0.102232 0.687695 0.145298
O O9 0.333628 0.774384 0.197183
O O10 0.284609 0.665639 0.163678
O O11 0.250000 0.750000 0.000000
O O12 0.500000 0.382814 0.500000
O O13 0.431916 0.385578 0.279952
O O14 0.598530 0.399029 0.111564
O O15 0.500000 0.185870 0.000000
O O16 0.391817 0.500000 0.382647
O O17 0.308241 0.436691 0.246120
#
# Coordination Sequence:
#
# PCOD9190036 Si02
#       7
#     8   8   8   8   8   8   8
#     4  11  24  46  68  87 126 175 219 273 322 372
#     4  10  21  37  64  96 131 167 208 259 324 395
#     4  10  19  39  64  92 131 166 210 266 317 391
#     4  11  21  36  63  93 134 176 208 255 326 386
#     4  11  23  40  64  94 128 165 219 265 326 381
#     4  11  27  41  61  98 130 171 225 261 313 394
#     4  12  21  41  68  90 130 176 211 267 325 379
#
# _framework density 20.540005000000001
#
# number of rings (size 3 to 8) (size 9 to 14) (size 15 to 20)
#    0.000    1.143    7.143    0.857    4.000    3.429 
#    0.000    1.429    0.000    0.429    0.000    0.000 
#    0.000    0.000    0.000    0.000    0.000    0.000 
#
# Total GULP energy -156200.278695 kJ/mol
# GULP energy per Si atom -5578.581382 kJ/mol
# Density = 2.049326 g / cm^3
# Si number density = 20.540005 Si / 1000 Ang^3
#
#
#
# Elastic Constant Matrix: (Units=GPa)
#
#
# Indices 1 2 3 4 5 6 
#
# 1 110.3184 45.4883 26.5925 0.0000 -28.6458 0.0000
# 2 45.4883 106.9324 16.7288 0.0000 -23.4782 0.0000
# 3 26.5925 16.7288 58.7991 0.0000 -12.9701 0.0000
# 4 0.0000 0.0000 0.0000 -503.1772 0.0000 676.0607
# 5 -28.6458 -23.4782 -12.9701 0.0000 42.1851 0.0000
# 6 0.0000 0.0000 0.0000 676.0607 0.0000 -865.9391
#
#
#
# Elastic Compliance Matrix: (Units=1/GPa)
#
#
# Indices 1 2 3 4 5 6 
#
# 1 0.012903 -0.003702 -0.003544 0.000000 0.005611 0.000000
# 2 -0.003702 0.011906 -0.000865 0.000000 0.003847 0.000000
# 3 -0.003544 -0.000865 0.019544 0.000000 0.003121 0.000000
# 4 0.000000 0.000000 0.000000 0.040583 0.000000 0.031684
# 5 0.005611 0.003847 0.003121 0.000000 0.030616 0.000000
# 6 0.000000 0.000000 0.000000 0.031684 0.000000 0.023582
#
#
# Mechanical properties :
#
#
# Convention : Reuss Voigt Hill
#
# Bulk Modulus (GPa) = 35.54740 50.40769 42.97754
# Shear Modulus (GPa) = 30.35191 -252.90356 -111.27582
#
# Velocity S-wave (km/s) = 3.84825 -11.10831 -7.36836
# Velocity P-wave (km/s) = 6.09011 11.82927 7.17085
#
# Compressibility (1/GPa) = 0.02813145
#
# Stress axis : x y z
#
# Youngs Moduli (GPa) = 77.50348 83.98816 51.16539
#
# Poissons Ratio (x) = 0.31094 0.18134
# Poissons Ratio (y) = 0.28693 0.04424
# Poissons Ratio (z) = 0.27469 0.07262
#
# Static dielectric constant tensor:
#      x y z
#    x 1.755910 0.000000 0.050510 
#    y 0.000000 1.837350 0.000000 
#    z 0.050510 0.000000 1.710660 
# 
# From -- ./inp_files/77367.got.cif
#   From: 2010.05.17/outbox.cif.g08.bks.cpg/sg12_39_cif.got.tgz:77367.got - 2010.06.03 13:09:07.
