data_PCOD9190460
_publ_section_title
;
Structure prediction by ZEFSAII (Michael W. Deem and Ramdas Pophale) SiO2 
 PCOD9190460
Probable space group: C 2/M
;
_chemical_formula_sum "Si O2"
_cell_formula_units_Z 52
_cell_length_a 19.152122
_cell_length_b 27.112444
_cell_length_c 16.573647
_cell_angle_alpha 90.000000
_cell_angle_beta 158.063128
_cell_angle_gamma 90.000000
_cell_volume 3215.087919
_symmetry_space_group_name_H-M "C 2/M"
_symmetry_group_IT_number 12
_symmetry_cell_setting 'monoclinic'
loop_
_space_group_symop_operation_xyz
x,y,z
-x,y,-z
-x,-y,-z
x,-y,z
1/2+x,1/2+y,z
1/2-x,1/2+y,-z
1/2-x,1/2-y,-z
1/2+x,1/2-y,z
loop_
_atom_site_type_symbol
_atom_site_label
_atom_site_fract_x
_atom_site_fract_y
_atom_site_fract_z
Si Si1 0.000000 0.208690 0.500000
Si Si2 0.679676 0.304733 0.850781
Si Si3 0.953553 0.442772 0.354925
Si Si4 0.710265 0.294721 0.199562
Si Si5 0.444632 0.222219 0.689316
Si Si6 0.846866 0.861140 0.011220
Si Si7 0.228081 0.632782 0.589397
O O1 0.919333 0.179013 0.337677
O O2 0.835301 0.246941 0.346119
O O3 0.558654 0.257687 0.751102
O O4 0.670210 0.342801 0.915154
O O5 0.897062 0.288721 0.073438
O O6 0.922045 0.500000 0.302197
O O7 0.000000 0.439099 0.500000
O O8 0.127655 0.419025 0.493872
O O9 0.779472 0.408086 0.145117
O O10 0.771281 0.339051 0.323989
O O11 0.500000 0.283224 0.000000
O O12 0.717438 0.316806 0.117351
O O13 0.250000 0.250000 0.500000
O O14 0.387150 0.169973 0.590561
O O15 0.061921 0.870677 0.218176
#
# Coordination Sequence:
#
# PCOD9190460 Si02
#       7
#     4   8   8   8   8   8   8
#     4  12  22  32  46  74 110 142 182 220 262 316
#     4  11  23  32  50  74 108 144 181 220 268 314
#     4  11  23  38  56  80 109 140 179 226 272 318
#     4  10  20  31  48  74 105 145 180 212 257 313
#     4  11  20  34  52  78 105 145 186 223 257 323
#     4  11  21  37  53  75 103 146 182 222 260 320
#     4  11  20  34  57  75 110 143 186 215 262 317
#
# _framework density 16.173741
#
# number of rings (size 3 to 8) (size 9 to 14) (size 15 to 20)
#    0.000    1.077    6.154    2.769    2.154    0.615 
#    0.000    1.538    0.000    0.000    0.000    0.538 
#    0.000    1.231    0.000    0.000    0.000    0.000 
#
# Total GULP energy -145127.617919 kJ/mol
# GULP energy per Si atom -5581.831458 kJ/mol
# Density = 1.613693 g / cm^3
# Si number density = 16.173741 Si / 1000 Ang^3
#
#
#
# Elastic Constant Matrix: (Units=GPa)
#
#
# Indices 1 2 3 4 5 6 
#
# 1 68.5914 39.3230 53.2868 -0.0001 -12.7493 0.0000
# 2 39.3230 93.3468 46.5430 0.0000 -1.2729 0.0000
# 3 53.2868 46.5430 124.4080 0.0001 -5.5246 0.0000
# 4 -0.0001 0.0000 0.0001 7.2736 0.0000 -10.5686
# 5 -12.7493 -1.2729 -5.5246 0.0000 35.7150 0.0000
# 6 0.0000 0.0000 0.0000 -10.5686 0.0000 14.2488
#
#
#
# Elastic Compliance Matrix: (Units=1/GPa)
#
#
# Indices 1 2 3 4 5 6 
#
# 1 0.026555 -0.006863 -0.008455 -0.000007 0.007927 -0.000005
# 2 -0.006863 0.014946 -0.002756 0.000002 -0.002344 0.000002
# 3 -0.008455 -0.002756 0.012639 0.000003 -0.001161 0.000002
# 4 -0.000007 0.000002 0.000003 -1.769058 -0.000004 -1.312143
# 5 0.007927 -0.002344 -0.001161 -0.000004 0.030566 -0.000003
# 6 -0.000005 0.000002 0.000002 -1.312143 -0.000003 -0.903059
#
#
# Mechanical properties :
#
#
# Convention : Reuss Voigt Hill
#
# Bulk Modulus (GPa) = 55.57772 62.73908 59.15840
# Shear Modulus (GPa) = -1.96443 21.26038 9.64797
#
# Velocity S-wave (km/s) = -1.10328 3.62954 2.44503
# Velocity P-wave (km/s) = 5.72840 7.51263 6.68035
#
# Compressibility (1/GPa) = 0.01799282
#
# Stress axis : x y z
#
# Youngs Moduli (GPa) = 37.65747 66.90744 79.12082
#
# Poissons Ratio (x) = 0.45918 0.66894
# Poissons Ratio (y) = 0.25844 0.21806
# Poissons Ratio (z) = 0.31838 0.18440
#
# Static dielectric constant tensor:
#      x y z
#    x 1.587050 0.000000 -0.007740 
#    y 0.000000 1.508660 0.000000 
#    z -0.007740 0.000000 1.600640 
# 
# From -- ./inp_files/286295.got.cif
#   From: 2010.05.17/outbox.cif.g08.bks.cpg/sg12_144_cif.got.tgz:286295.got - 2010.06.03 13:09:07.
