data_PCOD9190945
_publ_section_title
;
Structure prediction by ZEFSAII (Michael W. Deem and Ramdas Pophale) SiO2 
 PCOD9190945
Probable space group: C 2/M
;
_chemical_formula_sum "Si O2"
_cell_formula_units_Z 48
_cell_length_a 24.226969
_cell_length_b 8.899747
_cell_length_c 13.971609
_cell_angle_alpha 90.000000
_cell_angle_beta 73.056584
_cell_angle_gamma 90.000000
_cell_volume 2881.710702
_symmetry_space_group_name_H-M "C 2/M"
_symmetry_group_IT_number 12
_symmetry_cell_setting 'monoclinic'
loop_
_space_group_symop_operation_xyz
x,y,z
-x,y,-z
-x,-y,-z
x,-y,z
1/2+x,1/2+y,z
1/2-x,1/2+y,-z
1/2-x,1/2-y,-z
1/2+x,1/2-y,z
loop_
_atom_site_type_symbol
_atom_site_label
_atom_site_fract_x
_atom_site_fract_y
_atom_site_fract_z
Si Si1 0.500046 0.820665 0.388008
Si Si2 0.267002 0.319269 0.890322
Si Si3 0.885384 0.818811 0.361138
Si Si4 0.193935 0.825890 0.422303
Si Si5 0.383056 0.673644 0.728690
Si Si6 0.794814 0.178779 0.258585
O O1 0.500000 0.769067 0.500000
O O2 0.445827 0.752941 0.358980
O O3 0.559372 0.769420 0.308645
O O4 0.495780 0.000000 0.390769
O O5 0.265255 0.500000 0.893322
O O6 0.332382 0.275534 0.826241
O O7 0.224409 0.261302 0.828357
O O8 0.250000 0.250000 0.000000
O O9 0.839379 0.775463 0.466616
O O10 0.856147 0.778708 0.274601
O O11 0.890660 0.000000 0.362398
O O12 0.147818 0.823510 0.359283
O O13 0.246336 0.723701 0.361236
O O14 0.213140 0.000000 0.423684
O O15 0.397805 0.500000 0.742818
O O16 0.793780 0.000000 0.244001
#
# Coordination Sequence:
#
# PCOD9190945 Si02
#       6
#     8   8   8   8   8   8
#     4  11  22  32  47  75 107 142 183 221 255 295
#     4  10  21  38  60  83 104 132 169 215 270 318
#     4  10  20  33  49  70 103 147 182 209 253 310
#     4   9  17  30  48  71 102 141 178 212 254 306
#     4   9  18  33  53  75 103 139 176 211 255 311
#     4  10  20  32  50  77 105 135 173 216 262 312
#
# _framework density 16.656773000000001
#
# number of rings (size 3 to 8) (size 9 to 14) (size 15 to 20)
#    0.000    2.167    1.667    3.000    0.000    6.000 
#    0.000    0.000    0.000    1.000    0.000    7.000 
#    0.000    0.000    0.000    0.000    0.000    0.000 
#
# Total GULP energy -133865.361731 kJ/mol
# GULP energy per Si atom -5577.723405 kJ/mol
# Density = 1.661886 g / cm^3
# Si number density = 16.656773 Si / 1000 Ang^3
#
#
#
# Elastic Constant Matrix: (Units=GPa)
#
#
# Indices 1 2 3 4 5 6 
#
# 1 135.4891 48.7927 64.0776 0.0000 5.9494 0.0000
# 2 48.7927 41.9164 35.7707 0.0000 2.3302 0.0000
# 3 64.0776 35.7707 109.5542 0.0000 -1.5849 0.0000
# 4 0.0000 0.0000 0.0000 22.3120 0.0000 -2.1901
# 5 5.9494 2.3302 -1.5849 0.0000 5.2502 0.0000
# 6 0.0000 0.0000 0.0000 -2.1901 0.0000 28.3214
#
#
#
# Elastic Compliance Matrix: (Units=1/GPa)
#
#
# Indices 1 2 3 4 5 6 
#
# 1 0.014561 -0.012246 -0.004699 0.000000 -0.012484 0.000000
# 2 -0.012246 0.045160 -0.007705 0.000000 -0.008493 0.000000
# 3 -0.004699 -0.007705 0.014582 0.000000 0.013147 0.000000
# 4 0.000000 0.000000 0.000000 0.045162 0.000000 0.003492
# 5 -0.012484 -0.008493 0.013147 0.000000 0.212355 0.000000
# 6 0.000000 0.000000 0.000000 0.003492 0.000000 0.035579
#
#
# Mechanical properties :
#
#
# Convention : Reuss Voigt Hill
#
# Bulk Modulus (GPa) = 39.99577 64.91574 52.45575
# Shear Modulus (GPa) = 11.76378 20.39797 16.08088
#
# Velocity S-wave (km/s) = 2.66041 3.50323 3.11050
# Velocity P-wave (km/s) = 5.78800 7.44451 6.66789
#
# Compressibility (1/GPa) = 0.02500265
#
# Stress axis : x y z
#
# Youngs Moduli (GPa) = 68.67602 22.14369 68.57600
#
# Poissons Ratio (x) = 0.27117 0.32223
# Poissons Ratio (y) = 0.84100 0.52841
# Poissons Ratio (z) = 0.32270 0.17063
#
# Static dielectric constant tensor:
#      x y z
#    x 1.561870 0.000000 0.010410 
#    y 0.000000 1.560150 0.000000 
#    z 0.010410 0.000000 1.550400 
# 
# From -- ./inp_files/229817.got.cif
#   From: 2010.05.17/outbox.cif.g08.bks.cpg/sg12_115_cif.got.tgz:229817.got - 2010.06.03 13:09:07.
