data_PCOD9190784
_publ_section_title
;
Structure prediction by ZEFSAII (Michael W. Deem and Ramdas Pophale) SiO2 
 PCOD9190784
Probable space group: C 2/M
;
_chemical_formula_sum "Si O2"
_cell_formula_units_Z 48
_cell_length_a 14.643393
_cell_length_b 16.764167
_cell_length_c 8.924741
_cell_angle_alpha 90.000000
_cell_angle_beta 94.045658
_cell_angle_gamma 90.000000
_cell_volume 2185.424307
_symmetry_space_group_name_H-M "C 2/M"
_symmetry_group_IT_number 12
_symmetry_cell_setting 'monoclinic'
loop_
_space_group_symop_operation_xyz
x,y,z
-x,y,-z
-x,-y,-z
x,-y,z
1/2+x,1/2+y,z
1/2-x,1/2+y,-z
1/2-x,1/2-y,-z
1/2+x,1/2-y,z
loop_
_atom_site_type_symbol
_atom_site_label
_atom_site_fract_x
_atom_site_fract_y
_atom_site_fract_z
Si Si1 0.976927 0.745136 0.322444
Si Si2 0.471080 0.914189 0.168939
Si Si3 0.479085 0.584722 0.319975
Si Si4 0.240881 0.748356 0.677211
Si Si5 0.729785 0.411946 0.806734
Si Si6 0.250396 0.588644 0.840822
O O1 0.009322 0.664273 0.251119
O O2 0.011924 0.829844 0.263053
O O3 0.867051 0.747135 0.296265
O O4 0.000000 0.741958 0.500000
O O5 0.360627 0.911452 0.164735
O O6 0.499741 0.000000 0.237930
O O7 0.500000 0.912670 0.000000
O O8 0.500000 0.585281 0.500000
O O9 0.513678 0.500000 0.261142
O O10 0.369749 0.584330 0.282355
O O11 0.250000 0.750000 0.500000
O O12 0.276796 0.831754 0.750303
O O13 0.278716 0.665453 0.747861
O O14 0.773849 0.500000 0.787844
O O15 0.717298 0.403142 0.983823
O O16 0.276767 0.500000 0.786883
#
# Coordination Sequence:
#
# PCOD9190784 Si02
#       6
#     8   8   8   8   8   8
#     4   9  18  32  48  69  95 126 163 201 244 292
#     4   9  18  32  49  69  94 127 164 202 245 289
#     4   8  14  27  48  70  92 120 155 195 239 289
#     4  10  20  32  48  73 103 132 164 206 255 304
#     4   9  17  30  49  71  94 127 167 203 246 297
#     4   9  18  33  51  72 101 132 166 210 253 296
#
# _framework density 21.963698000000001
#
# number of rings (size 3 to 8) (size 9 to 14) (size 15 to 20)
#    0.000    3.000    0.000    0.500    0.000    2.333 
#    0.000    0.000    0.000    0.500    0.000    0.000 
#    0.000    0.000    0.000    0.000    0.000    0.000 
#
# Total GULP energy -133777.029267 kJ/mol
# GULP energy per Si atom -5574.042886 kJ/mol
# Density = 2.191371 g / cm^3
# Si number density = 21.963698 Si / 1000 Ang^3
#
#
#
# Elastic Constant Matrix: (Units=GPa)
#
#
# Indices 1 2 3 4 5 6 
#
# 1 83.1248 12.9888 -1.5729 0.0000 2.9562 0.0000
# 2 12.9888 306.4616 84.9177 0.0000 -6.2866 0.0000
# 3 -1.5729 84.9177 58.9110 0.0000 9.8887 0.0000
# 4 0.0000 0.0000 0.0000 36.0638 0.0000 19.1302
# 5 2.9562 -6.2866 9.8887 0.0000 27.9956 0.0000
# 6 0.0000 0.0000 0.0000 19.1302 0.0000 -12.1127
#
#
#
# Elastic Compliance Matrix: (Units=1/GPa)
#
#
# Indices 1 2 3 4 5 6 
#
# 1 0.012375 -0.001308 0.002642 0.000000 -0.002534 0.000000
# 2 -0.001308 0.006089 -0.009637 0.000000 0.004910 0.000000
# 3 0.002642 -0.009637 0.033322 0.000000 -0.014213 0.000000
# 4 0.000000 0.000000 0.000000 0.015088 0.000000 0.023830
# 5 -0.002534 0.004910 -0.014213 0.000000 0.042110 0.000000
# 6 0.000000 0.000000 0.000000 0.023830 0.000000 -0.044923
#
#
# Mechanical properties :
#
#
# Convention : Reuss Voigt Hill
#
# Bulk Modulus (GPa) = 28.42579 71.24051 49.83315
# Shear Modulus (GPa) = 54.11538 33.86692 43.99115
#
# Velocity S-wave (km/s) = 4.96911 3.93103 4.48024
# Velocity P-wave (km/s) = 6.77444 7.28766 7.03573
#
# Compressibility (1/GPa) = 0.03517932
#
# Stress axis : x y z
#
# Youngs Moduli (GPa) = 80.81035 164.21754 30.01012
#
# Poissons Ratio (x) = 0.21487 -0.07928
# Poissons Ratio (y) = 0.10574 0.28920
# Poissons Ratio (z) = -0.21348 1.58253
#
# Static dielectric constant tensor:
#      x y z
#    x 1.772250 0.000000 0.008320 
#    y 0.000000 1.908640 0.000000 
#    z 0.008320 0.000000 1.718290 
# 
# From -- ./inp_files/73658.got.cif
#   From: 2010.05.17/outbox.cif.g08.bks.cpg/sg12_37_cif.got.tgz:73658.got - 2010.06.03 13:09:07.
