data_PCOD9190760
_publ_section_title
;
Structure prediction by ZEFSAII (Michael W. Deem and Ramdas Pophale) SiO2 
 PCOD9190760
Probable space group: C 2/M
;
_chemical_formula_sum "Si O2"
_cell_formula_units_Z 56
_cell_length_a 32.517516
_cell_length_b 7.414600
_cell_length_c 17.200766
_cell_angle_alpha 90.000000
_cell_angle_beta 37.168867
_cell_angle_gamma 90.000000
_cell_volume 2505.585985
_symmetry_space_group_name_H-M "C 2/M"
_symmetry_group_IT_number 12
_symmetry_cell_setting 'monoclinic'
loop_
_space_group_symop_operation_xyz
x,y,z
-x,y,-z
-x,-y,-z
x,-y,z
1/2+x,1/2+y,z
1/2-x,1/2+y,-z
1/2-x,1/2-y,-z
1/2+x,1/2-y,z
loop_
_atom_site_type_symbol
_atom_site_label
_atom_site_fract_x
_atom_site_fract_y
_atom_site_fract_z
Si Si1 0.854294 0.281462 0.856991
Si Si2 0.997881 0.280321 0.414173
Si Si3 0.897147 0.714524 0.126732
Si Si4 0.743928 0.783883 0.311721
Si Si5 0.978097 0.720425 0.157251
Si Si6 0.737477 0.209414 0.146827
Si Si7 0.599218 0.779764 0.573344
O O1 0.851805 0.500000 0.861496
O O2 0.932372 0.227186 0.733596
O O3 0.811525 0.220067 0.995619
O O4 0.814285 0.215867 0.839987
O O5 0.996813 0.500000 0.418319
O O6 0.000000 0.218609 0.500000
O O7 0.933953 0.224641 0.458719
O O8 0.905823 0.500000 0.115139
O O9 0.817928 0.747958 0.234718
O O10 0.928725 0.777727 0.160808
O O11 0.946223 0.779118 0.982732
O O12 0.677680 0.721321 0.458685
O O13 0.738943 0.000000 0.315142
O O14 0.738749 0.712926 0.231049
O O15 0.978387 0.500000 0.160059
O O16 0.947536 0.781752 0.284898
O O17 0.717660 0.000000 0.184648
O O18 0.598189 0.000000 0.576538
#
# Coordination Sequence:
#
# PCOD9190760 Si02
#       7
#     8   8   8   8   8   8   8
#     4   9  17  29  48  71  91 123 168 206 237 278
#     4   9  16  26  44  71  98 123 159 206 242 271
#     4   9  18  33  54  75  98 125 160 206 248 288
#     4  10  20  32  48  72 101 134 161 194 247 300
#     4   8  16  32  51  73  97 125 161 204 249 288
#     4   9  18  31  44  65 101 130 154 195 249 293
#     4   9  17  29  47  70  98 130 165 200 241 292
#
# _framework density 22.350062999999999
#
# number of rings (size 3 to 8) (size 9 to 14) (size 15 to 20)
#    0.000    3.000    0.000    1.714    2.000    4.571 
#    0.000    1.429    0.000    2.143    0.000    0.000 
#    0.000    0.000    0.000    0.000    0.000    0.000 
#
# Total GULP energy -156304.544745 kJ/mol
# GULP energy per Si atom -5582.305169 kJ/mol
# Density = 2.229919 g / cm^3
# Si number density = 22.350063 Si / 1000 Ang^3
#
#
#
# Elastic Constant Matrix: (Units=GPa)
#
#
# Indices 1 2 3 4 5 6 
#
# 1 89.7286 -1.2448 73.9854 0.0003 -15.3647 -0.0001
# 2 -1.2448 68.6347 -5.2837 -0.0038 3.8912 -0.0007
# 3 73.9854 -5.2837 121.9341 -0.0005 -12.4842 -0.0006
# 4 0.0003 -0.0038 -0.0005 14.9473 -0.0003 -9.4517
# 5 -15.3647 3.8912 -12.4842 -0.0003 39.0748 0.0003
# 6 -0.0001 -0.0007 -0.0006 -9.4517 0.0003 10.1829
#
#
#
# Elastic Compliance Matrix: (Units=1/GPa)
#
#
# Indices 1 2 3 4 5 6 
#
# 1 0.023187 -0.000903 -0.013611 -0.000004 0.004859 -0.000004
# 2 -0.000903 0.014718 0.001033 0.000011 -0.001491 0.000011
# 3 -0.013611 0.001033 0.016485 0.000004 -0.000188 0.000004
# 4 -0.000004 0.000011 0.000004 0.161962 -0.000001 0.150332
# 5 0.004859 -0.001491 -0.000188 -0.000001 0.027591 -0.000002
# 6 -0.000004 0.000011 0.000004 0.150332 -0.000002 0.237740
#
#
# Mechanical properties :
#
#
# Convention : Reuss Voigt Hill
#
# Bulk Modulus (GPa) = 36.45836 46.13458 41.29647
# Shear Modulus (GPa) = 9.65650 27.03037 18.34344
#
# Velocity S-wave (km/s) = 2.08085 3.48143 2.86795
# Velocity P-wave (km/s) = 4.70331 6.07018 5.42993
#
# Compressibility (1/GPa) = 0.02742855
#
# Stress axis : x y z
#
# Youngs Moduli (GPa) = 43.12815 67.94618 60.66085
#
# Poissons Ratio (x) = 0.06134 0.82563
# Poissons Ratio (y) = 0.03893 -0.06265
# Poissons Ratio (z) = 0.58700 -0.07018
#
# Static dielectric constant tensor:
#      x y z
#    x 1.801140 0.000000 -0.004580 
#    y 0.000000 1.894820 0.000010 
#    z -0.004580 0.000010 1.808650 
# 
# From -- ./inp_files/250509.got.cif
#   From: 2010.05.17/outbox.cif.g08.bks.cpg/sg12_126_cif.got.tgz:250509.got - 2010.06.03 13:09:07.
