data_PCOD9190497
_publ_section_title
;
Structure prediction by ZEFSAII (Michael W. Deem and Ramdas Pophale) SiO2 
 PCOD9190497
Probable space group: C 2/M
;
_chemical_formula_sum "Si O2"
_cell_formula_units_Z 56
_cell_length_a 19.591865
_cell_length_b 20.132322
_cell_length_c 8.845174
_cell_angle_alpha 90.000000
_cell_angle_beta 96.610425
_cell_angle_gamma 90.000000
_cell_volume 3465.605524
_symmetry_space_group_name_H-M "C 2/M"
_symmetry_group_IT_number 12
_symmetry_cell_setting 'monoclinic'
loop_
_space_group_symop_operation_xyz
x,y,z
-x,y,-z
-x,-y,-z
x,-y,z
1/2+x,1/2+y,z
1/2-x,1/2+y,-z
1/2-x,1/2-y,-z
1/2+x,1/2-y,z
loop_
_atom_site_type_symbol
_atom_site_label
_atom_site_fract_x
_atom_site_fract_y
_atom_site_fract_z
Si Si1 0.756468 0.343152 0.128242
Si Si2 0.808928 0.219888 0.617767
Si Si3 0.094763 0.693384 0.155262
Si Si4 0.139993 0.781064 0.908093
Si Si5 0.972398 0.353639 0.339451
Si Si6 0.925753 0.211500 0.416112
Si Si7 0.121030 0.576652 0.931117
O O1 0.723472 0.335997 0.283998
O O2 0.810393 0.281053 0.126777
O O3 0.801930 0.406829 0.104396
O O4 0.693791 0.331414 0.997030
O O5 0.750000 0.250000 0.500000
O O6 0.841319 0.277460 0.733133
O O7 0.869404 0.194756 0.526135
O O8 0.031821 0.680786 0.252396
O O9 0.089113 0.748525 0.020213
O O10 0.107649 0.624531 0.071045
O O11 0.098966 0.810426 0.756098
O O12 0.928726 0.291716 0.393410
O O13 0.929164 0.399460 0.216655
O O14 0.000000 0.387566 0.500000
O O15 0.000000 0.191634 0.500000
O O16 0.110428 0.500000 0.963549
#
# Coordination Sequence:
#
# PCOD9190497 Si02
#       7
#     8   8   8   8   8   8   8
#     4   9  18  32  48  71  94 130 170 218 258 297
#     4  11  18  29  53  76 101 136 165 206 269 324
#     4  10  20  31  50  71 102 139 176 206 256 305
#     4   9  17  31  47  73  99 130 165 207 265 313
#     4  11  20  33  48  70 106 143 172 215 255 295
#     4  11  19  29  48  80 107 135 154 202 263 322
#     4  11  23  37  51  68  99 144 193 222 240 286
#
# _framework density 16.158791999999998
#
# number of rings (size 3 to 8) (size 9 to 14) (size 15 to 20)
#    0.000    1.714    7.143    1.286    0.000    1.429 
#    0.000    0.000    0.000    0.000    0.000    0.000 
#    0.000    3.429    0.000    0.000    0.000    0.000 
#
# Total GULP energy -155995.031481 kJ/mol
# GULP energy per Si atom -5571.251124 kJ/mol
# Density = 1.612201 g / cm^3
# Si number density = 16.158792 Si / 1000 Ang^3
#
#
#
# Elastic Constant Matrix: (Units=GPa)
#
#
# Indices 1 2 3 4 5 6 
#
# 1 68.1152 -1.8508 43.3207 0.0000 6.1362 0.0000
# 2 -1.8508 22.7512 6.8944 0.0000 1.4006 0.0000
# 3 43.3207 6.8944 119.1401 0.0000 9.1719 0.0000
# 4 0.0000 0.0000 0.0000 10.4763 0.0000 0.8923
# 5 6.1362 1.4006 9.1719 0.0000 39.5455 0.0000
# 6 0.0000 0.0000 0.0000 0.8923 0.0000 10.8799
#
#
#
# Elastic Compliance Matrix: (Units=1/GPa)
#
#
# Indices 1 2 3 4 5 6 
#
# 1 0.019498 0.003859 -0.007198 0.000000 -0.001493 0.000000
# 2 0.003859 0.045541 -0.003939 0.000000 -0.001298 0.000000
# 3 -0.007198 -0.003939 0.011345 0.000000 -0.001375 0.000000
# 4 0.000000 0.000000 0.000000 0.096125 0.000000 -0.007884
# 5 -0.001493 -0.001298 -0.001375 0.000000 0.025884 0.000000
# 6 0.000000 0.000000 0.000000 -0.007884 0.000000 0.092559
#
#
# Mechanical properties :
#
#
# Convention : Reuss Voigt Hill
#
# Bulk Modulus (GPa) = 16.17363 34.08169 25.12766
# Shear Modulus (GPa) = 15.33193 22.95650 19.14421
#
# Velocity S-wave (km/s) = 3.08365 3.77328 3.44576
# Velocity P-wave (km/s) = 4.76544 6.33412 5.60493
#
# Compressibility (1/GPa) = 0.06182903
#
# Stress axis : x y z
#
# Youngs Moduli (GPa) = 51.28630 21.95811 88.14759
#
# Poissons Ratio (x) = -0.08475 0.63451
# Poissons Ratio (y) = -0.19794 0.34719
# Poissons Ratio (z) = 0.36917 0.08649
#
# Static dielectric constant tensor:
#      x y z
#    x 1.583150 0.000000 0.007640 
#    y 0.000000 1.499130 0.000000 
#    z 0.007640 0.000000 1.603740 
# 
# From -- ./inp_files/76884.got.cif
#   From: 2010.05.17/outbox.cif.g08.bks.cpg/sg12_39_cif.got.tgz:76884.got - 2010.06.03 13:09:07.
