data_PCOD9190498
_publ_section_title
;
Structure prediction by ZEFSAII (Michael W. Deem and Ramdas Pophale) SiO2 
 PCOD9190498
Probable space group: C 2/M
;
_chemical_formula_sum "Si O2"
_cell_formula_units_Z 64
_cell_length_a 22.201824
_cell_length_b 20.291877
_cell_length_c 10.289168
_cell_angle_alpha 90.000000
_cell_angle_beta 46.509536
_cell_angle_gamma 90.000000
_cell_volume 3362.961716
_symmetry_space_group_name_H-M "C 2/M"
_symmetry_group_IT_number 12
_symmetry_cell_setting 'monoclinic'
loop_
_space_group_symop_operation_xyz
x,y,z
-x,y,-z
-x,-y,-z
x,-y,z
1/2+x,1/2+y,z
1/2-x,1/2+y,-z
1/2-x,1/2-y,-z
1/2+x,1/2-y,z
loop_
_atom_site_type_symbol
_atom_site_label
_atom_site_fract_x
_atom_site_fract_y
_atom_site_fract_z
Si Si1 0.236011 0.664082 0.648336
Si Si2 0.625979 0.297250 0.169363
Si Si3 0.497741 0.300328 0.854426
Si Si4 0.595015 0.157350 0.347169
Si Si5 0.277091 0.873920 0.041746
Si Si6 0.395405 0.424305 0.373703
Si Si7 0.393508 0.430748 0.684067
Si Si8 0.143822 0.288404 0.538222
O O1 0.201965 0.644074 0.840737
O O2 0.304769 0.610660 0.498297
O O3 0.169838 0.676502 0.633473
O O4 0.287135 0.732226 0.591365
O O5 0.594136 0.294296 0.069365
O O6 0.599419 0.231942 0.283298
O O7 0.721020 0.315738 0.059073
O O8 0.579474 0.362497 0.292552
O O9 0.537901 0.373517 0.784814
O O10 0.558248 0.251952 0.683898
O O11 0.500000 0.280165 0.000000
O O12 0.500000 0.136825 0.500000
O O13 0.635580 0.162903 0.429108
O O14 0.646671 0.115270 0.166322
O O15 0.206449 0.929096 0.152943
O O16 0.397239 0.500000 0.322482
O O17 0.410025 0.426993 0.507007
O O18 0.424129 0.500000 0.694272
#
# Coordination Sequence:
#
# PCOD9190498 Si02
#       8
#     8   8   8   8   8   8   8   8
#     4   9  18  33  52  75 103 138 180 218 263 311
#     4  10  20  33  54  74 109 139 179 211 262 314
#     4  11  23  34  47  76 113 149 178 216 265 320
#     4  12  21  33  53  80 110 137 173 222 271 320
#     4   9  20  33  56  77 103 137 181 218 263 315
#     4   9  18  35  54  77 107 143 183 222 260 308
#     4   8  17  34  57  78  98 132 184 224 256 304
#     4  10  20  31  50  74 106 140 176 219 266 312
#
# _framework density 19.030846
#
# number of rings (size 3 to 8) (size 9 to 14) (size 15 to 20)
#    0.750    1.500    2.500    1.125    1.750    2.750 
#    0.000    1.250    0.000    0.375    0.000    0.000 
#    0.000    4.500    0.000    0.000    0.000    0.000 
#
# Total GULP energy -178288.650798 kJ/mol
# GULP energy per Si atom -5571.520337 kJ/mol
# Density = 1.898753 g / cm^3
# Si number density = 19.030846 Si / 1000 Ang^3
#
#
#
# Elastic Constant Matrix: (Units=GPa)
#
#
# Indices 1 2 3 4 5 6 
#
# 1 77.4364 3.6760 24.8373 0.0000 15.6218 0.0000
# 2 3.6760 44.8047 -0.7180 0.0000 -2.8385 0.0000
# 3 24.8373 -0.7180 92.0379 0.0000 -3.2235 0.0000
# 4 0.0000 0.0000 0.0000 2.4653 0.0000 -0.6567
# 5 15.6218 -2.8385 -3.2235 0.0000 33.2225 0.0000
# 6 0.0000 0.0000 0.0000 -0.6567 0.0000 10.3625
#
#
#
# Elastic Compliance Matrix: (Units=1/GPa)
#
#
# Indices 1 2 3 4 5 6 
#
# 1 0.016158 -0.001921 -0.004663 0.000000 -0.008214 0.000000
# 2 -0.001921 0.022674 0.000797 0.000000 0.002918 0.000000
# 3 -0.004663 0.000797 0.012250 0.000000 0.003449 0.000000
# 4 0.000000 0.000000 0.000000 0.412602 0.000000 0.026149
# 5 -0.008214 0.002918 0.003449 0.000000 0.034547 0.000000
# 6 0.000000 0.000000 0.000000 0.026149 0.000000 0.098159
#
#
# Mechanical properties :
#
#
# Convention : Reuss Voigt Hill
#
# Bulk Modulus (GPa) = 25.31015 29.98550 27.64782
# Shear Modulus (GPa) = 8.04981 21.64229 14.84605
#
# Velocity S-wave (km/s) = 2.05890 3.37593 2.79607
# Velocity P-wave (km/s) = 4.35666 5.56654 4.99834
#
# Compressibility (1/GPa) = 0.03950984
#
# Stress axis : x y z
#
# Youngs Moduli (GPa) = 61.88976 44.10274 81.62941
#
# Poissons Ratio (x) = 0.08471 0.38064
# Poissons Ratio (y) = 0.11888 -0.06509
# Poissons Ratio (z) = 0.28859 -0.03517
#
# Static dielectric constant tensor:
#      x y z
#    x 1.692560 0.000000 -0.025080 
#    y 0.000000 1.669160 0.000000 
#    z -0.025080 0.000000 1.674850 
# 
# From -- ./inp_files/99663.got.cif
#   From: 2010.05.17/outbox.cif.g08.bks.cpg/sg12_50_cif.got.tgz:99663.got - 2010.06.03 13:09:07.
