data_PCOD9190074
_publ_section_title
;
Structure prediction by ZEFSAII (Michael W. Deem and Ramdas Pophale) SiO2 
 PCOD9190074
Probable space group: C 2/M
;
_chemical_formula_sum "Si O2"
_cell_formula_units_Z 56
_cell_length_a 14.039573
_cell_length_b 14.101207
_cell_length_c 19.115054
_cell_angle_alpha 90.000000
_cell_angle_beta 137.023549
_cell_angle_gamma 90.000000
_cell_volume 2579.749589
_symmetry_space_group_name_H-M "C 2/M"
_symmetry_group_IT_number 12
_symmetry_cell_setting 'monoclinic'
loop_
_space_group_symop_operation_xyz
x,y,z
-x,y,-z
-x,-y,-z
x,-y,z
1/2+x,1/2+y,z
1/2-x,1/2+y,-z
1/2-x,1/2-y,-z
1/2+x,1/2-y,z
loop_
_atom_site_type_symbol
_atom_site_label
_atom_site_fract_x
_atom_site_fract_y
_atom_site_fract_z
Si Si1 0.304627 0.793314 0.810377
Si Si2 0.961470 0.108067 0.882174
Si Si3 0.371993 0.604226 0.685093
Si Si4 0.237304 0.213756 0.572672
Si Si5 0.023479 0.109423 0.615882
Si Si6 0.521149 0.113048 0.215394
Si Si7 0.732772 0.283970 0.069800
O O1 0.334593 0.681007 0.823550
O O2 0.164397 0.830631 0.699009
O O3 0.427876 0.844039 0.832515
O O4 0.293226 0.800959 0.888470
O O5 0.978841 0.112173 0.807047
O O6 0.931324 0.000000 0.884721
O O7 0.097816 0.147620 0.993629
O O8 0.305461 0.500000 0.653899
O O9 0.261172 0.689323 0.628384
O O10 0.455178 0.609563 0.657154
O O11 0.250000 0.250000 0.500000
O O12 0.361162 0.145997 0.665853
O O13 0.094288 0.156160 0.495910
O O14 0.053578 0.000000 0.613645
O O15 0.376053 0.159902 0.161379
O O16 0.511834 0.000000 0.205930
O O17 0.750000 0.250000 0.000000
#
# Coordination Sequence:
#
# PCOD9190074 Si02
#       7
#     8   8   8   8   8   8   8
#     4  12  25  43  67  98 140 177 227 289 342 412
#     4  11  23  42  68  95 129 177 227 276 337 410
#     4   9  18  38  65  94 129 173 222 273 333 399
#     4  10  19  39  67 102 136 179 224 280 342 410
#     4  10  21  38  64  95 132 177 219 269 337 407
#     4  12  26  45  70 105 144 183 232 292 348 417
#     4  12  24  45  71  99 135 183 226 285 350 413
#
# _framework density 21.707533000000002
#
# number of rings (size 3 to 8) (size 9 to 14) (size 15 to 20)
#    0.000    1.143    2.857    4.286    0.000    2.857 
#    0.000    5.000    0.000    1.714    0.000    0.000 
#    0.000    0.000    0.000    0.000    0.000    0.000 
#
# Total GULP energy -156392.018330 kJ/mol
# GULP energy per Si atom -5585.429226 kJ/mol
# Density = 2.165813 g / cm^3
# Si number density = 21.707533 Si / 1000 Ang^3
#
#
#
# Elastic Constant Matrix: (Units=GPa)
#
#
# Indices 1 2 3 4 5 6 
#
# 1 97.2916 33.8563 47.0398 0.0000 0.6808 0.0000
# 2 33.8563 145.0793 60.7211 0.0000 29.0385 0.0000
# 3 47.0398 60.7211 147.1049 0.0000 14.6985 0.0000
# 4 0.0000 0.0000 0.0000 30.2552 0.0000 -3.5008
# 5 0.6808 29.0385 14.6985 0.0000 42.6028 0.0000
# 6 0.0000 0.0000 0.0000 -3.5008 0.0000 22.9345
#
#
#
# Elastic Compliance Matrix: (Units=1/GPa)
#
#
# Indices 1 2 3 4 5 6 
#
# 1 0.012617 -0.001964 -0.003457 0.000000 0.002330 0.000000
# 2 -0.001964 0.009635 -0.002792 0.000000 -0.005573 0.000000
# 3 -0.003457 -0.002792 0.009176 0.000000 -0.001207 0.000000
# 4 0.000000 0.000000 0.000000 0.033646 0.000000 0.005136
# 5 0.002330 -0.005573 -0.001207 0.000000 0.027650 0.000000
# 6 0.000000 0.000000 0.000000 0.005136 0.000000 0.044386
#
#
# Mechanical properties :
#
#
# Convention : Reuss Voigt Hill
#
# Bulk Modulus (GPa) = 66.65445 74.74557 70.70001
# Shear Modulus (GPa) = 31.53820 35.68242 33.61031
#
# Velocity S-wave (km/s) = 3.81579 4.05875 3.93914
# Velocity P-wave (km/s) = 7.08421 7.51481 7.30268
#
# Compressibility (1/GPa) = 0.01500275
#
# Stress axis : x y z
#
# Youngs Moduli (GPa) = 79.26001 103.78635 108.97466
#
# Poissons Ratio (x) = 0.20382 0.37668
# Poissons Ratio (y) = 0.15565 0.30430
# Poissons Ratio (z) = 0.27397 0.28981
#
# Static dielectric constant tensor:
#      x y z
#    x 1.923530 0.000000 -0.076060 
#    y 0.000000 1.795630 0.000000 
#    z -0.076060 0.000000 1.806410 
# 
# From -- ./inp_files/310847.got.cif
#   From: 2010.05.17/outbox.cif.g08.bks.cpg/sg12_156_cif.got.tgz:310847.got - 2010.06.03 13:09:07.
