data_PCOD9190789
_publ_section_title
;
Structure prediction by ZEFSAII (Michael W. Deem and Ramdas Pophale) SiO2 
 PCOD9190789
Probable space group: C 2/M
;
_chemical_formula_sum "Si O2"
_cell_formula_units_Z 64
_cell_length_a 31.897559
_cell_length_b 8.969024
_cell_length_c 14.869623
_cell_angle_alpha 90.000000
_cell_angle_beta 62.156170
_cell_angle_gamma 90.000000
_cell_volume 3761.532883
_symmetry_space_group_name_H-M "C 2/M"
_symmetry_group_IT_number 12
_symmetry_cell_setting 'monoclinic'
loop_
_space_group_symop_operation_xyz
x,y,z
-x,y,-z
-x,-y,-z
x,-y,z
1/2+x,1/2+y,z
1/2-x,1/2+y,-z
1/2-x,1/2-y,-z
1/2+x,1/2-y,z
loop_
_atom_site_type_symbol
_atom_site_label
_atom_site_fract_x
_atom_site_fract_y
_atom_site_fract_z
Si Si1 0.028383 0.175766 0.118492
Si Si2 0.466264 0.674593 0.675365
Si Si3 0.806624 0.177583 0.844688
Si Si4 0.077620 0.822118 0.570670
Si Si5 0.885047 0.323109 0.642006
Si Si6 0.610622 0.821482 0.919153
Si Si7 0.803950 0.678016 0.038516
Si Si8 0.573255 0.822086 0.766701
O O1 0.042721 0.193626 0.209032
O O2 0.979224 0.263295 0.155555
O O3 0.020339 0.000000 0.111207
O O4 0.068912 0.238435 0.013971
O O5 0.458339 0.500000 0.660318
O O6 0.521839 0.708105 0.605514
O O7 0.431310 0.774090 0.652577
O O8 0.840258 0.256667 0.739666
O O9 0.750933 0.211352 0.885198
O O10 0.813597 0.000000 0.833789
O O11 0.817796 0.236435 0.933704
O O12 0.108752 0.747840 0.462437
O O13 0.087027 0.756418 0.659907
O O14 0.083281 0.000000 0.565832
O O15 0.882039 0.500000 0.639620
O O16 0.660210 0.784825 0.917209
O O17 0.606846 0.786515 0.817474
O O18 0.603103 0.000000 0.935829
O O19 0.807091 0.500000 0.018016
O O20 0.571756 0.000000 0.755392
#
# Coordination Sequence:
#
# PCOD9190789 Si02
#       8
#     8   8   8   8   8   8   8   8
#     4  10  20  32  48  73 105 139 173 207 244 292
#     4   9  19  34  50  72 103 136 169 207 249 293
#     4  10  20  35  55  78 105 134 164 203 250 299
#     4  10  21  37  54  72  99 134 171 211 251 293
#     4  12  23  33  51  77 103 133 169 207 248 299
#     4  10  20  33  51  75 102 133 169 209 253 299
#     4   9  19  36  56  78 104 133 165 203 250 302
#     4  10  20  34  51  72 101 135 170 210 253 295
#
# _framework density 17.014341000000002
#
# number of rings (size 3 to 8) (size 9 to 14) (size 15 to 20)
#    0.000    2.000    0.000    4.875    0.000   10.000 
#    0.000    0.000    0.000    0.750    0.000    0.000 
#    0.000    0.000    0.000    0.000    0.000    0.000 
#
# Total GULP energy -178743.088287 kJ/mol
# GULP energy per Si atom -5585.721509 kJ/mol
# Density = 1.697562 g / cm^3
# Si number density = 17.014341 Si / 1000 Ang^3
#
#
#
# Elastic Constant Matrix: (Units=GPa)
#
#
# Indices 1 2 3 4 5 6 
#
# 1 99.9642 55.6912 70.0074 0.0000 17.0052 0.0000
# 2 55.6912 77.0766 74.7488 0.0000 3.9785 0.0000
# 3 70.0074 74.7488 140.5041 0.0000 -0.0478 0.0000
# 4 0.0000 0.0000 0.0000 24.0928 0.0000 0.0070
# 5 17.0052 3.9785 -0.0478 0.0000 10.6752 0.0000
# 6 0.0000 0.0000 0.0000 0.0070 0.0000 19.4486
#
#
#
# Elastic Compliance Matrix: (Units=1/GPa)
#
#
# Indices 1 2 3 4 5 6 
#
# 1 0.029537 -0.009948 -0.009439 0.000000 -0.043386 0.000000
# 2 -0.009948 0.031277 -0.011681 0.000000 0.004138 0.000000
# 3 -0.009439 -0.011681 0.018042 0.000000 0.019471 0.000000
# 4 0.000000 0.000000 0.000000 0.041506 0.000000 -0.000015
# 5 -0.043386 0.004138 0.019471 0.000000 0.161332 0.000000
# 6 0.000000 0.000000 0.000000 -0.000015 0.000000 0.051418
#
#
# Mechanical properties :
#
#
# Convention : Reuss Voigt Hill
#
# Bulk Modulus (GPa) = 59.81576 79.82661 69.82119
# Shear Modulus (GPa) = 12.47440 18.64982 15.56211
#
# Velocity S-wave (km/s) = 2.71065 3.31437 3.02759
# Velocity P-wave (km/s) = 6.71038 7.85276 7.30394
#
# Compressibility (1/GPa) = 0.01671800
#
# Stress axis : x y z
#
# Youngs Moduli (GPa) = 33.85615 31.97245 55.42708
#
# Poissons Ratio (x) = 0.31806 0.52320
# Poissons Ratio (y) = 0.33679 0.64747
# Poissons Ratio (z) = 0.31958 0.37349
#
# Static dielectric constant tensor:
#      x y z
#    x 1.571690 0.000000 0.011080 
#    y 0.000000 1.564080 0.000000 
#    z 0.011080 0.000000 1.560290 
# 
# From -- ./inp_files/248999.got.cif
#   From: 2010.05.17/outbox.cif.g08.bks.cpg/sg12_125_cif.got.tgz:248999.got - 2010.06.03 13:09:07.
