data_PCOD9190710
_publ_section_title
;
Structure prediction by ZEFSAII (Michael W. Deem and Ramdas Pophale) SiO2 
 PCOD9190710
Probable space group: C 2/M
;
_chemical_formula_sum "Si O2"
_cell_formula_units_Z 64
_cell_length_a 32.048809
_cell_length_b 15.893957
_cell_length_c 7.787055
_cell_angle_alpha 90.000000
_cell_angle_beta 88.428930
_cell_angle_gamma 90.000000
_cell_volume 3965.097607
_symmetry_space_group_name_H-M "C 2/M"
_symmetry_group_IT_number 12
_symmetry_cell_setting 'monoclinic'
loop_
_space_group_symop_operation_xyz
x,y,z
-x,y,-z
-x,-y,-z
x,-y,z
1/2+x,1/2+y,z
1/2-x,1/2+y,-z
1/2-x,1/2-y,-z
1/2+x,1/2-y,z
loop_
_atom_site_type_symbol
_atom_site_label
_atom_site_fract_x
_atom_site_fract_y
_atom_site_fract_z
Si Si1 0.761909 0.088535 0.572810
Si Si2 0.544524 0.398810 0.058063
Si Si3 0.727726 0.146475 0.227775
Si Si4 0.326724 0.294472 0.729823
Si Si5 0.887585 0.099211 0.232689
Si Si6 0.815895 0.217730 0.129591
Si Si7 0.807017 0.407936 0.123575
Si Si8 0.093968 0.900973 0.380966
O O1 0.742318 0.094238 0.388082
O O2 0.793406 0.162065 0.609868
O O3 0.725469 0.091297 0.716597
O O4 0.785280 0.000000 0.589454
O O5 0.542874 0.500000 0.039964
O O6 0.555891 0.382707 0.255436
O O7 0.500000 0.364907 0.000000
O O8 0.582110 0.373249 0.926351
O O9 0.685513 0.196696 0.281075
O O10 0.767371 0.208148 0.187953
O O11 0.718088 0.098793 0.053095
O O12 0.370483 0.334735 0.675964
O O13 0.318624 0.312910 0.931814
O O14 0.846440 0.157161 0.232487
O O15 0.910937 0.106348 0.413396
O O16 0.876616 0.000000 0.211371
O O17 0.828992 0.316247 0.135598
O O18 0.828984 0.500000 0.123416
O O19 0.105749 0.000000 0.347405
#
# Coordination Sequence:
#
# PCOD9190710 Si02
#       8
#     8   8   8   8   8   8   8   8
#     4  11  21  31  46  64  86 125 167 205 246 283
#     4   9  18  34  53  73 100 130 159 193 233 288
#     4  11  21  34  46  65  90 126 166 210 253 289
#     4  11  19  32  47  65  91 124 165 206 245 283
#     4  10  21  33  50  75 101 131 164 198 240 287
#     4  11  20  34  50  67  94 131 166 205 254 281
#     4  10  21  35  46  63  89 121 166 209 244 289
#     4  10  20  32  47  71  99 129 163 198 237 281
#
# _framework density 16.140837999999999
#
# number of rings (size 3 to 8) (size 9 to 14) (size 15 to 20)
#    0.000    1.625    3.750    2.625    1.750    3.000 
#    0.000    2.500    0.000    0.000    0.000    0.000 
#    0.000    0.500    0.000    1.250    0.000    0.375 
#
# Total GULP energy -178214.928467 kJ/mol
# GULP energy per Si atom -5569.216515 kJ/mol
# Density = 1.610410 g / cm^3
# Si number density = 16.140838 Si / 1000 Ang^3
#
#
#
# Elastic Constant Matrix: (Units=GPa)
#
#
# Indices 1 2 3 4 5 6 
#
# 1 42.2030 12.8009 10.7166 0.0000 14.4325 0.0000
# 2 12.8009 63.3672 20.1887 0.0000 2.3441 0.0000
# 3 10.7166 20.1887 82.4577 0.0000 14.2207 0.0000
# 4 0.0000 0.0000 0.0000 77.5300 0.0000 -22.7054
# 5 14.4325 2.3441 14.2207 0.0000 16.8747 0.0000
# 6 0.0000 0.0000 0.0000 -22.7054 0.0000 20.1502
#
#
#
# Elastic Compliance Matrix: (Units=1/GPa)
#
#
# Indices 1 2 3 4 5 6 
#
# 1 0.036113 -0.006915 0.002528 0.000000 -0.032057 0.000000
# 2 -0.006915 0.018467 -0.004914 0.000000 0.007490 0.000000
# 3 0.002528 -0.004914 0.015512 0.000000 -0.014552 0.000000
# 4 0.000000 0.000000 0.000000 0.019251 0.000000 0.021692
# 5 -0.032057 0.007490 -0.014552 0.000000 0.097900 0.000000
# 6 0.000000 0.000000 0.000000 0.021692 0.000000 0.074070
#
#
# Mechanical properties :
#
#
# Convention : Reuss Voigt Hill
#
# Bulk Modulus (GPa) = 19.42165 30.60451 25.01308
# Shear Modulus (GPa) = 16.83058 32.53240 24.68149
#
# Velocity S-wave (km/s) = 3.23264 4.49434 3.91466
# Velocity P-wave (km/s) = 5.09824 6.77748 5.99693
#
# Compressibility (1/GPa) = 0.05148892
#
# Stress axis : x y z
#
# Youngs Moduli (GPa) = 27.69076 54.15194 64.46764
#
# Poissons Ratio (x) = 0.37445 -0.16298
# Poissons Ratio (y) = 0.19148 0.31682
# Poissons Ratio (z) = -0.07000 0.26612
#
# Static dielectric constant tensor:
#      x y z
#    x 1.530590 0.000000 0.000010 
#    y 0.000000 1.534780 0.000000 
#    z 0.000010 0.000000 1.579690 
# 
# From -- ./inp_files/111206.got.cif
#   From: 2010.05.17/outbox.cif.g08.bks.cpg/sg12_56_cif.got.tgz:111206.got - 2010.06.03 13:09:07.
