data_PCOD9190325
_publ_section_title
;
Structure prediction by ZEFSAII (Michael W. Deem and Ramdas Pophale) SiO2 
 PCOD9190325
Probable space group: C 2/M
;
_chemical_formula_sum "Si O2"
_cell_formula_units_Z 56
_cell_length_a 21.102127
_cell_length_b 13.912260
_cell_length_c 9.780403
_cell_angle_alpha 90.000000
_cell_angle_beta 86.167273
_cell_angle_gamma 90.000000
_cell_volume 2864.892029
_symmetry_space_group_name_H-M "C 2/M"
_symmetry_group_IT_number 12
_symmetry_cell_setting 'monoclinic'
loop_
_space_group_symop_operation_xyz
x,y,z
-x,y,-z
-x,-y,-z
x,-y,z
1/2+x,1/2+y,z
1/2-x,1/2+y,-z
1/2-x,1/2-y,-z
1/2+x,1/2-y,z
loop_
_atom_site_type_symbol
_atom_site_label
_atom_site_fract_x
_atom_site_fract_y
_atom_site_fract_z
Si Si1 0.529991 0.500000 0.643847
Si Si2 0.750462 0.112561 0.201248
Si Si3 0.142346 0.745242 0.281517
Si Si4 0.071668 0.788158 0.043401
Si Si5 0.740917 0.609535 0.128340
Si Si6 0.149101 0.722091 0.778169
Si Si7 0.430545 0.704633 0.440180
Si Si8 0.939584 0.000000 0.910878
O O1 0.500000 0.500000 0.500000
O O2 0.566482 0.601635 0.640607
O O3 0.471617 0.500000 0.757665
O O4 0.683786 0.148021 0.276517
O O5 0.804940 0.184533 0.247988
O O6 0.762956 0.000000 0.225024
O O7 0.747863 0.126430 0.035745
O O8 0.081853 0.740704 0.189301
O O9 0.190119 0.817898 0.198432
O O10 0.118999 0.788457 0.427524
O O11 0.093207 0.899879 0.052518
O O12 0.114299 0.737227 0.926388
O O13 0.000000 0.787386 0.000000
O O14 0.720871 0.500000 0.149281
O O15 0.804603 0.632550 0.204914
O O16 0.096630 0.721191 0.667300
O O17 0.500000 0.720134 0.500000
O O18 0.000000 0.000000 0.000000
#
# Coordination Sequence:
#
# PCOD9190325 Si02
#       8
#     4   8   8   8   8   8   8   4
#     4  10  20  38  48  78 126 160 190 222 279 350
#     4  10  21  39  62  90 116 148 198 260 298 332
#     4  11  21  38  59  87 116 158 196 236 296 357
#     4  11  20  32  56  84 115 153 197 236 286 354
#     4  10  21  39  63  89 116 149 199 258 297 335
#     4  11  21  38  59  89 118 156 199 240 293 357
#     4  11  24  38  57  85 129 160 188 238 294 355
#     4  10  20  30  48  82 114 150 196 226 275 346
#
# _framework density 19.546983999999998
#
# number of rings (size 3 to 8) (size 9 to 14) (size 15 to 20)
#    0.000    1.429    2.857    5.143    4.000    2.286 
#    0.000    2.143    0.000    5.143    0.000    0.000 
#    0.000    0.000    0.000    0.000    0.000    0.000 
#
# Total GULP energy -156193.326484 kJ/mol
# GULP energy per Si atom -5578.333089 kJ/mol
# Density = 1.950249 g / cm^3
# Si number density = 19.546984 Si / 1000 Ang^3
#
#
#
# Elastic Constant Matrix: (Units=GPa)
#
#
# Indices 1 2 3 4 5 6 
#
# 1 46.9562 9.2649 -0.4400 0.0000 13.0667 0.0000
# 2 9.2649 45.1280 -8.6523 0.0000 -1.3826 0.0000
# 3 -0.4400 -8.6523 48.3484 0.0000 4.1413 0.0000
# 4 0.0000 0.0000 0.0000 15.0931 0.0000 9.3347
# 5 13.0667 -1.3826 4.1413 0.0000 37.2538 0.0000
# 6 0.0000 0.0000 0.0000 9.3347 0.0000 21.6487
#
#
#
# Elastic Compliance Matrix: (Units=1/GPa)
#
#
# Indices 1 2 3 4 5 6 
#
# 1 0.024836 -0.005366 0.000029 0.000000 -0.008914 0.000000
# 2 -0.005366 0.024112 0.004067 0.000000 0.002325 0.000000
# 3 0.000029 0.004067 0.021605 0.000000 -0.002261 0.000000
# 4 0.000000 0.000000 0.000000 0.090350 0.000000 -0.038958
# 5 -0.008914 0.002325 -0.002261 0.000000 0.030307 0.000000
# 6 0.000000 0.000000 0.000000 -0.038958 0.000000 0.062990
#
#
# Mechanical properties :
#
#
# Convention : Reuss Voigt Hill
#
# Bulk Modulus (GPa) = 14.70318 15.64197 15.17258
# Shear Modulus (GPa) = 17.89477 24.14978 21.02227
#
# Velocity S-wave (km/s) = 3.02896 3.51874 3.28300
# Velocity P-wave (km/s) = 4.44647 4.95261 4.70635
#
# Compressibility (1/GPa) = 0.06801249
#
# Stress axis : x y z
#
# Youngs Moduli (GPa) = 40.26415 41.47320 46.28563
#
# Poissons Ratio (x) = 0.22256 -0.00135
# Poissons Ratio (y) = 0.21607 -0.18825
# Poissons Ratio (z) = -0.00117 -0.16867
#
# Static dielectric constant tensor:
#      x y z
#    x 1.727630 0.000000 0.026460 
#    y 0.000000 1.709270 0.000000 
#    z 0.026460 0.000000 1.684860 
# 
# From -- ./inp_files/86412.got.cif
#   From: 2010.05.17/outbox.cif.g08.bks.cpg/sg12_44_cif.got.tgz:86412.got - 2010.06.03 13:09:07.
