data_PCOD9190872
_publ_section_title
;
Structure prediction by ZEFSAII (Michael W. Deem and Ramdas Pophale) SiO2 
 PCOD9190872
Probable space group: C 2/M
;
_chemical_formula_sum "Si O2"
_cell_formula_units_Z 32
_cell_length_a 13.447750
_cell_length_b 5.674761
_cell_length_c 16.711914
_cell_angle_alpha 90.000000
_cell_angle_beta 86.350178
_cell_angle_gamma 90.000000
_cell_volume 1272.745712
_symmetry_space_group_name_H-M "C 2/M"
_symmetry_group_IT_number 12
_symmetry_cell_setting 'monoclinic'
loop_
_space_group_symop_operation_xyz
x,y,z
-x,y,-z
-x,-y,-z
x,-y,z
1/2+x,1/2+y,z
1/2-x,1/2+y,-z
1/2-x,1/2-y,-z
1/2+x,1/2-y,z
loop_
_atom_site_type_symbol
_atom_site_label
_atom_site_fract_x
_atom_site_fract_y
_atom_site_fract_z
Si Si1 0.692542 0.000000 0.495523
Si Si2 0.564706 0.000000 0.662345
Si Si3 0.739110 0.500000 0.240052
Si Si4 0.541179 0.500000 0.707628
Si Si5 0.282425 0.000000 0.683884
Si Si6 0.636218 0.750414 0.974745
Si Si7 0.577381 0.500000 0.123360
O O1 0.750000 0.250000 0.500000
O O2 0.617468 0.000000 0.573412
O O3 0.663855 0.000000 0.404252
O O4 0.646745 0.000000 0.732205
O O5 0.509735 0.248790 0.673256
O O6 0.699432 0.249002 0.274401
O O7 0.689186 0.500000 0.155211
O O8 0.660578 0.500000 0.684388
O O9 0.498485 0.500000 0.799810
O O10 0.625107 0.500000 0.930257
O O11 0.573901 0.715859 0.060482
O O12 0.616465 0.000000 0.936154
O O13 0.750000 0.750000 0.000000
#
# Coordination Sequence:
#
# PCOD9190872 Si02
#       7
#     4   4   4   4   4   8   4
#     4  12  16  32  58  74  86 134 190 208 230 276
#     4  10  20  35  51  73  98 133 171 211 238 305
#     4  10  20  32  49  76 104 127 164 204 259 296
#     4  10  20  32  49  76 104 127 164 204 259 296
#     4  10  20  35  51  73  98 133 171 211 238 305
#     4   8  16  30  46  72  99 124 165 200 234 286
#     4  10  22  30  56  77 106 130 158 210 264 289
#
# _framework density 25.142493999999999
#
# number of rings (size 3 to 8) (size 9 to 14) (size 15 to 20)
#    0.750    1.500    5.000    0.000    3.500    0.000 
#    0.000    0.000    0.000    8.250    0.000   21.000 
#    0.000    0.000    0.000    0.000    0.000    0.000 
#
# Total GULP energy -89142.346370 kJ/mol
# GULP energy per Si atom -5571.396648 kJ/mol
# Density = 2.508527 g / cm^3
# Si number density = 25.142494 Si / 1000 Ang^3
#
#
#
# Elastic Constant Matrix: (Units=GPa)
#
#
# Indices 1 2 3 4 5 6 
#
# 1 87.5682 18.6375 13.8100 0.0000 -11.4069 0.0000
# 2 18.6375 299.5416 40.1968 0.0000 6.2989 0.0000
# 3 13.8100 40.1968 130.9621 0.0000 -7.6611 0.0000
# 4 0.0000 0.0000 0.0000 21.1387 0.0000 19.1067
# 5 -11.4069 6.2989 -7.6611 0.0000 43.8578 0.0000
# 6 0.0000 0.0000 0.0000 19.1067 0.0000 -43.8265
#
#
#
# Elastic Compliance Matrix: (Units=1/GPa)
#
#
# Indices 1 2 3 4 5 6 
#
# 1 0.012111 -0.000700 -0.000881 0.000000 0.003097 0.000000
# 2 -0.000700 0.003543 -0.001065 0.000000 -0.000877 0.000000
# 3 -0.000881 -0.001065 0.008134 0.000000 0.001345 0.000000
# 4 0.000000 0.000000 0.000000 0.033934 0.000000 0.014794
# 5 0.003097 -0.000877 0.001345 0.000000 0.023967 0.000000
# 6 0.000000 0.000000 0.000000 0.014794 0.000000 -0.016368
#
#
# Mechanical properties :
#
#
# Convention : Reuss Voigt Hill
#
# Bulk Modulus (GPa) = 54.06636 73.70674 63.88655
# Shear Modulus (GPa) = 65.12025 33.92919 49.52472
#
# Velocity S-wave (km/s) = 5.09477 3.67751 4.44301
# Velocity P-wave (km/s) = 7.49397 6.88559 7.19621
#
# Compressibility (1/GPa) = 0.01849579
#
# Stress axis : x y z
#
# Youngs Moduli (GPa) = 82.56907 282.21619 122.93684
#
# Poissons Ratio (x) = 0.19768 0.10830
# Poissons Ratio (y) = 0.05784 0.13093
# Poissons Ratio (z) = 0.07274 0.30057
#
# Static dielectric constant tensor:
#      x y z
#    x 2.097260 0.000000 -0.037070 
#    y 0.000000 2.040350 0.000000 
#    z -0.037070 0.000000 1.923510 
# 
# From -- ./inp_files/307738.got.cif
#   From: 2010.05.17/outbox.cif.g08.bks.cpg/sg12_154_cif.got.tgz:307738.got - 2010.06.03 13:09:07.
