data_PCOD9190149
_publ_section_title
;
Structure prediction by ZEFSAII (Michael W. Deem and Ramdas Pophale) SiO2 
 PCOD9190149
Probable space group: C 2/M
;
_chemical_formula_sum "Si O2"
_cell_formula_units_Z 44
_cell_length_a 8.861378
_cell_length_b 22.670569
_cell_length_c 11.691944
_cell_angle_alpha 90.000000
_cell_angle_beta 69.439895
_cell_angle_gamma 90.000000
_cell_volume 2199.213666
_symmetry_space_group_name_H-M "C 2/M"
_symmetry_group_IT_number 12
_symmetry_cell_setting 'monoclinic'
loop_
_space_group_symop_operation_xyz
x,y,z
-x,y,-z
-x,-y,-z
x,-y,z
1/2+x,1/2+y,z
1/2-x,1/2+y,-z
1/2-x,1/2-y,-z
1/2+x,1/2-y,z
loop_
_atom_site_type_symbol
_atom_site_label
_atom_site_fract_x
_atom_site_fract_y
_atom_site_fract_z
Si Si1 0.512243 0.931287 0.362418
Si Si2 0.753839 0.064596 0.750565
Si Si3 0.366665 0.830873 0.832892
Si Si4 0.037327 0.167862 0.365676
Si Si5 0.172310 0.755431 0.731980
Si Si6 0.000000 0.395621 0.000000
O O1 0.500000 0.917308 0.500000
O O2 0.338186 0.928146 0.346252
O O3 0.617155 0.883927 0.263871
O O4 0.566360 0.000000 0.336409
O O5 0.879242 0.117120 0.730777
O O6 0.610164 0.069395 0.881363
O O7 0.828646 0.000000 0.736822
O O8 0.219199 0.789614 0.835669
O O9 0.528537 0.791214 0.782419
O O10 0.376387 0.857607 0.956346
O O11 0.168946 0.219812 0.346219
O O12 0.000000 0.143137 0.500000
O O13 0.885070 0.196848 0.344942
#
# Coordination Sequence:
#
# PCOD9190149 Si02
#       6
#     8   8   8   8   8   4
#     4   9  18  33  56  82 114 148 193 245 287 344
#     4  10  21  39  61  90 117 155 201 244 300 353
#     4  10  21  37  60  87 116 156 198 245 295 345
#     4  11  22  38  59  88 122 161 194 240 299 356
#     4  10  22  39  55  88 121 157 200 241 293 355
#     4  10  19  40  64  88 114 156 205 244 292 354
#
# _framework density 20.007151
#
# number of rings (size 3 to 8) (size 9 to 14) (size 15 to 20)
#    0.000    2.000    3.636    0.818    2.545    4.727 
#    0.000    0.909    0.000    1.091    0.000    0.000 
#    0.000    0.000    0.000    0.000    0.000    0.000 
#
# Total GULP energy -122737.322259 kJ/mol
# GULP energy per Si atom -5578.969194 kJ/mol
# Density = 1.996161 g / cm^3
# Si number density = 20.007151 Si / 1000 Ang^3
#
#
#
# Elastic Constant Matrix: (Units=GPa)
#
#
# Indices 1 2 3 4 5 6 
#
# 1 59.6999 28.4045 22.9307 0.0000 10.2656 0.0000
# 2 28.4045 96.0582 32.0012 0.0000 3.4405 0.0000
# 3 22.9307 32.0012 78.1795 0.0000 26.4424 0.0000
# 4 0.0000 0.0000 0.0000 9.1565 0.0000 8.6749
# 5 10.2656 3.4405 26.4424 0.0000 23.5250 0.0000
# 6 0.0000 0.0000 0.0000 8.6749 0.0000 0.3399
#
#
#
# Elastic Compliance Matrix: (Units=1/GPa)
#
#
# Indices 1 2 3 4 5 6 
#
# 1 0.021121 -0.005409 -0.001825 0.000000 -0.006374 0.000000
# 2 -0.005409 0.014008 -0.006861 0.000000 0.008024 0.000000
# 3 -0.001825 -0.006861 0.025049 0.000000 -0.026356 0.000000
# 4 0.000000 0.000000 0.000000 -0.004712 0.000000 0.120248
# 5 -0.006374 0.008024 -0.026356 0.000000 0.073741 0.000000
# 6 0.000000 0.000000 0.000000 0.120248 0.000000 -0.126923
#
#
# Mechanical properties :
#
#
# Convention : Reuss Voigt Hill
#
# Bulk Modulus (GPa) = 31.26212 44.51226 37.88719
# Shear Modulus (GPa) = 121.54325 16.64435 69.09380
#
# Velocity S-wave (km/s) = 7.80268 2.88743 5.88299
# Velocity P-wave (km/s) = 9.84048 5.78038 8.06994
#
# Compressibility (1/GPa) = 0.03198760
#
# Stress axis : x y z
#
# Youngs Moduli (GPa) = 47.34597 71.38608 39.92147
#
# Poissons Ratio (x) = 0.38615 0.07285
# Poissons Ratio (y) = 0.25611 0.27392
# Poissons Ratio (z) = 0.08640 0.48981
#
# Static dielectric constant tensor:
#      x y z
#    x 1.687170 0.000000 0.017760 
#    y 0.000000 1.729450 0.000000 
#    z 0.017760 0.000000 1.708310 
# 
# From -- ./inp_files/121774.got.cif
#   From: 2010.05.17/outbox.cif.g08.bks.cpg/sg12_61_cif.got.tgz:121774.got - 2010.06.03 13:09:07.
