data_PCOD9190124
_publ_section_title
;
Structure prediction by ZEFSAII (Michael W. Deem and Ramdas Pophale) SiO2 
 PCOD9190124
Probable space group: C 2/M
;
_chemical_formula_sum "Si O2"
_cell_formula_units_Z 32
_cell_length_a 17.803518
_cell_length_b 13.077373
_cell_length_c 8.133542
_cell_angle_alpha 90.000000
_cell_angle_beta 136.305918
_cell_angle_gamma 90.000000
_cell_volume 1308.167162
_symmetry_space_group_name_H-M "C 2/M"
_symmetry_group_IT_number 12
_symmetry_cell_setting 'monoclinic'
loop_
_space_group_symop_operation_xyz
x,y,z
-x,y,-z
-x,-y,-z
x,-y,z
1/2+x,1/2+y,z
1/2-x,1/2+y,-z
1/2-x,1/2-y,-z
1/2+x,1/2-y,z
loop_
_atom_site_type_symbol
_atom_site_label
_atom_site_fract_x
_atom_site_fract_y
_atom_site_fract_z
Si Si1 0.325437 0.113940 0.282435
Si Si2 0.954012 0.889982 0.612143
Si Si3 0.027864 0.668660 0.803454
Si Si4 0.226152 0.700086 0.287197
O O1 0.415472 0.116251 0.571638
O O2 0.393256 0.143049 0.227186
O O3 0.240503 0.203110 0.186491
O O4 0.279611 0.000000 0.194745
O O5 0.823941 0.876383 0.401004
O O6 0.000000 0.886399 0.500000
O O7 0.997811 0.788466 0.766861
O O8 0.982342 0.000000 0.730847
O O9 0.108578 0.648974 0.082337
O O10 0.250000 0.750000 0.500000
#
# Coordination Sequence:
#
# PCOD9190124 Si02
#       4
#     8   8   8   8
#     4  10  21  38  61  90 118 154 206 252 298 355
#     4  10  21  38  61  90 117 154 203 245 295 358
#     4  10  19  40  61  86 117 157 199 251 296 352
#     4  11  24  40  59  89 127 160 197 248 308 363
#
# _framework density 24.461704999999998
#
# number of rings (size 3 to 8) (size 9 to 14) (size 15 to 20)
#    0.000    1.750    5.000    2.250    0.000    8.000 
#    0.000    2.500    0.000    0.000    0.000    0.000 
#    0.000    0.000    0.000    0.000    0.000    0.000 
#
# Total GULP energy -89423.812442 kJ/mol
# GULP energy per Si atom -5588.988278 kJ/mol
# Density = 2.440603 g / cm^3
# Si number density = 24.461705 Si / 1000 Ang^3
#
#
#
# Elastic Constant Matrix: (Units=GPa)
#
#
# Indices 1 2 3 4 5 6 
#
# 1 58.9724 6.0186 12.8714 0.0000 16.6532 0.0000
# 2 6.0186 118.2830 -18.5677 0.0000 -5.8861 0.0000
# 3 12.8714 -18.5677 114.9818 0.0000 14.2483 0.0000
# 4 0.0000 0.0000 0.0000 -5.5947 0.0000 -9.5503
# 5 16.6532 -5.8861 14.2483 0.0000 40.4702 0.0000
# 6 0.0000 0.0000 0.0000 -9.5503 0.0000 -23.2722
#
#
#
# Elastic Compliance Matrix: (Units=1/GPa)
#
#
# Indices 1 2 3 4 5 6 
#
# 1 0.019650 -0.001623 -0.001496 0.000000 -0.007795 0.000000
# 2 -0.001623 0.008833 0.001428 0.000000 0.001450 0.000000
# 3 -0.001496 0.001428 0.009403 0.000000 -0.002487 0.000000
# 4 0.000000 0.000000 0.000000 -0.596838 0.000000 0.244927
# 5 -0.007795 0.001450 -0.002487 0.000000 0.029004 0.000000
# 6 0.000000 0.000000 0.000000 0.244927 0.000000 -0.143481
#
#
# Mechanical properties :
#
#
# Convention : Reuss Voigt Hill
#
# Bulk Modulus (GPa) = 28.97944 32.54243 30.76094
# Shear Modulus (GPa) = -7.59249 21.78164 7.09458
#
# Velocity S-wave (km/s) = -1.76368 2.98726 1.70487
# Velocity P-wave (km/s) = 2.77942 5.02301 4.05929
#
# Compressibility (1/GPa) = 0.03450722
#
# Stress axis : x y z
#
# Youngs Moduli (GPa) = 50.88930 113.20889 106.34481
#
# Poissons Ratio (x) = 0.18369 0.15907
# Poissons Ratio (y) = 0.08257 -0.15191
# Poissons Ratio (z) = 0.07612 -0.16171
#
# Static dielectric constant tensor:
#      x y z
#    x 1.983920 0.000000 -0.033400 
#    y 0.000000 1.908040 0.000000 
#    z -0.033400 0.000000 1.981550 
# 
# From -- ./inp_files/57945.got.cif
#   From: 2010.05.17/outbox.cif.g08.bks.cpg/sg12_29_cif.got.tgz:57945.got - 2010.06.03 13:09:07.
