data_PCOD9190207
_publ_section_title
;
Structure prediction by ZEFSAII (Michael W. Deem and Ramdas Pophale) SiO2 
 PCOD9190207
Probable space group: C 2/M
;
_chemical_formula_sum "Si O2"
_cell_formula_units_Z 58
_cell_length_a 14.415722
_cell_length_b 17.047112
_cell_length_c 9.934660
_cell_angle_alpha 90.000000
_cell_angle_beta 91.988677
_cell_angle_gamma 90.000000
_cell_volume 2439.936755
_symmetry_space_group_name_H-M "C 2/M"
_symmetry_group_IT_number 12
_symmetry_cell_setting 'monoclinic'
loop_
_space_group_symop_operation_xyz
x,y,z
-x,y,-z
-x,-y,-z
x,-y,z
1/2+x,1/2+y,z
1/2-x,1/2+y,-z
1/2-x,1/2-y,-z
1/2+x,1/2-y,z
loop_
_atom_site_type_symbol
_atom_site_label
_atom_site_fract_x
_atom_site_fract_y
_atom_site_fract_z
Si Si1 0.391100 0.231878 0.028283
Si Si2 0.277402 0.667985 0.367036
Si Si3 0.505082 0.873906 0.652517
Si Si4 0.718137 0.144257 0.651621
Si Si5 0.035915 0.798494 0.698209
Si Si6 0.344223 0.910623 0.858159
Si Si7 0.375464 0.375365 0.849695
Si Si8 0.500000 0.500000 0.000000
O O1 0.353208 0.147485 0.985279
O O2 0.348220 0.295505 0.925597
O O3 0.500000 0.226919 0.000000
O O4 0.397216 0.268419 0.176013
O O5 0.257250 0.761480 0.349767
O O6 0.227736 0.629167 0.493113
O O7 0.388522 0.664313 0.396014
O O8 0.239780 0.621025 0.237373
O O9 0.500000 0.905806 0.500000
O O10 0.614239 0.876858 0.691460
O O11 0.485394 0.779936 0.645447
O O12 0.435493 0.904462 0.763808
O O13 0.790296 0.101577 0.751865
O O14 0.960537 0.856176 0.753152
O O15 0.331948 0.000000 0.897999
O O16 0.421548 0.432680 0.958948
#
# Coordination Sequence:
#
# PCOD9190207 Si02
#       8
#     8   8   8   8   8   8   8   2
#     4  10  19  41  65  90 128 172 223 274 333 407
#     4  10  21  39  64 100 128 173 225 271 348 399
#     4  11  21  40  67 100 131 178 229 274 343 409
#     4  10  21  38  70  98 131 170 227 287 326 421
#     4  10  21  37  70  93 129 170 224 284 334 417
#     4  12  24  42  65  93 142 186 223 285 345 413
#     4  11  21  42  67  96 130 169 222 285 340 405
#     4  12  24  44  72  94 128 182 220 286 360 392
#
# _framework density 23.771108000000002
#
# number of rings (size 3 to 8) (size 9 to 14) (size 15 to 20)
#    0.000    1.379    7.586    0.000    3.862    1.103 
#    3.724    0.000    0.000    0.828    0.000    0.000 
#    0.000    0.000    0.000    0.000    0.000    0.000 
#
# Total GULP energy -161777.299711 kJ/mol
# GULP energy per Si atom -5578.527576 kJ/mol
# Density = 2.371700 g / cm^3
# Si number density = 23.771108 Si / 1000 Ang^3
#
#
#
# Elastic Constant Matrix: (Units=GPa)
#
#
# Indices 1 2 3 4 5 6 
#
# 1 92.1694 23.1986 11.9408 0.0000 5.4450 0.0000
# 2 23.1986 95.0443 8.3138 0.0000 11.9919 0.0000
# 3 11.9408 8.3138 52.5443 0.0000 24.9145 0.0000
# 4 0.0000 0.0000 0.0000 1.3331 0.0000 8.4269
# 5 5.4450 11.9919 24.9145 0.0000 38.0605 0.0000
# 6 0.0000 0.0000 0.0000 8.4269 0.0000 11.4450
#
#
#
# Elastic Compliance Matrix: (Units=1/GPa)
#
#
# Indices 1 2 3 4 5 6 
#
# 1 0.011842 -0.002774 -0.002702 0.000000 0.000949 0.000000
# 2 -0.002774 0.011607 0.000493 0.000000 -0.003583 0.000000
# 3 -0.002702 0.000493 0.028216 0.000000 -0.018239 0.000000
# 4 0.000000 0.000000 0.000000 -0.205275 0.000000 0.151142
# 5 0.000949 -0.003583 -0.018239 0.000000 0.039206 0.000000
# 6 0.000000 0.000000 0.000000 0.151142 0.000000 -0.023911
#
#
# Mechanical properties :
#
#
# Convention : Reuss Voigt Hill
#
# Bulk Modulus (GPa) = 23.98148 36.29604 30.13876
# Shear Modulus (GPa) = -43.68757 23.25470 -10.21643
#
# Velocity S-wave (km/s) = -4.29166 3.13113 -2.07537
# Velocity P-wave (km/s) = 3.80097 5.32674 2.63882
#
# Compressibility (1/GPa) = 0.04169884
#
# Stress axis : x y z
#
# Youngs Moduli (GPa) = 84.44720 86.15207 35.44115
#
# Poissons Ratio (x) = 0.23896 0.09576
# Poissons Ratio (y) = 0.23423 -0.01746
# Poissons Ratio (z) = 0.22817 -0.04244
#
# Static dielectric constant tensor:
#      x y z
#    x 1.929860 0.000000 -0.049910 
#    y 0.000000 1.892720 0.000000 
#    z -0.049910 0.000000 2.073100 
# 
# From -- ./inp_files/145612.got.cif
#   From: 2010.05.17/outbox.cif.g08.bks.cpg/sg12_73_cif.got.tgz:145612.got - 2010.06.03 13:09:07.
