data_PCOD9190503
_publ_section_title
;
Structure prediction by ZEFSAII (Michael W. Deem and Ramdas Pophale) SiO2 
 PCOD9190503
Probable space group: C 2/M
;
_chemical_formula_sum "Si O2"
_cell_formula_units_Z 48
_cell_length_a 23.978805
_cell_length_b 17.532958
_cell_length_c 12.427093
_cell_angle_alpha 90.000000
_cell_angle_beta 150.813427
_cell_angle_gamma 90.000000
_cell_volume 2547.798221
_symmetry_space_group_name_H-M "C 2/M"
_symmetry_group_IT_number 12
_symmetry_cell_setting 'monoclinic'
loop_
_space_group_symop_operation_xyz
x,y,z
-x,y,-z
-x,-y,-z
x,-y,z
1/2+x,1/2+y,z
1/2-x,1/2+y,-z
1/2-x,1/2-y,-z
1/2+x,1/2-y,z
loop_
_atom_site_type_symbol
_atom_site_label
_atom_site_fract_x
_atom_site_fract_y
_atom_site_fract_z
Si Si1 0.503568 0.911667 0.634627
Si Si2 0.328516 0.168248 0.935591
Si Si3 0.947008 0.278721 0.805662
Si Si4 0.809310 0.586066 0.684855
Si Si5 0.866130 0.915498 0.797500
Si Si6 0.700410 0.800200 0.631998
O O1 0.500000 0.910902 0.500000
O O2 0.623435 0.876646 0.880643
O O3 0.398716 0.858803 0.499141
O O4 0.492019 0.000000 0.652497
O O5 0.443493 0.206623 0.082568
O O6 0.292782 0.110706 0.780095
O O7 0.237445 0.237273 0.782288
O O8 0.893930 0.355674 0.767389
O O9 0.847455 0.254692 0.554773
O O10 0.000000 0.237763 0.000000
O O11 0.853853 0.500000 0.755376
O O12 0.695471 0.589528 0.421964
O O13 0.806876 0.851701 0.772028
O O14 0.837868 0.000000 0.795295
O O15 0.000000 0.914219 0.000000
#
# Coordination Sequence:
#
# PCOD9190503 Si02
#       6
#     8   8   8   8   8   8
#     4  10  22  41  62  79  98 132 179 227 274 325
#     4  10  20  31  50  79 105 132 169 219 271 316
#     4   8  17  29  44  69 104 141 176 204 242 299
#     4   9  17  29  46  70 106 150 187 217 253 302
#     4   9  18  30  46  71 106 148 184 209 243 304
#     4  10  20  33  52  78 108 139 173 219 271 312
#
# _framework density 18.839797000000001
#
# number of rings (size 3 to 8) (size 9 to 14) (size 15 to 20)
#    0.000    2.667    0.000    1.000    0.000   18.333 
#    0.000    0.000    0.000    0.000    0.000    0.000 
#    0.000   20.000    0.000    0.000    0.000    0.000 
#
# Total GULP energy -133624.032187 kJ/mol
# GULP energy per Si atom -5567.668008 kJ/mol
# Density = 1.879692 g / cm^3
# Si number density = 18.839797 Si / 1000 Ang^3
#
#
#
# Elastic Constant Matrix: (Units=GPa)
#
#
# Indices 1 2 3 4 5 6 
#
# 1 26.9902 18.3470 17.6133 0.0000 -4.7924 0.0000
# 2 18.3470 124.5758 50.2463 0.0000 -7.4210 0.0000
# 3 17.6133 50.2463 122.4651 0.0000 -4.5137 0.0000
# 4 0.0000 0.0000 0.0000 21.3792 0.0000 -3.9582
# 5 -4.7924 -7.4210 -4.5137 0.0000 28.0617 0.0000
# 6 0.0000 0.0000 0.0000 -3.9582 0.0000 18.5950
#
#
#
# Elastic Compliance Matrix: (Units=1/GPa)
#
#
# Indices 1 2 3 4 5 6 
#
# 1 0.043838 -0.004387 -0.004297 0.000000 0.005635 0.000000
# 2 -0.004387 0.010162 -0.003488 0.000000 0.001377 0.000000
# 3 -0.004297 -0.003488 0.010214 0.000000 -0.000013 0.000000
# 4 0.000000 0.000000 0.000000 0.048693 0.000000 0.010365
# 5 0.005635 0.001377 -0.000013 0.000000 0.036960 0.000000
# 6 0.000000 0.000000 0.000000 0.010365 0.000000 0.055984
#
#
# Mechanical properties :
#
#
# Convention : Reuss Voigt Hill
#
# Bulk Modulus (GPa) = 25.08169 49.60493 37.34331
# Shear Modulus (GPa) = 20.53506 26.12881 23.33194
#
# Velocity S-wave (km/s) = 3.30507 3.72814 3.52296
# Velocity P-wave (km/s) = 5.28268 6.70217 6.03431
#
# Compressibility (1/GPa) = 0.03986973
#
# Stress axis : x y z
#
# Youngs Moduli (GPa) = 22.81139 98.40440 97.90407
#
# Poissons Ratio (x) = 0.43174 0.42070
# Poissons Ratio (y) = 0.10008 0.34146
# Poissons Ratio (z) = 0.09802 0.34320
#
# Static dielectric constant tensor:
#      x y z
#    x 1.628870 0.000000 -0.012230 
#    y 0.000000 1.731200 0.000000 
#    z -0.012230 0.000000 1.743610 
# 
# From -- ./inp_files/177419.got.cif
#   From: 2010.05.17/outbox.cif.g08.bks.cpg/sg12_89_cif.got.tgz:177419.got - 2010.06.03 13:09:07.
