data_PCOD9190191
_publ_section_title
;
Structure prediction by ZEFSAII (Michael W. Deem and Ramdas Pophale) SiO2 
 PCOD9190191
Probable space group: C 2/M
;
_chemical_formula_sum "Si O2"
_cell_formula_units_Z 32
_cell_length_a 11.966401
_cell_length_b 15.834063
_cell_length_c 13.511572
_cell_angle_alpha 90.000000
_cell_angle_beta 146.966073
_cell_angle_gamma 90.000000
_cell_volume 1395.617170
_symmetry_space_group_name_H-M "C 2/M"
_symmetry_group_IT_number 12
_symmetry_cell_setting 'monoclinic'
loop_
_space_group_symop_operation_xyz
x,y,z
-x,y,-z
-x,-y,-z
x,-y,z
1/2+x,1/2+y,z
1/2-x,1/2+y,-z
1/2-x,1/2-y,-z
1/2+x,1/2-y,z
loop_
_atom_site_type_symbol
_atom_site_label
_atom_site_fract_x
_atom_site_fract_y
_atom_site_fract_z
Si Si1 0.964752 0.903312 0.755147
Si Si2 0.687263 0.098361 0.716263
Si Si3 0.866230 0.662888 0.105904
Si Si4 0.307328 0.602764 0.427504
O O1 0.878553 0.867486 0.794390
O O2 0.871056 0.867444 0.585212
O O3 0.892386 0.000000 0.703382
O O4 0.208570 0.901135 0.936882
O O5 0.500000 0.101611 0.500000
O O6 0.635813 0.145881 0.778170
O O7 0.722579 0.000000 0.771214
O O8 0.097352 0.648624 0.242231
O O9 0.750000 0.750000 0.000000
O O10 0.500000 0.619499 0.500000
O O11 0.274141 0.500000 0.403876
#
# Coordination Sequence:
#
# PCOD9190191 Si02
#       4
#     8   8   8   8
#     4  10  21  41  71 100 127 174 237 297 343 394
#     4  10  19  40  74 101 127 172 236 298 340 392
#     4  12  25  41  62 102 145 179 215 281 363 428
#     4  10  22  44  71  98 133 183 237 283 334 410
#
# _framework density 22.928925
#
# number of rings (size 3 to 8) (size 9 to 14) (size 15 to 20)
#    0.000    1.500    2.500    3.000    0.000    4.000 
#    9.000    3.750    0.000    0.000    0.000    0.000 
#    0.000    0.000    0.000    0.000    0.000    0.000 
#
# Total GULP energy -89429.060263 kJ/mol
# GULP energy per Si atom -5589.316266 kJ/mol
# Density = 2.287674 g / cm^3
# Si number density = 22.928925 Si / 1000 Ang^3
#
#
#
# Elastic Constant Matrix: (Units=GPa)
#
#
# Indices 1 2 3 4 5 6 
#
# 1 101.9285 55.3080 57.4242 0.0004 26.6103 0.0006
# 2 55.3080 68.8562 33.4485 -0.0037 3.4386 -0.0005
# 3 57.4242 33.4485 152.5998 -0.0061 34.3960 -0.0012
# 4 0.0004 -0.0037 -0.0061 19.9269 -0.0023 9.2118
# 5 26.6103 3.4386 34.3960 -0.0023 43.2549 -0.0003
# 6 0.0006 -0.0005 -0.0012 9.2118 -0.0003 7.5022
#
#
#
# Elastic Compliance Matrix: (Units=1/GPa)
#
#
# Indices 1 2 3 4 5 6 
#
# 1 0.023303 -0.016909 -0.002600 -0.000009 -0.010924 0.000008
# 2 -0.016909 0.028649 -0.002130 0.000011 0.009818 -0.000010
# 3 -0.002600 -0.002130 0.009259 0.000003 -0.005594 -0.000002
# 4 -0.000009 0.000011 0.000003 0.116064 0.000008 -0.142513
# 5 -0.010924 0.009818 -0.005594 0.000008 0.033507 -0.000008
# 6 0.000008 -0.000010 -0.000002 -0.142513 -0.000008 0.308283
#
#
# Mechanical properties :
#
#
# Convention : Reuss Voigt Hill
#
# Bulk Modulus (GPa) = 55.76336 68.41624 62.08980
# Shear Modulus (GPa) = 8.79784 25.95039 17.37412
#
# Velocity S-wave (km/s) = 1.96095 3.36784 2.75569
# Velocity P-wave (km/s) = 5.43139 6.71016 6.10435
#
# Compressibility (1/GPa) = 0.01793292
#
# Stress axis : x y z
#
# Youngs Moduli (GPa) = 42.91346 34.90498 107.99897
#
# Poissons Ratio (x) = 0.59021 0.28085
# Poissons Ratio (y) = 0.72562 0.23002
# Poissons Ratio (z) = 0.11160 0.07434
#
# Static dielectric constant tensor:
#      x y z
#    x 1.880380 0.000000 0.040090 
#    y 0.000000 1.999020 0.000000 
#    z 0.040090 0.000000 1.857050 
# 
# From -- ./inp_files/205865.got.cif
#   From: 2010.05.17/outbox.cif.g08.bks.cpg/sg12_103_cif.got.tgz:205865.got - 2010.06.03 13:09:07.
