data_PCOD9190820
_publ_section_title
;
Structure prediction by ZEFSAII (Michael W. Deem and Ramdas Pophale) SiO2 
 PCOD9190820
Probable space group: C 2/M
;
_chemical_formula_sum "Si O2"
_cell_formula_units_Z 56
_cell_length_a 14.938438
_cell_length_b 7.501969
_cell_length_c 29.626739
_cell_angle_alpha 90.000000
_cell_angle_beta 128.703899
_cell_angle_gamma 90.000000
_cell_volume 2591.044125
_symmetry_space_group_name_H-M "C 2/M"
_symmetry_group_IT_number 12
_symmetry_cell_setting 'monoclinic'
loop_
_space_group_symop_operation_xyz
x,y,z
-x,y,-z
-x,-y,-z
x,-y,z
1/2+x,1/2+y,z
1/2-x,1/2+y,-z
1/2-x,1/2-y,-z
1/2+x,1/2-y,z
loop_
_atom_site_type_symbol
_atom_site_label
_atom_site_fract_x
_atom_site_fract_y
_atom_site_fract_z
Si Si1 0.770374 0.209799 0.814988
Si Si2 0.042847 0.216642 0.062952
Si Si3 0.096358 0.711494 0.496217
Si Si4 0.485394 0.218185 0.277536
Si Si5 0.155588 0.693119 0.933716
Si Si6 0.140507 0.284534 0.409356
Si Si7 0.476172 0.783906 0.811276
O O1 0.831413 0.272350 0.880569
O O2 0.646527 0.281888 0.762882
O O3 0.865935 0.231584 0.806108
O O4 0.752379 0.000000 0.816140
O O5 0.956320 0.307511 0.070061
O O6 0.032977 0.000000 0.064397
O O7 0.000000 0.263437 0.000000
O O8 0.075103 0.500000 0.485806
O O9 0.098710 0.781696 0.445419
O O10 0.226012 0.736661 0.554666
O O11 0.000000 0.783938 0.500000
O O12 0.561495 0.279113 0.343488
O O13 0.533340 0.270069 0.243592
O O14 0.486410 0.000000 0.279526
O O15 0.197667 0.500000 0.931213
O O16 0.096225 0.784022 0.871547
O O17 0.250000 0.750000 0.000000
O O18 0.135481 0.500000 0.408792
O O19 0.483278 0.000000 0.815210
#
# Coordination Sequence:
#
# PCOD9190820 Si02
#       7
#     8   8   8   8   8   8   8
#     4   9  18  33  52  73  99 130 168 210 252 305
#     4   9  18  31  50  72  95 124 163 205 253 313
#     4   9  18  33  53  77 108 139 166 203 252 295
#     4   9  18  33  54  75  99 137 174 205 249 303
#     4  10  20  32  49  70  95 124 161 209 260 310
#     4   9  18  33  52  77 105 134 174 211 240 293
#     4   9  19  35  52  70  98 131 166 209 257 305
#
# _framework density 21.612908999999998
#
# number of rings (size 3 to 8) (size 9 to 14) (size 15 to 20)
#    0.000    2.857    0.000    0.429    2.000    2.286 
#    0.000    3.571    0.000    0.000    0.000    0.000 
#    0.000    0.000    0.000    0.000    0.000    0.000 
#
# Total GULP energy -156033.221530 kJ/mol
# GULP energy per Si atom -5572.615055 kJ/mol
# Density = 2.156372 g / cm^3
# Si number density = 21.612909 Si / 1000 Ang^3
#
#
#
# Elastic Constant Matrix: (Units=GPa)
#
#
# Indices 1 2 3 4 5 6 
#
# 1 119.3831 -7.9003 84.8977 0.0000 1.3402 0.0000
# 2 -7.9003 49.7546 -2.9993 0.0000 -3.4237 0.0000
# 3 84.8977 -2.9993 220.1948 0.0000 -7.4149 0.0000
# 4 0.0000 0.0000 0.0000 13.1666 0.0000 3.9919
# 5 1.3402 -3.4237 -7.4149 0.0000 19.0724 0.0000
# 6 0.0000 0.0000 0.0000 3.9919 0.0000 9.1214
#
#
#
# Elastic Compliance Matrix: (Units=1/GPa)
#
#
# Indices 1 2 3 4 5 6 
#
# 1 0.011766 0.001429 -0.004596 0.000000 -0.002357 0.000000
# 2 0.001429 0.020559 -0.000152 0.000000 0.003531 0.000000
# 3 -0.004596 -0.000152 0.006405 0.000000 0.002786 0.000000
# 4 0.000000 0.000000 0.000000 0.087569 0.000000 -0.038324
# 5 -0.002357 0.003531 0.002786 0.000000 0.054315 0.000000
# 6 0.000000 0.000000 0.000000 -0.038324 0.000000 0.126404
#
#
# Mechanical properties :
#
#
# Convention : Reuss Voigt Hill
#
# Bulk Modulus (GPa) = 31.16046 59.70318 45.43182
# Shear Modulus (GPa) = 15.41522 29.29438 22.35480
#
# Velocity S-wave (km/s) = 2.67356 3.68558 3.21958
# Velocity P-wave (km/s) = 4.89687 6.76722 5.90655
#
# Compressibility (1/GPa) = 0.03209195
#
# Stress axis : x y z
#
# Youngs Moduli (GPa) = 84.98988 48.63968 156.11928
#
# Poissons Ratio (x) = -0.06951 0.71759
# Poissons Ratio (y) = -0.12145 0.02373
# Poissons Ratio (z) = 0.39065 0.00739
#
# Static dielectric constant tensor:
#      x y z
#    x 1.759690 0.000000 -0.006270 
#    y 0.000000 1.833260 0.000000 
#    z -0.006270 0.000000 1.816380 
# 
# From -- ./inp_files/313271.got.cif
#   From: 2010.05.17/outbox.cif.g08.bks.cpg/sg12_157_cif.got.tgz:313271.got - 2010.06.03 13:09:07.
