data_PCOD9190644
_publ_section_title
;
Structure prediction by ZEFSAII (Michael W. Deem and Ramdas Pophale) SiO2 
 PCOD9190644
Probable space group: C 2/M
;
_chemical_formula_sum "Si O2"
_cell_formula_units_Z 64
_cell_length_a 32.445326
_cell_length_b 8.344922
_cell_length_c 16.320362
_cell_angle_alpha 90.000000
_cell_angle_beta 55.006707
_cell_angle_gamma 90.000000
_cell_volume 3619.964601
_symmetry_space_group_name_H-M "C 2/M"
_symmetry_group_IT_number 12
_symmetry_cell_setting 'monoclinic'
loop_
_space_group_symop_operation_xyz
x,y,z
-x,y,-z
-x,-y,-z
x,-y,z
1/2+x,1/2+y,z
1/2-x,1/2+y,-z
1/2-x,1/2-y,-z
1/2+x,1/2-y,z
loop_
_atom_site_type_symbol
_atom_site_label
_atom_site_fract_x
_atom_site_fract_y
_atom_site_fract_z
Si Si1 0.862821 0.307414 0.421256
Si Si2 0.773677 0.306950 0.847809
Si Si3 0.535977 0.191322 0.779704
Si Si4 0.205361 0.303794 0.357996
Si Si5 0.072760 0.808855 0.086408
Si Si6 0.309681 0.692965 0.322029
Si Si7 0.087106 0.193298 0.883695
Si Si8 0.675626 0.191367 0.042003
O O1 0.865840 0.500000 0.420851
O O2 0.917385 0.247876 0.329099
O O3 0.841174 0.250577 0.532694
O O4 0.823366 0.262947 0.394871
O O5 0.775721 0.500000 0.844478
O O6 0.792969 0.249049 0.737824
O O7 0.805975 0.250344 0.889282
O O8 0.716115 0.258649 0.931059
O O9 0.481910 0.260543 0.818948
O O10 0.550194 0.238861 0.856585
O O11 0.534114 0.000000 0.776154
O O12 0.205142 0.500000 0.357243
O O13 0.256949 0.254342 0.344277
O O14 0.119565 0.741665 0.083501
O O15 0.077012 0.000000 0.080154
O O16 0.076815 0.750569 0.987343
O O17 0.308741 0.500000 0.329953
O O18 0.356345 0.735392 0.209422
O O19 0.082377 0.000000 0.887294
O O20 0.679315 0.000000 0.036885
#
# Coordination Sequence:
#
# PCOD9190644 Si02
#       8
#     8   8   8   8   8   8   8   8
#     4   9  18  31  46  66  95 128 160 197 236 272
#     4   9  18  34  54  74  98 127 156 187 230 286
#     4  10  20  32  46  68  98 127 158 201 245 277
#     4   9  16  29  50  71  92 125 165 195 225 274
#     4  11  21  33  51  70  92 127 166 197 231 284
#     4   9  16  27  45  68  95 124 155 192 230 275
#     4   9  18  31  46  67  94 126 162 194 230 283
#     4  10  20  33  51  76 102 123 149 192 241 284
#
# _framework density 17.679731
#
# number of rings (size 3 to 8) (size 9 to 14) (size 15 to 20)
#    0.000    2.500    0.000    2.625    0.000    5.500 
#    0.000    3.750    0.000    0.750    0.000    5.250 
#    0.000    0.000    0.000    0.000    0.000    0.000 
#
# Total GULP energy -178535.900719 kJ/mol
# GULP energy per Si atom -5579.246897 kJ/mol
# Density = 1.763949 g / cm^3
# Si number density = 17.679731 Si / 1000 Ang^3
#
#
#
# Elastic Constant Matrix: (Units=GPa)
#
#
# Indices 1 2 3 4 5 6 
#
# 1 93.5564 1.9097 57.8405 0.0000 -9.8895 0.0000
# 2 1.9097 2.5535 7.6442 0.0001 1.4940 0.0002
# 3 57.8405 7.6442 128.1623 0.0000 7.6835 0.0000
# 4 0.0000 0.0001 0.0000 16.7922 0.0000 -1.5512
# 5 -9.8895 1.4940 7.6835 0.0000 14.2399 0.0000
# 6 0.0000 0.0002 0.0000 -1.5512 0.0000 24.8657
#
#
#
# Elastic Compliance Matrix: (Units=1/GPa)
#
#
# Indices 1 2 3 4 5 6 
#
# 1 0.018395 0.004883 -0.009640 0.000000 0.017464 0.000000
# 2 0.004883 0.496417 -0.029859 -0.000002 -0.032581 -0.000005
# 3 -0.009640 -0.029859 0.014621 0.000000 -0.011451 0.000000
# 4 0.000000 -0.000002 0.000000 0.059896 0.000000 0.003737
# 5 0.017464 -0.032581 -0.011451 0.000000 0.091951 0.000000
# 6 0.000000 -0.000005 0.000000 0.003737 0.000000 0.040449
#
#
# Mechanical properties :
#
#
# Convention : Reuss Voigt Hill
#
# Bulk Modulus (GPa) = 2.17297 39.89567 21.03432
# Shear Modulus (GPa) = 5.29459 21.63810 13.46634
#
# Velocity S-wave (km/s) = 1.73240 3.50221 2.76285
# Velocity P-wave (km/s) = 2.28766 6.24250 4.70118
#
# Compressibility (1/GPa) = 0.46020021
#
# Stress axis : x y z
#
# Youngs Moduli (GPa) = 54.36252 2.01444 68.39639
#
# Poissons Ratio (x) = -0.00984 0.65934
# Poissons Ratio (y) = -0.26545 2.04224
# Poissons Ratio (z) = 0.52406 0.06015
#
# Static dielectric constant tensor:
#      x y z
#    x 1.583330 0.000000 -0.005850 
#    y 0.000000 1.609160 0.000000 
#    z -0.005850 0.000000 1.625970 
# 
# From -- ./inp_files/248997.got.cif
#   From: 2010.05.17/outbox.cif.g08.bks.cpg/sg12_125_cif.got.tgz:248997.got - 2010.06.03 13:09:07.
