data_PCOD9190217
_publ_section_title
;
Structure prediction by ZEFSAII (Michael W. Deem and Ramdas Pophale) SiO2 
 PCOD9190217
Probable space group: C 2/M
;
_chemical_formula_sum "Si O2"
_cell_formula_units_Z 38
_cell_length_a 15.843661
_cell_length_b 14.525266
_cell_length_c 6.880594
_cell_angle_alpha 90.000000
_cell_angle_beta 71.392607
_cell_angle_gamma 90.000000
_cell_volume 1500.682902
_symmetry_space_group_name_H-M "C 2/M"
_symmetry_group_IT_number 12
_symmetry_cell_setting 'monoclinic'
loop_
_space_group_symop_operation_xyz
x,y,z
-x,y,-z
-x,-y,-z
x,-y,z
1/2+x,1/2+y,z
1/2-x,1/2+y,-z
1/2-x,1/2-y,-z
1/2+x,1/2-y,z
loop_
_atom_site_type_symbol
_atom_site_label
_atom_site_fract_x
_atom_site_fract_y
_atom_site_fract_z
Si Si1 0.793422 0.893904 0.552029
Si Si2 0.000000 0.000000 0.000000
Si Si3 0.584603 0.181869 0.169205
Si Si4 0.686239 0.000000 0.117327
Si Si5 0.843187 0.869587 0.968650
Si Si6 0.385199 0.787416 0.390506
O O1 0.823138 0.889816 0.755223
O O2 0.692424 0.857991 0.612063
O O3 0.852077 0.818163 0.397045
O O4 0.804905 0.000000 0.484384
O O5 0.932856 0.920729 0.960900
O O6 0.642730 0.260760 0.022537
O O7 0.599784 0.197322 0.389954
O O8 0.479176 0.195503 0.221448
O O9 0.617303 0.080777 0.100465
O O10 0.758844 0.081295 0.128055
#
# Coordination Sequence:
#
# PCOD9190217 Si02
#       6
#     8   2   8   4   8   8
#     4  10  19  41  68  95 133 167 213 279 330 393
#     4  10  20  44  64  92 118 178 216 258 340 366
#     4  10  22  43  65  96 134 166 225 277 312 410
#     4  11  22  40  67  91 127 188 209 262 339 376
#     4  10  22  45  63  94 131 169 226 275 319 390
#     4   9  22  40  65 101 127 171 213 272 345 371
#
# _framework density 25.321805000000001
#
# number of rings (size 3 to 8) (size 9 to 14) (size 15 to 20)
#    0.000    2.105    2.105    0.632    2.947    0.842 
#   30.316    3.158    0.000    0.000    0.000    0.000 
#    0.000    0.000    0.000    0.000    0.000    0.000 
#
# Total GULP energy -105789.560356 kJ/mol
# GULP energy per Si atom -5567.871598 kJ/mol
# Density = 2.526417 g / cm^3
# Si number density = 25.321805 Si / 1000 Ang^3
#
#
#
# Elastic Constant Matrix: (Units=GPa)
#
#
# Indices 1 2 3 4 5 6 
#
# 1 225.0499 87.2070 37.9014 0.0000 -15.6819 0.0000
# 2 87.2070 304.3457 38.1541 0.0000 -26.1168 0.0000
# 3 37.9014 38.1541 89.5939 0.0000 5.2330 0.0000
# 4 0.0000 0.0000 0.0000 9.2217 0.0000 3.9090
# 5 -15.6819 -26.1168 5.2330 0.0000 31.5701 0.0000
# 6 0.0000 0.0000 0.0000 3.9090 0.0000 54.8138
#
#
#
# Elastic Compliance Matrix: (Units=1/GPa)
#
#
# Indices 1 2 3 4 5 6 
#
# 1 0.005339 -0.001116 -0.001903 0.000000 0.002044 0.000000
# 2 -0.001116 0.004044 -0.001427 0.000000 0.003028 0.000000
# 3 -0.001903 -0.001427 0.012822 0.000000 -0.004251 0.000000
# 4 0.000000 0.000000 0.000000 0.111820 0.000000 -0.007974
# 5 0.002044 0.003028 -0.004251 0.000000 0.035901 0.000000
# 6 0.000000 0.000000 0.000000 -0.007974 0.000000 0.018812
#
#
# Mechanical properties :
#
#
# Convention : Reuss Voigt Hill
#
# Bulk Modulus (GPa) = 75.10792 105.05716 90.08254
# Shear Modulus (GPa) = 24.74419 49.50292 37.12356
#
# Velocity S-wave (km/s) = 3.12939 4.42628 3.83308
# Velocity P-wave (km/s) = 6.54089 8.22809 7.43252
#
# Compressibility (1/GPa) = 0.01331418
#
# Stress axis : x y z
#
# Youngs Moduli (GPa) = 187.31089 247.26792 77.98848
#
# Poissons Ratio (x) = 0.27590 0.14839
# Poissons Ratio (y) = 0.20900 0.11130
# Poissons Ratio (z) = 0.35640 0.35287
#
# Static dielectric constant tensor:
#      x y z
#    x 1.958660 0.000000 0.073640 
#    y 0.000000 1.913990 0.000000 
#    z 0.073640 0.000000 2.179090 
# 
# From -- ./inp_files/59013.got.cif
#   From: 2010.05.17/outbox.cif.g08.bks.cpg/sg12_30_cif.got.tgz:59013.got - 2010.06.03 13:09:07.
