data_PCOD9190676
_publ_section_title
;
Structure prediction by ZEFSAII (Michael W. Deem and Ramdas Pophale) SiO2 
 PCOD9190676
Probable space group: C 2/M
;
_chemical_formula_sum "Si O2"
_cell_formula_units_Z 64
_cell_length_a 12.398632
_cell_length_b 14.057828
_cell_length_c 19.833969
_cell_angle_alpha 90.000000
_cell_angle_beta 100.915720
_cell_angle_gamma 90.000000
_cell_volume 3394.469343
_symmetry_space_group_name_H-M "C 2/M"
_symmetry_group_IT_number 12
_symmetry_cell_setting 'monoclinic'
loop_
_space_group_symop_operation_xyz
x,y,z
-x,y,-z
-x,-y,-z
x,-y,z
1/2+x,1/2+y,z
1/2-x,1/2+y,-z
1/2-x,1/2-y,-z
1/2+x,1/2-y,z
loop_
_atom_site_type_symbol
_atom_site_label
_atom_site_fract_x
_atom_site_fract_y
_atom_site_fract_z
Si Si1 0.752544 0.390609 0.543133
Si Si2 0.081481 0.761860 0.152471
Si Si3 0.102315 0.889312 0.885578
Si Si4 0.436829 0.105971 0.063107
Si Si5 0.262296 0.109855 0.789021
Si Si6 0.910940 0.107534 0.348627
Si Si7 0.421458 0.728144 0.556241
Si Si8 0.821984 0.885534 0.958722
O O1 0.778423 0.500000 0.532065
O O2 0.678445 0.386323 0.601645
O O3 0.675247 0.345122 0.476263
O O4 0.860100 0.326268 0.564178
O O5 0.159167 0.700740 0.210314
O O6 0.144039 0.819694 0.100124
O O7 0.993887 0.838782 0.167203
O O8 0.000974 0.681604 0.113965
O O9 0.217018 0.880079 0.860012
O O10 0.076895 0.000000 0.885288
O O11 0.114102 0.857842 0.964907
O O12 0.307571 0.126405 0.041962
O O13 0.446042 0.000000 0.093885
O O14 0.500000 0.105105 0.000000
O O15 0.159086 0.118368 0.727193
O O16 0.304534 0.000000 0.786178
O O17 0.004421 0.183814 0.376084
O O18 0.957433 0.000000 0.356307
O O19 0.500000 0.738341 0.500000
O O20 0.840767 0.000000 0.949035
#
# Coordination Sequence:
#
# PCOD9190676 Si02
#       8
#     8   8   8   8   8   8   8   8
#     4   9  17  30  51  80 109 135 166 206 247 285
#     4  12  21  32  52  73  93 122 160 201 250 301
#     4  10  21  36  52  71  96 125 160 204 253 304
#     4  10  20  32  47  68  93 118 145 186 240 294
#     4  10  22  37  51  71  99 131 168 208 246 290
#     4   9  18  34  53  71  98 137 175 206 239 285
#     4   9  17  30  52  80 107 136 169 204 242 287
#     4  10  21  36  52  72  97 123 156 202 256 312
#
# _framework density 18.854198
#
# number of rings (size 3 to 8) (size 9 to 14) (size 15 to 20)
#    0.000    2.125    0.000    3.750    0.000    7.250 
#    0.000    0.000    0.000    1.500    0.000    0.000 
#    0.000    0.000    0.000    0.000    0.000    0.000 
#
# Total GULP energy -178446.922759 kJ/mol
# GULP energy per Si atom -5576.466336 kJ/mol
# Density = 1.881129 g / cm^3
# Si number density = 18.854198 Si / 1000 Ang^3
#
#
#
# Elastic Constant Matrix: (Units=GPa)
#
#
# Indices 1 2 3 4 5 6 
#
# 1 66.4183 41.3299 0.5065 0.0000 19.6902 0.0000
# 2 41.3299 117.4398 23.0409 0.0000 20.5416 0.0000
# 3 0.5065 23.0409 37.8385 0.0000 14.5134 0.0000
# 4 0.0000 0.0000 0.0000 19.7140 0.0000 6.9883
# 5 19.6902 20.5416 14.5134 0.0000 19.0827 0.0000
# 6 0.0000 0.0000 0.0000 6.9883 0.0000 41.2591
#
#
#
# Elastic Compliance Matrix: (Units=1/GPa)
#
#
# Indices 1 2 3 4 5 6 
#
# 1 0.031208 -0.008077 0.019084 0.000000 -0.038022 0.000000
# 2 -0.008077 0.012811 -0.007906 0.000000 0.000556 0.000000
# 3 0.019084 -0.007906 0.049804 0.000000 -0.049060 0.000000
# 4 0.000000 0.000000 0.000000 0.053966 0.000000 -0.009140
# 5 -0.038022 0.000556 -0.049060 0.000000 0.128350 0.000000
# 6 0.000000 0.000000 0.000000 -0.009140 0.000000 0.025785
#
#
# Mechanical properties :
#
#
# Convention : Reuss Voigt Hill
#
# Bulk Modulus (GPa) = 9.99734 39.05015 24.52375
# Shear Modulus (GPa) = 15.19457 26.46577 20.83017
#
# Velocity S-wave (km/s) = 2.84191 3.75067 3.32746
# Velocity P-wave (km/s) = 4.01031 6.28596 5.27238
#
# Compressibility (1/GPa) = 0.10002658
#
# Stress axis : x y z
#
# Youngs Moduli (GPa) = 32.04265 78.05640 20.07852
#
# Poissons Ratio (x) = 0.63043 -0.38318
# Poissons Ratio (y) = 0.25880 0.15875
# Poissons Ratio (z) = -0.61151 0.61714
#
# Static dielectric constant tensor:
#      x y z
#    x 1.705900 0.000000 0.006960 
#    y 0.000000 1.703120 0.000000 
#    z 0.006960 0.000000 1.651090 
# 
# From -- ./inp_files/305467.got.cif
#   From: 2010.05.17/outbox.cif.g08.bks.cpg/sg12_153_cif.got.tgz:305467.got - 2010.06.03 13:09:07.
