data_PCOD9190068
_publ_section_title
;
Structure prediction by ZEFSAII (Michael W. Deem and Ramdas Pophale) SiO2 
 PCOD9190068
Probable space group: C 2/M
;
_chemical_formula_sum "Si O2"
_cell_formula_units_Z 50
_cell_length_a 8.642202
_cell_length_b 17.652391
_cell_length_c 23.581875
_cell_angle_alpha 90.000000
_cell_angle_beta 142.379395
_cell_angle_gamma 90.000000
_cell_volume 2196.049831
_symmetry_space_group_name_H-M "C 2/M"
_symmetry_group_IT_number 12
_symmetry_cell_setting 'monoclinic'
loop_
_space_group_symop_operation_xyz
x,y,z
-x,y,-z
-x,-y,-z
x,-y,z
1/2+x,1/2+y,z
1/2-x,1/2+y,-z
1/2-x,1/2-y,-z
1/2+x,1/2-y,z
loop_
_atom_site_type_symbol
_atom_site_label
_atom_site_fract_x
_atom_site_fract_y
_atom_site_fract_z
Si Si1 0.549150 0.085913 0.707784
Si Si2 0.607385 0.364383 0.911497
Si Si3 0.403383 0.083590 0.796701
Si Si4 0.747327 0.219111 0.884502
Si Si5 0.524081 0.213144 0.399396
Si Si6 0.000000 0.500000 0.000000
Si Si7 0.511460 0.686414 0.712547
O O1 0.420924 0.084972 0.733081
O O2 0.415927 0.144574 0.626528
O O3 0.845375 0.109937 0.802990
O O4 0.541831 0.000000 0.683996
O O5 0.737807 0.293320 0.919436
O O6 0.493206 0.327528 0.935708
O O7 0.802497 0.433335 0.966930
O O8 0.571672 0.155234 0.861669
O O9 0.137552 0.103909 0.748999
O O10 0.489616 0.000000 0.839645
O O11 0.626433 0.255380 0.791647
O O12 0.750000 0.250000 0.500000
O O13 0.422118 0.279008 0.328937
O O14 0.289551 0.185538 0.368769
#
# Coordination Sequence:
#
# PCOD9190068 Si02
#       7
#     8   8   8   8   8   2   8
#     4  10  19  39  66  93 125 181 221 266 332 404
#     4  11  22  41  69  97 134 167 220 265 332 399
#     4  10  20  35  63 100 128 165 231 272 315 392
#     4  11  19  39  69  94 128 182 215 262 320 412
#     4  12  23  36  60  94 133 171 230 277 322 383
#     4  12  28  44  68 110 126 164 216 288 326 396
#     4  12  19  38  60  93 126 176 228 264 326 383
#
# _framework density 22.768153999999999
#
# number of rings (size 3 to 8) (size 9 to 14) (size 15 to 20)
#    0.000    0.960    8.800    0.480    1.120    1.280 
#    1.440    0.800    0.000    5.760    0.000    0.000 
#    0.000    0.000    0.000    0.000    0.000    0.000 
#
# Total GULP energy -139399.491733 kJ/mol
# GULP energy per Si atom -5575.979669 kJ/mol
# Density = 2.271633 g / cm^3
# Si number density = 22.768154 Si / 1000 Ang^3
#
#
#
# Elastic Constant Matrix: (Units=GPa)
#
#
# Indices 1 2 3 4 5 6 
#
# 1 94.5904 37.9462 34.9357 0.0003 35.8655 0.0003
# 2 37.9462 207.3077 35.3518 0.0003 12.1420 0.0002
# 3 34.9357 35.3518 81.9430 0.0003 13.8185 0.0001
# 4 0.0003 0.0003 0.0003 31.4733 0.0001 7.9581
# 5 35.8655 12.1420 13.8185 0.0001 21.8481 0.0002
# 6 0.0003 0.0002 0.0001 7.9581 0.0002 37.2110
#
#
#
# Elastic Compliance Matrix: (Units=1/GPa)
#
#
# Indices 1 2 3 4 5 6 
#
# 1 0.030561 -0.002151 -0.004301 0.000000 -0.046252 0.000000
# 2 -0.002151 0.005412 -0.001686 0.000000 0.001590 0.000000
# 3 -0.004301 -0.001686 0.015018 0.000000 -0.001500 0.000000
# 4 0.000000 0.000000 0.000000 0.033589 0.000000 -0.007184
# 5 -0.046252 0.001590 -0.001500 0.000000 0.121762 0.000000
# 6 0.000000 0.000000 0.000000 -0.007184 0.000000 0.028410
#
#
# Mechanical properties :
#
#
# Convention : Reuss Voigt Hill
#
# Bulk Modulus (GPa) = 28.80753 66.70093 47.75423
# Shear Modulus (GPa) = 19.04040 36.48031 27.76035
#
# Velocity S-wave (km/s) = 2.89498 4.00716 3.49558
# Velocity P-wave (km/s) = 4.88411 7.12524 6.10834
#
# Compressibility (1/GPa) = 0.03471315
#
# Stress axis : x y z
#
# Youngs Moduli (GPa) = 32.72177 184.77890 66.58777
#
# Poissons Ratio (x) = 0.39754 0.28642
# Poissons Ratio (y) = 0.07040 0.11225
# Poissons Ratio (z) = 0.14075 0.31149
#
# Static dielectric constant tensor:
#      x y z
#    x 1.896530 0.000000 -0.000710 
#    y 0.000000 1.806350 0.000000 
#    z -0.000710 0.000000 1.966580 
# 
# From -- ./inp_files/256498.got.cif
#   From: 2010.05.17/outbox.cif.g08.bks.cpg/sg12_129_cif.got.tgz:256498.got - 2010.06.03 13:09:07.
