data_PCOD9190635
_publ_section_title
;
Structure prediction by ZEFSAII (Michael W. Deem and Ramdas Pophale) SiO2 
 PCOD9190635
Probable space group: C 2/M
;
_chemical_formula_sum "Si O2"
_cell_formula_units_Z 56
_cell_length_a 8.936471
_cell_length_b 31.332507
_cell_length_c 18.577371
_cell_angle_alpha 90.000000
_cell_angle_beta 43.816491
_cell_angle_gamma 90.000000
_cell_volume 3601.402825
_symmetry_space_group_name_H-M "C 2/M"
_symmetry_group_IT_number 12
_symmetry_cell_setting 'monoclinic'
loop_
_space_group_symop_operation_xyz
x,y,z
-x,y,-z
-x,-y,-z
x,-y,z
1/2+x,1/2+y,z
1/2-x,1/2+y,-z
1/2-x,1/2-y,-z
1/2+x,1/2-y,z
loop_
_atom_site_type_symbol
_atom_site_label
_atom_site_fract_x
_atom_site_fract_y
_atom_site_fract_z
Si Si1 0.101434 0.291963 0.384677
Si Si2 0.352712 0.050554 0.217242
Si Si3 0.327901 0.551794 1.000000
Si Si4 0.743410 0.387468 0.385082
Si Si5 0.495563 0.550554 0.217242
Si Si6 0.398656 0.887468 0.614918
Si Si7 0.244536 0.208037 0.384677
O O1 0.195804 0.339378 0.342248
O O2 0.251085 0.250000 0.332610
O O3 0.000000 0.293471 0.500000
O O4 0.911757 0.286458 0.392162
O O5 0.586125 0.064438 0.105715
O O6 0.289988 0.077783 0.308404
O O7 0.173233 0.055768 0.217845
O O8 0.365310 0.000000 0.230552
O O9 0.327912 0.500000 1.000000
O O10 0.500000 0.566187 0.000000
O O11 0.403271 0.564438 0.894285
O O12 0.500000 0.391076 0.500000
O O13 0.777453 0.339378 0.342248
O O14 0.909856 0.392227 0.393430
O O15 0.443033 0.500000 0.230552
O O16 0.284800 0.577783 0.308404
O O17 0.500000 0.891076 0.500000
O O18 0.000000 0.206529 0.500000
#
# Coordination Sequence:
#
# PCOD9190635 Si02
#       7
#     8   8   8   8   8   8   8
#     4   9  16  26  42  63  87 116 150 187 226 268
#     4  10  20  33  49  69  93 122 156 193 231 271
#     4   9  17  31  51  71  90 115 150 193 235 271
#     4  10  20  32  46  67  95 126 158 190 228 276
#     4  10  20  33  49  69  93 122 156 193 231 271
#     4  10  20  32  46  67  95 126 158 190 228 276
#     4   9  16  26  42  63  87 116 150 187 226 268
#
# _framework density 15.549496
#
# number of rings (size 3 to 8) (size 9 to 14) (size 15 to 20)
#    0.000    2.429    0.000    3.857    0.000    7.429 
#    0.000    0.000    0.000    0.000    0.000    1.000 
#    0.000    0.000    0.000    0.000    0.000    0.000 
#
# Total GULP energy -155973.960610 kJ/mol
# GULP energy per Si atom -5570.498593 kJ/mol
# Density = 1.551410 g / cm^3
# Si number density = 15.549496 Si / 1000 Ang^3
#
#
#
# Elastic Constant Matrix: (Units=GPa)
#
#
# Indices 1 2 3 4 5 6 
#
# 1 96.0324 69.5264 50.4902 0.0000 0.1015 0.0000
# 2 69.5264 101.5394 63.5018 0.0000 -0.0710 0.0000
# 3 50.4902 63.5018 90.4482 0.0000 -0.1673 0.0000
# 4 0.0000 0.0000 0.0000 -2.2094 0.0000 -0.3404
# 5 0.1015 -0.0710 -0.1673 0.0000 27.0783 0.0000
# 6 0.0000 0.0000 0.0000 -0.3404 0.0000 26.6934
#
#
#
# Elastic Compliance Matrix: (Units=1/GPa)
#
#
# Indices 1 2 3 4 5 6 
#
# 1 0.021072 -0.012608 -0.002911 0.000000 -0.000130 0.000000
# 2 -0.012608 0.025101 -0.010585 0.000000 0.000048 0.000000
# 3 -0.002911 -0.010585 0.020113 0.000000 0.000107 0.000000
# 4 0.000000 0.000000 0.000000 -0.451727 0.000000 -0.005761
# 5 -0.000130 0.000048 0.000107 0.000000 0.036931 0.000000
# 6 0.000000 0.000000 0.000000 -0.005761 0.000000 0.037389
#
#
# Mechanical properties :
#
#
# Convention : Reuss Voigt Hill
#
# Bulk Modulus (GPa) = 71.03431 72.78411 71.90921
# Shear Modulus (GPa) = -19.66789 17.27925 -1.19432
#
# Velocity S-wave (km/s) = -3.56034 3.33715 -0.87735
# Velocity P-wave (km/s) = 5.37406 7.85865 6.73197
#
# Compressibility (1/GPa) = 0.01407770
#
# Stress axis : x y z
#
# Youngs Moduli (GPa) = 47.45669 39.83929 49.71952
#
# Poissons Ratio (x) = 0.50228 0.14475
# Poissons Ratio (y) = 0.59832 0.52627
# Poissons Ratio (z) = 0.13817 0.42169
#
# Static dielectric constant tensor:
#      x y z
#    x 1.517700 0.000000 -0.000440 
#    y 0.000000 1.556780 0.000000 
#    z -0.000440 0.000000 1.480280 
# 
# From -- ./inp_files/260103.got.cif
#   From: 2010.05.17/outbox.cif.g08.bks.cpg/sg12_131_cif.got.tgz:260103.got - 2010.06.03 13:09:07.
