data_PCOD9190016
_publ_section_title
;
Structure prediction by ZEFSAII (Michael W. Deem and Ramdas Pophale) SiO2 
 PCOD9190016
Probable space group: C 2/M
;
_chemical_formula_sum "Si O2"
_cell_formula_units_Z 48
_cell_length_a 14.878543
_cell_length_b 20.120133
_cell_length_c 13.303145
_cell_angle_alpha 90.000000
_cell_angle_beta 151.011389
_cell_angle_gamma 90.000000
_cell_volume 1930.016540
_symmetry_space_group_name_H-M "C 2/M"
_symmetry_group_IT_number 12
_symmetry_cell_setting 'monoclinic'
loop_
_space_group_symop_operation_xyz
x,y,z
-x,y,-z
-x,-y,-z
x,-y,z
1/2+x,1/2+y,z
1/2-x,1/2+y,-z
1/2-x,1/2-y,-z
1/2+x,1/2-y,z
loop_
_atom_site_type_symbol
_atom_site_label
_atom_site_fract_x
_atom_site_fract_y
_atom_site_fract_z
Si Si1 0.242892 0.632323 0.687690
Si Si2 0.269746 0.000000 0.847066
Si Si3 0.291240 0.713805 0.317238
Si Si4 0.168112 0.000000 0.523882
Si Si5 0.636224 0.641427 0.414702
Si Si6 0.628254 0.922439 0.767421
Si Si7 0.201127 0.360181 0.039780
O O1 0.199326 0.707332 0.678457
O O2 0.356795 0.648179 0.698172
O O3 0.282079 0.595012 0.831941
O O4 0.071347 0.589210 0.477602
O O5 0.348827 0.067992 0.964744
O O6 0.271911 0.000000 0.730223
O O7 0.052200 0.000000 0.666798
O O8 0.500000 0.686883 0.500000
O O9 0.256065 0.687658 0.397513
O O10 0.170365 0.689407 0.103172
O O11 0.207259 0.932828 0.504925
O O12 0.420287 0.645588 0.231284
O O13 0.653513 0.000000 0.823717
O O14 0.624290 0.866852 0.851879
#
# Coordination Sequence:
#
# PCOD9190016 Si02
#       7
#     8   4   8   4   8   8   8
#     4  11  23  41  58  84 123 167 199 234 294 368
#     4   9  14  32  54  89 116 142 193 244 303 342
#     4  10  19  39  63  88 116 156 202 243 299 356
#     4   9  16  28  56  89 114 148 189 248 303 336
#     4  10  21  34  63  90 119 152 199 254 294 347
#     4  11  24  42  61  84 121 166 202 237 293 360
#     4  10  20  37  65  89 115 152 201 257 292 342
#
# _framework density 24.870252000000001
#
# number of rings (size 3 to 8) (size 9 to 14) (size 15 to 20)
#    0.000    1.833    4.167    1.500    2.333    1.333 
#    0.000    1.667    3.667    2.000    0.000    0.000 
#    0.000    0.000    0.000    0.000    0.000    0.000 
#
# Total GULP energy -133806.807911 kJ/mol
# GULP energy per Si atom -5575.283663 kJ/mol
# Density = 2.481365 g / cm^3
# Si number density = 24.870252 Si / 1000 Ang^3
#
#
#
# Elastic Constant Matrix: (Units=GPa)
#
#
# Indices 1 2 3 4 5 6 
#
# 1 137.0407 26.0222 22.3023 0.0000 -26.3191 0.0000
# 2 26.0222 76.2494 1.8752 0.0000 -7.4331 0.0000
# 3 22.3023 1.8752 76.6708 0.0000 -29.6359 0.0000
# 4 0.0000 0.0000 0.0000 10.9923 0.0000 -12.2949
# 5 -26.3191 -7.4331 -29.6359 0.0000 30.6037 0.0000
# 6 0.0000 0.0000 0.0000 -12.2949 0.0000 5.4009
#
#
#
# Elastic Compliance Matrix: (Units=1/GPa)
#
#
# Indices 1 2 3 4 5 6 
#
# 1 0.009161 -0.002391 0.000343 0.000000 0.007629 0.000000
# 2 -0.002391 0.014164 0.001413 0.000000 0.002752 0.000000
# 3 0.000343 0.001413 0.021025 0.000000 0.020998 0.000000
# 4 0.000000 0.000000 0.000000 -0.058836 0.000000 -0.133937
# 5 0.007629 0.002752 0.020998 0.000000 0.060240 0.000000
# 6 0.000000 0.000000 0.000000 -0.133937 0.000000 -0.119746
#
#
# Mechanical properties :
#
#
# Convention : Reuss Voigt Hill
#
# Bulk Modulus (GPa) = 23.21286 43.37335 33.29311
# Shear Modulus (GPa) = -85.67241 25.38345 -30.14448
#
# Velocity S-wave (km/s) = -5.87559 3.19820 -3.48526
# Velocity P-wave (km/s) = 6.05609 5.57815 1.66740
#
# Compressibility (1/GPa) = 0.04307957
#
# Stress axis : x y z
#
# Youngs Moduli (GPa) = 109.16355 70.59950 47.56235
#
# Poissons Ratio (x) = 0.16880 -0.01631
# Poissons Ratio (y) = 0.26101 -0.06720
# Poissons Ratio (z) = -0.03742 -0.09975
#
# Static dielectric constant tensor:
#      x y z
#    x 2.104690 0.000000 0.007580 
#    y 0.000000 1.878680 0.000000 
#    z 0.007580 0.000000 2.042400 
# 
# From -- ./inp_files/148066.got.cif
#   From: 2010.05.17/outbox.cif.g08.bks.cpg/sg12_75_cif.got.tgz:148066.got - 2010.06.03 13:09:07.
