data_PCOD9190504
_publ_section_title
;
Structure prediction by ZEFSAII (Michael W. Deem and Ramdas Pophale) SiO2 
 PCOD9190504
Probable space group: C 2/M
;
_chemical_formula_sum "Si O2"
_cell_formula_units_Z 64
_cell_length_a 25.770084
_cell_length_b 7.634329
_cell_length_c 15.836938
_cell_angle_alpha 90.000000
_cell_angle_beta 68.458927
_cell_angle_gamma 90.000000
_cell_volume 2898.097954
_symmetry_space_group_name_H-M "C 2/M"
_symmetry_group_IT_number 12
_symmetry_cell_setting 'monoclinic'
loop_
_space_group_symop_operation_xyz
x,y,z
-x,y,-z
-x,-y,-z
x,-y,z
1/2+x,1/2+y,z
1/2-x,1/2+y,-z
1/2-x,1/2-y,-z
1/2+x,1/2-y,z
loop_
_atom_site_type_symbol
_atom_site_label
_atom_site_fract_x
_atom_site_fract_y
_atom_site_fract_z
Si Si1 0.010230 0.211958 0.189793
Si Si2 0.465075 0.286706 0.644533
Si Si3 0.769029 0.703221 0.252972
Si Si4 0.287935 0.209771 0.056687
Si Si5 0.293569 0.711002 0.547505
Si Si6 0.893933 0.800669 0.208486
Si Si7 0.911542 0.293103 0.010887
Si Si8 0.415684 0.713651 0.501440
O O1 0.042632 0.270783 0.254517
O O2 0.040954 0.264345 0.085920
O O3 0.945952 0.274139 0.229245
O O4 0.007667 0.000000 0.191940
O O5 0.463762 0.500000 0.645312
O O6 0.527516 0.233069 0.579036
O O7 0.423180 0.232508 0.595238
O O8 0.752592 0.500000 0.255140
O O9 0.766962 0.780644 0.159861
O O10 0.731240 0.780386 0.349238
O O11 0.833911 0.710428 0.242680
O O12 0.289502 0.000000 0.063718
O O13 0.250000 0.250000 0.000000
O O14 0.352125 0.266192 0.007970
O O15 0.296128 0.500000 0.551373
O O16 0.250000 0.750000 0.500000
O O17 0.357092 0.773488 0.498129
O O18 0.883723 0.000000 0.242557
O O19 0.915993 0.798917 0.098516
O O20 0.909138 0.500000 0.031549
O O21 0.416052 0.500000 0.498921
#
# Coordination Sequence:
#
# PCOD9190504 Si02
#       8
#     8   8   8   8   8   8   8   8
#     4  10  20  31  50  80 106 129 172 224 262 304
#     4   8  15  29  50  77 103 133 172 218 267 311
#     4   9  20  37  52  75 109 144 180 215 263 328
#     4   9  19  35  54  75 102 136 175 216 261 314
#     4  10  21  35  55  81 109 142 182 224 268 319
#     4  10  20  33  52  77 106 137 172 217 263 306
#     4  10  21  36  51  72 105 141 174 208 256 319
#     4   8  15  30  52  75 104 137 172 215 265 316
#
# _framework density 22.083451
#
# number of rings (size 3 to 8) (size 9 to 14) (size 15 to 20)
#    0.000    2.750    0.000    2.625    1.750    6.500 
#    0.000    2.500    0.000    0.750    0.000    1.750 
#    0.000    0.000    0.000    0.000    0.000    0.000 
#
# Total GULP energy -178558.252578 kJ/mol
# GULP energy per Si atom -5579.945393 kJ/mol
# Density = 2.203319 g / cm^3
# Si number density = 22.083451 Si / 1000 Ang^3
#
#
#
# Elastic Constant Matrix: (Units=GPa)
#
#
# Indices 1 2 3 4 5 6 
#
# 1 105.4966 -3.1748 8.7883 0.0000 11.9436 0.0000
# 2 -3.1748 43.2630 -4.7180 0.0000 0.1826 0.0000
# 3 8.7883 -4.7180 25.6229 0.0000 -5.4810 0.0000
# 4 0.0000 0.0000 0.0000 0.7462 0.0000 -0.2156
# 5 11.9436 0.1826 -5.4810 0.0000 24.8748 0.0000
# 6 0.0000 0.0000 0.0000 -0.2156 0.0000 18.3351
#
#
#
# Elastic Compliance Matrix: (Units=1/GPa)
#
#
# Indices 1 2 3 4 5 6 
#
# 1 0.010594 0.000269 -0.004904 0.000000 -0.006169 0.000000
# 2 0.000269 0.023611 0.004398 0.000000 0.000667 0.000000
# 3 -0.004904 0.004398 0.044094 0.000000 0.012038 0.000000
# 4 0.000000 0.000000 0.000000 1.344645 0.000000 0.015813
# 5 -0.006169 0.000667 0.012038 0.000000 0.045811 0.000000
# 6 0.000000 0.000000 0.000000 0.015813 0.000000 0.054726
#
#
# Mechanical properties :
#
#
# Convention : Reuss Voigt Hill
#
# Bulk Modulus (GPa) = 12.84934 19.57485 16.21210
# Shear Modulus (GPa) = 3.22602 20.35704 11.79153
#
# Velocity S-wave (km/s) = 1.20996 3.03945 2.31325
# Velocity P-wave (km/s) = 2.78983 4.60445 3.80684
#
# Compressibility (1/GPa) = 0.07782502
#
# Stress axis : x y z
#
# Youngs Moduli (GPa) = 94.39314 42.35323 22.67868
#
# Poissons Ratio (x) = -0.01138 0.11121
# Poissons Ratio (y) = -0.02536 -0.09974
# Poissons Ratio (z) = 0.46288 -0.18627
#
# Static dielectric constant tensor:
#      x y z
#    x 1.815190 0.000000 0.009570 
#    y 0.000000 1.851860 0.000000 
#    z 0.009570 0.000000 1.811300 
# 
# From -- ./inp_files/243762.got.cif
#   From: 2010.05.17/outbox.cif.g08.bks.cpg/sg12_122_cif.got.tgz:243762.got - 2010.06.03 13:09:07.
