data_PCOD9190380
_publ_section_title
;
Structure prediction by ZEFSAII (Michael W. Deem and Ramdas Pophale) SiO2 
 PCOD9190380
Probable space group: C 2/M
;
_chemical_formula_sum "Si O2"
_cell_formula_units_Z 56
_cell_length_a 15.926436
_cell_length_b 7.402105
_cell_length_c 18.514526
_cell_angle_alpha 90.000000
_cell_angle_beta 65.955840
_cell_angle_gamma 90.000000
_cell_volume 1993.275909
_symmetry_space_group_name_H-M "C 2/M"
_symmetry_group_IT_number 12
_symmetry_cell_setting 'monoclinic'
loop_
_space_group_symop_operation_xyz
x,y,z
-x,y,-z
-x,-y,-z
x,-y,z
1/2+x,1/2+y,z
1/2-x,1/2+y,-z
1/2-x,1/2-y,-z
1/2+x,1/2-y,z
loop_
_atom_site_type_symbol
_atom_site_label
_atom_site_fract_x
_atom_site_fract_y
_atom_site_fract_z
Si Si1 0.233059 0.279488 0.693793
Si Si2 0.780716 0.213354 0.885002
Si Si3 0.596771 0.290826 0.443846
Si Si4 0.055560 0.284243 0.264208
Si Si5 0.898835 0.291357 0.984992
Si Si6 0.438435 0.220921 0.163133
Si Si7 0.383180 0.782636 0.407685
O O1 0.237555 0.500000 0.695646
O O2 0.335755 0.211657 0.640357
O O3 0.164998 0.220708 0.781716
O O4 0.177321 0.231629 0.640035
O O5 0.840122 0.230699 0.791076
O O6 0.842194 0.291046 0.928673
O O7 0.774296 0.000000 0.899925
O O8 0.677255 0.285720 0.933141
O O9 0.500000 0.202820 0.500000
O O10 0.581774 0.500000 0.431205
O O11 0.647109 0.289177 0.504408
O O12 0.054973 0.500000 0.265850
O O13 0.997730 0.228233 0.213052
O O14 0.988609 0.222869 0.352124
O O15 0.911943 0.500000 0.000674
O O16 0.998886 0.217667 0.926093
O O17 0.436279 0.000000 0.160828
O O18 0.382005 0.000000 0.411391
#
# Coordination Sequence:
#
# PCOD9190380 Si02
#       7
#     8   8   8   8   8   8   8
#     4   8  14  26  44  63  82 108 142 173 202 241
#     4   9  14  18  28  48  73 101 130 158 194 238
#     4  10  20  31  43  63  90 112 130 163 214 260
#     4   8  14  24  36  51  72  98 130 166 200 233
#     4   8  13  20  29  44  70 103 134 161 191 229
#     4   7  10  19  35  51  69  98 134 165 189 223
#     4   9  17  30  48  64  78 106 147 179 200 235
#
# _framework density 28.094455
#
# number of rings (size 3 to 8) (size 9 to 14) (size 15 to 20)
#    0.000    3.571    0.000    3.429    0.000    1.429 
#    0.000    0.000    0.000    3.429    0.000    0.000 
#    0.000    1.143    0.000   14.286    0.000   12.286 
#
# Total GULP energy -156527.287756 kJ/mol
# GULP energy per Si atom -5590.260277 kJ/mol
# Density = 2.803051 g / cm^3
# Si number density = 28.094455 Si / 1000 Ang^3
#
#
#
# Elastic Constant Matrix: (Units=GPa)
#
#
# Indices 1 2 3 4 5 6 
#
# 1 125.4047 5.5674 76.6789 0.0000 -51.0166 0.0001
# 2 5.5674 108.0669 5.0028 0.0001 0.3406 0.0003
# 3 76.6789 5.0028 304.8185 0.0000 -49.6915 0.0000
# 4 0.0000 0.0001 0.0000 19.4480 0.0000 -0.0314
# 5 -51.0166 0.3406 -49.6915 0.0000 80.7967 0.0000
# 6 0.0001 0.0003 0.0000 -0.0314 0.0000 -7.1209
#
#
#
# Elastic Compliance Matrix: (Units=1/GPa)
#
#
# Indices 1 2 3 4 5 6 
#
# 1 0.011698 -0.000533 -0.001922 0.000000 0.006206 0.000000
# 2 -0.000533 0.009286 -0.000088 0.000000 -0.000430 0.000000
# 3 -0.001922 -0.000088 0.003965 0.000000 0.001225 0.000000
# 4 0.000000 0.000000 0.000000 0.051419 0.000000 -0.000227
# 5 0.006206 -0.000430 0.001225 0.000000 0.017051 0.000000
# 6 0.000000 0.000000 0.000000 -0.000227 0.000000 -0.140430
#
#
# Mechanical properties :
#
#
# Convention : Reuss Voigt Hill
#
# Bulk Modulus (GPa) = 50.34677 79.19869 64.77273
# Shear Modulus (GPa) = -141.63451 48.69415 -46.47018
#
# Velocity S-wave (km/s) = -7.10796 4.16772 -4.07144
# Velocity P-wave (km/s) = 7.02885 7.17016 1.00163
#
# Compressibility (1/GPa) = 0.01986225
#
# Stress axis : x y z
#
# Youngs Moduli (GPa) = 85.48425 107.68376 252.18101
#
# Poissons Ratio (x) = 0.05742 0.48474
# Poissons Ratio (y) = 0.04558 0.02230
# Poissons Ratio (z) = 0.16432 0.00952
#
# Static dielectric constant tensor:
#      x y z
#    x 2.307150 0.000000 -0.011470 
#    y 0.000000 2.038620 0.000000 
#    z -0.011470 0.000000 2.182610 
# 
# From -- ./inp_files/345454.got.cif
#   From: 2010.05.17/outbox.cif.g08.bks.cpg/sg12_173_cif.got.tgz:345454.got - 2010.06.03 13:09:07.
