data_PCOD9190285
_publ_section_title
;
Structure prediction by ZEFSAII (Michael W. Deem and Ramdas Pophale) SiO2 
 PCOD9190285
Probable space group: C 2/M
;
_chemical_formula_sum "Si O2"
_cell_formula_units_Z 64
_cell_length_a 23.523443
_cell_length_b 8.829654
_cell_length_c 23.186540
_cell_angle_alpha 90.000000
_cell_angle_beta 33.096544
_cell_angle_gamma 90.000000
_cell_volume 2629.747603
_symmetry_space_group_name_H-M "C 2/M"
_symmetry_group_IT_number 12
_symmetry_cell_setting 'monoclinic'
loop_
_space_group_symop_operation_xyz
x,y,z
-x,y,-z
-x,-y,-z
x,-y,z
1/2+x,1/2+y,z
1/2-x,1/2+y,-z
1/2-x,1/2-y,-z
1/2+x,1/2-y,z
loop_
_atom_site_type_symbol
_atom_site_label
_atom_site_fract_x
_atom_site_fract_y
_atom_site_fract_z
Si Si1 0.349290 0.682038 0.781975
Si Si2 0.109686 0.321630 0.002058
Si Si3 0.362275 0.823551 0.417697
Si Si4 0.827674 0.317693 0.681336
Si Si5 0.622810 0.670008 0.479731
Si Si6 0.627172 0.167523 0.720566
Si Si7 0.407125 0.326926 0.139414
Si Si8 0.636253 0.819472 0.110336
O O1 0.355392 0.500000 0.775927
O O2 0.380565 0.749914 0.693467
O O3 0.396437 0.742710 0.801811
O O4 0.227050 0.731819 0.891798
O O5 0.110766 0.500000 0.989635
O O6 0.083979 0.297260 0.091805
O O7 0.021906 0.245926 0.037500
O O8 0.250000 0.750000 0.500000
O O9 0.413548 0.742817 0.429002
O O10 0.411768 0.819454 0.311785
O O11 0.349495 0.000000 0.443749
O O12 0.827925 0.500000 0.682675
O O13 0.881100 0.261998 0.576680
O O14 0.705233 0.262648 0.785632
O O15 0.581471 0.500000 0.507449
O O16 0.747195 0.658972 0.386041
O O17 0.607200 0.307230 0.779224
O O18 0.594977 0.000000 0.771667
O O19 0.410450 0.500000 0.118983
O O20 0.642550 0.000000 0.114176
O O21 0.750000 0.750000 0.000000
#
# Coordination Sequence:
#
# PCOD9190285 Si02
#       8
#     8   8   8   8   8   8   8   8
#     4  10  20  33  49  68  87 114 149 185 225 267
#     4   9  19  33  48  65  87 115 146 180 223 269
#     4   9  15  23  37  57  79 108 144 180 217 258
#     4  10  20  32  44  62  90 122 152 185 221 262
#     4   9  16  26  40  58  81 112 146 181 218 259
#     4   8  15  26  39  55  80 113 145 177 216 259
#     4  10  20  30  43  63  88 119 153 186 220 257
#     4   9  17  31  50  70  88 109 139 180 227 269
#
# _framework density 24.336936000000001
#
# number of rings (size 3 to 8) (size 9 to 14) (size 15 to 20)
#    0.000    2.750    0.000    3.750    0.000    8.500 
#    0.000    2.500    0.000    0.000    0.000    0.000 
#    0.000    1.000    0.000   10.500    0.000    7.625 
#
# Total GULP energy -178648.191441 kJ/mol
# GULP energy per Si atom -5582.755983 kJ/mol
# Density = 2.428154 g / cm^3
# Si number density = 24.336936 Si / 1000 Ang^3
#
#
#
# Elastic Constant Matrix: (Units=GPa)
#
#
# Indices 1 2 3 4 5 6 
#
# 1 146.7532 48.8346 29.3533 0.0000 31.2367 0.0000
# 2 48.8346 71.4443 22.2732 -0.0014 34.3046 0.0015
# 3 29.3533 22.2732 86.4730 0.0002 33.9185 0.0000
# 4 0.0000 -0.0014 0.0002 28.5195 0.0003 11.4873
# 5 31.2367 34.3046 33.9185 0.0003 53.9674 -0.0003
# 6 0.0000 0.0015 0.0000 11.4873 -0.0003 21.8452
#
#
#
# Elastic Compliance Matrix: (Units=1/GPa)
#
#
# Indices 1 2 3 4 5 6 
#
# 1 0.009056 -0.005268 -0.001293 0.000000 -0.001080 0.000001
# 2 -0.005268 0.023214 0.000532 0.000002 -0.012041 -0.000003
# 3 -0.001293 0.000532 0.015535 0.000000 -0.009353 0.000000
# 4 0.000000 0.000002 0.000000 0.044486 -0.000002 -0.023393
# 5 -0.001080 -0.012041 -0.009353 -0.000002 0.032687 0.000002
# 6 0.000001 -0.000003 0.000000 -0.023393 0.000002 0.058078
#
#
# Mechanical properties :
#
#
# Convention : Reuss Voigt Hill
#
# Bulk Modulus (GPa) = 27.97569 56.17696 42.07632
# Shear Modulus (GPa) = 24.15108 34.48039 29.31573
#
# Velocity S-wave (km/s) = 3.15360 3.76811 3.47447
# Velocity P-wave (km/s) = 4.97799 6.48573 5.78122
#
# Compressibility (1/GPa) = 0.03574532
#
# Stress axis : x y z
#
# Youngs Moduli (GPa) = 110.42633 43.07818 64.37023
#
# Poissons Ratio (x) = 0.22694 0.08326
# Poissons Ratio (y) = 0.58175 -0.03425
# Poissons Ratio (z) = 0.14284 -0.02292
#
# Static dielectric constant tensor:
#      x y z
#    x 1.992910 0.000000 -0.041890 
#    y 0.000000 1.896250 0.000000 
#    z -0.041890 0.000000 2.116990 
# 
# From -- ./inp_files/323692.got.cif
#   From: 2010.05.17/outbox.cif.g08.bks.cpg/sg12_162_cif.got.tgz:323692.got - 2010.06.03 13:09:07.
