data_PCOD9190998
_publ_section_title
;
Structure prediction by ZEFSAII (Michael W. Deem and Ramdas Pophale) SiO2 
 PCOD9190998
Probable space group: C 2/M
;
_chemical_formula_sum "Si O2"
_cell_formula_units_Z 48
_cell_length_a 19.408292
_cell_length_b 7.498675
_cell_length_c 31.108005
_cell_angle_alpha 90.000000
_cell_angle_beta 150.801039
_cell_angle_gamma 90.000000
_cell_volume 2208.639450
_symmetry_space_group_name_H-M "C 2/M"
_symmetry_group_IT_number 12
_symmetry_cell_setting 'monoclinic'
loop_
_space_group_symop_operation_xyz
x,y,z
-x,y,-z
-x,-y,-z
x,-y,z
1/2+x,1/2+y,z
1/2-x,1/2+y,-z
1/2-x,1/2-y,-z
1/2+x,1/2-y,z
loop_
_atom_site_type_symbol
_atom_site_label
_atom_site_fract_x
_atom_site_fract_y
_atom_site_fract_z
Si Si1 0.689969 0.281955 0.247385
Si Si2 0.179430 0.711166 0.415720
Si Si3 0.861924 0.281401 0.257233
Si Si4 0.660007 0.789329 0.584960
Si Si5 0.339331 0.295002 0.927658
Si Si6 0.887242 0.213945 0.047109
O O1 0.685809 0.500000 0.245743
O O2 0.800460 0.228808 0.270201
O O3 0.742720 0.219984 0.322906
O O4 0.533406 0.221542 0.147878
O O5 0.169841 0.500000 0.405658
O O6 0.250000 0.750000 0.500000
O O7 0.268426 0.772208 0.422809
O O8 0.019263 0.780395 0.331964
O O9 0.861141 0.500000 0.257568
O O10 0.757317 0.219389 0.162559
O O11 0.500000 0.715705 0.500000
O O12 0.647209 0.000000 0.586431
O O13 0.288291 0.500000 0.905379
O O14 0.500000 0.301446 0.000000
O O15 0.349492 0.209972 0.979807
O O16 0.907062 0.000000 0.052719
O O17 0.750000 0.250000 0.000000
#
# Coordination Sequence:
#
# PCOD9190998 Si02
#       6
#     8   8   8   8   8   8
#     4   9  17  32  53  78 107 142 182 221 269 325
#     4  11  23  38  59  85 112 141 179 228 277 329
#     4   9  17  31  53  80 107 138 180 226 268 317
#     4  10  21  38  59  81 110 148 185 224 274 331
#     4   9  15  28  51  79 106 136 181 226 261 305
#     4  10  20  32  51  78 109 144 179 222 269 319
#
# _framework density 21.732835999999999
#
# number of rings (size 3 to 8) (size 9 to 14) (size 15 to 20)
#    0.000    2.333    1.667    1.500    2.333    3.000 
#    0.000    0.000    0.000    2.500    0.000    0.000 
#    0.000    0.000    0.000    0.000    0.000    0.000 
#
# Total GULP energy -133952.121879 kJ/mol
# GULP energy per Si atom -5581.338412 kJ/mol
# Density = 2.168337 g / cm^3
# Si number density = 21.732836 Si / 1000 Ang^3
#
#
#
# Elastic Constant Matrix: (Units=GPa)
#
#
# Indices 1 2 3 4 5 6 
#
# 1 184.1572 -12.5408 98.4439 0.0001 -15.4403 -0.0004
# 2 -12.5408 56.7851 -2.6728 0.0001 -1.6030 -0.0013
# 3 98.4439 -2.6728 178.5278 -0.0001 -13.9779 0.0003
# 4 0.0001 0.0001 -0.0001 -2.0281 0.0000 11.3521
# 5 -15.4403 -1.6030 -13.9779 0.0000 44.6643 0.0001
# 6 -0.0004 -0.0013 0.0003 11.3521 0.0001 9.3991
#
#
#
# Elastic Compliance Matrix: (Units=1/GPa)
#
#
# Indices 1 2 3 4 5 6 
#
# 1 0.007923 0.001592 -0.004230 0.000001 0.001472 0.000000
# 2 0.001592 0.017966 -0.000528 0.000002 0.001030 0.000000
# 3 -0.004230 -0.000528 0.008006 0.000000 0.001024 0.000000
# 4 0.000001 0.000002 0.000000 -0.063536 0.000000 0.076738
# 5 0.001472 0.001030 0.001024 0.000000 0.023256 0.000000
# 6 0.000000 0.000000 0.000000 0.076738 0.000000 0.013710
#
#
# Mechanical properties :
#
#
# Convention : Reuss Voigt Hill
#
# Bulk Modulus (GPa) = 36.28004 65.10343 50.69174
# Shear Modulus (GPa) = 218.87204 32.82303 125.84753
#
# Velocity S-wave (km/s) = 10.04634 3.89047 7.61790
# Velocity P-wave (km/s) = 12.30048 7.08536 10.03753
#
# Compressibility (1/GPa) = 0.02756336
#
# Stress axis : x y z
#
# Youngs Moduli (GPa) = 126.21214 55.66034 124.90471
#
# Poissons Ratio (x) = -0.08863 0.52833
# Poissons Ratio (y) = -0.20096 0.06600
# Poissons Ratio (z) = 0.53386 0.02941
#
# Static dielectric constant tensor:
#      x y z
#    x 1.687750 0.000000 -0.004310 
#    y 0.000000 1.850040 0.000000 
#    z -0.004310 0.000000 1.775570 
# 
# From -- ./inp_files/295365.got.cif
#   From: 2010.05.17/outbox.cif.g08.bks.cpg/sg12_148_cif.got.tgz:295365.got - 2010.06.03 13:09:07.
