data_PCOD9190080
_publ_section_title
;
Structure prediction by ZEFSAII (Michael W. Deem and Ramdas Pophale) SiO2 
 PCOD9190080
Probable space group: C 2/M
;
_chemical_formula_sum "Si O2"
_cell_formula_units_Z 30
_cell_length_a 6.955752
_cell_length_b 25.213436
_cell_length_c 7.045061
_cell_angle_alpha 90.000000
_cell_angle_beta 62.137146
_cell_angle_gamma 90.000000
_cell_volume 1092.312620
_symmetry_space_group_name_H-M "C 2/M"
_symmetry_group_IT_number 12
_symmetry_cell_setting 'monoclinic'
loop_
_space_group_symop_operation_xyz
x,y,z
-x,y,-z
-x,-y,-z
x,-y,z
1/2+x,1/2+y,z
1/2-x,1/2+y,-z
1/2-x,1/2-y,-z
1/2+x,1/2-y,z
loop_
_atom_site_type_symbol
_atom_site_label
_atom_site_fract_x
_atom_site_fract_y
_atom_site_fract_z
Si Si1 0.000000 0.292030 0.000000
Si Si2 0.212922 0.560416 0.780084
Si Si3 0.000000 0.500000 0.500000
Si Si4 0.523074 0.304956 0.263959
Si Si5 0.175206 0.090511 0.678909
O O1 0.772324 0.322108 0.105212
O O2 0.991764 0.251892 0.182216
O O3 0.201013 0.500000 0.697471
O O4 0.434259 0.565248 0.796987
O O5 0.257563 0.595107 0.574970
O O6 0.000000 0.568899 0.000000
O O7 0.154149 0.547707 0.329439
O O8 0.500000 0.300697 0.500000
O O9 0.358584 0.348353 0.251384
#
# Coordination Sequence:
#
# PCOD9190080 Si02
#       5
#     4   8   2   8   8
#     4  10  26  48  74 110 146 178 252 312 360 444
#     4  10  19  39  67  91 127 185 243 283 349 432
#     4  12  24  46  58 100 160 174 234 304 336 436
#     4  11  23  48  76 106 142 192 238 305 376 427
#     4  11  22  42  67  97 141 192 230 292 367 423
#
# _framework density 27.464663999999999
#
# number of rings (size 3 to 8) (size 9 to 14) (size 15 to 20)
#    0.000    1.333    5.333    1.600    1.867    0.000 
#   16.800    1.333    0.000    0.000    0.000    0.000 
#    0.000    0.000    0.000    0.000    0.000    0.000 
#
# Total GULP energy -83840.770950 kJ/mol
# GULP energy per Si atom -5589.384730 kJ/mol
# Density = 2.740215 g / cm^3
# Si number density = 27.464664 Si / 1000 Ang^3
#
#
#
# Elastic Constant Matrix: (Units=GPa)
#
#
# Indices 1 2 3 4 5 6 
#
# 1 104.8574 36.9886 54.9177 0.0000 -25.1706 0.0000
# 2 36.9886 128.9374 46.7850 0.0000 -8.1753 0.0000
# 3 54.9177 46.7850 176.9749 0.0000 -20.5107 0.0000
# 4 0.0000 0.0000 0.0000 39.2948 0.0000 -22.8208
# 5 -25.1706 -8.1753 -20.5107 0.0000 63.5676 0.0000
# 6 0.0000 0.0000 0.0000 -22.8208 0.0000 35.0674
#
#
#
# Elastic Compliance Matrix: (Units=1/GPa)
#
#
# Indices 1 2 3 4 5 6 
#
# 1 0.012817 -0.002380 -0.002904 0.000000 0.003832 0.000000
# 2 -0.002380 0.009030 -0.001686 0.000000 -0.000325 0.000000
# 3 -0.002904 -0.001686 0.007105 0.000000 0.000926 0.000000
# 4 0.000000 0.000000 0.000000 0.040910 0.000000 0.026623
# 5 0.003832 -0.000325 0.000926 0.000000 0.017505 0.000000
# 6 0.000000 0.000000 0.000000 0.026623 0.000000 0.045842
#
#
# Mechanical properties :
#
#
# Convention : Reuss Voigt Hill
#
# Bulk Modulus (GPa) = 66.61848 76.46136 71.53992
# Shear Modulus (GPa) = 32.86151 45.72452 39.29301
#
# Velocity S-wave (km/s) = 3.46280 4.08468 3.78653
# Velocity P-wave (km/s) = 6.34797 7.08142 6.72470
#
# Compressibility (1/GPa) = 0.01501085
#
# Stress axis : x y z
#
# Youngs Moduli (GPa) = 78.02033 110.74532 140.75177
#
# Poissons Ratio (x) = 0.26360 0.40874
# Poissons Ratio (y) = 0.18570 0.23733
# Poissons Ratio (z) = 0.22657 0.18674
#
# Static dielectric constant tensor:
#      x y z
#    x 2.060190 0.000000 -0.007790 
#    y 0.000000 2.130990 0.000000 
#    z -0.007790 0.000000 2.040840 
# 
# From -- ./inp_files/40088.got.cif
#   From: 2010.05.17/outbox.cif.g08.bks.cpg/sg12_21_cif.got.tgz:40088.got - 2010.06.03 13:09:07.
