data_PCOD9190698
_publ_section_title
;
Structure prediction by ZEFSAII (Michael W. Deem and Ramdas Pophale) SiO2 
 PCOD9190698
Probable space group: C 2/M
;
_chemical_formula_sum "Si O2"
_cell_formula_units_Z 48
_cell_length_a 20.794380
_cell_length_b 7.649255
_cell_length_c 16.433092
_cell_angle_alpha 90.000000
_cell_angle_beta 70.539997
_cell_angle_gamma 90.000000
_cell_volume 2464.553177
_symmetry_space_group_name_H-M "C 2/M"
_symmetry_group_IT_number 12
_symmetry_cell_setting 'monoclinic'
loop_
_space_group_symop_operation_xyz
x,y,z
-x,y,-z
-x,-y,-z
x,-y,z
1/2+x,1/2+y,z
1/2-x,1/2+y,-z
1/2-x,1/2-y,-z
1/2+x,1/2-y,z
loop_
_atom_site_type_symbol
_atom_site_label
_atom_site_fract_x
_atom_site_fract_y
_atom_site_fract_z
Si Si1 0.533640 0.286196 0.569512
Si Si2 0.295461 0.703789 0.104843
Si Si3 0.869869 0.214231 0.233719
Si Si4 0.656612 0.793955 0.087263
Si Si5 0.321587 0.290882 0.429057
Si Si6 0.483790 0.710878 0.766369
O O1 0.500000 0.225578 0.500000
O O2 0.533106 0.500000 0.568211
O O3 0.612026 0.228900 0.548959
O O4 0.493681 0.232928 0.668340
O O5 0.283754 0.500000 0.128897
O O6 0.333729 0.778501 0.167120
O O7 0.221449 0.778103 0.110824
O O8 0.340664 0.715449 0.004244
O O9 0.830032 0.269679 0.332261
O O10 0.948501 0.268444 0.213298
O O11 0.870722 0.000000 0.231501
O O12 0.586077 0.768063 0.163220
O O13 0.668257 0.000000 0.071035
O O14 0.327425 0.500000 0.423536
O O15 0.250000 0.250000 0.500000
O O16 0.484147 0.500000 0.766027
#
# Coordination Sequence:
#
# PCOD9190698 Si02
#       6
#     8   8   8   8   8   8
#     4   8  15  29  48  69  93 122 156 190 222 263
#     4   9  18  34  52  66  87 123 160 188 220 271
#     4   8  16  32  51  68  88 121 162 192 216 262
#     4  10  20  32  47  70  97 119 145 190 239 274
#     4   9  17  30  48  70  95 121 152 190 228 267
#     4   9  17  31  51  70  90 121 158 190 221 267
#
# _framework density 19.476147999999998
#
# number of rings (size 3 to 8) (size 9 to 14) (size 15 to 20)
#    0.000    3.167    0.000    2.500    0.000    2.667 
#    0.000    8.333    0.000    1.000    0.000    0.000 
#    0.000    0.000    0.000    0.000    0.000    0.000 
#
# Total GULP energy -133786.414336 kJ/mol
# GULP energy per Si atom -5574.433931 kJ/mol
# Density = 1.943182 g / cm^3
# Si number density = 19.476148 Si / 1000 Ang^3
#
#
#
# Elastic Constant Matrix: (Units=GPa)
#
#
# Indices 1 2 3 4 5 6 
#
# 1 154.6640 0.5776 137.4121 0.0000 10.8333 0.0000
# 2 0.5776 32.5098 -4.9371 0.0000 7.0781 0.0000
# 3 137.4121 -4.9371 150.6376 0.0000 11.4914 0.0000
# 4 0.0000 0.0000 0.0000 14.8129 0.0000 -10.8607
# 5 10.8333 7.0781 11.4914 0.0000 48.3879 0.0000
# 6 0.0000 0.0000 0.0000 -10.8607 0.0000 15.3891
#
#
#
# Elastic Compliance Matrix: (Units=1/GPa)
#
#
# Indices 1 2 3 4 5 6 
#
# 1 0.035084 -0.005656 -0.032237 0.000000 0.000628 0.000000
# 2 -0.005656 0.032985 0.006632 0.000000 -0.005134 0.000000
# 3 -0.032237 0.006632 0.036446 0.000000 -0.002408 0.000000
# 4 0.000000 0.000000 0.000000 0.139899 0.000000 0.098733
# 5 0.000628 -0.005134 -0.002408 0.000000 0.021849 0.000000
# 6 0.000000 0.000000 0.000000 0.098733 0.000000 0.134661
#
#
# Mechanical properties :
#
#
# Convention : Reuss Voigt Hill
#
# Bulk Modulus (GPa) = 23.81298 67.10182 45.45740
# Shear Modulus (GPa) = 10.47248 29.36856 19.92052
#
# Velocity S-wave (km/s) = 2.32137 3.88741 3.20162
# Velocity P-wave (km/s) = 4.40889 7.39442 6.08752
#
# Compressibility (1/GPa) = 0.04199390
#
# Stress axis : x y z
#
# Youngs Moduli (GPa) = 28.50342 30.31643 27.43798
#
# Poissons Ratio (x) = 0.17146 0.88451
# Poissons Ratio (y) = 0.16121 -0.18197
# Poissons Ratio (z) = 0.91885 -0.20106
#
# Static dielectric constant tensor:
#      x y z
#    x 1.681550 0.000000 0.017060 
#    y 0.000000 1.738100 0.000000 
#    z 0.017060 0.000000 1.654130 
# 
# From -- ./inp_files/229827.got.cif
#   From: 2010.05.17/outbox.cif.g08.bks.cpg/sg12_115_cif.got.tgz:229827.got - 2010.06.03 13:09:07.
