data_PCOD9190090
_publ_section_title
;
Structure prediction by ZEFSAII (Michael W. Deem and Ramdas Pophale) SiO2 
 PCOD9190090
Probable space group: C 2/M
;
_chemical_formula_sum "Si O2"
_cell_formula_units_Z 44
_cell_length_a 12.544436
_cell_length_b 17.285286
_cell_length_c 8.851602
_cell_angle_alpha 90.000000
_cell_angle_beta 82.066347
_cell_angle_gamma 90.000000
_cell_volume 1900.958977
_symmetry_space_group_name_H-M "C 2/M"
_symmetry_group_IT_number 12
_symmetry_cell_setting 'monoclinic'
loop_
_space_group_symop_operation_xyz
x,y,z
-x,y,-z
-x,-y,-z
x,-y,z
1/2+x,1/2+y,z
1/2-x,1/2+y,-z
1/2-x,1/2-y,-z
1/2+x,1/2-y,z
loop_
_atom_site_type_symbol
_atom_site_label
_atom_site_fract_x
_atom_site_fract_y
_atom_site_fract_z
Si Si1 0.000000 0.811544 0.500000
Si Si2 0.838848 0.907385 0.098955
Si Si3 0.436267 0.591738 0.772075
Si Si4 0.568778 0.910812 0.836045
Si Si5 0.859062 0.411496 0.674829
Si Si6 0.341749 0.801548 0.400395
O O1 0.076989 0.865273 0.383997
O O2 0.057487 0.756361 0.608841
O O3 0.730693 0.876481 0.195142
O O4 0.940561 0.898758 0.191023
O O5 0.826419 0.000000 0.080358
O O6 0.867028 0.877739 0.926784
O O7 0.418627 0.500000 0.754688
O O8 0.474777 0.911267 0.729049
O O9 0.654008 0.846816 0.760692
O O10 0.611110 0.000000 0.843786
O O11 0.500000 0.892435 0.000000
O O12 0.827434 0.500000 0.653818
O O13 0.857497 0.368436 0.519262
O O14 0.250000 0.750000 0.500000
#
# Coordination Sequence:
#
# PCOD9190090 Si02
#       6
#     4   8   8   8   8   8
#     4  12  23  38  53  86 122 162 204 246 317 372
#     4   8  16  33  59  88 111 151 210 257 301 357
#     4   9  18  35  56  82 123 166 208 250 296 375
#     4  10  22  44  71  94 121 164 222 278 318 372
#     4  10  19  39  68  90 117 161 214 262 313 375
#     4  12  25  42  59  93 131 165 204 258 325 390
#
# _framework density 23.14621
#
# number of rings (size 3 to 8) (size 9 to 14) (size 15 to 20)
#    0.000    2.000    1.818    3.000    0.000    2.909 
#    6.545    6.364    0.000    0.000    0.000    0.000 
#    0.000    0.000    0.000    0.000    0.000    0.000 
#
# Total GULP energy -122797.783786 kJ/mol
# GULP energy per Si atom -5581.717445 kJ/mol
# Density = 2.309353 g / cm^3
# Si number density = 23.146210 Si / 1000 Ang^3
#
#
#
# Elastic Constant Matrix: (Units=GPa)
#
#
# Indices 1 2 3 4 5 6 
#
# 1 43.5377 12.8035 12.2945 0.0000 -17.5913 0.0000
# 2 12.8035 85.5999 67.9971 0.0000 -11.7025 0.0000
# 3 12.2945 67.9971 140.9173 0.0000 -28.2805 0.0000
# 4 0.0000 0.0000 0.0000 28.2707 0.0000 -15.1961
# 5 -17.5913 -11.7025 -28.2805 0.0000 37.0350 0.0000
# 6 0.0000 0.0000 0.0000 -15.1961 0.0000 13.5602
#
#
#
# Elastic Compliance Matrix: (Units=1/GPa)
#
#
# Indices 1 2 3 4 5 6 
#
# 1 0.029400 -0.004359 0.002438 0.000000 0.014449 0.000000
# 2 -0.004359 0.019633 -0.009759 0.000000 -0.003319 0.000000
# 3 0.002438 -0.009759 0.013235 0.000000 0.008180 0.000000
# 4 0.000000 0.000000 0.000000 0.088957 0.000000 0.099688
# 5 0.014449 -0.003319 0.008180 0.000000 0.039063 0.000000
# 6 0.000000 0.000000 0.000000 0.099688 0.000000 0.185459
#
#
# Mechanical properties :
#
#
# Convention : Reuss Voigt Hill
#
# Bulk Modulus (GPa) = 25.70205 50.69389 38.19797
# Shear Modulus (GPa) = 12.13372 27.57051 19.85212
#
# Velocity S-wave (km/s) = 2.29207 3.45504 2.93180
# Velocity P-wave (km/s) = 4.25830 6.15350 5.29144
#
# Compressibility (1/GPa) = 0.03890741
#
# Stress axis : x y z
#
# Youngs Moduli (GPa) = 34.01341 50.93507 75.55999
#
# Poissons Ratio (x) = 0.22202 -0.18422
# Poissons Ratio (y) = 0.14826 0.73741
# Poissons Ratio (z) = -0.08292 0.49709
#
# Static dielectric constant tensor:
#      x y z
#    x 1.953710 0.000000 -0.033180 
#    y 0.000000 1.872100 0.000000 
#    z -0.033180 0.000000 1.956150 
# 
# From -- ./inp_files/60990.got.cif
#   From: 2010.05.17/outbox.cif.g08.bks.cpg/sg12_31_cif.got.tgz:60990.got - 2010.06.03 13:09:07.
