data_PCOD9190924
_publ_section_title
;
Structure prediction by ZEFSAII (Michael W. Deem and Ramdas Pophale) SiO2 
 PCOD9190924
Probable space group: C 2/M
;
_chemical_formula_sum "Si O2"
_cell_formula_units_Z 40
_cell_length_a 27.919892
_cell_length_b 7.348039
_cell_length_c 12.566802
_cell_angle_alpha 90.000000
_cell_angle_beta 136.589061
_cell_angle_gamma 90.000000
_cell_volume 1771.779524
_symmetry_space_group_name_H-M "C 2/M"
_symmetry_group_IT_number 12
_symmetry_cell_setting 'monoclinic'
loop_
_space_group_symop_operation_xyz
x,y,z
-x,y,-z
-x,-y,-z
x,-y,z
1/2+x,1/2+y,z
1/2-x,1/2+y,-z
1/2-x,1/2-y,-z
1/2+x,1/2-y,z
loop_
_atom_site_type_symbol
_atom_site_label
_atom_site_fract_x
_atom_site_fract_y
_atom_site_fract_z
Si Si1 0.954034 0.222246 0.741783
Si Si2 0.387963 0.277823 0.992342
Si Si3 0.565063 0.278742 0.531476
Si Si4 0.331457 0.716580 0.128118
Si Si5 0.175531 0.782803 0.325327
O O1 0.942106 0.282160 0.600925
O O2 0.889838 0.284432 0.710370
O O3 0.953462 0.000000 0.742743
O O4 0.032074 0.275348 0.902040
O O5 0.386931 0.500000 0.993474
O O6 0.365050 0.214440 0.072457
O O7 0.336307 0.217988 0.814791
O O8 0.500000 0.227083 0.500000
O O9 0.565158 0.500000 0.525879
O O10 0.632067 0.216114 0.705531
O O11 0.343627 0.500000 0.146543
O O12 0.250000 0.750000 0.000000
O O13 0.250000 0.750000 0.500000
O O14 0.168591 0.000000 0.309997
#
# Coordination Sequence:
#
# PCOD9190924 Si02
#       5
#     8   8   8   8   8
#     4   9  16  29  51  74  95 125 168 209 239 280
#     4   9  17  32  51  73  99 129 167 207 244 283
#     4   9  15  27  48  75  99 121 160 209 246 278
#     4  10  20  32  50  75 104 133 160 198 247 295
#     4  10  21  34  51  75 101 129 163 205 250 293
#
# _framework density 22.576172
#
# number of rings (size 3 to 8) (size 9 to 14) (size 15 to 20)
#    0.000    2.600    2.000    0.600    2.800    2.400 
#    0.000    0.000    0.000    4.200    0.000    0.000 
#    0.000    0.000    0.000    0.000    0.000    0.000 
#
# Total GULP energy -111723.998290 kJ/mol
# GULP energy per Si atom -5586.199914 kJ/mol
# Density = 2.252479 g / cm^3
# Si number density = 22.576172 Si / 1000 Ang^3
#
#
#
# Elastic Constant Matrix: (Units=GPa)
#
#
# Indices 1 2 3 4 5 6 
#
# 1 66.6352 -0.5283 29.3426 0.0000 1.3045 0.0000
# 2 -0.5283 83.0865 -3.1455 0.0000 -6.0119 0.0000
# 3 29.3426 -3.1455 177.1538 0.0000 -2.0187 0.0000
# 4 0.0000 0.0000 0.0000 15.1584 0.0000 9.6116
# 5 1.3045 -6.0119 -2.0187 0.0000 42.4516 0.0000
# 6 0.0000 0.0000 0.0000 9.6116 0.0000 -8.2815
#
#
#
# Elastic Compliance Matrix: (Units=1/GPa)
#
#
# Indices 1 2 3 4 5 6 
#
# 1 0.016205 -0.000045 -0.002692 0.000000 -0.000632 0.000000
# 2 -0.000045 0.012170 0.000243 0.000000 0.001736 0.000000
# 3 -0.002692 0.000243 0.006100 0.000000 0.000407 0.000000
# 4 0.000000 0.000000 0.000000 0.038003 0.000000 0.044107
# 5 -0.000632 0.001736 0.000407 0.000000 0.023841 0.000000
# 6 0.000000 0.000000 0.000000 0.044107 0.000000 -0.069560
#
#
# Mechanical properties :
#
#
# Convention : Reuss Voigt Hill
#
# Bulk Modulus (GPa) = 33.91245 42.02365 37.96805
# Shear Modulus (GPa) = 120.26664 29.94614 75.10639
#
# Velocity S-wave (km/s) = 7.30665 3.64600 5.77410
# Velocity P-wave (km/s) = 9.28638 6.03150 7.82994
#
# Compressibility (1/GPa) = 0.02948769
#
# Stress axis : x y z
#
# Youngs Moduli (GPa) = 61.71119 82.16773 163.94360
#
# Poissons Ratio (x) = 0.00367 0.44134
# Poissons Ratio (y) = 0.00275 -0.03988
# Poissons Ratio (z) = 0.16613 -0.01999
#
# Static dielectric constant tensor:
#      x y z
#    x 1.782030 0.000000 -0.020150 
#    y 0.000000 1.921210 0.000000 
#    z -0.020150 0.000000 1.922150 
# 
# From -- ./inp_files/140263.got.cif
#   From: 2010.05.17/outbox.cif.g08.bks.cpg/sg12_71_cif.got.tgz:140263.got - 2010.06.03 13:09:07.
