data_PCOD9190135
_publ_section_title
;
Structure prediction by ZEFSAII (Michael W. Deem and Ramdas Pophale) SiO2 
 PCOD9190135
Probable space group: C 2/M
;
_chemical_formula_sum "Si O2"
_cell_formula_units_Z 52
_cell_length_a 8.678612
_cell_length_b 30.846971
_cell_length_c 9.823954
_cell_angle_alpha 90.000000
_cell_angle_beta 64.700654
_cell_angle_gamma 90.000000
_cell_volume 2377.713633
_symmetry_space_group_name_H-M "C 2/M"
_symmetry_group_IT_number 12
_symmetry_cell_setting 'monoclinic'
loop_
_space_group_symop_operation_xyz
x,y,z
-x,y,-z
-x,-y,-z
x,-y,z
1/2+x,1/2+y,z
1/2-x,1/2+y,-z
1/2-x,1/2-y,-z
1/2+x,1/2-y,z
loop_
_atom_site_type_symbol
_atom_site_label
_atom_site_fract_x
_atom_site_fract_y
_atom_site_fract_z
Si Si1 0.363677 0.591739 0.162615
Si Si2 0.195561 0.450345 0.484967
Si Si3 0.616214 0.804512 0.567639
Si Si4 0.399135 0.311544 0.245059
Si Si5 0.020379 0.611349 0.739764
Si Si6 0.253943 0.770261 0.188065
Si Si7 0.500000 0.832999 0.000000
O O1 0.325631 0.567324 0.321000
O O2 0.423562 0.640686 0.175277
O O3 0.170647 0.592823 0.174766
O O4 0.500000 0.574179 0.000000
O O5 0.236110 0.500000 0.502250
O O6 0.165485 0.420380 0.628104
O O7 0.000000 0.449071 0.500000
O O8 0.784131 0.816459 0.422300
O O9 0.510866 0.847859 0.641108
O O10 0.674979 0.784699 0.688854
O O11 0.000000 0.720991 0.500000
O O12 0.300634 0.280281 0.175709
O O13 0.564561 0.285758 0.232346
O O14 0.066493 0.634707 0.861066
O O15 0.351888 0.797972 0.036268
#
# Coordination Sequence:
#
# PCOD9190135 Si02
#       7
#     8   8   8   8   8   8   4
#     4  11  22  36  63  91 128 166 209 264 323 375
#     4   9  18  37  66  97 124 160 207 258 321 393
#     4  11  19  39  62  83 117 164 216 266 312 368
#     4  12  23  39  56  88 122 171 217 269 314 371
#     4  10  19  40  62  88 122 167 209 263 320 383
#     4  11  26  37  57  86 124 169 221 268 318 370
#     4  10  24  40  59  84 124 174 217 270 314 376
#
# _framework density 21.869747
#
# number of rings (size 3 to 8) (size 9 to 14) (size 15 to 20)
#    0.000    1.385    3.077    3.231    3.231    0.923 
#    0.000    0.385    0.000    0.000    0.000   14.000 
#    0.000    0.000    0.000    0.000    0.000    0.154 
#
# Total GULP energy -145011.329351 kJ/mol
# GULP energy per Si atom -5577.358821 kJ/mol
# Density = 2.181997 g / cm^3
# Si number density = 21.869747 Si / 1000 Ang^3
#
#
#
# Elastic Constant Matrix: (Units=GPa)
#
#
# Indices 1 2 3 4 5 6 
#
# 1 59.0346 8.9657 31.3896 0.0000 -10.0825 0.0000
# 2 8.9657 117.8062 63.2751 0.0000 2.7808 0.0000
# 3 31.3896 63.2751 153.3634 0.0000 -14.6725 0.0000
# 4 0.0000 0.0000 0.0000 6.8917 0.0000 -0.8290
# 5 -10.0825 2.7808 -14.6725 0.0000 43.9500 0.0000
# 6 0.0000 0.0000 0.0000 -0.8290 0.0000 10.3357
#
#
#
# Elastic Compliance Matrix: (Units=1/GPa)
#
#
# Indices 1 2 3 4 5 6 
#
# 1 0.019470 0.000545 -0.003911 0.000000 0.003126 0.000000
# 2 0.000545 0.011143 -0.004922 0.000000 -0.002223 0.000000
# 3 -0.003911 -0.004922 0.009602 0.000000 0.002620 0.000000
# 4 0.000000 0.000000 0.000000 0.146515 0.000000 0.011751
# 5 0.003126 -0.002223 0.002620 0.000000 0.024486 0.000000
# 6 0.000000 0.000000 0.000000 0.011751 0.000000 0.097694
#
#
# Mechanical properties :
#
#
# Convention : Reuss Voigt Hill
#
# Bulk Modulus (GPa) = 42.30098 59.71834 51.00966
# Shear Modulus (GPa) = 14.99860 27.34041 21.16951
#
# Velocity S-wave (km/s) = 2.62165 3.53958 3.11462
# Velocity P-wave (km/s) = 5.34306 6.63856 6.02573
#
# Compressibility (1/GPa) = 0.02364011
#
# Stress axis : x y z
#
# Youngs Moduli (GPa) = 51.36155 89.74258 104.14387
#
# Poissons Ratio (x) = -0.04890 0.40727
# Poissons Ratio (y) = -0.02799 0.51256
# Poissons Ratio (z) = 0.20086 0.44168
#
# Static dielectric constant tensor:
#      x y z
#    x 1.853670 0.000000 -0.017030 
#    y 0.000000 1.805450 0.000000 
#    z -0.017030 0.000000 1.925870 
# 
# From -- ./inp_files/125114.got.cif
#   From: 2010.05.17/outbox.cif.g08.bks.cpg/sg12_63_cif.got.tgz:125114.got - 2010.06.03 13:09:07.
