data_PCOD9190389
_publ_section_title
;
Structure prediction by ZEFSAII (Michael W. Deem and Ramdas Pophale) SiO2 
 PCOD9190389
Probable space group: C 2/M
;
_chemical_formula_sum "Si O2"
_cell_formula_units_Z 48
_cell_length_a 15.819508
_cell_length_b 7.468851
_cell_length_c 16.100098
_cell_angle_alpha 90.000000
_cell_angle_beta 64.770329
_cell_angle_gamma 90.000000
_cell_volume 1720.818087
_symmetry_space_group_name_H-M "C 2/M"
_symmetry_group_IT_number 12
_symmetry_cell_setting 'monoclinic'
loop_
_space_group_symop_operation_xyz
x,y,z
-x,y,-z
-x,-y,-z
x,-y,z
1/2+x,1/2+y,z
1/2-x,1/2+y,-z
1/2-x,1/2-y,-z
1/2+x,1/2-y,z
loop_
_atom_site_type_symbol
_atom_site_label
_atom_site_fract_x
_atom_site_fract_y
_atom_site_fract_z
Si Si1 0.957042 0.707577 0.435282
Si Si2 0.707344 0.284639 0.392643
Si Si3 0.822858 0.787452 0.774246
Si Si4 0.105503 0.719349 0.895378
Si Si5 0.075599 0.281554 0.726929
Si Si6 0.639490 0.209971 0.059522
O O1 0.984257 0.500000 0.420512
O O2 0.847166 0.709811 0.505875
O O3 0.972417 0.787033 0.337577
O O4 0.000000 0.794865 0.500000
O O5 0.702852 0.500000 0.399411
O O6 0.657140 0.221659 0.327339
O O7 0.815271 0.237777 0.335370
O O8 0.714954 0.733416 0.836206
O O9 0.877980 0.747325 0.835952
O O10 0.821122 0.000000 0.769075
O O11 0.097681 0.500000 0.898373
O O12 0.057210 0.778462 0.829324
O O13 0.088902 0.782427 0.997260
O O14 0.067516 0.500000 0.730069
O O15 0.625986 0.000000 0.058364
O O16 0.750000 0.250000 0.000000
#
# Coordination Sequence:
#
# PCOD9190389 Si02
#       6
#     8   8   8   8   8   8
#     4  10  20  31  44  65  90 113 139 177 223 261
#     4   9  17  30  48  65  83 114 150 179 210 254
#     4   8  14  24  37  56  81 107 137 171 209 249
#     4   7  11  20  35  55  79 108 138 165 198 244
#     4   8  14  27  45  63  86 115 145 176 211 252
#     4   9  14  20  33  55  83 112 138 166 204 247
#
# _framework density 27.893708
#
# number of rings (size 3 to 8) (size 9 to 14) (size 15 to 20)
#    0.000    3.500    0.000    4.000    0.000    1.000 
#    0.000    0.000    0.000    5.000    0.000    1.167 
#    0.000    9.333    0.000    0.000    0.000    0.000 
#
# Total GULP energy -134116.310579 kJ/mol
# GULP energy per Si atom -5588.179607 kJ/mol
# Density = 2.783022 g / cm^3
# Si number density = 27.893708 Si / 1000 Ang^3
#
#
#
# Elastic Constant Matrix: (Units=GPa)
#
#
# Indices 1 2 3 4 5 6 
#
# 1 134.1325 -0.4466 75.5313 0.0000 53.8532 -0.0001
# 2 -0.4466 84.4314 12.1260 -0.0001 -0.2568 -0.0002
# 3 75.5313 12.1260 323.5609 0.0000 52.8775 0.0000
# 4 0.0000 -0.0001 0.0000 23.8099 0.0000 0.1359
# 5 53.8532 -0.2568 52.8775 0.0000 77.2942 0.0000
# 6 -0.0001 -0.0002 0.0000 0.1359 0.0000 -6.0172
#
#
#
# Elastic Compliance Matrix: (Units=1/GPa)
#
#
# Indices 1 2 3 4 5 6 
#
# 1 0.010946 0.000251 -0.001484 0.000000 -0.006610 0.000000
# 2 0.000251 0.011924 -0.000544 0.000000 0.000237 0.000000
# 3 -0.001484 -0.000544 0.003703 0.000000 -0.001501 0.000000
# 4 0.000000 0.000000 0.000000 0.041994 0.000000 0.000949
# 5 -0.006610 0.000237 -0.001501 0.000000 0.018570 0.000000
# 6 0.000000 0.000000 0.000000 0.000949 0.000000 -0.166169
#
#
# Mechanical properties :
#
#
# Convention : Reuss Voigt Hill
#
# Bulk Modulus (GPa) = 43.44495 79.61623 61.53059
# Shear Modulus (GPa) = -73.74149 49.34498 -12.19826
#
# Velocity S-wave (km/s) = -5.14723 4.21055 -2.09347
# Velocity P-wave (km/s) = 4.44031 7.22793 4.03278
#
# Compressibility (1/GPa) = 0.02301763
#
# Stress axis : x y z
#
# Youngs Moduli (GPa) = 91.35848 83.86343 270.06909
#
# Poissons Ratio (x) = -0.02105 0.40088
# Poissons Ratio (y) = -0.02293 0.14697
# Poissons Ratio (z) = 0.13561 0.04564
#
# Static dielectric constant tensor:
#      x y z
#    x 2.338200 0.000000 0.003920 
#    y 0.000000 2.011830 0.000000 
#    z 0.003920 0.000000 2.178680 
# 
# From -- ./inp_files/222411.got.cif
#   From: 2010.05.17/outbox.cif.g08.bks.cpg/sg12_112_cif.got.tgz:222411.got - 2010.06.03 13:09:07.
