data_PCOD9190896
_publ_section_title
;
Structure prediction by ZEFSAII (Michael W. Deem and Ramdas Pophale) SiO2 
 PCOD9190896
Probable space group: C 2/M
;
_chemical_formula_sum "Si O2"
_cell_formula_units_Z 40
_cell_length_a 11.118134
_cell_length_b 15.824379
_cell_length_c 10.547010
_cell_angle_alpha 90.000000
_cell_angle_beta 118.095093
_cell_angle_gamma 90.000000
_cell_volume 1636.962930
_symmetry_space_group_name_H-M "C 2/M"
_symmetry_group_IT_number 12
_symmetry_cell_setting 'monoclinic'
loop_
_space_group_symop_operation_xyz
x,y,z
-x,y,-z
-x,-y,-z
x,-y,z
1/2+x,1/2+y,z
1/2-x,1/2+y,-z
1/2-x,1/2-y,-z
1/2+x,1/2-y,z
loop_
_atom_site_type_symbol
_atom_site_label
_atom_site_fract_x
_atom_site_fract_y
_atom_site_fract_z
Si Si1 0.346794 0.655728 0.171263
Si Si2 0.359399 0.659508 0.465230
Si Si3 0.845240 0.347050 0.136875
Si Si4 0.602126 0.595692 0.170973
Si Si5 0.413796 0.855494 0.575338
O O1 0.299912 0.667906 0.292201
O O2 0.370700 0.748479 0.124595
O O3 0.496589 0.614869 0.231215
O O4 0.231679 0.614749 0.023339
O O5 0.500000 0.614783 0.500000
O O6 0.396708 0.752475 0.543617
O O7 0.241249 0.616260 0.486888
O O8 0.735992 0.352461 0.198674
O O9 0.991055 0.377960 0.258040
O O10 0.649437 0.500000 0.202558
O O11 0.500000 0.604001 0.000000
O O12 0.500000 0.887440 0.500000
#
# Coordination Sequence:
#
# PCOD9190896 Si02
#       5
#     8   8   8   8   8
#     4  10  20  32  55  89 116 145 202 259 292 341
#     4  10  20  32  49  80 118 156 189 244 305 364
#     4  10  20  32  55  89 116 145 202 259 292 341
#     4   9  20  38  59  86 125 165 193 234 311 380
#     4  10  20  32  49  80 118 156 189 244 305 364
#
# _framework density 24.435495
#
# number of rings (size 3 to 8) (size 9 to 14) (size 15 to 20)
#    0.000    2.200    4.000    0.000    5.600    0.800 
#    0.000    0.000    0.000    2.400    0.000    5.600 
#    0.000    0.000    0.000    0.000    0.000    0.400 
#
# Total GULP energy -111490.782485 kJ/mol
# GULP energy per Si atom -5574.539124 kJ/mol
# Density = 2.437988 g / cm^3
# Si number density = 24.435495 Si / 1000 Ang^3
#
#
#
# Elastic Constant Matrix: (Units=GPa)
#
#
# Indices 1 2 3 4 5 6 
#
# 1 160.0875 22.6645 42.9006 0.0000 33.1942 0.0000
# 2 22.6645 36.2272 0.0108 0.0000 1.2361 0.0000
# 3 42.9006 0.0108 115.4865 0.0000 19.0070 0.0000
# 4 0.0000 0.0000 0.0000 3.1197 0.0000 -0.9663
# 5 33.1942 1.2361 19.0070 0.0000 48.9268 0.0000
# 6 0.0000 0.0000 0.0000 -0.9663 0.0000 10.6745
#
#
#
# Elastic Compliance Matrix: (Units=1/GPa)
#
#
# Indices 1 2 3 4 5 6 
#
# 1 0.008627 -0.005233 -0.002417 0.000000 -0.004782 0.000000
# 2 -0.005233 0.030803 0.001586 0.000000 0.002156 0.000000
# 3 -0.002417 0.001586 0.009928 0.000000 -0.002257 0.000000
# 4 0.000000 0.000000 0.000000 0.329792 0.000000 0.029854
# 5 -0.004782 0.002156 -0.002257 0.000000 0.024505 0.000000
# 6 0.000000 0.000000 0.000000 0.029854 0.000000 0.096384
#
#
# Mechanical properties :
#
#
# Convention : Reuss Voigt Hill
#
# Bulk Modulus (GPa) = 26.85985 49.21702 38.03843
# Shear Modulus (GPa) = 9.53148 28.95922 19.24535
#
# Velocity S-wave (km/s) = 1.97715 3.44631 2.80946
# Velocity P-wave (km/s) = 4.02842 6.00178 5.11124
#
# Compressibility (1/GPa) = 0.03723030
#
# Stress axis : x y z
#
# Youngs Moduli (GPa) = 115.91945 32.46387 100.72248
#
# Poissons Ratio (x) = 0.16989 0.24346
# Poissons Ratio (y) = 0.60663 -0.15977
# Poissons Ratio (z) = 0.28020 -0.05150
#
# Static dielectric constant tensor:
#      x y z
#    x 1.930060 0.000000 -0.021780 
#    y 0.000000 1.875870 0.000000 
#    z -0.021780 0.000000 2.124300 
# 
# From -- ./inp_files/131351.got.cif
#   From: 2010.05.17/outbox.cif.g08.bks.cpg/sg12_66_cif.got.tgz:131351.got - 2010.06.03 13:09:07.
