data_PCOD9190244
_publ_section_title
;
Structure prediction by ZEFSAII (Michael W. Deem and Ramdas Pophale) SiO2 
 PCOD9190244
Probable space group: C 2/M
;
_chemical_formula_sum "Si O2"
_cell_formula_units_Z 36
_cell_length_a 25.398749
_cell_length_b 5.820671
_cell_length_c 8.429059
_cell_angle_alpha 90.000000
_cell_angle_beta 79.997195
_cell_angle_gamma 90.000000
_cell_volume 1227.191057
_symmetry_space_group_name_H-M "C 2/M"
_symmetry_group_IT_number 12
_symmetry_cell_setting 'monoclinic'
loop_
_space_group_symop_operation_xyz
x,y,z
-x,y,-z
-x,-y,-z
x,-y,z
1/2+x,1/2+y,z
1/2-x,1/2+y,-z
1/2-x,1/2-y,-z
1/2+x,1/2-y,z
loop_
_atom_site_type_symbol
_atom_site_label
_atom_site_fract_x
_atom_site_fract_y
_atom_site_fract_z
Si Si1 0.692801 0.251205 0.940302
Si Si2 0.277890 0.500000 0.376131
Si Si3 0.056381 0.500000 0.640042
Si Si4 0.435145 0.500000 0.014094
Si Si5 0.341492 0.000000 0.643032
Si Si6 0.052069 0.000000 0.634063
Si Si7 0.935549 0.500000 0.007375
Si Si8 0.149928 0.000000 0.350200
O O1 0.666340 0.500000 0.988206
O O2 0.706615 0.287134 0.746577
O O3 0.668288 0.000000 0.973333
O O4 0.750000 0.250000 0.000000
O O5 0.214172 0.500000 0.422541
O O6 0.309797 0.500000 0.520658
O O7 0.105224 0.500000 0.490879
O O8 0.025768 0.254735 0.644441
O O9 0.082764 0.500000 0.799782
O O10 0.417739 0.500000 0.210257
O O11 0.424282 0.748437 0.943229
O O12 0.500000 0.500000 0.000000
O O13 0.341163 0.248069 0.730101
O O14 0.091949 0.000000 0.464100
O O15 0.000000 0.500000 0.000000
#
# Coordination Sequence:
#
# PCOD9190244 Si02
#       8
#     8   4   4   4   4   4   4   4
#     4   8  16  28  41  55  67  79 104 148 191 215
#     4  10  20  26  44  50  70  90 120 146 184 208
#     4   8  14  24  32  41  62  85 107 140 165 185
#     4   8  12  18  30  44  55  73 103 137 164 188
#     4  10  20  28  35  50  71  96 122 145 167 201
#     4   8  14  24  32  41  62  85 107 140 165 185
#     4   8  12  18  30  44  55  73 103 137 164 188
#     4  10  20  28  35  50  71  96 122 145 167 201
#
# _framework density 29.335284000000001
#
# number of rings (size 3 to 8) (size 9 to 14) (size 15 to 20)
#    0.667    2.667    0.000    0.667    3.111    0.000 
#    0.000    0.000    0.000    0.000    0.000    0.000 
#    0.000    0.000    0.000    0.000    0.000    0.000 
#
# Total GULP energy -100577.418028 kJ/mol
# GULP energy per Si atom -5587.634335 kJ/mol
# Density = 2.926852 g / cm^3
# Si number density = 29.335284 Si / 1000 Ang^3
#
#
#
# Elastic Constant Matrix: (Units=GPa)
#
#
# Indices 1 2 3 4 5 6 
#
# 1 83.9209 55.3533 39.0050 0.0000 24.9169 0.0000
# 2 55.3533 419.7603 57.6032 0.0000 -7.6691 0.0000
# 3 39.0050 57.6032 73.1437 0.0000 4.1189 0.0000
# 4 0.0000 0.0000 0.0000 51.6116 0.0000 -3.7643
# 5 24.9169 -7.6691 4.1189 0.0000 51.7198 0.0000
# 6 0.0000 0.0000 0.0000 -3.7643 0.0000 13.4676
#
#
#
# Elastic Compliance Matrix: (Units=1/GPa)
#
#
# Indices 1 2 3 4 5 6 
#
# 1 0.019699 -0.001559 -0.008769 0.000000 -0.009023 0.000000
# 2 -0.001559 0.002811 -0.001455 0.000000 0.001284 0.000000
# 3 -0.008769 -0.001455 0.019354 0.000000 0.002467 0.000000
# 4 0.000000 0.000000 0.000000 0.019779 0.000000 0.005528
# 5 -0.009023 0.001284 0.002467 0.000000 0.023676 0.000000
# 6 0.000000 0.000000 0.000000 0.005528 0.000000 0.075798
#
#
# Mechanical properties :
#
#
# Convention : Reuss Voigt Hill
#
# Bulk Modulus (GPa) = 54.64685 97.86088 76.25387
# Shear Modulus (GPa) = 26.20799 51.68402 38.94600
#
# Velocity S-wave (km/s) = 2.99221 4.20198 3.64760
# Velocity P-wave (km/s) = 5.53232 7.54811 6.61743
#
# Compressibility (1/GPa) = 0.01829932
#
# Stress axis : x y z
#
# Youngs Moduli (GPa) = 50.76376 355.74656 51.66791
#
# Poissons Ratio (x) = 0.55469 0.45306
# Poissons Ratio (y) = 0.07915 0.07515
# Poissons Ratio (z) = 0.44514 0.51746
#
# Static dielectric constant tensor:
#      x y z
#    x 2.335170 0.000000 -0.044990 
#    y 0.000000 2.311450 0.000000 
#    z -0.044990 0.000000 2.268020 
# 
# From -- ./inp_files/178833.got.cif
#   From: 2010.05.17/outbox.cif.g08.bks.cpg/sg12_90_cif.got.tgz:178833.got - 2010.06.03 13:09:07.
