data_PCOD9190957
_publ_section_title
;
Structure prediction by ZEFSAII (Michael W. Deem and Ramdas Pophale) SiO2 
 PCOD9190957
Probable space group: C 2/M
;
_chemical_formula_sum "Si O2"
_cell_formula_units_Z 64
_cell_length_a 14.865196
_cell_length_b 27.451722
_cell_length_c 8.914885
_cell_angle_alpha 90.000000
_cell_angle_beta 65.169656
_cell_angle_gamma 90.000000
_cell_volume 3301.634779
_symmetry_space_group_name_H-M "C 2/M"
_symmetry_group_IT_number 12
_symmetry_cell_setting 'monoclinic'
loop_
_space_group_symop_operation_xyz
x,y,z
-x,y,-z
-x,-y,-z
x,-y,z
1/2+x,1/2+y,z
1/2-x,1/2+y,-z
1/2-x,1/2-y,-z
1/2+x,1/2-y,z
loop_
_atom_site_type_symbol
_atom_site_label
_atom_site_fract_x
_atom_site_fract_y
_atom_site_fract_z
Si Si1 0.297213 0.850252 0.837366
Si Si2 0.102373 0.273150 0.017008
Si Si3 0.505974 0.297818 0.324196
Si Si4 0.110318 0.443862 0.361834
Si Si5 0.103128 0.907773 0.994730
Si Si6 0.003496 0.909180 0.656376
Si Si7 0.793981 0.779491 0.327857
Si Si8 0.690320 0.446647 0.640266
O O1 0.348901 0.817055 0.925018
O O2 0.360952 0.899276 0.765844
O O3 0.187272 0.867841 0.961046
O O4 0.277543 0.820645 0.694930
O O5 0.074517 0.233139 0.164090
O O6 0.176928 0.253090 0.837803
O O7 0.000000 0.285176 0.000000
O O8 0.500000 0.277716 0.500000
O O9 0.537091 0.354082 0.319981
O O10 0.398689 0.298420 0.319231
O O11 0.121549 0.500000 0.296626
O O12 0.192995 0.439015 0.435217
O O13 0.000000 0.438662 0.500000
O O14 0.152086 0.943100 0.838893
O O15 0.000000 0.885914 0.000000
O O16 0.062309 0.933885 0.170483
O O17 0.119838 0.907971 0.612924
O O18 0.000000 0.933665 0.500000
O O19 0.750000 0.750000 0.500000
O O20 0.668325 0.500000 0.594983
#
# Coordination Sequence:
#
# PCOD9190957 Si02
#       8
#     8   8   8   8   8   8   8   8
#     4  11  21  37  60  84 112 152 194 237 290 345
#     4  10  23  39  55  80 116 154 192 235 285 345
#     4  10  20  36  53  73 109 149 185 224 274 334
#     4   9  19  36  60  87 111 141 190 247 293 339
#     4   9  18  33  53  76 103 139 180 221 269 327
#     4  10  20  32  50  78 109 142 175 218 273 327
#     4  11  22  34  53  83 114 147 191 237 285 341
#     4   9  18  34  55  79 106 140 182 222 271 336
#
# _framework density 19.384336000000001
#
# number of rings (size 3 to 8) (size 9 to 14) (size 15 to 20)
#    0.000    2.125    0.000    4.125    0.000   10.000 
#    0.000    1.250    0.000    0.375    0.000    0.875 
#    0.000    0.000    0.000    0.000    0.000    0.000 
#
# Total GULP energy -178242.776602 kJ/mol
# GULP energy per Si atom -5570.086769 kJ/mol
# Density = 1.934022 g / cm^3
# Si number density = 19.384336 Si / 1000 Ang^3
#
#
#
# Elastic Constant Matrix: (Units=GPa)
#
#
# Indices 1 2 3 4 5 6 
#
# 1 95.2382 46.7787 51.4711 0.0000 -6.9746 0.0000
# 2 46.7787 95.0254 34.6539 0.0000 -3.7294 0.0000
# 3 51.4711 34.6539 111.5767 0.0000 2.9374 0.0000
# 4 0.0000 0.0000 0.0000 12.8531 0.0000 0.6861
# 5 -6.9746 -3.7294 2.9374 0.0000 35.6872 0.0000
# 6 0.0000 0.0000 0.0000 0.6861 0.0000 21.8292
#
#
#
# Elastic Compliance Matrix: (Units=1/GPa)
#
#
# Indices 1 2 3 4 5 6 
#
# 1 0.016950 -0.006019 -0.006033 0.000000 0.003180 0.000000
# 2 -0.006019 0.014091 -0.001611 0.000000 0.000429 0.000000
# 3 -0.006033 -0.001611 0.012308 0.000000 -0.002361 0.000000
# 4 0.000000 0.000000 0.000000 0.077933 0.000000 -0.002450
# 5 0.003180 0.000429 -0.002361 0.000000 0.028882 0.000000
# 6 0.000000 0.000000 0.000000 -0.002450 0.000000 0.045887
#
#
# Mechanical properties :
#
#
# Convention : Reuss Voigt Hill
#
# Bulk Modulus (GPa) = 62.41402 63.07196 62.74299
# Shear Modulus (GPa) = 21.86091 25.33635 23.59863
#
# Velocity S-wave (km/s) = 3.36186 3.61924 3.49292
# Velocity P-wave (km/s) = 6.88023 7.07626 6.97893
#
# Compressibility (1/GPa) = 0.01602204
#
# Stress axis : x y z
#
# Youngs Moduli (GPa) = 58.99698 70.96797 81.24628
#
# Poissons Ratio (x) = 0.42715 0.49020
# Poissons Ratio (y) = 0.35510 0.13090
# Poissons Ratio (z) = 0.35596 0.11434
#
# Static dielectric constant tensor:
#      x y z
#    x 1.707570 0.000000 0.026630 
#    y 0.000000 1.705340 0.000000 
#    z 0.026630 0.000000 1.714570 
# 
# From -- ./inp_files/68232.got.cif
#   From: 2010.05.17/outbox.cif.g08.bks.cpg/sg12_35_cif.got.tgz:68232.got - 2010.06.03 13:09:07.
