data_PCOD9190605
_publ_section_title
;
Structure prediction by ZEFSAII (Michael W. Deem and Ramdas Pophale) SiO2 
 PCOD9190605
Probable space group: C 2/M
;
_chemical_formula_sum "Si O2"
_cell_formula_units_Z 44
_cell_length_a 13.685444
_cell_length_b 14.232387
_cell_length_c 25.767157
_cell_angle_alpha 90.000000
_cell_angle_beta 154.460240
_cell_angle_gamma 90.000000
_cell_volume 2163.808256
_symmetry_space_group_name_H-M "C 2/M"
_symmetry_group_IT_number 12
_symmetry_cell_setting 'monoclinic'
loop_
_space_group_symop_operation_xyz
x,y,z
-x,y,-z
-x,-y,-z
x,-y,z
1/2+x,1/2+y,z
1/2-x,1/2+y,-z
1/2-x,1/2-y,-z
1/2+x,1/2-y,z
loop_
_atom_site_type_symbol
_atom_site_label
_atom_site_fract_x
_atom_site_fract_y
_atom_site_fract_z
Si Si1 0.997979 0.000000 0.835163
Si Si2 0.364268 0.500000 0.220137
Si Si3 0.301756 0.105793 0.594822
Si Si4 0.982996 0.500000 0.110669
Si Si5 0.825822 0.827782 0.609246
Si Si6 0.331507 0.159315 0.345537
Si Si7 0.282666 0.629164 0.322653
O O1 0.086088 0.000000 0.817390
O O2 0.832672 0.088366 0.761550
O O3 0.215722 0.000000 0.975903
O O4 0.104694 0.500000 0.113000
O O5 0.479322 0.406079 0.299581
O O6 0.377940 0.217199 0.622225
O O7 0.281202 0.110781 0.647918
O O8 0.048139 0.101481 0.449416
O O9 0.404720 0.000000 0.633158
O O10 0.093337 0.583584 0.196290
O O11 0.740517 0.836661 0.628223
O O12 0.599403 0.861374 0.470234
O O13 0.289133 0.264047 0.308595
#
# Coordination Sequence:
#
# PCOD9190605 Si02
#       7
#     4   4   8   4   8   8   8
#     4  10  20  32  46  64  90 126 163 188 218 254
#     4  10  20  34  42  64  98 128 163 176 212 278
#     4   9  13  26  50  73  93 108 138 199 244 276
#     4  12  21  29  44  64  98 134 150 179 213 274
#     4   8  15  27  51  71  88 117 146 192 240 265
#     4   8  15  29  49  70  88 107 151 201 234 264
#     4   9  16  27  46  72  92 114 142 187 244 270
#
# _framework density 20.334519
#
# number of rings (size 3 to 8) (size 9 to 14) (size 15 to 20)
#    0.000    2.909    1.818    3.545    0.000    2.909 
#    0.000    3.636    0.000    0.000    0.000    0.000 
#    0.000    5.091    0.000    4.364    0.000    0.000 
#
# Total GULP energy -122479.584587 kJ/mol
# GULP energy per Si atom -5567.253845 kJ/mol
# Density = 2.028824 g / cm^3
# Si number density = 20.334519 Si / 1000 Ang^3
#
#
#
# Elastic Constant Matrix: (Units=GPa)
#
#
# Indices 1 2 3 4 5 6 
#
# 1 50.8821 5.9063 14.6529 0.0008 -4.0530 0.0008
# 2 5.9063 164.3833 69.0402 -0.0026 15.8326 0.0013
# 3 14.6529 69.0402 128.9210 -0.0052 0.6790 0.0033
# 4 0.0008 -0.0026 -0.0052 16.8328 -0.0002 -5.1840
# 5 -4.0530 15.8326 0.6790 -0.0002 23.2378 0.0014
# 6 0.0008 0.0013 0.0033 -5.1840 0.0014 0.3339
#
#
#
# Elastic Compliance Matrix: (Units=1/GPa)
#
#
# Indices 1 2 3 4 5 6 
#
# 1 0.020628 -0.000143 -0.002288 0.000004 0.003762 0.000017
# 2 -0.000143 0.008540 -0.004527 -0.000003 -0.005711 -0.000009
# 3 -0.002288 -0.004527 0.010429 0.000007 0.002381 0.000013
# 4 0.000004 -0.000003 0.000007 -0.015710 0.000017 -0.243912
# 5 0.003762 -0.005711 0.002381 0.000017 0.047511 0.000056
# 6 0.000017 -0.000009 0.000013 -0.243912 0.000056 -0.791995
#
#
# Mechanical properties :
#
#
# Convention : Reuss Voigt Hill
#
# Bulk Modulus (GPa) = 38.93843 58.15389 48.54616
# Shear Modulus (GPa) = -7.16208 25.05336 8.94564
#
# Velocity S-wave (km/s) = -1.87877 3.51388 2.09971
# Velocity P-wave (km/s) = 3.80580 6.71743 5.45930
#
# Compressibility (1/GPa) = 0.02568157
#
# Stress axis : x y z
#
# Youngs Moduli (GPa) = 48.47685 117.09810 95.89080
#
# Poissons Ratio (x) = 0.01669 0.21941
# Poissons Ratio (y) = 0.00691 0.43410
# Poissons Ratio (z) = 0.11092 0.53010
#
# Static dielectric constant tensor:
#      x y z
#    x 1.822670 0.000000 -0.028920 
#    y 0.000000 1.798310 0.000000 
#    z -0.028920 0.000000 1.642490 
# 
# From -- ./inp_files/379413.got.cif
#   From: 2010.05.17/outbox.cif.g08.bks.cpg/sg12_190_cif.got.tgz:379413.got - 2010.06.03 13:09:07.
