data_PCOD9190868
_publ_section_title
;
Structure prediction by ZEFSAII (Michael W. Deem and Ramdas Pophale) SiO2 
 PCOD9190868
Probable space group: C 2/M
;
_chemical_formula_sum "Si O2"
_cell_formula_units_Z 64
_cell_length_a 32.269795
_cell_length_b 8.965570
_cell_length_c 16.104958
_cell_angle_alpha 90.000000
_cell_angle_beta 125.903617
_cell_angle_gamma 90.000000
_cell_volume 3774.167806
_symmetry_space_group_name_H-M "C 2/M"
_symmetry_group_IT_number 12
_symmetry_cell_setting 'monoclinic'
loop_
_space_group_symop_operation_xyz
x,y,z
-x,y,-z
-x,-y,-z
x,-y,z
1/2+x,1/2+y,z
1/2-x,1/2+y,-z
1/2-x,1/2-y,-z
1/2+x,1/2-y,z
loop_
_atom_site_type_symbol
_atom_site_label
_atom_site_fract_x
_atom_site_fract_y
_atom_site_fract_z
Si Si1 0.641986 0.821844 0.426502
Si Si2 0.172330 0.177906 0.950944
Si Si3 0.196412 0.824393 0.335127
Si Si4 0.960250 0.321772 0.790869
Si Si5 0.268232 0.678648 0.146440
Si Si6 0.075901 0.322272 0.916995
Si Si7 0.590262 0.325528 0.111996
Si Si8 0.794655 0.178611 0.364622
O O1 0.679616 0.753090 0.401015
O O2 0.584777 0.787115 0.327222
O O3 0.657342 0.749613 0.531554
O O4 0.648074 0.000000 0.436313
O O5 0.193633 0.216587 0.884389
O O6 0.117737 0.247024 0.907596
O O7 0.170110 0.000000 0.955841
O O8 0.214667 0.241125 0.064501
O O9 0.147399 0.810942 0.216716
O O10 0.244615 0.744879 0.350779
O O11 0.206598 0.000000 0.360597
O O12 0.958217 0.500000 0.804838
O O13 0.947018 0.237672 0.860642
O O14 0.017018 0.284905 0.827181
O O15 0.259621 0.500000 0.133934
O O16 0.290369 0.716940 0.262374
O O17 0.082027 0.500000 0.921385
O O18 0.085255 0.264751 0.021456
O O19 0.580123 0.500000 0.085161
O O20 0.795429 0.000000 0.373844
#
# Coordination Sequence:
#
# PCOD9190868 Si02
#       8
#     8   8   8   8   8   8   8   8
#     4  10  20  35  52  70  96 131 170 209 246 284
#     4  10  20  35  55  79 104 129 162 202 244 293
#     4  10  20  33  48  71 103 135 166 200 241 290
#     4   9  20  36  51  69  98 136 172 206 246 294
#     4   9  20  37  55  76 104 134 160 195 247 302
#     4  11  21  33  51  74 101 134 169 203 247 299
#     4  10  20  32  49  75 104 133 168 208 246 289
#     4  11  21  33  51  74  99 129 165 202 245 296
#
# _framework density 16.957381000000002
#
# number of rings (size 3 to 8) (size 9 to 14) (size 15 to 20)
#    0.000    2.000    0.000    3.750    0.000    8.000 
#    0.000    0.000    0.000    0.750    0.000    5.250 
#    0.000    0.000    0.000    0.000    0.000    0.000 
#
# Total GULP energy -178737.706229 kJ/mol
# GULP energy per Si atom -5585.553320 kJ/mol
# Density = 1.691879 g / cm^3
# Si number density = 16.957381 Si / 1000 Ang^3
#
#
#
# Elastic Constant Matrix: (Units=GPa)
#
#
# Indices 1 2 3 4 5 6 
#
# 1 98.8211 41.0164 48.8158 0.0000 11.7313 0.0000
# 2 41.0164 55.0153 46.2945 0.0000 1.3836 0.0000
# 3 48.8158 46.2945 103.6425 0.0000 -8.4692 0.0000
# 4 0.0000 0.0000 0.0000 27.0182 0.0000 1.0717
# 5 11.7313 1.3836 -8.4692 0.0000 13.6194 0.0000
# 6 0.0000 0.0000 0.0000 1.0717 0.0000 27.4614
#
#
#
# Elastic Compliance Matrix: (Units=1/GPa)
#
#
# Indices 1 2 3 4 5 6 
#
# 1 0.019405 -0.007774 -0.007342 0.000000 -0.020491 0.000000
# 2 -0.007774 0.034101 -0.011912 0.000000 -0.004175 0.000000
# 3 -0.007342 -0.011912 0.020062 0.000000 0.020010 0.000000
# 4 0.000000 0.000000 0.000000 0.037070 0.000000 -0.001447
# 5 -0.020491 -0.004175 0.020010 0.000000 0.103942 0.000000
# 6 0.000000 0.000000 0.000000 -0.001447 0.000000 0.036471
#
#
# Mechanical properties :
#
#
# Convention : Reuss Voigt Hill
#
# Bulk Modulus (GPa) = 51.24656 58.85913 55.05284
# Shear Modulus (GPa) = 16.04564 21.70994 18.87779
#
# Velocity S-wave (km/s) = 3.07943 3.58196 3.34016
# Velocity P-wave (km/s) = 6.55212 7.20366 6.88560
#
# Compressibility (1/GPa) = 0.01951351
#
# Stress axis : x y z
#
# Youngs Moduli (GPa) = 51.53264 29.32444 49.84475
#
# Poissons Ratio (x) = 0.22797 0.36595
# Poissons Ratio (y) = 0.40062 0.59374
# Poissons Ratio (z) = 0.37834 0.34930
#
# Static dielectric constant tensor:
#      x y z
#    x 1.556360 0.000000 0.015570 
#    y 0.000000 1.564730 0.000000 
#    z 0.015570 0.000000 1.577350 
# 
# From -- ./inp_files/249185.got.cif
#   From: 2010.05.17/outbox.cif.g08.bks.cpg/sg12_125_cif.got.tgz:249185.got - 2010.06.03 13:09:07.
