data_PCOD9190961
_publ_section_title
;
Structure prediction by ZEFSAII (Michael W. Deem and Ramdas Pophale) SiO2 
 PCOD9190961
Probable space group: C 2/M
;
_chemical_formula_sum "Si O2"
_cell_formula_units_Z 48
_cell_length_a 10.752207
_cell_length_b 13.863715
_cell_length_c 16.672476
_cell_angle_alpha 90.000000
_cell_angle_beta 57.718985
_cell_angle_gamma 90.000000
_cell_volume 2101.162000
_symmetry_space_group_name_H-M "C 2/M"
_symmetry_group_IT_number 12
_symmetry_cell_setting 'monoclinic'
loop_
_space_group_symop_operation_xyz
x,y,z
-x,y,-z
-x,-y,-z
x,-y,z
1/2+x,1/2+y,z
1/2-x,1/2+y,-z
1/2-x,1/2-y,-z
1/2+x,1/2-y,z
loop_
_atom_site_type_symbol
_atom_site_label
_atom_site_fract_x
_atom_site_fract_y
_atom_site_fract_z
Si Si1 0.667443 0.137830 0.443388
Si Si2 0.364857 0.136202 0.884222
Si Si3 0.800505 0.395013 0.236162
Si Si4 0.424961 0.335809 0.941693
Si Si5 0.271555 0.337999 0.231608
Si Si6 0.668538 0.631049 0.453797
O O1 0.500000 0.103822 0.500000
O O2 0.734270 0.126132 0.332479
O O3 0.662982 0.253195 0.456457
O O4 0.761623 0.101362 0.485832
O O5 0.527531 0.100754 0.846027
O O6 0.371221 0.249171 0.904296
O O7 0.335183 0.123677 0.800623
O O8 0.219005 0.104799 0.983007
O O9 0.736334 0.500000 0.227939
O O10 0.760604 0.281455 0.229523
O O11 0.766391 0.396168 0.343185
O O12 0.565857 0.375274 0.846999
O O13 0.500000 0.300574 0.000000
O O14 0.500000 0.600044 0.500000
#
# Coordination Sequence:
#
# PCOD9190961 Si02
#       6
#     8   8   8   8   8   8
#     4   9  16  28  48  76 101 128 177 230 261 300
#     4   9  16  30  51  73 101 136 177 219 263 321
#     4  10  20  32  50  79 110 138 172 221 278 324
#     4   8  15  27  48  75  97 124 172 221 261 307
#     4   9  17  29  51  77 101 136 182 225 263 317
#     4   9  18  30  46  70 103 139 175 215 265 320
#
# _framework density 22.844503
#
# number of rings (size 3 to 8) (size 9 to 14) (size 15 to 20)
#    0.000    3.000    0.000    1.000    0.000    8.333 
#    0.000    0.000    0.000   59.000    0.000   10.500 
#    0.000    0.000    0.000    0.000    0.000    0.000 
#
# Total GULP energy -133611.969406 kJ/mol
# GULP energy per Si atom -5567.165392 kJ/mol
# Density = 2.279251 g / cm^3
# Si number density = 22.844503 Si / 1000 Ang^3
#
#
#
# Elastic Constant Matrix: (Units=GPa)
#
#
# Indices 1 2 3 4 5 6 
#
# 1 82.5311 -4.7646 53.2902 0.0000 -2.5018 0.0000
# 2 -4.7646 114.8936 -4.4624 0.0000 1.2915 0.0000
# 3 53.2902 -4.4624 153.3859 0.0000 -0.9631 0.0000
# 4 0.0000 0.0000 0.0000 -294.9234 0.0000 -17.7288
# 5 -2.5018 1.2915 -0.9631 0.0000 26.0819 0.0000
# 6 0.0000 0.0000 0.0000 -17.7288 0.0000 -39.6520
#
#
#
# Elastic Compliance Matrix: (Units=1/GPa)
#
#
# Indices 1 2 3 4 5 6 
#
# 1 0.015686 0.000425 -0.005429 0.000000 0.001283 0.000000
# 2 0.000425 0.008730 0.000104 0.000000 -0.000388 0.000000
# 3 -0.005429 0.000104 0.008407 0.000000 -0.000215 0.000000
# 4 0.000000 0.000000 0.000000 -0.003484 0.000000 0.001558
# 5 0.001283 -0.000388 -0.000215 0.000000 0.038475 0.000000
# 6 0.000000 0.000000 0.000000 0.001558 0.000000 -0.025916
#
#
# Mechanical properties :
#
#
# Convention : Reuss Voigt Hill
#
# Bulk Modulus (GPa) = 43.43582 48.77079 46.10330
# Shear Modulus (GPa) = 84.21451 -41.24888 21.48281
#
# Velocity S-wave (km/s) = 6.07818 -4.25389 3.06991
# Velocity P-wave (km/s) = 8.26523 1.65289 5.72634
#
# Compressibility (1/GPa) = 0.02302247
#
# Stress axis : x y z
#
# Youngs Moduli (GPa) = 63.75226 114.55108 118.94263
#
# Poissons Ratio (x) = -0.04871 0.64576
# Poissons Ratio (y) = -0.02711 -0.01235
# Poissons Ratio (z) = 0.34612 -0.01189
#
# Static dielectric constant tensor:
#      x y z
#    x 1.827920 0.000000 -0.026230 
#    y 0.000000 1.909560 0.000000 
#    z -0.026230 0.000000 1.821850 
# 
# From -- ./inp_files/263785.got.cif
#   From: 2010.05.17/outbox.cif.g08.bks.cpg/sg12_132_cif.got.tgz:263785.got - 2010.06.03 13:09:07.
