data_PCOD9190586
_publ_section_title
;
Structure prediction by ZEFSAII (Michael W. Deem and Ramdas Pophale) SiO2 
 PCOD9190586
Probable space group: C 2/M
;
_chemical_formula_sum "Si O2"
_cell_formula_units_Z 64
_cell_length_a 26.619068
_cell_length_b 8.855736
_cell_length_c 13.494681
_cell_angle_alpha 90.000000
_cell_angle_beta 120.461346
_cell_angle_gamma 90.000000
_cell_volume 2742.034853
_symmetry_space_group_name_H-M "C 2/M"
_symmetry_group_IT_number 12
_symmetry_cell_setting 'monoclinic'
loop_
_space_group_symop_operation_xyz
x,y,z
-x,y,-z
-x,-y,-z
x,-y,z
1/2+x,1/2+y,z
1/2-x,1/2+y,-z
1/2-x,1/2-y,-z
1/2+x,1/2-y,z
loop_
_atom_site_type_symbol
_atom_site_label
_atom_site_fract_x
_atom_site_fract_y
_atom_site_fract_z
Si Si1 0.060560 0.317470 0.234657
Si Si2 0.181444 0.171115 0.315697
Si Si3 0.915086 0.175016 0.314861
Si Si4 0.560560 0.317470 0.886462
Si Si5 0.181444 0.671115 0.047191
Si Si6 0.701726 0.832244 0.830793
Si Si7 0.298274 0.332244 0.427341
Si Si8 0.584914 0.175016 0.484689
O O1 0.061857 0.500000 0.230302
O O2 0.118055 0.246509 0.242420
O O3 0.064357 0.270548 0.355728
O O4 1.000000 0.250000 0.134967
O O5 0.233768 0.279872 0.335600
O O6 0.194715 0.158292 0.446817
O O7 0.182945 0.000000 0.276980
O O8 0.935643 0.229452 0.227014
O O9 0.845941 0.208620 0.245453
O O10 0.937631 0.250000 0.437631
O O11 0.928023 0.000000 0.332335
O O12 0.561857 0.500000 0.893413
O O13 0.618055 0.246509 0.993689
O O14 0.182945 0.500000 0.088910
O O15 0.194715 0.658292 0.942612
O O16 0.233769 0.779872 0.131938
O O17 0.687897 0.000000 0.778063
O O18 0.312103 0.500000 0.402269
O O19 0.345941 0.208621 0.446429
O O20 0.571977 0.000000 0.476289
#
# Coordination Sequence:
#
# PCOD9190586 Si02
#       8
#     8   8   8   8   8   8   8   8
#     4  10  20  32  45  62  86 117 152 187 222 261
#     4   9  16  27  44  64  85 109 139 177 221 265
#     4  10  20  32  45  62  86 117 152 187 222 261
#     4  10  20  32  45  62  86 117 152 187 222 261
#     4   9  16  27  44  64  85 109 139 177 221 265
#     4   9  16  27  44  64  85 109 139 177 221 265
#     4   9  16  27  44  64  85 109 139 177 221 265
#     4  10  20  32  45  62  86 117 152 187 222 261
#
# _framework density 23.340332
#
# number of rings (size 3 to 8) (size 9 to 14) (size 15 to 20)
#    0.000    2.500    0.000    3.000    0.000    9.500 
#    0.000    2.500    0.000    0.000    0.000    0.000 
#    0.000    1.000    0.000   10.000    0.000    7.000 
#
# Total GULP energy -178780.237902 kJ/mol
# GULP energy per Si atom -5586.882434 kJ/mol
# Density = 2.328721 g / cm^3
# Si number density = 23.340332 Si / 1000 Ang^3
#
#
#
# Elastic Constant Matrix: (Units=GPa)
#
#
# Indices 1 2 3 4 5 6 
#
# 1 36.9908 14.0080 65.7570 0.0000 33.7745 0.0000
# 2 14.0080 61.2082 13.1085 0.0000 9.8834 0.0000
# 3 65.7570 13.1085 31.5294 0.0000 26.2645 0.0000
# 4 0.0000 0.0000 0.0000 20.4232 0.0000 0.3004
# 5 33.7745 9.8834 26.2645 0.0000 66.6592 0.0000
# 6 0.0000 0.0000 0.0000 0.3004 0.0000 20.4506
#
#
#
# Elastic Compliance Matrix: (Units=1/GPa)
#
#
# Indices 1 2 3 4 5 6 
#
# 1 -0.008816 -0.002186 0.022782 0.000000 -0.004185 0.000000
# 2 -0.002186 0.017400 -0.002158 0.000000 -0.000622 0.000000
# 3 0.022782 -0.002158 -0.008264 0.000000 -0.007967 0.000000
# 4 0.000000 0.000000 0.000000 0.048974 0.000000 -0.000719
# 5 -0.004185 -0.000622 -0.007967 0.000000 0.020354 0.000000
# 6 0.000000 0.000000 0.000000 -0.000719 0.000000 0.048909
#
#
# Mechanical properties :
#
#
# Convention : Reuss Voigt Hill
#
# Bulk Modulus (GPa) = 26.88290 35.05280 30.96785
# Shear Modulus (GPa) = 53.14732 23.96359 38.55545
#
# Velocity S-wave (km/s) = 4.77703 3.20770 4.06874
# Velocity P-wave (km/s) = 6.47839 5.36375 5.94724
#
# Compressibility (1/GPa) = 0.03719837
#
# Stress axis : x y z
#
# Youngs Moduli (GPa) = -113.42552 57.46975 -121.00359
#
# Poissons Ratio (x) = 0.12561 2.75675
# Poissons Ratio (y) = -0.24790 -0.26107
# Poissons Ratio (z) = 2.58411 0.12400
#
# Static dielectric constant tensor:
#      x y z
#    x 1.912530 0.000000 -0.067360 
#    y 0.000000 1.817360 0.000000 
#    z -0.067360 0.000000 1.918660 
# 
# From -- ./inp_files/326927.got.cif
#   From: 2010.05.17/outbox.cif.g08.bks.cpg/sg12_164_cif.got.tgz:326927.got - 2010.06.03 13:09:07.
