data_PCOD9190476
_publ_section_title
;
Structure prediction by ZEFSAII (Michael W. Deem and Ramdas Pophale) SiO2 
 PCOD9190476
Probable space group: C 2/M
;
_chemical_formula_sum "Si O2"
_cell_formula_units_Z 64
_cell_length_a 16.417969
_cell_length_b 14.683079
_cell_length_c 18.594842
_cell_angle_alpha 90.000000
_cell_angle_beta 52.658634
_cell_angle_gamma 90.000000
_cell_volume 3563.819715
_symmetry_space_group_name_H-M "C 2/M"
_symmetry_group_IT_number 12
_symmetry_cell_setting 'monoclinic'
loop_
_space_group_symop_operation_xyz
x,y,z
-x,y,-z
-x,-y,-z
x,-y,z
1/2+x,1/2+y,z
1/2-x,1/2+y,-z
1/2-x,1/2-y,-z
1/2+x,1/2-y,z
loop_
_atom_site_type_symbol
_atom_site_label
_atom_site_fract_x
_atom_site_fract_y
_atom_site_fract_z
Si Si1 0.888008 0.229478 0.169386
Si Si2 0.165848 0.721409 0.235409
Si Si3 0.194876 0.608523 0.081169
Si Si4 0.512154 0.893753 0.077951
Si Si5 0.892388 0.392155 0.591473
Si Si6 0.540220 0.603434 0.267156
Si Si7 0.428584 0.605284 0.923005
Si Si8 0.174974 0.894363 0.664159
O O1 0.788288 0.236007 0.173762
O O2 0.933648 0.328251 0.160239
O O3 0.851012 0.176395 0.259611
O O4 0.983794 0.169148 0.091506
O O5 0.148023 0.665302 0.171817
O O6 0.132670 0.662596 0.322504
O O7 0.106059 0.816696 0.266418
O O8 0.191775 0.500000 0.098903
O O9 0.125472 0.623836 0.047936
O O10 0.313190 0.632655 0.004337
O O11 0.489714 0.000000 0.101188
O O12 0.500000 0.874186 0.000000
O O13 0.899136 0.500000 0.605010
O O14 0.796244 0.382200 0.587591
O O15 0.000000 0.363347 0.500000
O O16 0.566974 0.500000 0.275007
O O17 0.560201 0.609034 0.170040
O O18 0.417224 0.616729 0.343132
O O19 0.444234 0.500000 0.936037
O O20 0.162940 0.000000 0.696313
#
# Coordination Sequence:
#
# PCOD9190476 Si02
#       8
#     8   8   8   8   8   8   8   8
#     4  10  20  31  49  72 100 134 169 211 260 300
#     4  11  22  32  52  82 105 130 171 221 262 305
#     4  10  21  35  51  73 102 134 172 224 264 297
#     4  10  23  38  49  64  96 142 187 220 250 296
#     4   9  18  35  58  81 107 135 162 201 264 334
#     4   9  18  32  50  72 101 139 178 212 245 292
#     4   9  19  34  52  72 100 138 176 211 258 312
#     4   8  15  32  55  77 102 130 165 207 254 311
#
# _framework density 17.958259000000002
#
# number of rings (size 3 to 8) (size 9 to 14) (size 15 to 20)
#    0.000    2.500    0.000    3.000    3.500    3.000 
#    0.000    1.875    0.000    0.375    0.000    0.000 
#    0.000    0.000    0.000    0.000    0.000    0.000 
#
# Total GULP energy -178325.170590 kJ/mol
# GULP energy per Si atom -5572.661581 kJ/mol
# Density = 1.791739 g / cm^3
# Si number density = 17.958259 Si / 1000 Ang^3
#
#
#
# Elastic Constant Matrix: (Units=GPa)
#
#
# Indices 1 2 3 4 5 6 
#
# 1 123.1724 64.5845 40.5184 0.0000 -25.3176 0.0000
# 2 64.5845 79.6095 26.6287 0.0000 -17.4918 0.0000
# 3 40.5184 26.6287 49.9895 0.0000 -21.0837 0.0000
# 4 0.0000 0.0000 0.0000 10.0068 0.0000 -8.6861
# 5 -25.3176 -17.4918 -21.0837 0.0000 19.2814 0.0000
# 6 0.0000 0.0000 0.0000 -8.6861 0.0000 23.2019
#
#
#
# Elastic Compliance Matrix: (Units=1/GPa)
#
#
# Indices 1 2 3 4 5 6 
#
# 1 0.016573 -0.010226 -0.005049 0.000000 0.006964 0.000000
# 2 -0.010226 0.022530 -0.001402 0.000000 0.005478 0.000000
# 3 -0.005049 -0.001402 0.039923 0.000000 0.035753 0.000000
# 4 0.000000 0.000000 0.000000 0.148039 0.000000 0.055421
# 5 0.006964 0.005478 0.035753 0.000000 0.105072 0.000000
# 6 0.000000 0.000000 0.000000 0.055421 0.000000 0.063848
#
#
# Mechanical properties :
#
#
# Convention : Reuss Voigt Hill
#
# Bulk Modulus (GPa) = 21.89564 57.35943 39.62754
# Shear Modulus (GPa) = 11.24703 18.56734 14.90719
#
# Velocity S-wave (km/s) = 2.50529 3.21895 2.88427
# Velocity P-wave (km/s) = 4.53736 6.76943 5.76250
#
# Compressibility (1/GPa) = 0.04567119
#
# Stress axis : x y z
#
# Youngs Moduli (GPa) = 60.33966 44.38485 25.04845
#
# Poissons Ratio (x) = 0.45389 0.12646
# Poissons Ratio (y) = 0.61705 0.03513
# Poissons Ratio (z) = 0.30463 0.06225
#
# Static dielectric constant tensor:
#      x y z
#    x 1.657740 0.000000 -0.015240 
#    y 0.000000 1.626810 0.000000 
#    z -0.015240 0.000000 1.602440 
# 
# From -- ./inp_files/270252.got.cif
#   From: 2010.05.17/outbox.cif.g08.bks.cpg/sg12_136_cif.got.tgz:270252.got - 2010.06.03 13:09:07.
