data_PCOD9190410
_publ_section_title
;
Structure prediction by ZEFSAII (Michael W. Deem and Ramdas Pophale) SiO2 
 PCOD9190410
Probable space group: C 2/M
;
_chemical_formula_sum "Si O2"
_cell_formula_units_Z 56
_cell_length_a 19.145863
_cell_length_b 7.515800
_cell_length_c 30.061556
_cell_angle_alpha 90.000000
_cell_angle_beta 141.893097
_cell_angle_gamma 90.000000
_cell_volume 2669.554280
_symmetry_space_group_name_H-M "C 2/M"
_symmetry_group_IT_number 12
_symmetry_cell_setting 'monoclinic'
loop_
_space_group_symop_operation_xyz
x,y,z
-x,y,-z
-x,-y,-z
x,-y,z
1/2+x,1/2+y,z
1/2-x,1/2+y,-z
1/2-x,1/2-y,-z
1/2+x,1/2-y,z
loop_
_atom_site_type_symbol
_atom_site_label
_atom_site_fract_x
_atom_site_fract_y
_atom_site_fract_z
Si Si1 0.453529 0.716923 0.702053
Si Si2 0.587774 0.208282 0.009043
Si Si3 0.616921 0.711177 0.430129
Si Si4 0.045277 0.709797 0.569499
Si Si5 0.157688 0.782781 0.864829
Si Si6 0.798192 0.782913 0.706798
Si Si7 0.002768 0.215134 0.869051
O O1 0.452005 0.500000 0.700485
O O2 0.428994 0.781422 0.640161
O O3 0.574156 0.771101 0.783046
O O4 0.357674 0.769090 0.689972
O O5 0.535554 0.220389 0.933912
O O6 0.601056 0.000000 0.027242
O O7 0.500000 0.288266 0.000000
O O8 0.714562 0.283301 0.073975
O O9 0.603148 0.500000 0.422474
O O10 0.750000 0.750000 0.500000
O O11 0.545836 0.774217 0.436949
O O12 0.063628 0.500000 0.571068
O O13 0.169346 0.780792 0.644674
O O14 0.000000 0.784875 0.500000
O O15 0.096943 0.728779 0.880209
O O16 0.158445 0.000000 0.865621
O O17 0.881921 0.726142 0.788460
O O18 0.799353 0.000000 0.708424
O O19 0.002408 0.000000 0.870111
#
# Coordination Sequence:
#
# PCOD9190410 Si02
#       7
#     8   8   8   8   8   8   8
#     4   8  15  30  52  74  95 126 168 206 244 298
#     4  10  20  31  45  69 101 132 160 199 251 299
#     4  11  22  35  54  79 106 136 170 208 250 299
#     4  10  20  35  55  76 101 135 172 211 257 306
#     4   8  15  30  51  72  94 125 167 207 243 292
#     4   8  15  30  52  75  96 123 164 208 249 296
#     4   9  17  31  52  72  92 125 167 207 243 289
#
# _framework density 20.977283
#
# number of rings (size 3 to 8) (size 9 to 14) (size 15 to 20)
#    0.000    2.857    0.000    3.429    0.000    4.000 
#    0.000    2.143    0.000   10.286    0.000    0.000 
#    0.000    0.000    0.000    0.000    0.000    0.000 
#
# Total GULP energy -156284.687556 kJ/mol
# GULP energy per Si atom -5581.595984 kJ/mol
# Density = 2.092954 g / cm^3
# Si number density = 20.977283 Si / 1000 Ang^3
#
#
#
# Elastic Constant Matrix: (Units=GPa)
#
#
# Indices 1 2 3 4 5 6 
#
# 1 144.9751 -11.8756 128.6762 0.0000 15.9792 0.0004
# 2 -11.8756 49.3981 -9.4394 0.0000 5.7887 0.0006
# 3 128.6762 -9.4394 180.0777 -0.0001 11.7919 0.0002
# 4 0.0000 0.0000 -0.0001 5.6509 0.0000 6.7461
# 5 15.9792 5.7887 11.7919 0.0000 41.3635 0.0000
# 6 0.0004 0.0006 0.0002 6.7461 0.0000 -13.0122
#
#
#
# Elastic Compliance Matrix: (Units=1/GPa)
#
#
# Indices 1 2 3 4 5 6 
#
# 1 0.019690 0.002599 -0.013666 -0.000001 -0.004074 0.000000
# 2 0.002599 0.021223 -0.000494 -0.000001 -0.003834 0.000001
# 3 -0.013666 -0.000494 0.015227 0.000000 0.001008 0.000000
# 4 -0.000001 -0.000001 0.000000 0.109309 0.000000 0.056671
# 5 -0.004074 -0.003834 0.001008 0.000000 0.025999 0.000000
# 6 0.000000 0.000001 0.000000 0.056671 0.000000 -0.047470
#
#
# Mechanical properties :
#
#
# Convention : Reuss Voigt Hill
#
# Bulk Modulus (GPa) = 30.28638 65.46368 47.87503
# Shear Modulus (GPa) = 28.07329 24.60643 26.33986
#
# Velocity S-wave (km/s) = 3.66221 3.42863 3.54734
# Velocity P-wave (km/s) = 5.68783 6.85191 6.29683
#
# Compressibility (1/GPa) = 0.03301814
#
# Stress axis : x y z
#
# Youngs Moduli (GPa) = 50.78819 47.11761 65.67416
#
# Poissons Ratio (x) = -0.12248 0.89753
# Poissons Ratio (y) = -0.13202 0.03244
# Poissons Ratio (z) = 0.69409 0.02327
#
# Static dielectric constant tensor:
#      x y z
#    x 1.695690 0.000000 0.006510 
#    y 0.000000 1.803490 0.000000 
#    z 0.006510 0.000000 1.740890 
# 
# From -- ./inp_files/363251.got.cif
#   From: 2010.05.17/outbox.cif.g08.bks.cpg/sg12_182_cif.got.tgz:363251.got - 2010.06.03 13:09:07.
