data_PCOD9190987
_publ_section_title
;
Structure prediction by ZEFSAII (Michael W. Deem and Ramdas Pophale) SiO2 
 PCOD9190987
Probable space group: C 2/M
;
_chemical_formula_sum "Si O2"
_cell_formula_units_Z 56
_cell_length_a 20.027278
_cell_length_b 8.129393
_cell_length_c 33.045000
_cell_angle_alpha 90.000000
_cell_angle_beta 145.776197
_cell_angle_gamma 90.000000
_cell_volume 3025.881463
_symmetry_space_group_name_H-M "C 2/M"
_symmetry_group_IT_number 12
_symmetry_cell_setting 'monoclinic'
loop_
_space_group_symop_operation_xyz
x,y,z
-x,y,-z
-x,-y,-z
x,-y,z
1/2+x,1/2+y,z
1/2-x,1/2+y,-z
1/2-x,1/2-y,-z
1/2+x,1/2-y,z
loop_
_atom_site_type_symbol
_atom_site_label
_atom_site_fract_x
_atom_site_fract_y
_atom_site_fract_z
Si Si1 0.152884 0.806151 0.419405
Si Si2 0.162633 0.801401 0.811453
Si Si3 0.274561 0.198379 0.948397
Si Si4 0.111172 0.200268 0.310103
Si Si5 0.685573 0.701811 0.259713
Si Si6 0.437100 0.697799 0.097998
Si Si7 0.387359 0.194780 0.301589
O O1 0.250000 0.750000 0.500000
O O2 0.163827 0.737488 0.379026
O O3 0.018580 0.769707 0.366014
O O4 0.165639 0.000000 0.422134
O O5 0.253384 0.746520 0.891775
O O6 0.174208 0.729382 0.772564
O O7 0.029126 0.759650 0.759716
O O8 0.167822 0.000000 0.810635
O O9 0.162692 0.256259 0.919816
O O10 0.271128 0.000000 0.946356
O O11 0.391459 0.251836 0.030934
O O12 0.172480 0.256327 0.299588
O O13 0.116836 0.000000 0.312779
O O14 0.686308 0.500000 0.259917
O O15 0.566954 0.754529 0.176335
O O16 0.802536 0.757128 0.294760
O O17 0.437402 0.500000 0.100234
O O18 0.401766 0.000000 0.313394
#
# Coordination Sequence:
#
# PCOD9190987 Si02
#       7
#     8   8   8   8   8   8   8
#     4  10  20  36  59  80 102 130 160 196 237 287
#     4   9  16  30  50  69  94 132 173 209 246 294
#     4   9  16  27  45  69  95 126 168 214 255 291
#     4   8  14  28  52  75  92 124 169 203 232 279
#     4   9  16  30  50  73  99 129 167 206 244 291
#     4   9  16  27  46  69  95 126 164 213 255 287
#     4  10  20  32  51  77 103 128 159 203 249 293
#
# _framework density 18.507003000000001
#
# number of rings (size 3 to 8) (size 9 to 14) (size 15 to 20)
#    0.000    2.857    1.429    1.714    0.000    0.571 
#    0.000    2.857    0.000   17.143    0.000    0.000 
#    0.000    0.000    0.000    0.000    0.000    0.000 
#
# Total GULP energy -156044.986521 kJ/mol
# GULP energy per Si atom -5573.035233 kJ/mol
# Density = 1.846488 g / cm^3
# Si number density = 18.507003 Si / 1000 Ang^3
#
#
#
# Elastic Constant Matrix: (Units=GPa)
#
#
# Indices 1 2 3 4 5 6 
#
# 1 120.1795 0.1131 62.5288 -0.0001 -18.5317 0.0002
# 2 0.1131 6.0755 7.5438 -0.0002 -3.1190 0.0005
# 3 62.5288 7.5438 145.7407 0.0000 -25.2025 0.0000
# 4 -0.0001 -0.0002 0.0000 27.4254 0.0000 -3.0948
# 5 -18.5317 -3.1190 -25.2025 0.0000 18.7854 0.0000
# 6 0.0002 0.0005 0.0000 -3.0948 0.0000 16.1369
#
#
#
# Elastic Compliance Matrix: (Units=1/GPa)
#
#
# Indices 1 2 3 4 5 6 
#
# 1 0.011608 0.008709 -0.004168 0.000000 0.007306 0.000000
# 2 0.008709 0.189794 -0.008627 0.000001 0.028530 -0.000006
# 3 -0.004168 -0.008627 0.010596 0.000000 0.008671 0.000000
# 4 0.000000 0.000001 0.000000 0.037269 0.000000 0.007148
# 5 0.007306 0.028530 0.008671 0.000000 0.076810 -0.000001
# 6 0.000000 -0.000006 0.000000 0.007148 -0.000001 0.063341
#
#
# Mechanical properties :
#
#
# Convention : Reuss Voigt Hill
#
# Bulk Modulus (GPa) = 4.90614 45.81859 25.36237
# Shear Modulus (GPa) = 10.74045 25.92353 18.33199
#
# Velocity S-wave (km/s) = 2.41165 3.74671 3.15070
# Velocity P-wave (km/s) = 3.22668 6.59760 5.19325
#
# Compressibility (1/GPa) = 0.20382604
#
# Stress axis : x y z
#
# Youngs Moduli (GPa) = 86.15035 5.26888 94.37816
#
# Poissons Ratio (x) = -0.04589 0.39333
# Poissons Ratio (y) = -0.75032 0.81422
# Poissons Ratio (z) = 0.35904 0.04546
#
# Static dielectric constant tensor:
#      x y z
#    x 1.645650 0.000000 -0.026000 
#    y 0.000000 1.667340 0.000000 
#    z -0.026000 0.000000 1.646020 
# 
# From -- ./inp_files/377718.got.cif
#   From: 2010.05.17/outbox.cif.g08.bks.cpg/sg12_189_cif.got.tgz:377718.got - 2010.06.03 13:09:07.
