data_PCOD9190737
_publ_section_title
;
Structure prediction by ZEFSAII (Michael W. Deem and Ramdas Pophale) SiO2 
 PCOD9190737
Probable space group: C 2/M
;
_chemical_formula_sum "Si O2"
_cell_formula_units_Z 56
_cell_length_a 33.466114
_cell_length_b 9.434718
_cell_length_c 18.674755
_cell_angle_alpha 90.000000
_cell_angle_beta 36.445682
_cell_angle_gamma 90.000000
_cell_volume 3502.835609
_symmetry_space_group_name_H-M "C 2/M"
_symmetry_group_IT_number 12
_symmetry_cell_setting 'monoclinic'
loop_
_space_group_symop_operation_xyz
x,y,z
-x,y,-z
-x,-y,-z
x,-y,z
1/2+x,1/2+y,z
1/2-x,1/2+y,-z
1/2-x,1/2-y,-z
1/2+x,1/2-y,z
loop_
_atom_site_type_symbol
_atom_site_label
_atom_site_fract_x
_atom_site_fract_y
_atom_site_fract_z
Si Si1 0.646353 0.832399 0.174914
Si Si2 0.385175 0.667008 0.481221
Si Si3 0.347600 0.163182 0.399930
Si Si4 0.767430 0.667427 0.247521
Si Si5 0.808745 0.836745 0.322356
Si Si6 0.011675 0.831311 0.399492
Si Si7 0.241525 0.667493 0.902552
O O1 0.574685 0.757332 0.280934
O O2 0.695172 0.758843 0.162605
O O3 0.640973 0.000000 0.195951
O O4 0.683219 0.812058 0.045267
O O5 0.388748 0.500000 0.457398
O O6 0.387220 0.759787 0.406553
O O7 0.312308 0.689362 0.622797
O O8 0.444847 0.699537 0.450108
O O9 0.269200 0.164219 0.538298
O O10 0.349394 0.249976 0.323568
O O11 0.367578 0.000000 0.361803
O O12 0.780863 0.500000 0.239509
O O13 0.807267 0.759177 0.248118
O O14 0.780447 0.703626 0.146160
O O15 0.830042 0.000000 0.287133
O O16 0.000000 0.800115 0.500000
O O17 0.025533 0.000000 0.373424
O O18 0.260146 0.500000 0.875847
#
# Coordination Sequence:
#
# PCOD9190737 Si02
#       7
#     8   8   8   8   8   8   8
#     4  10  20  32  48  70  93 119 154 195 233 267
#     4   9  17  28  44  65  88 118 154 188 222 264
#     4   9  16  26  40  59  87 121 151 180 219 267
#     4   9  16  28  46  66  89 118 152 186 222 268
#     4   9  16  25  39  62  91 118 146 182 222 265
#     4  10  20  34  50  67  91 125 159 188 226 277
#     4   9  18  33  50  67  91 123 155 188 229 277
#
# _framework density 15.987048
#
# number of rings (size 3 to 8) (size 9 to 14) (size 15 to 20)
#    0.000    2.714    0.000    2.143    0.000    7.714 
#    0.000    2.857    0.000    0.000    0.000    1.000 
#    0.000    8.000    0.000    0.000    0.000    0.000 
#
# Total GULP energy -156083.952924 kJ/mol
# GULP energy per Si atom -5574.426890 kJ/mol
# Density = 1.595066 g / cm^3
# Si number density = 15.987048 Si / 1000 Ang^3
#
#
#
# Elastic Constant Matrix: (Units=GPa)
#
#
# Indices 1 2 3 4 5 6 
#
# 1 140.1355 81.3448 36.0140 0.0001 26.3806 0.0000
# 2 81.3448 87.0111 35.0089 -0.0003 14.6395 0.0000
# 3 36.0140 35.0089 28.1580 0.0001 8.0737 -0.0004
# 4 0.0001 -0.0003 0.0001 21.2075 -0.0004 1.7373
# 5 26.3806 14.6395 8.0737 -0.0004 25.6964 0.0004
# 6 0.0000 0.0000 -0.0004 1.7373 0.0004 29.7626
#
#
#
# Elastic Compliance Matrix: (Units=1/GPa)
#
#
# Indices 1 2 3 4 5 6 
#
# 1 0.017594 -0.013805 -0.002654 0.000000 -0.009364 0.000000
# 2 -0.013805 0.034318 -0.025792 0.000001 0.002725 0.000000
# 3 -0.002654 -0.025792 0.072514 -0.000001 -0.005365 0.000001
# 4 0.000000 0.000001 -0.000001 0.047380 0.000001 -0.002766
# 5 -0.009364 0.002725 -0.005365 0.000001 0.048662 -0.000001
# 6 0.000000 0.000000 0.000001 -0.002766 -0.000001 0.033761
#
#
# Mechanical properties :
#
#
# Convention : Reuss Voigt Hill
#
# Bulk Modulus (GPa) = 25.04797 62.22668 43.63732
# Shear Modulus (GPa) = 14.20295 22.19577 18.19936
#
# Velocity S-wave (km/s) = 2.98384 3.73011 3.37765
# Velocity P-wave (km/s) = 5.25098 7.58679 6.52427
#
# Compressibility (1/GPa) = 0.03992340
#
# Stress axis : x y z
#
# Youngs Moduli (GPa) = 56.83634 29.13936 13.79042
#
# Poissons Ratio (x) = 0.40227 0.03660
# Poissons Ratio (y) = 0.78464 0.35568
# Poissons Ratio (z) = 0.15086 0.75156
#
# Static dielectric constant tensor:
#      x y z
#    x 1.519900 0.000000 0.010560 
#    y 0.000000 1.536100 0.000000 
#    z 0.010560 0.000000 1.515180 
# 
# From -- ./inp_files/291482.got.cif
#   From: 2010.05.17/outbox.cif.g08.bks.cpg/sg12_146_cif.got.tgz:291482.got - 2010.06.03 13:09:07.
