data_PCOD9190297
_publ_section_title
;
Structure prediction by ZEFSAII (Michael W. Deem and Ramdas Pophale) SiO2 
 PCOD9190297
Probable space group: C 2/M
;
_chemical_formula_sum "Si O2"
_cell_formula_units_Z 64
_cell_length_a 34.175193
_cell_length_b 8.918673
_cell_length_c 14.957295
_cell_angle_alpha 90.000000
_cell_angle_beta 115.955008
_cell_angle_gamma 90.000000
_cell_volume 4099.119983
_symmetry_space_group_name_H-M "C 2/M"
_symmetry_group_IT_number 12
_symmetry_cell_setting 'monoclinic'
loop_
_space_group_symop_operation_xyz
x,y,z
-x,y,-z
-x,-y,-z
x,-y,z
1/2+x,1/2+y,z
1/2-x,1/2+y,-z
1/2-x,1/2-y,-z
1/2+x,1/2-y,z
loop_
_atom_site_type_symbol
_atom_site_label
_atom_site_fract_x
_atom_site_fract_y
_atom_site_fract_z
Si Si1 0.880775 0.175512 0.813408
Si Si2 0.044866 0.318281 0.596618
Si Si3 0.044866 0.681719 0.993115
Si Si4 0.524626 0.821925 0.774626
Si Si5 0.880775 0.824488 0.448142
Si Si6 0.065524 0.830195 0.315524
Si Si7 0.703094 0.179379 0.348221
Si Si8 0.703094 0.820621 0.557967
O O1 0.913140 0.251664 0.916219
O O2 0.905549 0.187269 0.743248
O O3 0.834688 0.255166 0.751830
O O4 0.874763 0.000000 0.827765
O O5 0.046740 0.500000 0.595902
O O6 0.042583 0.266223 0.697526
O O7 0.086860 0.251664 0.589940
O O8 0.000000 0.274855 0.500000
O O9 0.046740 0.500000 0.997578
O O10 0.042583 0.733777 0.887640
O O11 0.000000 0.725145 0.000000
O O12 0.473539 0.785989 0.723539
O O13 0.531126 0.000000 0.781126
O O14 0.905549 0.812731 0.567851
O O15 0.834688 0.744834 0.417545
O O16 0.874763 0.000000 0.421761
O O17 0.047222 0.000000 0.297222
O O18 0.693675 0.216858 0.443674
O O19 0.750000 0.250000 0.374312
O O20 0.704853 0.000000 0.342883
O O21 0.704853 0.000000 0.566824
#
# Coordination Sequence:
#
# PCOD9190297 Si02
#       8
#     8   8   8   8   8   8   8   8
#     4  11  21  33  49  72 102 136 171 207 249 298
#     4  10  20  33  50  72  98 131 172 212 252 299
#     4  10  20  33  50  72  98 131 172 212 252 299
#     4  10  20  34  50  69  98 133 170 214 255 295
#     4  11  21  33  49  72 102 136 171 207 249 298
#     4  10  20  30  45  69 100 133 168 208 248 293
#     4  10  20  33  51  74 102 134 167 205 249 298
#     4  10  20  33  51  74 102 134 167 205 249 298
#
# _framework density 15.613109
#
# number of rings (size 3 to 8) (size 9 to 14) (size 15 to 20)
#    0.000    1.750    3.750    1.500    0.000    3.500 
#    0.000    0.000    0.000    0.000    0.000    0.875 
#    0.000    0.000    0.000    0.000    0.000    0.000 
#
# Total GULP energy -178517.876821 kJ/mol
# GULP energy per Si atom -5578.683651 kJ/mol
# Density = 1.557757 g / cm^3
# Si number density = 15.613109 Si / 1000 Ang^3
#
#
#
# Elastic Constant Matrix: (Units=GPa)
#
#
# Indices 1 2 3 4 5 6 
#
# 1 116.2028 46.3226 66.6139 0.0000 9.3822 0.0000
# 2 46.3226 36.2340 41.1448 0.0000 4.4841 0.0000
# 3 66.6139 41.1448 104.9063 0.0000 0.4010 0.0000
# 4 0.0000 0.0000 0.0000 17.9320 0.0000 7.7013
# 5 9.3822 4.4841 0.4010 0.0000 27.1556 0.0000
# 6 0.0000 0.0000 0.0000 7.7013 0.0000 26.8247
#
#
#
# Elastic Compliance Matrix: (Units=1/GPa)
#
#
# Indices 1 2 3 4 5 6 
#
# 1 0.018962 -0.018312 -0.004845 0.000000 -0.003456 0.000000
# 2 -0.018312 0.069211 -0.015498 0.000000 -0.004873 0.000000
# 3 -0.004845 -0.015498 0.018673 0.000000 0.003958 0.000000
# 4 0.000000 0.000000 0.000000 0.063609 0.000000 -0.018262
# 5 -0.003456 -0.004873 0.003958 0.000000 0.038765 0.000000
# 6 0.000000 0.000000 0.000000 -0.018262 0.000000 0.042522
#
#
# Mechanical properties :
#
#
# Convention : Reuss Voigt Hill
#
# Bulk Modulus (GPa) = 33.85937 62.83396 48.34666
# Shear Modulus (GPa) = 14.75369 21.26656 18.01013
#
# Velocity S-wave (km/s) = 3.07735 3.69466 3.40004
# Velocity P-wave (km/s) = 5.86177 7.65065 6.81516
#
# Compressibility (1/GPa) = 0.02953392
#
# Stress axis : x y z
#
# Youngs Moduli (GPa) = 52.73665 14.44862 53.55454
#
# Poissons Ratio (x) = 0.26458 0.25950
# Poissons Ratio (y) = 0.96571 0.83001
# Poissons Ratio (z) = 0.25553 0.22393
#
# Static dielectric constant tensor:
#      x y z
#    x 1.500030 0.000000 -0.014730 
#    y 0.000000 1.527210 0.000000 
#    z -0.014730 0.000000 1.517040 
# 
# From -- ./inp_files/249169.got.cif
#   From: 2010.05.17/outbox.cif.g08.bks.cpg/sg12_125_cif.got.tgz:249169.got - 2010.06.03 13:09:07.
