data_PCOD9190886
_publ_section_title
;
Structure prediction by ZEFSAII (Michael W. Deem and Ramdas Pophale) SiO2 
 PCOD9190886
Probable space group: C 2/M
;
_chemical_formula_sum "Si O2"
_cell_formula_units_Z 58
_cell_length_a 14.160323
_cell_length_b 19.954244
_cell_length_c 18.492397
_cell_angle_alpha 90.000000
_cell_angle_beta 139.998898
_cell_angle_gamma 90.000000
_cell_volume 3358.760971
_symmetry_space_group_name_H-M "C 2/M"
_symmetry_group_IT_number 12
_symmetry_cell_setting 'monoclinic'
loop_
_space_group_symop_operation_xyz
x,y,z
-x,y,-z
-x,-y,-z
x,-y,z
1/2+x,1/2+y,z
1/2-x,1/2+y,-z
1/2-x,1/2-y,-z
1/2+x,1/2-y,z
loop_
_atom_site_type_symbol
_atom_site_label
_atom_site_fract_x
_atom_site_fract_y
_atom_site_fract_z
Si Si1 0.500000 0.500000 0.000000
Si Si2 0.341918 0.423763 0.370694
Si Si3 0.622158 0.425023 0.780850
Si Si4 0.625201 0.186445 0.220850
Si Si5 0.313468 0.614633 0.962901
Si Si6 0.078347 0.800958 0.839012
Si Si7 0.324101 0.263303 0.886487
Si Si8 0.408704 0.074521 0.048821
O O1 0.574894 0.557866 0.993088
O O2 0.500000 0.415105 0.500000
O O3 0.290777 0.500000 0.357738
O O4 0.360242 0.419369 0.294519
O O5 0.231092 0.364093 0.325858
O O6 0.564622 0.500000 0.763884
O O7 0.530456 0.363575 0.760704
O O8 0.781835 0.421246 0.913762
O O9 0.528441 0.238030 0.211211
O O10 0.708686 0.231664 0.210590
O O11 0.522406 0.135019 0.114991
O O12 0.279756 0.659476 0.872949
O O13 0.175387 0.583713 0.923997
O O14 0.385501 0.666016 0.062619
O O15 0.228223 0.775138 0.890047
O O16 0.500000 0.258476 0.000000
O O17 0.475557 0.000000 0.082629
#
# Coordination Sequence:
#
# PCOD9190886 Si02
#       8
#     2   8   8   8   8   8   8   8
#     4  12  20  32  48  64 110 168 192 200 252 316
#     4  10  22  40  58  78 103 134 176 225 280 333
#     4   9  19  34  54  75 106 141 170 217 265 316
#     4  12  22  33  57  79 108 145 177 226 270 319
#     4  11  20  31  46  72 110 154 181 213 248 316
#     4  11  21  33  50  77 110 139 188 223 259 314
#     4  12  20  32  49  77 111 149 182 212 267 315
#     4  10  20  32  49  78 112 138 176 219 261 313
#
# _framework density 17.268273000000001
#
# number of rings (size 3 to 8) (size 9 to 14) (size 15 to 20)
#    0.000    1.241    5.517    2.483    0.966    0.000 
#    0.000    2.759    0.000    0.000    0.000    0.000 
#    0.000    0.552    0.000    1.241    0.000    0.000 
#
# Total GULP energy -161496.852013 kJ/mol
# GULP energy per Si atom -5568.856966 kJ/mol
# Density = 1.722897 g / cm^3
# Si number density = 17.268273 Si / 1000 Ang^3
#
#
#
# Elastic Constant Matrix: (Units=GPa)
#
#
# Indices 1 2 3 4 5 6 
#
# 1 92.0088 47.2364 13.4556 0.0000 -3.5472 0.0000
# 2 47.2364 142.8348 23.5177 0.0000 1.8648 0.0001
# 3 13.4556 23.5177 43.0794 0.0002 3.0661 0.0001
# 4 0.0000 0.0000 0.0002 13.1974 0.0001 -3.6821
# 5 -3.5472 1.8648 3.0661 0.0001 7.4015 0.0001
# 6 0.0000 0.0001 0.0001 -3.6821 0.0001 32.8268
#
#
#
# Elastic Compliance Matrix: (Units=1/GPa)
#
#
# Indices 1 2 3 4 5 6 
#
# 1 0.013762 -0.004236 -0.002608 0.000000 0.008743 0.000000
# 2 -0.004236 0.008997 -0.003382 0.000000 -0.002896 0.000000
# 3 -0.002608 -0.003382 0.026689 0.000000 -0.011454 0.000000
# 4 0.000000 0.000000 0.000000 0.078221 -0.000002 0.008774
# 5 0.008743 -0.002896 -0.011454 -0.000002 0.144773 -0.000001
# 6 0.000000 0.000000 0.000000 0.008774 -0.000001 0.031447
#
#
# Mechanical properties :
#
#
# Convention : Reuss Voigt Hill
#
# Bulk Modulus (GPa) = 34.48886 49.59362 42.04124
# Shear Modulus (GPa) = 14.96981 23.59935 19.28458
#
# Velocity S-wave (km/s) = 2.94751 3.70081 3.34543
# Velocity P-wave (km/s) = 5.62134 6.85880 6.27067
#
# Compressibility (1/GPa) = 0.02899487
#
# Stress axis : x y z
#
# Youngs Moduli (GPa) = 72.66580 111.15330 37.46826
#
# Poissons Ratio (x) = 0.47082 0.09773
# Poissons Ratio (y) = 0.30779 0.12673
# Poissons Ratio (z) = 0.18953 0.37595
#
# Static dielectric constant tensor:
#      x y z
#    x 1.617850 0.000000 -0.002090 
#    y 0.000000 1.657530 0.000000 
#    z -0.002090 0.000000 1.573290 
# 
# From -- ./inp_files/272093.got.cif
#   From: 2010.05.17/outbox.cif.g08.bks.cpg/sg12_137_cif.got.tgz:272093.got - 2010.06.03 13:09:07.
