data_PCOD9190584
_publ_section_title
;
Structure prediction by ZEFSAII (Michael W. Deem and Ramdas Pophale) SiO2 
 PCOD9190584
Probable space group: C 2/M
;
_chemical_formula_sum "Si O2"
_cell_formula_units_Z 64
_cell_length_a 33.654055
_cell_length_b 8.975104
_cell_length_c 14.125077
_cell_angle_alpha 90.000000
_cell_angle_beta 94.225550
_cell_angle_gamma 90.000000
_cell_volume 4254.862910
_symmetry_space_group_name_H-M "C 2/M"
_symmetry_group_IT_number 12
_symmetry_cell_setting 'monoclinic'
loop_
_space_group_symop_operation_xyz
x,y,z
-x,y,-z
-x,-y,-z
x,-y,z
1/2+x,1/2+y,z
1/2-x,1/2+y,-z
1/2-x,1/2-y,-z
1/2+x,1/2-y,z
loop_
_atom_site_type_symbol
_atom_site_label
_atom_site_fract_x
_atom_site_fract_y
_atom_site_fract_z
Si Si1 0.511938 0.179414 0.774030
Si Si2 0.953793 0.329177 0.025971
Si Si3 0.035590 0.177671 0.579790
Si Si4 0.884446 0.323631 0.483465
Si Si5 0.364603 0.824744 0.702116
Si Si6 0.695081 0.675401 0.571125
Si Si7 0.069168 0.176110 0.162843
Si Si8 0.280659 0.822485 0.621211
O O1 0.542522 0.219664 0.864483
O O2 0.525986 0.243021 0.676978
O O3 0.468769 0.245165 0.793811
O O4 0.509081 0.000000 0.771795
O O5 0.939487 0.500000 0.018297
O O6 0.931000 0.229341 0.946304
O O7 0.000000 0.329888 0.000000
O O8 0.076704 0.237987 0.544281
O O9 0.000000 0.210093 0.500000
O O10 0.037527 0.000000 0.593564
O O11 0.889428 0.500000 0.471599
O O12 0.876881 0.296776 0.594439
O O13 0.845153 0.267258 0.421337
O O14 0.391480 0.728212 0.775728
O O15 0.317066 0.796941 0.699156
O O16 0.371888 0.000000 0.721968
O O17 0.686310 0.500000 0.573357
O O18 0.709249 0.722340 0.468128
O O19 0.734749 0.705664 0.640349
O O20 0.063985 0.000000 0.167464
O O21 0.283163 0.000000 0.594993
#
# Coordination Sequence:
#
# PCOD9190584 Si02
#       8
#     8   8   8   8   8   8   8   8
#     4  10  20  34  50  64  82 113 149 182 217 258
#     4   8  16  31  48  64  82 108 142 176 214 261
#     4  11  23  35  47  65  88 114 147 186 222 252
#     4  10  20  32  45  61  84 118 154 182 214 257
#     4   9  17  29  43  60  87 120 150 178 211 257
#     4   9  15  25  42  61  82 108 142 183 219 252
#     4  11  20  28  43  67  91 114 142 178 220 260
#     4   8  15  26  40  59  82 112 145 175 214 260
#
# _framework density 15.041613
#
# number of rings (size 3 to 8) (size 9 to 14) (size 15 to 20)
#    0.000    2.500    0.000    4.875    0.000    8.750 
#    0.000    0.000    0.000    0.000    0.000    0.000 
#    0.000    1.000    0.000    3.000    0.000    4.250 
#
# Total GULP energy -178263.054930 kJ/mol
# GULP energy per Si atom -5570.720467 kJ/mol
# Density = 1.500738 g / cm^3
# Si number density = 15.041613 Si / 1000 Ang^3
#
#
#
# Elastic Constant Matrix: (Units=GPa)
#
#
# Indices 1 2 3 4 5 6 
#
# 1 96.1845 44.3119 39.1363 0.0000 17.2090 0.0000
# 2 44.3119 63.7371 45.5955 0.0000 13.1704 0.0000
# 3 39.1363 45.5955 76.1378 0.0000 12.7594 0.0000
# 4 0.0000 0.0000 0.0000 16.9596 0.0000 0.8703
# 5 17.2090 13.1704 12.7594 0.0000 15.8121 0.0000
# 6 0.0000 0.0000 0.0000 0.8703 0.0000 23.5972
#
#
#
# Elastic Compliance Matrix: (Units=1/GPa)
#
#
# Indices 1 2 3 4 5 6 
#
# 1 0.016738 -0.008110 -0.002112 0.000000 -0.009758 0.000000
# 2 -0.008110 0.033172 -0.014508 0.000000 -0.007098 0.000000
# 3 -0.002112 -0.014508 0.023703 0.000000 -0.004744 0.000000
# 4 0.000000 0.000000 0.000000 0.059075 0.000000 -0.002179
# 5 -0.009758 -0.007098 -0.004744 0.000000 0.083602 0.000000
# 6 0.000000 0.000000 0.000000 -0.002179 0.000000 0.042458
#
#
# Mechanical properties :
#
#
# Convention : Reuss Voigt Hill
#
# Bulk Modulus (GPa) = 41.39965 54.90520 48.15242
# Shear Modulus (GPa) = 15.80986 18.40816 17.10901
#
# Velocity S-wave (km/s) = 3.24555 3.50210 3.37626
# Velocity P-wave (km/s) = 6.45197 7.27560 6.87613
#
# Compressibility (1/GPa) = 0.02415480
#
# Stress axis : x y z
#
# Youngs Moduli (GPa) = 59.74486 30.14561 42.18949
#
# Poissons Ratio (x) = 0.24447 0.08910
# Poissons Ratio (y) = 0.48450 0.61206
# Poissons Ratio (z) = 0.12618 0.43734
#
# Static dielectric constant tensor:
#      x y z
#    x 1.514940 0.000000 0.022050 
#    y 0.000000 1.500520 0.000000 
#    z 0.022050 0.000000 1.494160 
# 
# From -- ./inp_files/248403.got.cif
#   From: 2010.05.17/outbox.cif.g08.bks.cpg/sg12_125_cif.got.tgz:248403.got - 2010.06.03 13:09:07.
