data_PCOD9190782
_publ_section_title
;
Structure prediction by ZEFSAII (Michael W. Deem and Ramdas Pophale) SiO2 
 PCOD9190782
Probable space group: C 2/M
;
_chemical_formula_sum "Si O2"
_cell_formula_units_Z 48
_cell_length_a 13.256832
_cell_length_b 11.242668
_cell_length_c 15.462015
_cell_angle_alpha 90.000000
_cell_angle_beta 105.716888
_cell_angle_gamma 90.000000
_cell_volume 2218.331649
_symmetry_space_group_name_H-M "C 2/M"
_symmetry_group_IT_number 12
_symmetry_cell_setting 'monoclinic'
loop_
_space_group_symop_operation_xyz
x,y,z
-x,y,-z
-x,-y,-z
x,-y,z
1/2+x,1/2+y,z
1/2-x,1/2+y,-z
1/2-x,1/2-y,-z
1/2+x,1/2-y,z
loop_
_atom_site_type_symbol
_atom_site_label
_atom_site_fract_x
_atom_site_fract_y
_atom_site_fract_z
Si Si1 0.648334 0.193553 0.709843
Si Si2 0.939644 0.632595 0.576802
Si Si3 0.038119 0.135892 0.800310
Si Si4 0.280385 0.621659 0.902310
Si Si5 0.164488 0.859359 0.366019
Si Si6 0.594718 0.808997 0.973141
O O1 0.535449 0.135466 0.667708
O O2 0.617567 0.322270 0.741893
O O3 0.716407 0.133259 0.799926
O O4 0.721771 0.178390 0.643581
O O5 0.888840 0.500000 0.569055
O O6 0.872536 0.752005 0.579269
O O7 0.000000 0.642794 0.500000
O O8 0.056985 0.224379 0.884902
O O9 0.922042 0.144378 0.731706
O O10 0.058681 0.000000 0.829726
O O11 0.343011 0.500000 0.917083
O O12 0.191733 0.621759 0.955619
O O13 0.355031 0.728688 0.940433
O O14 0.165694 0.000000 0.395057
O O15 0.500000 0.871505 0.000000
#
# Coordination Sequence:
#
# PCOD9190782 Si02
#       6
#     8   8   8   8   8   8
#     4  10  20  36  56  77 104 138 176 215 260 315
#     4  10  22  39  57  80 110 140 172 214 264 317
#     4   9  19  34  51  76 108 138 173 218 261 305
#     4  10  20  33  50  72  99 133 172 213 256 305
#     4  10  20  35  58  83 106 139 178 214 259 313
#     4  10  20  32  48  73 102 134 173 214 258 305
#
# _framework density 21.637884
#
# number of rings (size 3 to 8) (size 9 to 14) (size 15 to 20)
#    0.000    2.167    0.000    3.000    0.000    4.667 
#    0.000    0.000    0.000   12.000    0.000    0.000 
#    0.000    0.000    0.000    0.000    0.000    0.000 
#
# Total GULP energy -133770.609411 kJ/mol
# GULP energy per Si atom -5573.775392 kJ/mol
# Density = 2.158864 g / cm^3
# Si number density = 21.637884 Si / 1000 Ang^3
#
#
#
# Elastic Constant Matrix: (Units=GPa)
#
#
# Indices 1 2 3 4 5 6 
#
# 1 96.9562 48.7850 0.1334 0.0000 -15.4137 0.0000
# 2 48.7850 144.5251 25.6724 0.0000 -14.2735 0.0000
# 3 0.1334 25.6724 53.3846 0.0000 6.1267 0.0000
# 4 0.0000 0.0000 0.0000 257.7216 0.0000 102.5256
# 5 -15.4137 -14.2735 6.1267 0.0000 33.2889 0.0000
# 6 0.0000 0.0000 0.0000 102.5256 0.0000 6.8072
#
#
#
# Elastic Compliance Matrix: (Units=1/GPa)
#
#
# Indices 1 2 3 4 5 6 
#
# 1 0.013110 -0.004321 0.001595 0.000000 0.003924 0.000000
# 2 -0.004321 0.009549 -0.004926 0.000000 0.003000 0.000000
# 3 0.001595 -0.004926 0.021713 0.000000 -0.005370 0.000000
# 4 0.000000 0.000000 0.000000 -0.000777 0.000000 0.011708
# 5 0.003924 0.003000 -0.005370 0.000000 0.034132 0.000000
# 6 0.000000 0.000000 0.000000 0.011708 0.000000 -0.029430
#
#
# Mechanical properties :
#
#
# Convention : Reuss Voigt Hill
#
# Bulk Modulus (GPa) = 34.40183 49.33861 41.87022
# Shear Modulus (GPa) = 68.22319 74.24856 71.23588
#
# Velocity S-wave (km/s) = 5.62121 5.86418 5.74398
# Velocity P-wave (km/s) = 7.61997 8.28873 7.96138
#
# Compressibility (1/GPa) = 0.02906822
#
# Stress axis : x y z
#
# Youngs Moduli (GPa) = 76.27929 104.72264 46.05550
#
# Poissons Ratio (x) = 0.45251 -0.07345
# Poissons Ratio (y) = 0.32960 0.22685
# Poissons Ratio (z) = -0.12166 0.51582
#
# Static dielectric constant tensor:
#      x y z
#    x 1.792770 0.000000 -0.008090 
#    y 0.000000 1.798840 0.000000 
#    z -0.008090 0.000000 1.808820 
# 
# From -- ./inp_files/212739.got.cif
#   From: 2010.05.17/outbox.cif.g08.bks.cpg/sg12_107_cif.got.tgz:212739.got - 2010.06.03 13:09:07.
