data_PCOD9190558
_publ_section_title
;
Structure prediction by ZEFSAII (Michael W. Deem and Ramdas Pophale) SiO2 
 PCOD9190558
Probable space group: C 2/M
;
_chemical_formula_sum "Si O2"
_cell_formula_units_Z 52
_cell_length_a 18.145132
_cell_length_b 26.902673
_cell_length_c 5.528359
_cell_angle_alpha 90.000000
_cell_angle_beta 64.952491
_cell_angle_gamma 90.000000
_cell_volume 2444.890477
_symmetry_space_group_name_H-M "C 2/M"
_symmetry_group_IT_number 12
_symmetry_cell_setting 'monoclinic'
loop_
_space_group_symop_operation_xyz
x,y,z
-x,y,-z
-x,-y,-z
x,-y,z
1/2+x,1/2+y,z
1/2-x,1/2+y,-z
1/2-x,1/2-y,-z
1/2+x,1/2-y,z
loop_
_atom_site_type_symbol
_atom_site_label
_atom_site_fract_x
_atom_site_fract_y
_atom_site_fract_z
Si Si1 0.088255 0.187603 0.000299
Si Si2 0.343364 0.795775 0.195543
Si Si3 0.876477 0.943321 0.551049
Si Si4 0.000000 0.369891 0.500000
Si Si5 0.000000 0.135156 0.500000
Si Si6 0.303520 0.592249 0.171789
Si Si7 0.822337 0.332380 0.727720
Si Si8 0.000000 0.630855 0.000000
O O1 0.067343 0.172315 0.303037
O O2 0.123452 0.241325 0.904356
O O3 0.148428 0.143754 0.844400
O O4 0.000000 0.184088 0.000000
O O5 0.302984 0.800449 0.515651
O O6 0.420182 0.833935 0.107330
O O7 0.292454 0.812355 0.029313
O O8 0.950422 0.904494 0.406484
O O9 0.818050 0.938254 0.397515
O O10 0.905312 0.000000 0.521173
O O11 0.837207 0.930257 0.870590
O O12 0.080018 0.335446 0.388987
O O13 0.999808 0.398656 0.249336
O O14 0.212389 0.612252 0.261154
#
# Coordination Sequence:
#
# PCOD9190558 Si02
#       8
#     8   8   8   4   4   8   8   4
#     4  11  22  36  55  82 122 170 204 242 297 337
#     4  10  20  31  55  75 114 158 208 240 277 341
#     4  11  23  42  66  91 116 156 198 250 318 379
#     4   8  16  29  50  72 102 142 183 232 281 329
#     4  10  23  39  60  88 125 158 207 256 289 351
#     4  11  24  40  60  87 124 151 198 256 308 361
#     4  10  21  37  54  85 115 157 206 250 289 342
#     4   8  14  26  42  70  94 136 190 232 260 310
#
# _framework density 21.268847999999998
#
# number of rings (size 3 to 8) (size 9 to 14) (size 15 to 20)
#    0.000    1.846    2.308    1.615    2.154    1.846 
#    0.000    2.308    0.000    0.000    0.000    3.231 
#    0.000    0.000    0.000    0.000    0.000    0.000 
#
# Total GULP energy -144803.078081 kJ/mol
# GULP energy per Si atom -5569.349157 kJ/mol
# Density = 2.122044 g / cm^3
# Si number density = 21.268848 Si / 1000 Ang^3
#
#
#
# Elastic Constant Matrix: (Units=GPa)
#
#
# Indices 1 2 3 4 5 6 
#
# 1 57.3088 18.0666 39.5112 0.0000 6.5178 0.0000
# 2 18.0666 47.3829 31.4025 0.0000 5.1709 0.0000
# 3 39.5112 31.4025 131.5191 0.0000 47.1367 0.0000
# 4 0.0000 0.0000 0.0000 17.7464 0.0000 0.6646
# 5 6.5178 5.1709 47.1367 0.0000 40.2528 0.0000
# 6 0.0000 0.0000 0.0000 0.6646 0.0000 7.4640
#
#
#
# Elastic Compliance Matrix: (Units=1/GPa)
#
#
# Indices 1 2 3 4 5 6 
#
# 1 0.023931 -0.004150 -0.008618 0.000000 0.006749 0.000000
# 2 -0.004150 0.026829 -0.007177 0.000000 0.005630 0.000000
# 3 -0.008618 -0.007177 0.019085 0.000000 -0.020032 0.000000
# 4 0.000000 0.000000 0.000000 0.056538 0.000000 -0.005034
# 5 0.006749 0.005630 -0.020032 0.000000 0.046485 0.000000
# 6 0.000000 0.000000 0.000000 -0.005034 0.000000 0.134424
#
#
# Mechanical properties :
#
#
# Convention : Reuss Voigt Hill
#
# Bulk Modulus (GPa) = 33.38133 46.01905 39.70019
# Shear Modulus (GPa) = 13.99903 22.90803 18.45353
#
# Velocity S-wave (km/s) = 2.56831 3.28543 2.94875
# Velocity P-wave (km/s) = 4.95217 6.00632 5.50454
#
# Compressibility (1/GPa) = 0.02995686
#
# Stress axis : x y z
#
# Youngs Moduli (GPa) = 41.78618 37.27302 52.39585
#
# Poissons Ratio (x) = 0.15469 0.45153
# Poissons Ratio (y) = 0.17342 0.37603
# Poissons Ratio (z) = 0.36010 0.26750
#
# Static dielectric constant tensor:
#      x y z
#    x 1.854560 0.000000 0.035650 
#    y 0.000000 1.682700 0.000000 
#    z 0.035650 0.000000 1.943170 
# 
# From -- ./inp_files/21596.got.cif
#   From: 2010.05.17/outbox.cif.g08.bks.cpg/sg12_11_cif.got.tgz:21596.got - 2010.06.03 13:09:07.
