data_PCOD9190317
_publ_section_title
;
Structure prediction by ZEFSAII (Michael W. Deem and Ramdas Pophale) SiO2 
 PCOD9190317
Probable space group: C 2/M
;
_chemical_formula_sum "Si O2"
_cell_formula_units_Z 44
_cell_length_a 8.018677
_cell_length_b 20.030498
_cell_length_c 18.351938
_cell_angle_alpha 90.000000
_cell_angle_beta 51.181478
_cell_angle_gamma 90.000000
_cell_volume 2296.620918
_symmetry_space_group_name_H-M "C 2/M"
_symmetry_group_IT_number 12
_symmetry_cell_setting 'monoclinic'
loop_
_space_group_symop_operation_xyz
x,y,z
-x,y,-z
-x,-y,-z
x,-y,z
1/2+x,1/2+y,z
1/2-x,1/2+y,-z
1/2-x,1/2-y,-z
1/2+x,1/2-y,z
loop_
_atom_site_type_symbol
_atom_site_label
_atom_site_fract_x
_atom_site_fract_y
_atom_site_fract_z
Si Si1 0.758997 0.422047 0.548708
Si Si2 0.479796 0.645094 0.261400
Si Si3 0.230817 0.279045 0.701081
Si Si4 0.796430 0.313001 0.885873
Si Si5 0.151890 0.162928 0.071451
Si Si6 0.000000 0.162409 0.500000
O O1 0.766778 0.500000 0.527458
O O2 0.625462 0.410186 0.659278
O O3 0.642476 0.381627 0.516333
O O4 0.000000 0.398496 0.500000
O O5 0.620381 0.691178 0.276685
O O6 0.306226 0.699881 0.281924
O O7 0.614077 0.620674 0.154861
O O8 0.340022 0.294900 0.594221
O O9 0.005843 0.316057 0.778895
O O10 0.580930 0.331161 0.902855
O O11 0.781933 0.235337 0.914641
O O12 0.805721 0.352187 0.960891
#
# Coordination Sequence:
#
# PCOD9190317 Si02
#       6
#     8   8   8   8   8   4
#     4  10  23  39  56  75  98 140 184 218 255 297
#     4  10  20  31  50  76 104 134 169 209 259 314
#     4  10  20  30  47  79 105 139 161 205 270 306
#     4   9  16  26  42  67 103 134 165 194 250 308
#     4   9  16  26  43  68  98 136 164 202 242 305
#     4  10  23  36  56  78 105 136 170 218 258 314
#
# _framework density 19.158581999999999
#
# number of rings (size 3 to 8) (size 9 to 14) (size 15 to 20)
#    0.000    2.364    0.000    4.636    6.364    3.636 
#    0.000    0.000    0.000    0.000    0.000   14.000 
#    0.000    0.000    0.000    0.000    0.000    0.000 
#
# Total GULP energy -122579.173170 kJ/mol
# GULP energy per Si atom -5571.780599 kJ/mol
# Density = 1.911498 g / cm^3
# Si number density = 19.158582 Si / 1000 Ang^3
#
#
#
# Elastic Constant Matrix: (Units=GPa)
#
#
# Indices 1 2 3 4 5 6 
#
# 1 55.7726 3.7717 23.6925 0.0000 2.5655 0.0000
# 2 3.7717 13.2139 5.6279 0.0000 -0.8097 0.0000
# 3 23.6925 5.6279 167.5077 0.0000 15.0876 0.0000
# 4 0.0000 0.0000 0.0000 9.1391 0.0000 4.7886
# 5 2.5655 -0.8097 15.0876 0.0000 30.2481 0.0000
# 6 0.0000 0.0000 0.0000 4.7886 0.0000 8.6379
#
#
#
# Elastic Compliance Matrix: (Units=1/GPa)
#
#
# Indices 1 2 3 4 5 6 
#
# 1 0.019334 -0.004467 -0.002540 0.000000 -0.000492 0.000000
# 2 -0.004467 0.078164 -0.002321 0.000000 0.003629 0.000000
# 3 -0.002540 -0.002321 0.006694 0.000000 -0.003186 0.000000
# 4 0.000000 0.000000 0.000000 0.154214 0.000000 -0.085491
# 5 -0.000492 0.003629 -0.003186 0.000000 0.034788 0.000000
# 6 0.000000 0.000000 0.000000 -0.085491 0.000000 0.163163
#
#
# Mechanical properties :
#
#
# Convention : Reuss Voigt Hill
#
# Bulk Modulus (GPa) = 11.69108 33.63093 22.66100
# Shear Modulus (GPa) = 9.93000 23.16515 16.54757
#
# Velocity S-wave (km/s) = 2.27910 3.48102 2.94209
# Velocity P-wave (km/s) = 3.61127 5.80937 4.83684
#
# Compressibility (1/GPa) = 0.08553533
#
# Stress axis : x y z
#
# Youngs Moduli (GPa) = 51.72301 12.79365 149.38558
#
# Poissons Ratio (x) = 0.05715 0.37947
# Poissons Ratio (y) = 0.23104 0.34676
# Poissons Ratio (z) = 0.13139 0.02970
#
# Static dielectric constant tensor:
#      x y z
#    x 1.725650 0.000000 -0.001190 
#    y 0.000000 1.631830 0.000000 
#    z -0.001190 0.000000 1.756010 
# 
# From -- ./inp_files/258661.got.cif
#   From: 2010.05.17/outbox.cif.g08.bks.cpg/sg12_130_cif.got.tgz:258661.got - 2010.06.03 13:09:07.
