data_PCOD9190494
_publ_section_title
;
Structure prediction by ZEFSAII (Michael W. Deem and Ramdas Pophale) SiO2 
 PCOD9190494
Probable space group: C 2/M
;
_chemical_formula_sum "Si O2"
_cell_formula_units_Z 56
_cell_length_a 27.510991
_cell_length_b 13.402388
_cell_length_c 9.557343
_cell_angle_alpha 90.000000
_cell_angle_beta 58.426347
_cell_angle_gamma 90.000000
_cell_volume 3002.263264
_symmetry_space_group_name_H-M "C 2/M"
_symmetry_group_IT_number 12
_symmetry_cell_setting 'monoclinic'
loop_
_space_group_symop_operation_xyz
x,y,z
-x,y,-z
-x,-y,-z
x,-y,z
1/2+x,1/2+y,z
1/2-x,1/2+y,-z
1/2-x,1/2-y,-z
1/2+x,1/2-y,z
loop_
_atom_site_type_symbol
_atom_site_label
_atom_site_fract_x
_atom_site_fract_y
_atom_site_fract_z
Si Si1 0.657573 0.888285 0.968175
Si Si2 0.287181 0.112572 0.540722
Si Si3 0.973781 0.386609 0.890281
Si Si4 0.827672 0.772393 0.263632
Si Si5 0.532725 0.261108 0.589119
Si Si6 0.558864 0.617600 0.824876
Si Si7 0.629685 0.112986 0.333843
O O1 0.686309 0.793796 0.852218
O O2 0.682555 0.000000 0.909813
O O3 0.594241 0.888776 0.997000
O O4 0.647917 0.872523 0.146777
O O5 0.221716 0.146309 0.641365
O O6 0.321708 0.191185 0.395672
O O7 0.315084 0.115701 0.651165
O O8 0.293450 0.000000 0.476796
O O9 0.993435 0.500000 0.830786
O O10 0.992720 0.314364 0.737928
O O11 0.000000 0.357190 0.000000
O O12 0.889461 0.823102 0.178728
O O13 0.500000 0.299754 0.500000
O O14 0.551361 0.341202 0.677898
O O15 0.585318 0.194835 0.454193
O O16 0.571928 0.500000 0.802535
O O17 0.500000 0.630354 0.000000
O O18 0.604813 0.000000 0.381688
#
# Coordination Sequence:
#
# PCOD9190494 Si02
#       7
#     8   8   8   8   8   8   8
#     4  10  20  34  54  84 121 154 189 235 288 349
#     4  10  22  39  62  90 116 151 199 248 295 345
#     4  10  20  31  49  83 121 155 193 234 285 350
#     4  11  21  39  65  87 115 157 199 245 294 347
#     4  12  21  34  59  84 118 160 197 238 292 358
#     4  11  25  43  62  86 117 155 201 250 297 347
#     4  10  21  36  55  87 125 155 187 237 295 351
#
# _framework density 18.652594000000001
#
# number of rings (size 3 to 8) (size 9 to 14) (size 15 to 20)
#    0.000    1.429    2.857    3.429    0.000    1.429 
#    0.000    0.000    0.000    0.429    0.000    0.000 
#    0.000    0.000    0.000    0.000    0.000    0.000 
#
# Total GULP energy -156316.894756 kJ/mol
# GULP energy per Si atom -5582.746241 kJ/mol
# Density = 1.861014 g / cm^3
# Si number density = 18.652594 Si / 1000 Ang^3
#
#
#
# Elastic Constant Matrix: (Units=GPa)
#
#
# Indices 1 2 3 4 5 6 
#
# 1 57.9667 26.8768 25.0914 0.0000 6.9898 0.0000
# 2 26.8768 103.0627 27.7979 0.0000 -1.4985 0.0000
# 3 25.0914 27.7979 64.4453 0.0000 12.4467 0.0000
# 4 0.0000 0.0000 0.0000 17.1724 0.0000 16.5642
# 5 6.9898 -1.4985 12.4467 0.0000 28.8012 0.0000
# 6 0.0000 0.0000 0.0000 16.5642 0.0000 -35.7697
#
#
#
# Elastic Compliance Matrix: (Units=1/GPa)
#
#
# Indices 1 2 3 4 5 6 
#
# 1 0.022255 -0.004141 -0.006322 0.000000 -0.002885 0.000000
# 2 -0.004141 0.011970 -0.004218 0.000000 0.003450 0.000000
# 3 -0.006322 -0.004218 0.021323 0.000000 -0.007900 0.000000
# 4 0.000000 0.000000 0.000000 0.040253 0.000000 0.018640
# 5 -0.002885 0.003450 -0.007900 0.000000 0.039015 0.000000
# 6 0.000000 0.000000 0.000000 0.018640 0.000000 -0.019325
#
#
# Mechanical properties :
#
#
# Convention : Reuss Voigt Hill
#
# Bulk Modulus (GPa) = 38.18381 42.77855 40.48118
# Shear Modulus (GPa) = 32.55591 11.75468 22.15529
#
# Velocity S-wave (km/s) = 4.18231 2.51308 3.45017
# Velocity P-wave (km/s) = 6.62101 5.60401 6.13362
#
# Compressibility (1/GPa) = 0.02618911
#
# Stress axis : x y z
#
# Youngs Moduli (GPa) = 44.93279 83.53983 46.89663
#
# Poissons Ratio (x) = 0.34591 0.29648
# Poissons Ratio (y) = 0.18605 0.19779
# Poissons Ratio (z) = 0.28406 0.35233
#
# Static dielectric constant tensor:
#      x y z
#    x 1.631930 0.000000 0.005180 
#    y 0.000000 1.667670 0.000000 
#    z 0.005180 0.000000 1.641880 
# 
# From -- ./inp_files/96774.got.cif
#   From: 2010.05.17/outbox.cif.g08.bks.cpg/sg12_49_cif.got.tgz:96774.got - 2010.06.03 13:09:07.
