data_PCOD9190158
_publ_section_title
;
Structure prediction by ZEFSAII (Michael W. Deem and Ramdas Pophale) SiO2 
 PCOD9190158
Probable space group: C 2/M
;
_chemical_formula_sum "Si O2"
_cell_formula_units_Z 48
_cell_length_a 9.206933
_cell_length_b 26.936532
_cell_length_c 20.939700
_cell_angle_alpha 90.000000
_cell_angle_beta 151.435363
_cell_angle_gamma 90.000000
_cell_volume 2483.082593
_symmetry_space_group_name_H-M "C 2/M"
_symmetry_group_IT_number 12
_symmetry_cell_setting 'monoclinic'
loop_
_space_group_symop_operation_xyz
x,y,z
-x,y,-z
-x,-y,-z
x,-y,z
1/2+x,1/2+y,z
1/2-x,1/2+y,-z
1/2-x,1/2-y,-z
1/2+x,1/2-y,z
loop_
_atom_site_type_symbol
_atom_site_label
_atom_site_fract_x
_atom_site_fract_y
_atom_site_fract_z
Si Si1 0.573478 0.229443 0.602291
Si Si2 0.455787 0.000000 0.907255
Si Si3 0.148327 0.914495 0.489830
Si Si4 0.780463 0.636839 0.256091
Si Si5 0.342409 0.500000 0.607091
Si Si6 0.158291 0.665936 0.276390
Si Si7 0.767371 0.098312 0.970283
O O1 0.500000 0.219695 0.500000
O O2 0.705596 0.180985 0.687647
O O3 0.793644 0.275431 0.704450
O O4 0.250000 0.250000 0.500000
O O5 0.094760 0.000000 0.758393
O O6 0.500000 0.000000 0.000000
O O7 0.601734 0.048313 0.929169
O O8 0.508110 0.907210 0.635897
O O9 0.000000 0.930760 0.500000
O O10 0.980093 0.862638 0.408202
O O11 0.093592 0.952889 0.413028
O O12 0.461691 0.619215 0.104889
O O13 0.970467 0.654925 0.267920
O O14 0.000000 0.500000 0.500000
O O15 0.971589 0.639478 0.147686
O O16 0.000000 0.089007 0.000000
#
# Coordination Sequence:
#
# PCOD9190158 Si02
#       7
#     8   4   8   8   4   8   8
#     4  12  21  38  64  94 130 171 210 263 323 371
#     4  12  27  48  62  92 140 168 203 266 336 382
#     4  10  20  40  66  89 122 163 219 267 307 367
#     4  10  22  38  64  99 122 162 218 266 310 377
#     4  12  27  42  62  96 128 166 207 268 324 386
#     4  10  19  40  65  92 124 164 216 265 308 374
#     4  10  23  45  72  91 122 173 222 261 313 386
#
# _framework density 19.330808999999999
#
# number of rings (size 3 to 8) (size 9 to 14) (size 15 to 20)
#    0.000    1.333    5.000    1.000    2.333    1.333 
#    3.000    0.000    0.000    0.000    0.000    0.000 
#    0.000    0.000    0.000    0.000    0.000    0.000 
#
# Total GULP energy -133931.911127 kJ/mol
# GULP energy per Si atom -5580.496297 kJ/mol
# Density = 1.928681 g / cm^3
# Si number density = 19.330809 Si / 1000 Ang^3
#
#
#
# Elastic Constant Matrix: (Units=GPa)
#
#
# Indices 1 2 3 4 5 6 
#
# 1 44.1793 27.6645 39.8855 0.0024 -14.1934 -0.0006
# 2 27.6645 96.7488 58.4646 -0.0001 -16.4036 -0.0007
# 3 39.8855 58.4646 176.8125 0.0123 -16.7925 0.0132
# 4 0.0024 -0.0001 0.0123 33.5506 0.0044 -10.2804
# 5 -14.1934 -16.4036 -16.7925 0.0044 29.0942 -0.0072
# 6 -0.0006 -0.0007 0.0132 -10.2804 -0.0072 6.2376
#
#
#
# Elastic Compliance Matrix: (Units=1/GPa)
#
#
# Indices 1 2 3 4 5 6 
#
# 1 0.033586 -0.004762 -0.004973 0.000012 0.010829 0.000045
# 2 -0.004762 0.014349 -0.003304 0.000010 0.003860 0.000029
# 3 -0.004973 -0.003304 0.007895 -0.000016 0.000268 -0.000043
# 4 0.000012 0.000010 -0.000016 0.060216 0.000018 0.099245
# 5 0.010829 0.003860 0.000268 0.000018 0.041985 0.000078
# 6 0.000045 0.000029 -0.000043 0.099245 0.000078 0.323890
#
#
# Mechanical properties :
#
#
# Convention : Reuss Voigt Hill
#
# Bulk Modulus (GPa) = 33.61132 63.30776 48.45954
# Shear Modulus (GPa) = 9.65405 26.55820 18.10612
#
# Velocity S-wave (km/s) = 2.23718 3.71061 3.06379
# Velocity P-wave (km/s) = 4.90902 7.15394 6.13504
#
# Compressibility (1/GPa) = 0.02975188
#
# Stress axis : x y z
#
# Youngs Moduli (GPa) = 29.77417 69.69331 126.65571
#
# Poissons Ratio (x) = 0.33190 0.62988
# Poissons Ratio (y) = 0.14179 0.41842
# Poissons Ratio (z) = 0.14807 0.23024
#
# Static dielectric constant tensor:
#      x y z
#    x 1.663760 0.000000 0.010480 
#    y 0.000000 1.686050 0.000000 
#    z 0.010480 0.000000 1.701340 
# 
# From -- ./inp_files/260467.got.cif
#   From: 2010.05.17/outbox.cif.g08.bks.cpg/sg12_131_cif.got.tgz:260467.got - 2010.06.03 13:09:07.
