data_PCOD9190734
_publ_section_title
;
Structure prediction by ZEFSAII (Michael W. Deem and Ramdas Pophale) SiO2 
 PCOD9190734
Probable space group: C 2/M
;
_chemical_formula_sum "Si O2"
_cell_formula_units_Z 48
_cell_length_a 29.496139
_cell_length_b 7.331174
_cell_length_c 26.776674
_cell_angle_alpha 90.000000
_cell_angle_beta 159.582486
_cell_angle_gamma 90.000000
_cell_volume 2019.968906
_symmetry_space_group_name_H-M "C 2/M"
_symmetry_group_IT_number 12
_symmetry_cell_setting 'monoclinic'
loop_
_space_group_symop_operation_xyz
x,y,z
-x,y,-z
-x,-y,-z
x,-y,z
1/2+x,1/2+y,z
1/2-x,1/2+y,-z
1/2-x,1/2-y,-z
1/2+x,1/2-y,z
loop_
_atom_site_type_symbol
_atom_site_label
_atom_site_fract_x
_atom_site_fract_y
_atom_site_fract_z
Si Si1 0.383535 0.721978 0.954387
Si Si2 0.838871 0.220977 0.022204
Si Si3 0.778997 0.281514 0.471991
Si Si4 0.059709 0.710229 0.768623
Si Si5 0.646828 0.222386 0.639627
Si Si6 0.167940 0.777774 0.255790
O O1 0.381803 0.500000 0.949658
O O2 0.257831 0.781406 0.793616
O O3 0.369805 0.774086 0.998142
O O4 0.529272 0.779924 0.090037
O O5 0.932772 0.283730 0.163428
O O6 0.842103 0.000000 0.027648
O O7 0.694717 0.287971 0.888159
O O8 0.782022 0.500000 0.470240
O O9 0.750000 0.250000 0.500000
O O10 0.684702 0.218148 0.330544
O O11 0.924070 0.209290 0.611660
O O12 0.060559 0.500000 0.753103
O O13 0.500000 0.283511 0.500000
O O14 0.708588 0.275806 0.650101
O O15 0.642753 0.000000 0.636500
O O16 0.164965 0.000000 0.252053
#
# Coordination Sequence:
#
# PCOD9190734 Si02
#       6
#     8   8   8   8   8   8
#     4   9  16  26  42  62  87 119 154 189 230 282
#     4   9  17  29  47  68  93 125 159 192 235 286
#     4  10  20  32  48  69  97 129 162 197 237 282
#     4   9  18  30  44  66  95 124 158 199 235 275
#     4   9  17  26  40  63  91 120 151 191 239 284
#     4   9  17  28  42  62  91 124 155 190 234 282
#
# _framework density 23.762741999999999
#
# number of rings (size 3 to 8) (size 9 to 14) (size 15 to 20)
#    0.000    2.833    0.000    1.500    2.333    4.000 
#    0.000    0.000    0.000    0.000    0.000    1.167 
#    0.000    6.667    0.000    0.000    0.000    0.000 
#
# Total GULP energy -134005.829268 kJ/mol
# GULP energy per Si atom -5583.576220 kJ/mol
# Density = 2.370866 g / cm^3
# Si number density = 23.762742 Si / 1000 Ang^3
#
#
#
# Elastic Constant Matrix: (Units=GPa)
#
#
# Indices 1 2 3 4 5 6 
#
# 1 118.8965 -7.2118 75.9753 0.0000 7.7076 0.0000
# 2 -7.2118 91.1386 1.4040 -0.0001 3.4476 0.0001
# 3 75.9753 1.4040 199.0071 0.0000 8.7243 0.0000
# 4 0.0000 -0.0001 0.0000 -5.2792 0.0000 -5.5413
# 5 7.7076 3.4476 8.7243 0.0000 30.3575 0.0000
# 6 0.0000 0.0001 0.0000 -5.5413 0.0000 5.5554
#
#
#
# Elastic Compliance Matrix: (Units=1/GPa)
#
#
# Indices 1 2 3 4 5 6 
#
# 1 0.011299 0.001026 -0.004243 0.000000 -0.001766 0.000000
# 2 0.001026 0.011113 -0.000409 0.000000 -0.001405 0.000000
# 3 -0.004243 -0.000409 0.006683 0.000000 -0.000797 0.000000
# 4 0.000000 0.000000 0.000000 -0.092537 0.000000 -0.092303
# 5 -0.001766 -0.001405 -0.000797 0.000000 0.033778 0.000000
# 6 0.000000 0.000000 0.000000 -0.092303 0.000000 0.087937
#
#
# Mechanical properties :
#
#
# Convention : Reuss Voigt Hill
#
# Bulk Modulus (GPa) = 45.78099 61.04192 53.41145
# Shear Modulus (GPa) = 68.67714 28.71838 48.69776
#
# Velocity S-wave (km/s) = 5.38181 3.48019 4.53187
# Velocity P-wave (km/s) = 7.61093 6.47246 7.06467
#
# Compressibility (1/GPa) = 0.02184313
#
# Stress axis : x y z
#
# Youngs Moduli (GPa) = 88.50352 89.98504 149.63810
#
# Poissons Ratio (x) = -0.09235 0.63498
# Poissons Ratio (y) = -0.09083 0.06114
# Poissons Ratio (z) = 0.37556 0.03677
#
# Static dielectric constant tensor:
#      x y z
#    x 1.882780 0.000000 0.011910 
#    y 0.000000 1.958010 0.000000 
#    z 0.011910 0.000000 1.887300 
# 
# From -- ./inp_files/94347.got.cif
#   From: 2010.05.17/outbox.cif.g08.bks.cpg/sg12_48_cif.got.tgz:94347.got - 2010.06.03 13:09:07.
