data_PCOD9190947
_publ_section_title
;
Structure prediction by ZEFSAII (Michael W. Deem and Ramdas Pophale) SiO2 
 PCOD9190947
Probable space group: C 2/M
;
_chemical_formula_sum "Si O2"
_cell_formula_units_Z 64
_cell_length_a 22.103822
_cell_length_b 7.613009
_cell_length_c 28.399606
_cell_angle_alpha 90.000000
_cell_angle_beta 143.869405
_cell_angle_gamma 90.000000
_cell_volume 2817.824431
_symmetry_space_group_name_H-M "C 2/M"
_symmetry_group_IT_number 12
_symmetry_cell_setting 'monoclinic'
loop_
_space_group_symop_operation_xyz
x,y,z
-x,y,-z
-x,-y,-z
x,-y,z
1/2+x,1/2+y,z
1/2-x,1/2+y,-z
1/2-x,1/2-y,-z
1/2+x,1/2-y,z
loop_
_atom_site_type_symbol
_atom_site_label
_atom_site_fract_x
_atom_site_fract_y
_atom_site_fract_z
Si Si1 0.363907 0.210318 0.462148
Si Si2 0.448064 0.289153 0.778785
Si Si3 0.232777 0.287121 0.692469
Si Si4 0.521836 0.288797 0.378498
Si Si5 0.343878 0.714236 0.619530
Si Si6 0.198409 0.797763 0.777662
Si Si7 0.146440 0.298740 0.962101
Si Si8 0.894272 0.283696 0.958626
O O1 0.347984 0.271586 0.398645
O O2 0.460520 0.248114 0.555674
O O3 0.265367 0.277374 0.429900
O O4 0.356018 0.000000 0.454222
O O5 0.454320 0.500000 0.783157
O O6 0.345414 0.242021 0.743096
O O7 0.426637 0.236659 0.711557
O O8 0.550027 0.221435 0.866995
O O9 0.226737 0.500000 0.693205
O O10 0.220230 0.207623 0.735725
O O11 0.519375 0.500000 0.373343
O O12 0.615841 0.223408 0.405393
O O13 0.415277 0.218339 0.290697
O O14 0.338229 0.500000 0.614966
O O15 0.294547 0.723800 0.866485
O O16 0.189791 0.000000 0.788178
O O17 0.161322 0.500000 0.983154
O O18 0.250000 0.250000 0.000000
O O19 0.118964 0.218513 0.995911
O O20 0.897125 0.500000 0.959127
O O21 0.000000 0.227105 0.000000
#
# Coordination Sequence:
#
# PCOD9190947 Si02
#       8
#     8   8   8   8   8   8   8   8
#     4   9  18  34  54  76 103 139 180 217 267 329
#     4   9  18  35  59  81 105 140 181 224 271 327
#     4   9  19  36  56  79 106 141 181 220 273 332
#     4  10  20  32  50  77 106 138 179 223 270 318
#     4   8  16  32  55  77 102 140 179 217 265 327
#     4  10  21  35  54  79 105 139 182 226 271 321
#     4  11  23  37  58  87 118 149 185 232 285 340
#     4   9  19  37  60  83 108 145 192 234 275 331
#
# _framework density 22.712558000000001
#
# number of rings (size 3 to 8) (size 9 to 14) (size 15 to 20)
#    0.000    2.625    0.000    3.000    1.750    3.000 
#    0.000    6.250    0.000    3.375    0.000    0.000 
#    0.000    0.000    0.000    0.000    0.000    0.000 
#
# Total GULP energy -178618.466664 kJ/mol
# GULP energy per Si atom -5581.827083 kJ/mol
# Density = 2.266086 g / cm^3
# Si number density = 22.712558 Si / 1000 Ang^3
#
#
#
# Elastic Constant Matrix: (Units=GPa)
#
#
# Indices 1 2 3 4 5 6 
#
# 1 95.0238 -0.9253 42.0023 -0.0001 -9.1514 0.0001
# 2 -0.9253 41.6086 -4.1253 0.0000 4.4683 0.0000
# 3 42.0023 -4.1253 135.0969 0.0000 -11.1858 0.0000
# 4 -0.0001 0.0000 0.0000 20.2239 0.0000 -3.5108
# 5 -9.1514 4.4683 -11.1858 0.0000 27.9811 -0.0001
# 6 0.0001 0.0000 0.0000 -3.5108 -0.0001 14.4361
#
#
#
# Elastic Compliance Matrix: (Units=1/GPa)
#
#
# Indices 1 2 3 4 5 6 
#
# 1 0.012386 -0.000371 -0.003642 0.000000 0.002654 0.000000
# 2 -0.000371 0.024489 0.000547 0.000000 -0.003813 0.000000
# 3 -0.003642 0.000547 0.008734 0.000000 0.002213 0.000000
# 4 0.000000 0.000000 0.000000 0.051626 0.000000 0.012555
# 5 0.002654 -0.003813 0.002213 0.000000 0.038100 0.000000
# 6 0.000000 0.000000 0.000000 0.012555 0.000000 0.072324
#
#
# Mechanical properties :
#
#
# Convention : Reuss Voigt Hill
#
# Bulk Modulus (GPa) = 25.85469 38.40364 32.12917
# Shear Modulus (GPa) = 21.97966 28.18006 25.07986
#
# Velocity S-wave (km/s) = 3.11421 3.52622 3.32660
# Velocity P-wave (km/s) = 4.93348 5.79001 5.37882
#
# Compressibility (1/GPa) = 0.03867770
#
# Stress axis : x y z
#
# Youngs Moduli (GPa) = 80.73862 40.83463 114.48898
#
# Poissons Ratio (x) = 0.01514 0.41701
# Poissons Ratio (y) = 0.02993 -0.06266
# Poissons Ratio (z) = 0.29408 -0.02235
#
# Static dielectric constant tensor:
#      x y z
#    x 1.820920 0.000000 -0.021500 
#    y 0.000000 1.833080 0.000000 
#    z -0.021500 0.000000 1.807070 
# 
# From -- ./inp_files/382443.got.cif
#   From: 2010.05.17/outbox.cif.g08.bks.cpg/sg12_192_cif.got.tgz:382443.got - 2010.06.03 13:09:07.
