data_PCOD9190444
_publ_section_title
;
Structure prediction by ZEFSAII (Michael W. Deem and Ramdas Pophale) SiO2 
 PCOD9190444
Probable space group: C 2/M
;
_chemical_formula_sum "Si O2"
_cell_formula_units_Z 48
_cell_length_a 28.494761
_cell_length_b 7.818362
_cell_length_c 12.192559
_cell_angle_alpha 90.000000
_cell_angle_beta 106.947098
_cell_angle_gamma 90.000000
_cell_volume 2598.330359
_symmetry_space_group_name_H-M "C 2/M"
_symmetry_group_IT_number 12
_symmetry_cell_setting 'monoclinic'
loop_
_space_group_symop_operation_xyz
x,y,z
-x,y,-z
-x,-y,-z
x,-y,z
1/2+x,1/2+y,z
1/2-x,1/2+y,-z
1/2-x,1/2-y,-z
1/2+x,1/2-y,z
loop_
_atom_site_type_symbol
_atom_site_label
_atom_site_fract_x
_atom_site_fract_y
_atom_site_fract_z
Si Si1 0.790536 0.205774 0.386786
Si Si2 0.554421 0.298657 0.547736
Si Si3 0.876890 0.696542 0.599598
Si Si4 0.184102 0.705197 0.252415
Si Si5 0.804226 0.204247 0.992518
Si Si6 0.362189 0.293446 0.236117
O O1 0.825267 0.293079 0.499042
O O2 0.735223 0.269882 0.339219
O O3 0.817005 0.235698 0.288322
O O4 0.791286 0.000000 0.406494
O O5 0.500000 0.223896 0.500000
O O6 0.548966 0.500000 0.568676
O O7 0.584130 0.284602 0.453764
O O8 0.589608 0.226231 0.667888
O O9 0.892635 0.500000 0.620323
O O10 0.862442 0.769033 0.709094
O O11 0.184489 0.500000 0.267070
O O12 0.185962 0.738532 0.124629
O O13 0.806802 0.000000 0.995396
O O14 0.750000 0.250000 0.000000
O O15 0.844948 0.271673 0.106370
O O16 0.367721 0.500000 0.232146
#
# Coordination Sequence:
#
# PCOD9190444 Si02
#       6
#     8   8   8   8   8   8
#     4   9  16  30  48  65  97 135 166 201 237 285
#     4   9  18  35  58  76  93 123 161 203 256 309
#     4  10  20  31  47  73 102 127 159 206 254 296
#     4  10  20  33  46  66 101 139 169 201 239 282
#     4  11  20  31  48  70 101 137 171 202 236 287
#     4   8  15  29  48  71  97 124 158 205 244 274
#
# _framework density 18.473400999999999
#
# number of rings (size 3 to 8) (size 9 to 14) (size 15 to 20)
#    0.000    2.500    1.667    2.500    0.000    2.333 
#    0.000    0.833    0.000    1.000    0.000    7.000 
#    0.000    0.000    0.000    0.000    0.000    0.000 
#
# Total GULP energy -133757.340377 kJ/mol
# GULP energy per Si atom -5573.222516 kJ/mol
# Density = 1.843135 g / cm^3
# Si number density = 18.473401 Si / 1000 Ang^3
#
#
#
# Elastic Constant Matrix: (Units=GPa)
#
#
# Indices 1 2 3 4 5 6 
#
# 1 109.5488 -4.4867 61.7784 0.0000 8.9359 0.0000
# 2 -4.4867 17.9041 -10.0197 0.0000 1.8372 0.0000
# 3 61.7784 -10.0197 91.7723 0.0000 -14.1399 0.0000
# 4 0.0000 0.0000 0.0000 20.1270 0.0000 -3.9365
# 5 8.9359 1.8372 -14.1399 0.0000 19.9458 0.0000
# 6 0.0000 0.0000 0.0000 -3.9365 0.0000 12.0596
#
#
#
# Elastic Compliance Matrix: (Units=1/GPa)
#
#
# Indices 1 2 3 4 5 6 
#
# 1 0.020590 -0.002394 -0.017411 0.000000 -0.021347 0.000000
# 2 -0.002394 0.059783 0.008369 0.000000 0.001499 0.000000
# 3 -0.017411 0.008369 0.027632 0.000000 0.026619 0.000000
# 4 0.000000 0.000000 0.000000 0.053073 0.000000 0.017324
# 5 -0.021347 0.001499 0.026619 0.000000 0.078432 0.000000
# 6 0.000000 0.000000 0.000000 0.017324 0.000000 0.088576
#
#
# Mechanical properties :
#
#
# Convention : Reuss Voigt Hill
#
# Bulk Modulus (GPa) = 11.74605 34.86325 23.30465
# Shear Modulus (GPa) = 13.18092 21.89004 17.53548
#
# Velocity S-wave (km/s) = 2.67405 3.44604 3.08430
# Velocity P-wave (km/s) = 3.98826 5.89464 5.03254
#
# Compressibility (1/GPa) = 0.08513503
#
# Stress axis : x y z
#
# Youngs Moduli (GPa) = 48.56611 16.72708 36.18944
#
# Poissons Ratio (x) = 0.04004 0.63011
# Poissons Ratio (y) = 0.11625 -0.30288
# Poissons Ratio (z) = 0.84560 -0.13999
#
# Static dielectric constant tensor:
#      x y z
#    x 1.651900 0.000000 -0.018460 
#    y 0.000000 1.628960 0.000000 
#    z -0.018460 0.000000 1.701880 
# 
# From -- ./inp_files/172269.got.cif
#   From: 2010.05.17/outbox.cif.g08.bks.cpg/sg12_87_cif.got.tgz:172269.got - 2010.06.03 13:09:07.
