data_PCOD9190578
_publ_section_title
;
Structure prediction by ZEFSAII (Michael W. Deem and Ramdas Pophale) SiO2 
 PCOD9190578
Probable space group: C 2/M
;
_chemical_formula_sum "Si O2"
_cell_formula_units_Z 56
_cell_length_a 11.152677
_cell_length_b 13.989523
_cell_length_c 16.133538
_cell_angle_alpha 90.000000
_cell_angle_beta 82.304245
_cell_angle_gamma 90.000000
_cell_volume 2494.492994
_symmetry_space_group_name_H-M "C 2/M"
_symmetry_group_IT_number 12
_symmetry_cell_setting 'monoclinic'
loop_
_space_group_symop_operation_xyz
x,y,z
-x,y,-z
-x,-y,-z
x,-y,z
1/2+x,1/2+y,z
1/2-x,1/2+y,-z
1/2-x,1/2-y,-z
1/2+x,1/2-y,z
loop_
_atom_site_type_symbol
_atom_site_label
_atom_site_fract_x
_atom_site_fract_y
_atom_site_fract_z
Si Si1 0.153530 0.889125 0.783372
Si Si2 0.020284 0.611484 0.864948
Si Si3 0.680920 0.383767 0.422059
Si Si4 0.409165 0.613009 0.403271
Si Si5 0.805239 0.388119 0.989994
Si Si6 0.399307 0.614638 0.879399
Si Si7 0.232455 0.695886 0.752250
O O1 0.112722 0.877703 0.691543
O O2 0.251064 0.805754 0.776393
O O3 0.040904 0.864539 0.854192
O O4 0.188132 0.000000 0.793045
O O5 0.007776 0.500000 0.842255
O O6 0.109837 0.613412 0.936433
O O7 0.095734 0.667412 0.790002
O O8 0.891723 0.649509 0.909347
O O9 0.697002 0.500000 0.410217
O O10 0.688852 0.356121 0.518572
O O11 0.543704 0.353839 0.411453
O O12 0.756285 0.330179 0.345001
O O13 0.415240 0.500000 0.418486
O O14 0.785462 0.500000 0.970498
O O15 0.677191 0.347644 0.034032
O O16 0.394305 0.500000 0.887259
O O17 0.326945 0.638687 0.801362
#
# Coordination Sequence:
#
# PCOD9190578 Si02
#       7
#     8   8   8   8   8   8   8
#     4  10  20  32  44  64  93 122 153 184 216 263
#     4   8  13  22  38  67  96 111 137 183 227 265
#     4   9  15  26  47  72  91 110 141 185 229 262
#     4   8  15  28  45  65  91 117 142 179 223 264
#     4   7  11  21  40  63  89 118 139 170 226 271
#     4   9  16  30  50  69  91 117 148 186 224 265
#     4  11  18  25  46  71  90 117 150 184 224 261
#
# _framework density 22.449451
#
# number of rings (size 3 to 8) (size 9 to 14) (size 15 to 20)
#    0.000    3.143    1.429    3.857    0.000    0.571 
#    0.000    0.714    0.000    2.571    0.000   10.000 
#    0.000    0.000    0.000    0.000    0.000    0.000 
#
# Total GULP energy -156043.435240 kJ/mol
# GULP energy per Si atom -5572.979830 kJ/mol
# Density = 2.239835 g / cm^3
# Si number density = 22.449451 Si / 1000 Ang^3
#
#
#
# Elastic Constant Matrix: (Units=GPa)
#
#
# Indices 1 2 3 4 5 6 
#
# 1 0.4418 30.1583 47.4075 0.0000 -8.7225 0.0000
# 2 30.1583 71.1796 28.1337 0.0000 -28.4694 0.0000
# 3 47.4075 28.1337 154.5902 0.0000 -36.3523 0.0000
# 4 0.0000 0.0000 0.0000 -1.3790 0.0000 -12.9138
# 5 -8.7225 -28.4694 -36.3523 0.0000 36.7592 0.0000
# 6 0.0000 0.0000 0.0000 -12.9138 0.0000 16.3948
#
#
#
# Elastic Compliance Matrix: (Units=1/GPa)
#
#
# Indices 1 2 3 4 5 6 
#
# 1 -0.039279 0.018715 0.012843 0.000000 0.017875 0.000000
# 2 0.018715 0.011436 -0.006116 0.000000 0.007250 0.000000
# 3 0.012843 -0.006116 0.004230 0.000000 0.002494 0.000000
# 4 0.000000 0.000000 0.000000 -0.086573 0.000000 -0.068192
# 5 0.017875 0.007250 0.002494 0.000000 0.039527 0.000000
# 6 0.000000 0.000000 0.000000 -0.068192 0.000000 0.007282
#
#
# Mechanical properties :
#
#
# Convention : Reuss Voigt Hill
#
# Bulk Modulus (GPa) = 36.66721 48.62339 42.64530
# Shear Modulus (GPa) = -47.54174 18.38913 -14.57630
#
# Velocity S-wave (km/s) = -4.60687 2.86516 -2.55089
# Velocity P-wave (km/s) = 3.45383 5.71416 3.21890
#
# Compressibility (1/GPa) = 0.02727233
#
# Stress axis : x y z
#
# Youngs Moduli (GPa) = -25.45916 87.43938 236.42465
#
# Poissons Ratio (x) = -1.63646 -3.03635
# Poissons Ratio (y) = 0.47648 1.44592
# Poissons Ratio (z) = 0.32697 0.53476
#
# Static dielectric constant tensor:
#      x y z
#    x 1.950810 0.000000 -0.017850 
#    y 0.000000 1.862030 0.000000 
#    z -0.017850 0.000000 1.882890 
# 
# From -- ./inp_files/269577.got.cif
#   From: 2010.05.17/outbox.cif.g08.bks.cpg/sg12_135_cif.got.tgz:269577.got - 2010.06.03 13:09:07.
