data_PCOD9190141
_publ_section_title
;
Structure prediction by ZEFSAII (Michael W. Deem and Ramdas Pophale) SiO2 
 PCOD9190141
Probable space group: C 2/M
;
_chemical_formula_sum "Si O2"
_cell_formula_units_Z 44
_cell_length_a 11.657578
_cell_length_b 17.181897
_cell_length_c 10.345886
_cell_angle_alpha 90.000000
_cell_angle_beta 56.636846
_cell_angle_gamma 90.000000
_cell_volume 1730.766567
_symmetry_space_group_name_H-M "C 2/M"
_symmetry_group_IT_number 12
_symmetry_cell_setting 'monoclinic'
loop_
_space_group_symop_operation_xyz
x,y,z
-x,y,-z
-x,-y,-z
x,-y,z
1/2+x,1/2+y,z
1/2-x,1/2+y,-z
1/2-x,1/2-y,-z
1/2+x,1/2-y,z
loop_
_atom_site_type_symbol
_atom_site_label
_atom_site_fract_x
_atom_site_fract_y
_atom_site_fract_z
Si Si1 0.729820 0.168922 0.387021
Si Si2 0.486098 0.000000 0.855622
Si Si3 0.962131 0.811133 0.874408
Si Si4 0.666698 0.000000 0.386107
Si Si5 0.254540 0.660646 0.665516
Si Si6 0.330362 0.146540 0.999929
Si Si7 0.797917 0.000000 0.571768
O O1 0.681602 0.252760 0.361420
O O2 0.686009 0.161483 0.564633
O O3 0.895993 0.177194 0.287451
O O4 0.691054 0.091385 0.332739
O O5 0.634040 0.000000 0.703046
O O6 0.500000 0.000000 0.000000
O O7 0.400080 0.076145 0.883961
O O8 0.833281 0.862756 0.914361
O O9 0.895423 0.725475 0.905946
O O10 0.000000 0.824416 0.000000
O O11 0.500000 0.000000 0.500000
O O12 0.787190 0.000000 0.424430
O O13 0.156449 0.650665 0.851085
O O14 0.344715 0.581759 0.602586
#
# Coordination Sequence:
#
# PCOD9190141 Si02
#       7
#     8   4   8   4   8   8   4
#     4  10  22  40  66  88 131 172 209 270 328 376
#     4  12  20  35  66  97 119 162 207 276 328 379
#     4  11  23  42  61  89 132 171 212 272 315 387
#     4  10  24  45  61  95 129 168 222 269 319 395
#     4  10  19  40  62  97 120 168 213 258 328 379
#     4  11  23  38  66  95 130 167 219 262 331 389
#     4  10  20  36  67  91 128 154 208 280 313 377
#
# _framework density 25.422260000000001
#
# number of rings (size 3 to 8) (size 9 to 14) (size 15 to 20)
#    0.000    1.455    3.636    1.636    0.000    2.909 
#    9.818    0.909    0.000    4.364    0.000    0.000 
#    0.000    0.000    0.000    0.000    0.000    0.000 
#
# Total GULP energy -122751.482738 kJ/mol
# GULP energy per Si atom -5579.612852 kJ/mol
# Density = 2.536440 g / cm^3
# Si number density = 25.422260 Si / 1000 Ang^3
#
#
#
# Elastic Constant Matrix: (Units=GPa)
#
#
# Indices 1 2 3 4 5 6 
#
# 1 100.0671 30.5730 40.6632 0.0000 -20.6291 0.0000
# 2 30.5730 213.9713 35.6894 0.0000 -9.5353 0.0000
# 3 40.6632 35.6894 96.2916 0.0000 -3.9860 0.0000
# 4 0.0000 0.0000 0.0000 32.5712 0.0000 -14.6692
# 5 -20.6291 -9.5353 -3.9860 0.0000 52.1605 0.0000
# 6 0.0000 0.0000 0.0000 -14.6692 0.0000 4.6080
#
#
#
# Elastic Compliance Matrix: (Units=1/GPa)
#
#
# Indices 1 2 3 4 5 6 
#
# 1 0.013298 -0.000838 -0.005110 0.000000 0.004716 0.000000
# 2 -0.000838 0.005065 -0.001504 0.000000 0.000480 0.000000
# 3 -0.005110 -0.001504 0.013047 0.000000 -0.001299 0.000000
# 4 0.000000 0.000000 0.000000 -0.070785 0.000000 -0.225339
# 5 0.004716 0.000480 -0.001299 0.000000 0.021025 0.000000
# 6 0.000000 0.000000 0.000000 -0.225339 0.000000 -0.500338
#
#
# Mechanical properties :
#
#
# Convention : Reuss Voigt Hill
#
# Bulk Modulus (GPa) = 60.58000 69.35346 64.96673
# Shear Modulus (GPa) = -10.03445 38.09488 14.03022
#
# Velocity S-wave (km/s) = -1.98889 3.87523 2.35178
# Velocity P-wave (km/s) = 4.31358 6.88208 5.74326
#
# Compressibility (1/GPa) = 0.01650710
#
# Stress axis : x y z
#
# Youngs Moduli (GPa) = 75.20052 197.41686 76.64818
#
# Poissons Ratio (x) = 0.16535 0.39166
# Poissons Ratio (y) = 0.06299 0.11527
# Poissons Ratio (z) = 0.38427 0.29689
#
# Static dielectric constant tensor:
#      x y z
#    x 2.045000 0.000000 0.046820 
#    y 0.000000 2.118560 0.000000 
#    z 0.046820 0.000000 2.052600 
# 
# From -- ./inp_files/131615.got.cif
#   From: 2010.05.17/outbox.cif.g08.bks.cpg/sg12_66_cif.got.tgz:131615.got - 2010.06.03 13:09:07.
