data_PCOD9190841
_publ_section_title
;
Structure prediction by ZEFSAII (Michael W. Deem and Ramdas Pophale) SiO2 
 PCOD9190841
Probable space group: C 2/M
;
_chemical_formula_sum "Si O2"
_cell_formula_units_Z 48
_cell_length_a 30.295886
_cell_length_b 9.129840
_cell_length_c 9.183955
_cell_angle_alpha 90.000000
_cell_angle_beta 83.721735
_cell_angle_gamma 90.000000
_cell_volume 2525.015528
_symmetry_space_group_name_H-M "C 2/M"
_symmetry_group_IT_number 12
_symmetry_cell_setting 'monoclinic'
loop_
_space_group_symop_operation_xyz
x,y,z
-x,y,-z
-x,-y,-z
x,-y,z
1/2+x,1/2+y,z
1/2-x,1/2+y,-z
1/2-x,1/2-y,-z
1/2+x,1/2-y,z
loop_
_atom_site_type_symbol
_atom_site_label
_atom_site_fract_x
_atom_site_fract_y
_atom_site_fract_z
Si Si1 0.370974 0.164417 0.907579
Si Si2 0.132904 0.825574 0.387644
Si Si3 0.820102 0.825462 0.349021
Si Si4 0.593009 0.824602 0.816587
Si Si5 0.453975 0.824934 0.446705
Si Si6 0.277840 0.834676 0.111004
O O1 0.362001 0.270564 0.777822
O O2 0.379919 0.000000 0.848140
O O3 0.409085 0.206279 0.010478
O O4 0.326870 0.158453 0.022195
O O5 0.173197 0.785237 0.483497
O O6 0.087932 0.751675 0.463186
O O7 0.128720 0.000000 0.395340
O O8 0.867140 0.772640 0.263377
O O9 0.783353 0.745426 0.264068
O O10 0.815067 0.000000 0.337223
O O11 0.551497 0.799527 0.724975
O O12 0.603889 0.000000 0.800258
O O13 0.500000 0.774412 0.500000
O O14 0.450549 0.000000 0.471443
O O15 0.261154 0.000000 0.137167
O O16 0.250000 0.750000 0.000000
#
# Coordination Sequence:
#
# PCOD9190841 Si02
#       6
#     8   8   8   8   8   8
#     4   9  18  32  50  71  96 126 160 198 238 284
#     4  10  20  32  49  73  99 128 162 200 241 285
#     4   9  17  30  48  70  95 125 161 197 235 284
#     4   8  15  29  48  70  94 123 162 201 238 285
#     4   9  17  31  52  74  96 126 163 202 245 291
#     4  10  20  34  53  76  99 126 160 198 240 285
#
# _framework density 19.009785000000001
#
# number of rings (size 3 to 8) (size 9 to 14) (size 15 to 20)
#    0.000    2.833    0.000    2.500    0.000    5.667 
#    0.000    1.667    0.000    5.000    0.000    0.000 
#    0.000    0.000    0.000    0.000    0.000    0.000 
#
# Total GULP energy -133640.659064 kJ/mol
# GULP energy per Si atom -5568.360794 kJ/mol
# Density = 1.896652 g / cm^3
# Si number density = 19.009785 Si / 1000 Ang^3
#
#
#
# Elastic Constant Matrix: (Units=GPa)
#
#
# Indices 1 2 3 4 5 6 
#
# 1 47.7148 16.1956 28.8843 0.0000 36.5546 0.0000
# 2 16.1956 59.9766 40.5241 0.0000 23.2910 0.0000
# 3 28.8843 40.5241 109.9570 0.0000 42.3514 0.0000
# 4 0.0000 0.0000 0.0000 24.3573 0.0000 7.2171
# 5 36.5546 23.2910 42.3514 0.0000 38.5013 0.0000
# 6 0.0000 0.0000 0.0000 7.2171 0.0000 19.6619
#
#
#
# Elastic Compliance Matrix: (Units=1/GPa)
#
#
# Indices 1 2 3 4 5 6 
#
# 1 0.093157 0.007153 0.014967 0.000000 -0.109238 0.000000
# 2 0.007153 0.024144 -0.004400 0.000000 -0.016557 0.000000
# 3 0.014967 -0.004400 0.019490 0.000000 -0.032988 0.000000
# 4 0.000000 0.000000 0.000000 0.046065 0.000000 -0.016909
# 5 -0.109238 -0.016557 -0.032988 0.000000 0.175990 0.000000
# 6 0.000000 0.000000 0.000000 -0.016909 0.000000 0.057066
#
#
# Mechanical properties :
#
#
# Convention : Reuss Voigt Hill
#
# Bulk Modulus (GPa) = 5.80617 43.20628 24.50622
# Shear Modulus (GPa) = 11.41854 25.30705 18.36279
#
# Velocity S-wave (km/s) = 2.45351 3.65261 3.11137
# Velocity P-wave (km/s) = 3.32975 6.36918 5.08201
#
# Compressibility (1/GPa) = 0.17223065
#
# Stress axis : x y z
#
# Youngs Moduli (GPa) = 10.73453 41.41774 51.30816
#
# Poissons Ratio (x) = -0.29624 -0.76794
# Poissons Ratio (y) = -0.07678 0.22576
# Poissons Ratio (z) = -0.16066 0.18224
#
# Static dielectric constant tensor:
#      x y z
#    x 1.688740 0.000000 0.040580 
#    y 0.000000 1.654540 0.000000 
#    z 0.040580 0.000000 1.714380 
# 
# From -- ./inp_files/108742.got.cif
#   From: 2010.05.17/outbox.cif.g08.bks.cpg/sg12_55_cif.got.tgz:108742.got - 2010.06.03 13:09:07.
